REMARK SMILES CC(C)[N@@H+](C)Cc1cc2c(cc1Cl)C=C(C(=O)NCCCCCCNC(=O)c1ccc(-c3c4nc(c(-c5c(F)c(F)c(F)c(F)c5F)c5ccc([nH]5)c(-c5c(F)c(F)c(F)c(F)c5F)c5nc(c(-c6c(F)c(F)c(F)c(F)c6F)c6ccc3[nH]6)C=C5)C=C4)cc1)[C@@H](C(F)(F)F)O2
REMARK SMILES IDX 21 1 20 2 19 3 18 4 16 5 17 6 15 8 7 9 8 10 12 11 9 12 11 13
REMARK SMILES IDX 13 14 10 15 96 16 14 17 91 18 6 19 4 20 5 21 2 23 1 24 3 25
REMARK SMILES IDX 92 26 93 27 94 28 95 29 22 30 23 31 24 32 25 33 26 34 27 36
REMARK SMILES IDX 28 37 29 38 90 39 30 40 89 41 31 42 32 43 33 44 83 45 34 46
REMARK SMILES IDX 88 47 82 48 84 49 35 50 87 51 81 52 80 53 36 55 68 56 48 57
REMARK SMILES IDX 67 58 49 59 52 60 66 61 85 62 50 63 51 64 65 66 86 67 53 68
REMARK SMILES IDX 37 69 38 70 46 71 39 72 40 73 44 74 47 75 41 76 42 77 45 78
REMARK SMILES IDX 43 79 69 80 70 81 78 82 71 83 72 84 76 85 79 86 73 87 74 88
REMARK SMILES IDX 77 89 75 90 54 91 55 92 63 93 56 94 57 95 61 96 64 97 58 98
REMARK SMILES IDX 59 99 62 100 60 101
REMARK H PARENT 18 7 4 22 25 35 84 54 52 65
REMARK Flexibility Score: inf
ROOT
ATOM      1  C   UNL     1       3.639  -1.157 -11.625  1.00  0.00     0.002 C 
ENDROOT
BRANCH   1   2
ATOM      2  C   UNL     1       3.264  -0.793 -10.187  1.00  0.00     0.021 C 
BRANCH   2   3
ATOM      3  C   UNL     1       1.786  -0.977  -9.860  1.00  0.00     0.116 C 
BRANCH   3   4
ATOM      4  N   UNL     1       1.466  -2.344  -9.483  1.00  0.00    -0.352 N 
ATOM      5  C   UNL     1       0.856  -2.974  -8.448  1.00  0.00     0.251 C 
ATOM      6  O   UNL     1       0.748  -4.199  -8.564  1.00  0.00    -0.270 OA
ATOM      7  H   UNL     1       1.776  -2.986 -10.162  1.00  0.00     0.163 HD
BRANCH   5   8
ATOM      8  C   UNL     1       0.334  -2.304  -7.218  1.00  0.00     0.067 C 
ATOM      9  C   UNL     1      -1.187  -1.266  -2.499  1.00  0.00     0.029 A 
ATOM     10  C   UNL     1      -0.896  -0.533  -3.649  1.00  0.00     0.058 A 
ATOM     11  C   UNL     1      -1.222  -2.667  -2.637  1.00  0.00     0.050 A 
ATOM     12  C   UNL     1      -0.492  -1.147  -4.826  1.00  0.00     0.128 A 
ATOM     13  C   UNL     1      -0.869  -3.292  -3.849  1.00  0.00     0.033 A 
ATOM     14  Cl  UNL     1      -1.698  -3.698  -1.332  1.00  0.00    -0.084 Cl
ATOM     15  C   UNL     1      -0.469  -2.527  -4.947  1.00  0.00     0.019 A 
ATOM     16  O   UNL     1      -0.056  -0.289  -5.781  1.00  0.00    -0.475 OA
ATOM     17  C   UNL     1       0.015  -3.116  -6.190  1.00  0.00     0.025 C 
ATOM     18  C   UNL     1       0.155  -0.817  -7.106  1.00  0.00     0.314 C 
BRANCH   9  19
ATOM     19  C   UNL     1      -1.481  -0.559  -1.190  1.00  0.00     0.300 C 
BRANCH  19  20
ATOM     20  N   UNL     1      -0.855   0.744  -0.920  1.00  0.00    -0.332 N 
ATOM     21  C   UNL     1      -1.513   1.918  -1.468  1.00  0.00     0.333 C 
ATOM     22  H   UNL     1      -1.105   0.730   0.068  1.00  0.00     0.348 HD
BRANCH  20  23
ATOM     23  C   UNL     1       0.594   0.868  -0.727  1.00  0.00     0.177 C 
ATOM     24  C   UNL     1       1.081  -0.004   0.434  1.00  0.00     0.075 C 
ATOM     25  C   UNL     1       1.482   0.626  -1.952  1.00  0.00     0.075 C 
ENDBRANCH  20  23
ENDBRANCH  19  20
ENDBRANCH   9  19
BRANCH  18  26
ATOM     26  C   UNL     1      -0.964  -0.259  -7.998  1.00  0.00     0.429 C 
ATOM     27  F   UNL     1      -0.833   1.087  -8.125  1.00  0.00    -0.167 F 
ATOM     28  F   UNL     1      -0.946  -0.762  -9.251  1.00  0.00    -0.167 F 
ATOM     29  F   UNL     1      -2.194  -0.499  -7.489  1.00  0.00    -0.167 F 
ENDBRANCH  18  26
ENDBRANCH   5   8
ENDBRANCH   3   4
ENDBRANCH   2   3
ENDBRANCH   1   2
BRANCH   1  30
ATOM     30  C   UNL     1       2.844  -0.435 -12.721  1.00  0.00     0.002 C 
BRANCH  30  31
ATOM     31  C   UNL     1       2.738   1.085 -12.578  1.00  0.00     0.021 C 
BRANCH  31  32
ATOM     32  C   UNL     1       4.069   1.823 -12.525  1.00  0.00     0.116 C 
BRANCH  32  33
ATOM     33  N   UNL     1       4.845   1.676 -13.746  1.00  0.00    -0.352 N 
ATOM     34  C   UNL     1       5.496   2.637 -14.482  1.00  0.00     0.251 C 
ATOM     35  H   UNL     1       4.915   0.758 -14.094  1.00  0.00     0.163 HD
ATOM     36  O   UNL     1       5.993   2.358 -15.568  1.00  0.00    -0.269 OA
BRANCH  34  37
ATOM     37  C   UNL     1       5.563   4.024 -13.974  1.00  0.00     0.039 A 
ATOM     38  C   UNL     1       5.895   4.277 -12.642  1.00  0.00     0.014 A 
ATOM     39  C   UNL     1       5.266   5.082 -14.839  1.00  0.00     0.014 A 
ATOM     40  C   UNL     1       5.770   5.566 -12.137  1.00  0.00     0.010 A 
ATOM     41  C   UNL     1       5.223   6.390 -14.347  1.00  0.00     0.010 A 
ATOM     42  C   UNL     1       5.426   6.636 -12.980  1.00  0.00    -0.014 A 
BRANCH  42  43
ATOM     43  C   UNL     1       5.281   7.995 -12.397  1.00  0.00     0.031 A 
ATOM     44  C   UNL     1       3.941   8.677 -12.352  1.00  0.00     0.074 A 
ATOM     45  C   UNL     1       6.354   8.578 -11.829  1.00  0.00     0.049 A 
ATOM     46  N   UNL     1       3.617   9.820 -11.801  1.00  0.00    -0.248 NA
ATOM     47  C   UNL     1       2.817   7.992 -13.009  1.00  0.00     0.031 C 
ATOM     48  C   UNL     1       7.704   8.012 -11.811  1.00  0.00     0.029 A 
ATOM     49  N   UNL     1       6.475   9.749 -11.125  1.00  0.00    -0.354 N 
ATOM     50  C   UNL     1       2.263   9.996 -12.056  1.00  0.00     0.074 A 
ATOM     51  C   UNL     1       1.829   8.860 -12.837  1.00  0.00     0.031 C 
ATOM     52  C   UNL     1       8.499   8.797 -11.071  1.00  0.00     0.029 A 
ATOM     53  C   UNL     1       7.732   9.950 -10.610  1.00  0.00     0.049 A 
ATOM     54  H   UNL     1       5.733  10.384 -11.002  1.00  0.00     0.167 HD
ATOM     55  C   UNL     1       1.454  11.006 -11.657  1.00  0.00     0.037 A 
ATOM     56  C   UNL     1       8.215  10.950  -9.848  1.00  0.00     0.037 A 
ATOM     57  C   UNL     1       1.882  12.122 -10.854  1.00  0.00     0.049 A 
ATOM     58  C   UNL     1       7.303  12.073  -9.448  1.00  0.00     0.074 A 
ATOM     59  C   UNL     1       1.127  13.178 -10.375  1.00  0.00     0.029 A 
ATOM     60  N   UNL     1       3.181  12.324 -10.411  1.00  0.00    -0.354 N 
ATOM     61  N   UNL     1       6.021  12.215  -9.678  1.00  0.00    -0.248 NA
ATOM     62  C   UNL     1       7.905  13.182  -8.694  1.00  0.00     0.031 C 
ATOM     63  C   UNL     1       1.976  14.040  -9.674  1.00  0.00     0.029 A 
ATOM     64  C   UNL     1       3.252  13.501  -9.683  1.00  0.00     0.049 A 
ATOM     65  H   UNL     1       3.939  11.722 -10.588  1.00  0.00     0.167 HD
ATOM     66  C   UNL     1       5.660  13.421  -9.094  1.00  0.00     0.074 A 
ATOM     67  C   UNL     1       6.854  13.963  -8.479  1.00  0.00     0.031 C 
ATOM     68  C   UNL     1       4.448  14.026  -9.077  1.00  0.00     0.037 A 
BRANCH  55  69
ATOM     69  C   UNL     1       0.014  10.961 -12.075  1.00  0.00     0.064 A 
ATOM     70  C   UNL     1      -0.893  10.070 -11.482  1.00  0.00     0.173 A 
ATOM     71  C   UNL     1      -0.482  11.871 -13.020  1.00  0.00     0.173 A 
ATOM     72  F   UNL     1      -0.466   9.173 -10.580  1.00  0.00    -0.203 F 
ATOM     73  C   UNL     1      -2.241  10.084 -11.830  1.00  0.00     0.198 A 
ATOM     74  C   UNL     1      -1.835  11.899 -13.348  1.00  0.00     0.198 A 
ATOM     75  F   UNL     1       0.343  12.750 -13.610  1.00  0.00    -0.203 F 
ATOM     76  F   UNL     1      -3.085   9.206 -11.271  1.00  0.00    -0.200 F 
ATOM     77  C   UNL     1      -2.713  11.004 -12.755  1.00  0.00     0.200 A 
ATOM     78  F   UNL     1      -2.291  12.797 -14.232  1.00  0.00    -0.200 F 
ATOM     79  F   UNL     1      -4.014  11.027 -13.076  1.00  0.00    -0.200 F 
ENDBRANCH  55  69
BRANCH  56  80
ATOM     80  C   UNL     1       9.632  10.912  -9.403  1.00  0.00     0.064 A 
ATOM     81  C   UNL     1       9.956  10.677  -8.061  1.00  0.00     0.173 A 
ATOM     82  C   UNL     1      10.687  11.066 -10.315  1.00  0.00     0.173 A 
ATOM     83  F   UNL     1       8.981  10.541  -7.150  1.00  0.00    -0.203 F 
ATOM     84  C   UNL     1      11.284  10.597  -7.646  1.00  0.00     0.198 A 
ATOM     85  C   UNL     1      12.013  10.960  -9.904  1.00  0.00     0.198 A 
ATOM     86  F   UNL     1      10.427  11.289 -11.611  1.00  0.00    -0.203 F 
ATOM     87  F   UNL     1      11.569  10.394  -6.353  1.00  0.00    -0.200 F 
ATOM     88  C   UNL     1      12.311  10.729  -8.570  1.00  0.00     0.200 A 
ATOM     89  F   UNL     1      13.001  11.070 -10.802  1.00  0.00    -0.200 F 
ATOM     90  F   UNL     1      13.587  10.633  -8.173  1.00  0.00    -0.200 F 
ENDBRANCH  56  80
BRANCH  68  91
ATOM     91  C   UNL     1       4.341  15.344  -8.373  1.00  0.00     0.064 A 
ATOM     92  C   UNL     1       4.834  16.520  -8.955  1.00  0.00     0.173 A 
ATOM     93  C   UNL     1       3.661  15.446  -7.150  1.00  0.00     0.173 A 
ATOM     94  F   UNL     1       5.502  16.469 -10.117  1.00  0.00    -0.203 F 
ATOM     95  C   UNL     1       4.653  17.753  -8.335  1.00  0.00     0.198 A 
ATOM     96  C   UNL     1       3.462  16.683  -6.545  1.00  0.00     0.198 A 
ATOM     97  F   UNL     1       3.166  14.349  -6.559  1.00  0.00    -0.203 F 
ATOM     98  F   UNL     1       5.150  18.863  -8.898  1.00  0.00    -0.200 F 
ATOM     99  C   UNL     1       3.959  17.835  -7.137  1.00  0.00     0.200 A 
ATOM    100  F   UNL     1       2.780  16.762  -5.394  1.00  0.00    -0.200 F 
ATOM    101  F   UNL     1       3.769  19.025  -6.552  1.00  0.00    -0.200 F 
ENDBRANCH  68  91
ENDBRANCH  42  43
ENDBRANCH  34  37
ENDBRANCH  32  33
ENDBRANCH  31  32
ENDBRANCH  30  31
ENDBRANCH   1  30
TORSDOF 17
