REMARK SMILES Cc1ccccc1[C@H](C(=O)NC[C@H]1CC[C@@H](C(=O)NCCCCCCNC(=O)c2ccc(-c3c4nc(c(-c5c(F)c(F)c(F)c(F)c5F)c5ccc([nH]5)c(-c5c(F)c(F)c(F)c(F)c5F)c5nc(c(-c6c(F)c(F)c(F)c(F)c6F)c6ccc3[nH]6)C=C5)C=C4)cc2)CC1)[NH+](C)C
REMARK SMILES IDX 21 1 20 2 19 3 17 4 18 5 16 7 13 8 14 9 93 10 15 11 92 12
REMARK SMILES IDX 12 13 11 14 9 15 10 16 8 18 7 19 1 20 2 21 3 22 4 23 6 24
REMARK SMILES IDX 5 25 94 26 95 27 96 28 22 30 23 31 24 32 25 33 26 34 27 35
REMARK SMILES IDX 28 37 29 38 30 39 91 40 31 41 90 42 32 43 33 44 34 45 84 46
REMARK SMILES IDX 35 47 89 48 83 49 85 50 36 51 88 52 82 53 81 54 37 56 69 57
REMARK SMILES IDX 49 58 68 59 50 60 53 61 67 62 86 63 51 64 52 65 66 67 87 68
REMARK SMILES IDX 54 69 38 70 39 71 47 72 40 73 41 74 45 75 48 76 42 77 43 78
REMARK SMILES IDX 46 79 44 80 70 81 71 82 79 83 72 84 73 85 77 86 80 87 74 88
REMARK SMILES IDX 75 89 78 90 76 91 55 92 56 93 64 94 57 95 58 96 62 97 65 98
REMARK SMILES IDX 59 99 60 100 63 101 61 102
REMARK H PARENT 19 6 11 17 94 29 26 36 85 55 53 66
REMARK Flexibility Score: inf
ROOT
ATOM      1  C   UNL     1       3.513   0.507  -2.929  1.00  0.00     0.021 C 
ENDROOT
BRANCH   1   2
ATOM      2  C   UNL     1       3.135   1.513  -4.023  1.00  0.00     0.116 C 
BRANCH   2   3
ATOM      3  N   UNL     1       1.896   1.152  -4.759  1.00  0.00    -0.356 N 
ATOM      4  C   UNL     1       1.261   2.075  -5.564  1.00  0.00     0.223 C 
ATOM      5  O   UNL     1       1.916   2.997  -6.060  1.00  0.00    -0.275 OA
ATOM      6  H   UNL     1       1.525   0.244  -4.671  1.00  0.00     0.163 HD
BRANCH   4   7
ATOM      7  C   UNL     1      -0.280   1.986  -5.824  1.00  0.00     0.078 C 
ATOM      8  C   UNL     1      -2.433   2.664  -3.653  1.00  0.00     0.008 C 
ATOM      9  C   UNL     1      -1.853   3.757  -4.573  1.00  0.00     0.006 C 
ATOM     10  C   UNL     1      -1.710   1.321  -3.759  1.00  0.00     0.006 C 
ATOM     11  C   UNL     1      -0.932   3.388  -5.751  1.00  0.00     0.014 C 
ATOM     12  C   UNL     1      -1.165   0.945  -5.139  1.00  0.00     0.014 C 
BRANCH   8  13
ATOM     13  C   UNL     1      -2.657   3.250  -2.196  1.00  0.00     0.119 C 
BRANCH  13  14
ATOM     14  N   UNL     1      -2.588   2.334  -1.056  1.00  0.00    -0.350 N 
ATOM     15  C   UNL     1      -1.972   2.396   0.175  1.00  0.00     0.283 C 
ATOM     16  O   UNL     1      -2.376   1.550   0.992  1.00  0.00    -0.268 OA
ATOM     17  H   UNL     1      -3.088   1.498  -1.198  1.00  0.00     0.163 HD
BRANCH  15  18
ATOM     18  C   UNL     1      -0.754   3.334   0.580  1.00  0.00     0.305 C 
BRANCH  18  19
ATOM     19  C   UNL     1      -0.052   4.047  -0.559  1.00  0.00     0.022 A 
ATOM     20  C   UNL     1       0.712   1.771  -1.416  1.00  0.00     0.045 C 
ATOM     21  C   UNL     1       0.521   3.260  -1.570  1.00  0.00    -0.041 A 
ATOM     22  C   UNL     1       0.977   3.909  -2.717  1.00  0.00     0.004 A 
ATOM     23  C   UNL     1       1.069   5.289  -2.825  1.00  0.00     0.000 A 
ATOM     24  C   UNL     1       0.033   5.450  -0.676  1.00  0.00     0.011 A 
ATOM     25  C   UNL     1       0.637   6.066  -1.773  1.00  0.00     0.001 A 
ENDBRANCH  18  19
BRANCH  18  26
ATOM     26  N   UNL     1      -0.976   4.059   1.858  1.00  0.00    -0.326 N 
ATOM     27  C   UNL     1       0.150   4.841   2.369  1.00  0.00     0.333 C 
ATOM     28  C   UNL     1      -2.241   4.756   1.971  1.00  0.00     0.333 C 
ATOM     29  H   UNL     1      -1.044   3.273   2.504  1.00  0.00     0.348 HD
ENDBRANCH  18  26
ENDBRANCH  15  18
ENDBRANCH  13  14
ENDBRANCH   8  13
ENDBRANCH   4   7
ENDBRANCH   2   3
ENDBRANCH   1   2
BRANCH   1  30
ATOM     30  C   UNL     1       4.304   0.958  -1.660  1.00  0.00     0.002 C 
BRANCH  30  31
ATOM     31  C   UNL     1       4.619   2.433  -1.341  1.00  0.00     0.002 C 
BRANCH  31  32
ATOM     32  C   UNL     1       3.869   3.168  -0.206  1.00  0.00     0.021 C 
BRANCH  32  33
ATOM     33  C   UNL     1       3.751   2.470   1.157  1.00  0.00     0.116 C 
BRANCH  33  34
ATOM     34  N   UNL     1       3.898   3.411   2.281  1.00  0.00    -0.352 N 
ATOM     35  C   UNL     1       3.585   3.271   3.627  1.00  0.00     0.251 C 
ATOM     36  H   UNL     1       4.283   4.284   2.037  1.00  0.00     0.163 HD
ATOM     37  O   UNL     1       3.970   4.069   4.451  1.00  0.00    -0.269 OA
BRANCH  35  38
ATOM     38  C   UNL     1       2.810   2.085   4.046  1.00  0.00     0.039 A 
ATOM     39  C   UNL     1       3.341   1.203   4.987  1.00  0.00     0.014 A 
ATOM     40  C   UNL     1       1.625   1.787   3.388  1.00  0.00     0.014 A 
ATOM     41  C   UNL     1       2.820  -0.088   5.063  1.00  0.00     0.010 A 
ATOM     42  C   UNL     1       1.115   0.510   3.440  1.00  0.00     0.010 A 
ATOM     43  C   UNL     1       1.777  -0.449   4.205  1.00  0.00    -0.014 A 
BRANCH  43  44
ATOM     44  C   UNL     1       1.430  -1.829   3.909  1.00  0.00     0.031 A 
ATOM     45  C   UNL     1       0.359  -2.525   4.634  1.00  0.00     0.074 A 
ATOM     46  C   UNL     1       2.078  -2.466   2.908  1.00  0.00     0.049 A 
ATOM     47  N   UNL     1       0.351  -3.801   4.829  1.00  0.00    -0.248 NA
ATOM     48  C   UNL     1      -0.779  -1.833   5.218  1.00  0.00     0.031 C 
ATOM     49  C   UNL     1       1.739  -3.752   2.308  1.00  0.00     0.029 A 
ATOM     50  N   UNL     1       3.325  -2.140   2.353  1.00  0.00    -0.354 N 
ATOM     51  C   UNL     1      -0.886  -4.135   5.322  1.00  0.00     0.074 A 
ATOM     52  C   UNL     1      -1.526  -2.869   5.616  1.00  0.00     0.031 C 
ATOM     53  C   UNL     1       2.836  -4.258   1.726  1.00  0.00     0.029 A 
ATOM     54  C   UNL     1       3.943  -3.374   2.041  1.00  0.00     0.049 A 
ATOM     55  H   UNL     1       3.694  -1.238   2.210  1.00  0.00     0.167 HD
ATOM     56  C   UNL     1      -1.283  -5.441   5.304  1.00  0.00     0.037 A 
ATOM     57  C   UNL     1       5.111  -3.742   2.645  1.00  0.00     0.037 A 
ATOM     58  C   UNL     1      -0.269  -6.312   4.710  1.00  0.00     0.049 A 
ATOM     59  C   UNL     1       5.022  -4.999   3.481  1.00  0.00     0.074 A 
ATOM     60  C   UNL     1      -0.103  -6.865   3.450  1.00  0.00     0.029 A 
ATOM     61  N   UNL     1       0.936  -6.495   5.364  1.00  0.00    -0.354 N 
ATOM     62  N   UNL     1       3.932  -5.686   3.668  1.00  0.00    -0.248 NA
ATOM     63  C   UNL     1       6.143  -5.503   4.275  1.00  0.00     0.031 C 
ATOM     64  C   UNL     1       1.206  -7.417   3.371  1.00  0.00     0.029 A 
ATOM     65  C   UNL     1       1.836  -7.195   4.580  1.00  0.00     0.049 A 
ATOM     66  H   UNL     1       1.129  -6.167   6.272  1.00  0.00     0.167 HD
ATOM     67  C   UNL     1       4.157  -6.640   4.627  1.00  0.00     0.074 A 
ATOM     68  C   UNL     1       5.555  -6.483   4.979  1.00  0.00     0.031 C 
ATOM     69  C   UNL     1       3.168  -7.455   5.098  1.00  0.00     0.037 A 
BRANCH  56  70
ATOM     70  C   UNL     1      -2.697  -5.890   5.587  1.00  0.00     0.064 A 
ATOM     71  C   UNL     1      -3.235  -7.033   4.957  1.00  0.00     0.173 A 
ATOM     72  C   UNL     1      -3.583  -5.219   6.449  1.00  0.00     0.173 A 
ATOM     73  F   UNL     1      -2.478  -7.847   4.211  1.00  0.00    -0.203 F 
ATOM     74  C   UNL     1      -4.582  -7.387   5.070  1.00  0.00     0.198 A 
ATOM     75  C   UNL     1      -4.943  -5.537   6.519  1.00  0.00     0.198 A 
ATOM     76  F   UNL     1      -3.147  -4.268   7.287  1.00  0.00    -0.203 F 
ATOM     77  F   UNL     1      -5.037  -8.477   4.437  1.00  0.00    -0.200 F 
ATOM     78  C   UNL     1      -5.446  -6.613   5.815  1.00  0.00     0.200 A 
ATOM     79  F   UNL     1      -5.763  -4.794   7.276  1.00  0.00    -0.200 F 
ATOM     80  F   UNL     1      -6.748  -6.919   5.878  1.00  0.00    -0.200 F 
ENDBRANCH  56  70
BRANCH  57  81
ATOM     81  C   UNL     1       5.965  -2.568   2.971  1.00  0.00     0.064 A 
ATOM     82  C   UNL     1       6.405  -1.757   1.907  1.00  0.00     0.173 A 
ATOM     83  C   UNL     1       5.973  -2.019   4.259  1.00  0.00     0.173 A 
ATOM     84  F   UNL     1       6.424  -2.243   0.655  1.00  0.00    -0.203 F 
ATOM     85  C   UNL     1       6.673  -0.406   2.100  1.00  0.00     0.198 A 
ATOM     86  C   UNL     1       6.279  -0.673   4.452  1.00  0.00     0.198 A 
ATOM     87  F   UNL     1       5.568  -2.743   5.312  1.00  0.00    -0.203 F 
ATOM     88  F   UNL     1       6.926   0.382   1.045  1.00  0.00    -0.200 F 
ATOM     89  C   UNL     1       6.575   0.142   3.368  1.00  0.00     0.200 A 
ATOM     90  F   UNL     1       6.188  -0.143   5.679  1.00  0.00    -0.200 F 
ATOM     91  F   UNL     1       6.717   1.463   3.538  1.00  0.00    -0.200 F 
ENDBRANCH  57  81
BRANCH  69  92
ATOM     92  C   UNL     1       3.387  -8.550   6.108  1.00  0.00     0.064 A 
ATOM     93  C   UNL     1       4.534  -9.361   6.110  1.00  0.00     0.173 A 
ATOM     94  C   UNL     1       2.396  -8.893   7.055  1.00  0.00     0.173 A 
ATOM     95  F   UNL     1       5.487  -9.211   5.178  1.00  0.00    -0.203 F 
ATOM     96  C   UNL     1       4.720 -10.375   7.053  1.00  0.00     0.198 A 
ATOM     97  C   UNL     1       2.559  -9.942   7.958  1.00  0.00     0.198 A 
ATOM     98  F   UNL     1       1.245  -8.213   7.148  1.00  0.00    -0.203 F 
ATOM     99  F   UNL     1       5.864 -11.074   7.059  1.00  0.00    -0.200 F 
ATOM    100  C   UNL     1       3.732 -10.667   7.974  1.00  0.00     0.200 A 
ATOM    101  F   UNL     1       1.574 -10.237   8.818  1.00  0.00    -0.200 F 
ATOM    102  F   UNL     1       3.906 -11.648   8.870  1.00  0.00    -0.200 F 
ENDBRANCH  69  92
ENDBRANCH  43  44
ENDBRANCH  35  38
ENDBRANCH  33  34
ENDBRANCH  32  33
ENDBRANCH  31  32
ENDBRANCH  30  31
ENDBRANCH   1  30
TORSDOF 18
