REMARK SMILES CC(C)CCc1cc2c(cc1Cl)C=C(C(=O)NCCCCCCNC(=O)c1ccc(-c3c4nc(c(-c5c(F)c(F)c(F)c(F)c5F)c5ccc([nH]5)c(-c5c(F)c(F)c(F)c(F)c5F)c5nc(c(-c6c(F)c(F)c(F)c(F)c6F)c6ccc3[nH]6)C=C5)C=C4)cc1)[C@H](C(F)(F)F)O2
REMARK SMILES IDX 20 1 19 2 18 3 17 4 15 5 16 6 14 8 6 9 7 10 11 11 8 12 10 13
REMARK SMILES IDX 12 14 9 15 95 16 13 17 90 18 5 19 4 20 2 21 1 22 3 23 91 24
REMARK SMILES IDX 92 25 93 26 94 27 21 28 22 29 23 30 24 31 25 32 26 34 27 35
REMARK SMILES IDX 28 36 89 37 29 38 88 39 30 40 31 41 32 42 82 43 33 44 87 45
REMARK SMILES IDX 81 46 83 47 34 48 86 49 80 50 79 51 35 53 67 54 47 55 66 56
REMARK SMILES IDX 48 57 51 58 65 59 84 60 49 61 50 62 64 64 85 65 52 66 36 67
REMARK SMILES IDX 37 68 45 69 38 70 39 71 43 72 46 73 40 74 41 75 44 76 42 77
REMARK SMILES IDX 68 78 69 79 77 80 70 81 71 82 75 83 78 84 72 85 73 86 76 87
REMARK SMILES IDX 74 88 53 89 54 90 62 91 55 92 56 93 60 94 63 95 57 96 58 97
REMARK SMILES IDX 61 98 59 99
REMARK H PARENT 17 7 24 33 83 52 51 63
REMARK Flexibility Score: inf
ROOT
ATOM      1  C   UNL     1       1.993  -5.634  10.885  1.00  0.00     0.002 C 
ENDROOT
BRANCH   1   2
ATOM      2  C   UNL     1       1.550  -4.706   9.751  1.00  0.00     0.021 C 
BRANCH   2   3
ATOM      3  C   UNL     1       2.240  -4.975   8.414  1.00  0.00     0.116 C 
BRANCH   3   4
ATOM      4  N   UNL     1       1.562  -6.011   7.655  1.00  0.00    -0.352 N 
ATOM      5  C   UNL     1       0.838  -6.105   6.514  1.00  0.00     0.251 C 
ATOM      6  O   UNL     1       0.488  -7.250   6.210  1.00  0.00    -0.270 OA
ATOM      7  H   UNL     1       1.653  -6.889   8.091  1.00  0.00     0.163 HD
BRANCH   5   8
ATOM      8  C   UNL     1       0.450  -4.961   5.634  1.00  0.00     0.067 C 
ATOM      9  C   UNL     1      -1.213  -2.124   1.781  1.00  0.00    -0.026 A 
ATOM     10  C   UNL     1      -0.612  -1.877   3.021  1.00  0.00     0.052 A 
ATOM     11  C   UNL     1      -1.508  -3.464   1.463  1.00  0.00     0.045 A 
ATOM     12  C   UNL     1      -0.233  -2.918   3.862  1.00  0.00     0.128 A 
ATOM     13  C   UNL     1      -1.154  -4.512   2.329  1.00  0.00     0.032 A 
ATOM     14  Cl  UNL     1      -2.318  -3.888  -0.005  1.00  0.00    -0.084 Cl
ATOM     15  C   UNL     1      -0.497  -4.240   3.530  1.00  0.00     0.019 A 
ATOM     16  O   UNL     1       0.456  -2.545   4.975  1.00  0.00    -0.475 OA
ATOM     17  C   UNL     1      -0.056  -5.297   4.431  1.00  0.00     0.025 C 
ATOM     18  C   UNL     1       0.544  -3.518   6.043  1.00  0.00     0.314 C 
BRANCH   9  19
ATOM     19  C   UNL     1      -1.544  -0.988   0.833  1.00  0.00     0.037 C 
BRANCH  19  20
ATOM     20  C   UNL     1      -0.939   0.399   1.135  1.00  0.00     0.008 C 
BRANCH  20  21
ATOM     21  C   UNL     1       0.604   0.483   1.090  1.00  0.00    -0.017 C 
ATOM     22  C   UNL     1       1.158   0.263  -0.316  1.00  0.00     0.007 C 
ATOM     23  C   UNL     1       1.066   1.837   1.637  1.00  0.00     0.007 C 
ENDBRANCH  20  21
ENDBRANCH  19  20
ENDBRANCH   9  19
BRANCH  18  24
ATOM     24  C   UNL     1      -0.443  -3.119   7.151  1.00  0.00     0.429 C 
ATOM     25  F   UNL     1      -0.860  -4.168   7.893  1.00  0.00    -0.167 F 
ATOM     26  F   UNL     1       0.145  -2.244   8.008  1.00  0.00    -0.167 F 
ATOM     27  F   UNL     1      -1.554  -2.518   6.667  1.00  0.00    -0.167 F 
ENDBRANCH  18  24
ENDBRANCH   5   8
ENDBRANCH   3   4
ENDBRANCH   2   3
ENDBRANCH   1   2
BRANCH   1  28
ATOM     28  C   UNL     1       3.481  -5.570  11.248  1.00  0.00     0.002 C 
BRANCH  28  29
ATOM     29  C   UNL     1       4.046  -4.166  11.470  1.00  0.00     0.021 C 
BRANCH  29  30
ATOM     30  C   UNL     1       3.327  -3.345  12.535  1.00  0.00     0.116 C 
BRANCH  30  31
ATOM     31  N   UNL     1       3.450  -3.925  13.863  1.00  0.00    -0.352 N 
ATOM     32  C   UNL     1       3.942  -3.366  15.017  1.00  0.00     0.251 C 
ATOM     33  H   UNL     1       3.135  -4.854  13.947  1.00  0.00     0.163 HD
ATOM     34  O   UNL     1       4.124  -4.057  16.015  1.00  0.00    -0.269 OA
BRANCH  32  35
ATOM     35  C   UNL     1       4.287  -1.929  15.043  1.00  0.00     0.039 A 
ATOM     36  C   UNL     1       3.406  -0.976  14.527  1.00  0.00     0.014 A 
ATOM     37  C   UNL     1       5.520  -1.537  15.572  1.00  0.00     0.014 A 
ATOM     38  C   UNL     1       3.824   0.344  14.392  1.00  0.00     0.010 A 
ATOM     39  C   UNL     1       5.907  -0.196  15.504  1.00  0.00     0.010 A 
ATOM     40  C   UNL     1       5.082   0.746  14.869  1.00  0.00    -0.014 A 
BRANCH  40  41
ATOM     41  C   UNL     1       5.526   2.150  14.673  1.00  0.00     0.031 A 
ATOM     42  C   UNL     1       6.685   2.466  13.768  1.00  0.00     0.074 A 
ATOM     43  C   UNL     1       4.848   3.147  15.272  1.00  0.00     0.049 A 
ATOM     44  N   UNL     1       7.210   3.629  13.473  1.00  0.00    -0.248 NA
ATOM     45  C   UNL     1       7.345   1.329  13.108  1.00  0.00     0.031 C 
ATOM     46  C   UNL     1       3.699   2.966  16.159  1.00  0.00     0.029 A 
ATOM     47  N   UNL     1       5.011   4.507  15.209  1.00  0.00    -0.354 N 
ATOM     48  C   UNL     1       8.267   3.363  12.613  1.00  0.00     0.074 A 
ATOM     49  C   UNL     1       8.330   1.927  12.452  1.00  0.00     0.031 C 
ATOM     50  C   UNL     1       3.229   4.170  16.519  1.00  0.00     0.029 A 
ATOM     51  C   UNL     1       4.079   5.204  15.937  1.00  0.00     0.049 A 
ATOM     52  H   UNL     1       5.728   4.941  14.693  1.00  0.00     0.167 HD
ATOM     53  C   UNL     1       9.101   4.239  12.003  1.00  0.00     0.037 A 
ATOM     54  C   UNL     1       3.931   6.529  16.125  1.00  0.00     0.037 A 
ATOM     55  C   UNL     1       9.020   5.670  12.142  1.00  0.00     0.049 A 
ATOM     56  C   UNL     1       4.896   7.476  15.471  1.00  0.00     0.074 A 
ATOM     57  C   UNL     1       9.801   6.641  11.540  1.00  0.00     0.029 A 
ATOM     58  N   UNL     1       8.100   6.335  12.940  1.00  0.00    -0.354 N 
ATOM     59  N   UNL     1       5.890   7.212  14.659  1.00  0.00    -0.248 NA
ATOM     60  C   UNL     1       4.726   8.905  15.770  1.00  0.00     0.031 C 
ATOM     61  C   UNL     1       9.380   7.891  12.003  1.00  0.00     0.029 A 
ATOM     62  C   UNL     1       8.310   7.703  12.862  1.00  0.00     0.049 A 
ATOM     63  H   UNL     1       7.402   5.900  13.481  1.00  0.00     0.167 HD
ATOM     64  C   UNL     1       6.463   8.436  14.348  1.00  0.00     0.074 A 
ATOM     65  C   UNL     1       5.690   9.448  15.039  1.00  0.00     0.031 C 
ATOM     66  C   UNL     1       7.539   8.696  13.566  1.00  0.00     0.037 A 
BRANCH  53  67
ATOM     67  C   UNL     1      10.184   3.680  11.128  1.00  0.00     0.064 A 
ATOM     68  C   UNL     1       9.902   3.133   9.868  1.00  0.00     0.173 A 
ATOM     69  C   UNL     1      11.527   3.746  11.530  1.00  0.00     0.173 A 
ATOM     70  F   UNL     1       8.633   3.036   9.443  1.00  0.00    -0.203 F 
ATOM     71  C   UNL     1      10.923   2.657   9.049  1.00  0.00     0.198 A 
ATOM     72  C   UNL     1      12.547   3.291  10.698  1.00  0.00     0.198 A 
ATOM     73  F   UNL     1      11.851   4.265  12.724  1.00  0.00    -0.203 F 
ATOM     74  F   UNL     1      10.627   2.107   7.863  1.00  0.00    -0.200 F 
ATOM     75  C   UNL     1      12.245   2.744   9.461  1.00  0.00     0.200 A 
ATOM     76  F   UNL     1      13.825   3.386  11.094  1.00  0.00    -0.200 F 
ATOM     77  F   UNL     1      13.226   2.295   8.667  1.00  0.00    -0.200 F 
ENDBRANCH  53  67
BRANCH  54  78
ATOM     78  C   UNL     1       2.817   7.026  16.971  1.00  0.00     0.064 A 
ATOM     79  C   UNL     1       1.723   7.689  16.401  1.00  0.00     0.173 A 
ATOM     80  C   UNL     1       2.805   6.812  18.357  1.00  0.00     0.173 A 
ATOM     81  F   UNL     1       1.701   7.934  15.083  1.00  0.00    -0.203 F 
ATOM     82  C   UNL     1       0.657   8.120  17.187  1.00  0.00     0.198 A 
ATOM     83  C   UNL     1       1.727   7.221  19.138  1.00  0.00     0.198 A 
ATOM     84  F   UNL     1       3.830   6.180  18.948  1.00  0.00    -0.203 F 
ATOM     85  F   UNL     1      -0.368   8.773  16.622  1.00  0.00    -0.200 F 
ATOM     86  C   UNL     1       0.655   7.877  18.553  1.00  0.00     0.200 A 
ATOM     87  F   UNL     1       1.723   6.970  20.454  1.00  0.00    -0.200 F 
ATOM     88  F   UNL     1      -0.379   8.276  19.305  1.00  0.00    -0.200 F 
ENDBRANCH  54  78
BRANCH  66  89
ATOM     89  C   UNL     1       7.951  10.130  13.418  1.00  0.00     0.064 A 
ATOM     90  C   UNL     1       8.600  10.811  14.458  1.00  0.00     0.173 A 
ATOM     91  C   UNL     1       7.749  10.810  12.208  1.00  0.00     0.173 A 
ATOM     92  F   UNL     1       8.802  10.207  15.638  1.00  0.00    -0.203 F 
ATOM     93  C   UNL     1       9.020  12.129  14.296  1.00  0.00     0.198 A 
ATOM     94  C   UNL     1       8.193  12.119  12.041  1.00  0.00     0.198 A 
ATOM     95  F   UNL     1       7.139  10.199  11.182  1.00  0.00    -0.203 F 
ATOM     96  F   UNL     1       9.608  12.772  15.314  1.00  0.00    -0.200 F 
ATOM     97  C   UNL     1       8.824  12.778  13.086  1.00  0.00     0.200 A 
ATOM     98  F   UNL     1       8.014  12.741  10.868  1.00  0.00    -0.200 F 
ATOM     99  F   UNL     1       9.239  14.042  12.928  1.00  0.00    -0.200 F 
ENDBRANCH  66  89
ENDBRANCH  40  41
ENDBRANCH  32  35
ENDBRANCH  30  31
ENDBRANCH  29  30
ENDBRANCH  28  29
ENDBRANCH   1  28
TORSDOF 17
