REMARK SMILES [NH3+][C@@H](CC(=O)NCCCCCCNC(=O)c1ccc(-c2c3nc(c(-c4c(F)c(F)c(F)c(F)c4F)c4ccc([nH]4)c(-c4c(F)c(F)c(F)c(F)c4F)c4nc(c(-c5c(F)c(F)c(F)c(F)c5F)c5ccc2[nH]5)C=C4)C=C3)cc1)Cc1ccc(F)cc1
REMARK SMILES IDX 9 1 8 2 7 3 6 4 4 5 5 6 3 8 2 9 1 10 79 14 80 15 81 16 86 17
REMARK SMILES IDX 82 18 85 19 83 20 84 21 10 22 11 23 12 24 13 25 14 26 15 28
REMARK SMILES IDX 16 29 17 30 78 31 18 32 77 33 19 34 20 35 21 36 71 37 22 38
REMARK SMILES IDX 76 39 70 40 72 41 23 42 75 43 69 44 68 45 24 47 56 48 36 49
REMARK SMILES IDX 55 50 37 51 40 52 54 53 73 54 38 55 39 56 53 58 74 59 41 60
REMARK SMILES IDX 25 61 26 62 34 63 27 64 28 65 32 66 35 67 29 68 30 69 33 70
REMARK SMILES IDX 31 71 57 72 58 73 66 74 59 75 60 76 64 77 67 78 61 79 62 80
REMARK SMILES IDX 65 81 63 82 42 83 43 84 51 85 44 86 45 87 49 88 52 89 46 90
REMARK SMILES IDX 47 91 50 92 48 93
REMARK H PARENT 6 7 1 11 1 12 1 13 13 27 72 46 40 57
REMARK Flexibility Score: inf
ROOT
ATOM      1  C   UNL     1       0.689   3.997   0.111  1.00  0.00     0.002 C 
ENDROOT
BRANCH   1   2
ATOM      2  C   UNL     1       1.072   2.518  -0.022  1.00  0.00     0.021 C 
BRANCH   2   3
ATOM      3  C   UNL     1       1.886   1.987   1.160  1.00  0.00     0.116 C 
BRANCH   3   4
ATOM      4  N   UNL     1       1.027   1.751   2.300  1.00  0.00    -0.356 N 
ATOM      5  C   UNL     1       0.596   0.575   2.830  1.00  0.00     0.225 C 
ATOM      6  O   UNL     1      -0.237   0.615   3.738  1.00  0.00    -0.275 OA
ATOM      7  H   UNL     1       0.707   2.561   2.759  1.00  0.00     0.163 HD
BRANCH   5   8
ATOM      8  C   UNL     1       1.139  -0.748   2.330  1.00  0.00     0.165 C 
BRANCH   8   9
ATOM      9  C   UNL     1       0.491  -1.339   1.062  1.00  0.00     0.194 C 
BRANCH   9  10
ATOM     10  N   UNL     1       1.233  -1.009  -0.164  1.00  0.00    -0.354 N 
ATOM     11  H   UNL     1       2.223  -1.213  -0.028  1.00  0.00     0.344 HD
ATOM     12  H   UNL     1       1.116  -0.018  -0.375  1.00  0.00     0.344 HD
ATOM     13  H   UNL     1       0.874  -1.566  -0.939  1.00  0.00     0.344 HD
ENDBRANCH   9  10
BRANCH   9  14
ATOM     14  C   UNL     1      -1.032  -1.060   0.950  1.00  0.00     0.101 C 
BRANCH  14  15
ATOM     15  C   UNL     1      -1.631  -1.407  -0.399  1.00  0.00    -0.042 A 
ATOM     16  C   UNL     1      -2.185  -0.393  -1.200  1.00  0.00     0.007 A 
ATOM     17  C   UNL     1      -1.594  -2.721  -0.889  1.00  0.00     0.007 A 
ATOM     18  C   UNL     1      -2.660  -0.684  -2.478  1.00  0.00     0.039 A 
ATOM     19  C   UNL     1      -2.068  -3.009  -2.170  1.00  0.00     0.039 A 
ATOM     20  C   UNL     1      -2.590  -1.987  -2.954  1.00  0.00     0.123 A 
ATOM     21  F   UNL     1      -3.027  -2.261  -4.190  1.00  0.00    -0.207 F 
ENDBRANCH  14  15
ENDBRANCH   9  14
ENDBRANCH   8   9
ENDBRANCH   5   8
ENDBRANCH   3   4
ENDBRANCH   2   3
ENDBRANCH   1   2
BRANCH   1  22
ATOM     22  C   UNL     1       1.875   4.966   0.168  1.00  0.00     0.002 C 
BRANCH  22  23
ATOM     23  C   UNL     1       2.855   4.856  -1.002  1.00  0.00     0.021 C 
BRANCH  23  24
ATOM     24  C   UNL     1       2.227   5.093  -2.372  1.00  0.00     0.116 C 
BRANCH  24  25
ATOM     25  N   UNL     1       1.703   6.445  -2.499  1.00  0.00    -0.352 N 
ATOM     26  C   UNL     1       2.052   7.430  -3.386  1.00  0.00     0.251 C 
ATOM     27  H   UNL     1       0.998   6.686  -1.856  1.00  0.00     0.163 HD
ATOM     28  O   UNL     1       1.681   8.588  -3.207  1.00  0.00    -0.269 OA
BRANCH  26  29
ATOM     29  C   UNL     1       2.890   7.099  -4.555  1.00  0.00     0.039 A 
ATOM     30  C   UNL     1       3.966   7.929  -4.878  1.00  0.00     0.014 A 
ATOM     31  C   UNL     1       2.614   5.968  -5.329  1.00  0.00     0.014 A 
ATOM     32  C   UNL     1       4.807   7.587  -5.938  1.00  0.00     0.010 A 
ATOM     33  C   UNL     1       3.495   5.589  -6.336  1.00  0.00     0.010 A 
ATOM     34  C   UNL     1       4.601   6.394  -6.650  1.00  0.00    -0.014 A 
BRANCH  34  35
ATOM     35  C   UNL     1       5.539   5.960  -7.715  1.00  0.00     0.031 A 
ATOM     36  C   UNL     1       5.064   5.830  -9.135  1.00  0.00     0.074 A 
ATOM     37  C   UNL     1       6.800   5.615  -7.389  1.00  0.00     0.049 A 
ATOM     38  N   UNL     1       5.707   5.389 -10.187  1.00  0.00    -0.248 NA
ATOM     39  C   UNL     1       3.671   6.222  -9.404  1.00  0.00     0.031 C 
ATOM     40  C   UNL     1       7.365   5.658  -6.039  1.00  0.00     0.029 A 
ATOM     41  N   UNL     1       7.830   5.145  -8.165  1.00  0.00    -0.354 N 
ATOM     42  C   UNL     1       4.798   5.442 -11.235  1.00  0.00     0.074 A 
ATOM     43  C   UNL     1       3.543   5.903 -10.684  1.00  0.00     0.031 C 
ATOM     44  C   UNL     1       8.644   5.253  -6.085  1.00  0.00     0.029 A 
ATOM     45  C   UNL     1       8.976   4.877  -7.455  1.00  0.00     0.049 A 
ATOM     46  H   UNL     1       7.756   5.014  -9.138  1.00  0.00     0.167 HD
ATOM     47  C   UNL     1       5.000   5.153 -12.543  1.00  0.00     0.037 A 
ATOM     48  C   UNL     1      10.155   4.370  -7.862  1.00  0.00     0.037 A 
ATOM     49  C   UNL     1       6.257   4.709 -13.087  1.00  0.00     0.049 A 
ATOM     50  C   UNL     1      10.343   4.027  -9.315  1.00  0.00     0.074 A 
ATOM     51  C   UNL     1       6.581   4.447 -14.406  1.00  0.00     0.029 A 
ATOM     52  N   UNL     1       7.396   4.452 -12.337  1.00  0.00    -0.354 N 
ATOM     53  N   UNL     1       9.499   4.151 -10.311  1.00  0.00    -0.248 NA
ATOM     54  C   UNL     1      11.649   3.475  -9.702  1.00  0.00     0.031 C 
ATOM     55  C   UNL     1       7.896   3.974 -14.449  1.00  0.00     0.029 A 
ATOM     56  C   UNL     1       8.414   4.002 -13.164  1.00  0.00     0.049 A 
ATOM     57  H   UNL     1       7.471   4.571 -11.363  1.00  0.00     0.167 HD
ATOM     58  C   UNL     1      10.178   3.721 -11.443  1.00  0.00     0.074 A 
ATOM     59  C   UNL     1      11.511   3.349 -11.014  1.00  0.00     0.031 C 
ATOM     60  C   UNL     1       9.738   3.641 -12.723  1.00  0.00     0.037 A 
BRANCH  47  61
ATOM     61  C   UNL     1       3.836   5.305 -13.479  1.00  0.00     0.064 A 
ATOM     62  C   UNL     1       3.307   6.565 -13.799  1.00  0.00     0.173 A 
ATOM     63  C   UNL     1       3.268   4.181 -14.098  1.00  0.00     0.173 A 
ATOM     64  F   UNL     1       3.806   7.672 -13.229  1.00  0.00    -0.203 F 
ATOM     65  C   UNL     1       2.235   6.691 -14.680  1.00  0.00     0.198 A 
ATOM     66  C   UNL     1       2.219   4.313 -15.004  1.00  0.00     0.198 A 
ATOM     67  F   UNL     1       3.739   2.953 -13.834  1.00  0.00    -0.203 F 
ATOM     68  F   UNL     1       1.715   7.900 -14.931  1.00  0.00    -0.200 F 
ATOM     69  C   UNL     1       1.698   5.566 -15.288  1.00  0.00     0.200 A 
ATOM     70  F   UNL     1       1.712   3.227 -15.603  1.00  0.00    -0.200 F 
ATOM     71  F   UNL     1       0.674   5.690 -16.143  1.00  0.00    -0.200 F 
ENDBRANCH  47  61
BRANCH  48  72
ATOM     72  C   UNL     1      11.254   4.163  -6.881  1.00  0.00     0.064 A 
ATOM     73  C   UNL     1      12.428   4.928  -6.942  1.00  0.00     0.173 A 
ATOM     74  C   UNL     1      11.161   3.193  -5.872  1.00  0.00     0.173 A 
ATOM     75  F   UNL     1      12.573   5.854  -7.901  1.00  0.00    -0.203 F 
ATOM     76  C   UNL     1      13.475   4.715  -6.048  1.00  0.00     0.198 A 
ATOM     77  C   UNL     1      12.195   3.003  -4.957  1.00  0.00     0.198 A 
ATOM     78  F   UNL     1      10.058   2.438  -5.765  1.00  0.00    -0.203 F 
ATOM     79  F   UNL     1      14.605   5.425  -6.161  1.00  0.00    -0.200 F 
ATOM     80  C   UNL     1      13.355   3.757  -5.052  1.00  0.00     0.200 A 
ATOM     81  F   UNL     1      12.068   2.089  -3.986  1.00  0.00    -0.200 F 
ATOM     82  F   UNL     1      14.360   3.555  -4.189  1.00  0.00    -0.200 F 
ENDBRANCH  48  72
BRANCH  60  83
ATOM     83  C   UNL     1      10.712   3.162 -13.761  1.00  0.00     0.064 A 
ATOM     84  C   UNL     1      11.131   1.824 -13.818  1.00  0.00     0.173 A 
ATOM     85  C   UNL     1      11.195   4.043 -14.741  1.00  0.00     0.173 A 
ATOM     86  F   UNL     1      10.712   0.945 -12.895  1.00  0.00    -0.203 F 
ATOM     87  C   UNL     1      12.014   1.393 -14.804  1.00  0.00     0.198 A 
ATOM     88  C   UNL     1      12.050   3.601 -15.745  1.00  0.00     0.198 A 
ATOM     89  F   UNL     1      10.821   5.332 -14.735  1.00  0.00    -0.203 F 
ATOM     90  F   UNL     1      12.438   0.121 -14.811  1.00  0.00    -0.200 F 
ATOM     91  C   UNL     1      12.465   2.278 -15.772  1.00  0.00     0.200 A 
ATOM     92  F   UNL     1      12.472   4.454 -16.689  1.00  0.00    -0.200 F 
ATOM     93  F   UNL     1      13.305   1.858 -16.728  1.00  0.00    -0.200 F 
ENDBRANCH  60  83
ENDBRANCH  34  35
ENDBRANCH  26  29
ENDBRANCH  24  25
ENDBRANCH  23  24
ENDBRANCH  22  23
ENDBRANCH   1  22
TORSDOF 17
