REMARK SMILES C[C@@H]1CN(C(=O)NC[C@@H]2CC[C@H](C(=O)NCCCCCCNC(=O)c3ccc(-c4c5nc(c(-c6c(F)c(F)c(F)c(F)c6F)c6ccc([nH]6)c(-c6c(F)c(F)c(F)c(F)c6F)c6nc(c(-c7c(F)c(F)c(F)c(F)c7F)c7ccc4[nH]7)C=C6)C=C5)cc3)O2)CC(C)(C)O1
REMARK SMILES IDX 18 1 17 2 16 3 15 4 13 5 14 6 12 8 9 9 10 10 88 11 11 12
REMARK SMILES IDX 8 13 7 14 5 15 6 16 4 18 1 19 2 20 3 21 93 22 90 23 89 24
REMARK SMILES IDX 91 25 92 26 19 27 20 28 21 29 22 30 23 31 24 33 25 34 26 35
REMARK SMILES IDX 87 36 27 37 86 38 28 39 29 40 30 41 80 42 31 43 85 44 79 45
REMARK SMILES IDX 81 46 32 47 84 48 78 49 77 50 33 52 65 53 45 54 64 55 46 56
REMARK SMILES IDX 49 57 63 58 82 59 47 60 48 61 62 63 83 64 50 65 34 66 35 67
REMARK SMILES IDX 43 68 36 69 37 70 41 71 44 72 38 73 39 74 42 75 40 76 66 77
REMARK SMILES IDX 67 78 75 79 68 80 69 81 73 82 76 83 70 84 71 85 74 86 72 87
REMARK SMILES IDX 51 88 52 89 60 90 53 91 54 92 58 93 61 94 55 95 56 96 59 97
REMARK SMILES IDX 57 98
REMARK H PARENT 15 7 7 17 22 32 81 51 49 62
REMARK Flexibility Score: inf
ROOT
ATOM      1  C   UNL     1      -1.045  -5.840  -4.500  1.00  0.00     0.002 C 
ENDROOT
BRANCH   1   2
ATOM      2  C   UNL     1      -1.260  -5.987  -2.995  1.00  0.00     0.021 C 
BRANCH   2   3
ATOM      3  C   UNL     1      -2.318  -5.046  -2.434  1.00  0.00     0.116 C 
BRANCH   3   4
ATOM      4  N   UNL     1      -3.640  -5.626  -2.433  1.00  0.00    -0.354 N 
ATOM      5  C   UNL     1      -4.485  -5.826  -1.376  1.00  0.00     0.249 C 
ATOM      6  O   UNL     1      -5.585  -6.337  -1.607  1.00  0.00    -0.272 OA
ATOM      7  H   UNL     1      -3.978  -5.918  -3.310  1.00  0.00     0.163 HD
BRANCH   5   8
ATOM      8  C   UNL     1      -4.068  -5.461   0.067  1.00  0.00     0.207 C 
ATOM      9  C   UNL     1      -2.432  -4.094   1.050  1.00  0.00     0.138 C 
ATOM     10  C   UNL     1      -1.885  -5.512   1.114  1.00  0.00     0.037 C 
ATOM     11  O   UNL     1      -3.568  -4.131   0.167  1.00  0.00    -0.363 OA
ATOM     12  C   UNL     1      -3.035  -6.395   0.676  1.00  0.00     0.045 C 
BRANCH   9  13
ATOM     13  C   UNL     1      -1.419  -3.074   0.497  1.00  0.00     0.149 C 
BRANCH  13  14
ATOM     14  N   UNL     1      -2.118  -1.949  -0.106  1.00  0.00    -0.335 N 
ATOM     15  C   UNL     1      -2.359  -0.653   0.091  1.00  0.00     0.317 C 
ATOM     16  O   UNL     1      -3.143  -0.152  -0.724  1.00  0.00    -0.249 OA
ATOM     17  H   UNL     1      -2.558  -2.243  -0.936  1.00  0.00     0.165 HD
BRANCH  15  18
ATOM     18  N   UNL     1      -1.788   0.089   1.070  1.00  0.00    -0.319 N 
ATOM     19  C   UNL     1       1.241  -0.207   0.346  1.00  0.00     0.040 C 
ATOM     20  C   UNL     1       0.580   0.435   1.567  1.00  0.00     0.135 C 
ATOM     21  C   UNL     1      -0.727  -0.240   2.008  1.00  0.00     0.153 C 
ATOM     22  O   UNL     1       0.412   1.855   1.406  1.00  0.00    -0.369 OA
ATOM     23  C   UNL     1      -0.756   2.306   0.680  1.00  0.00     0.081 C 
ATOM     24  C   UNL     1      -2.042   1.530   1.067  1.00  0.00     0.156 C 
ATOM     25  C   UNL     1      -0.506   2.259  -0.833  1.00  0.00     0.044 C 
ATOM     26  C   UNL     1      -0.932   3.773   1.097  1.00  0.00     0.044 C 
ENDBRANCH  15  18
ENDBRANCH  13  14
ENDBRANCH   9  13
ENDBRANCH   5   8
ENDBRANCH   3   4
ENDBRANCH   2   3
ENDBRANCH   1   2
BRANCH   1  27
ATOM     27  C   UNL     1      -0.547  -4.460  -4.951  1.00  0.00     0.002 C 
BRANCH  27  28
ATOM     28  C   UNL     1       0.742  -3.966  -4.284  1.00  0.00     0.021 C 
BRANCH  28  29
ATOM     29  C   UNL     1       1.943  -4.896  -4.434  1.00  0.00     0.116 C 
BRANCH  29  30
ATOM     30  N   UNL     1       2.261  -5.163  -5.827  1.00  0.00    -0.352 N 
ATOM     31  C   UNL     1       3.440  -5.004  -6.509  1.00  0.00     0.251 C 
ATOM     32  H   UNL     1       1.514  -5.512  -6.364  1.00  0.00     0.163 HD
ATOM     33  O   UNL     1       3.460  -5.101  -7.731  1.00  0.00    -0.269 OA
BRANCH  31  34
ATOM     34  C   UNL     1       4.690  -4.707  -5.779  1.00  0.00     0.039 A 
ATOM     35  C   UNL     1       5.564  -3.751  -6.303  1.00  0.00     0.014 A 
ATOM     36  C   UNL     1       5.021  -5.394  -4.607  1.00  0.00     0.014 A 
ATOM     37  C   UNL     1       6.747  -3.447  -5.627  1.00  0.00     0.010 A 
ATOM     38  C   UNL     1       6.167  -5.042  -3.898  1.00  0.00     0.010 A 
ATOM     39  C   UNL     1       7.044  -4.071  -4.404  1.00  0.00    -0.014 A 
BRANCH  39  40
ATOM     40  C   UNL     1       8.273  -3.726  -3.647  1.00  0.00     0.031 A 
ATOM     41  C   UNL     1       9.349  -4.755  -3.441  1.00  0.00     0.074 A 
ATOM     42  C   UNL     1       8.393  -2.503  -3.095  1.00  0.00     0.049 A 
ATOM     43  N   UNL     1      10.459  -4.668  -2.752  1.00  0.00    -0.248 NA
ATOM     44  C   UNL     1       9.135  -6.068  -4.071  1.00  0.00     0.031 C 
ATOM     45  C   UNL     1       7.399  -1.433  -3.191  1.00  0.00     0.029 A 
ATOM     46  N   UNL     1       9.398  -1.957  -2.337  1.00  0.00    -0.354 N 
ATOM     47  C   UNL     1      11.067  -5.912  -2.857  1.00  0.00     0.074 A 
ATOM     48  C   UNL     1      10.178  -6.754  -3.628  1.00  0.00     0.031 C 
ATOM     49  C   UNL     1       7.853  -0.352  -2.535  1.00  0.00     0.029 A 
ATOM     50  C   UNL     1       9.150  -0.664  -1.944  1.00  0.00     0.049 A 
ATOM     51  H   UNL     1      10.219  -2.445  -2.098  1.00  0.00     0.167 HD
ATOM     52  C   UNL     1      12.270  -6.308  -2.376  1.00  0.00     0.037 A 
ATOM     53  C   UNL     1       9.884   0.171  -1.185  1.00  0.00     0.037 A 
ATOM     54  C   UNL     1      13.162  -5.460  -1.629  1.00  0.00     0.049 A 
ATOM     55  C   UNL     1      11.212  -0.298  -0.654  1.00  0.00     0.074 A 
ATOM     56  C   UNL     1      14.423  -5.750  -1.140  1.00  0.00     0.029 A 
ATOM     57  N   UNL     1      12.883  -4.150  -1.264  1.00  0.00    -0.354 N 
ATOM     58  N   UNL     1      11.805  -1.456  -0.810  1.00  0.00    -0.248 NA
ATOM     59  C   UNL     1      11.977   0.663   0.154  1.00  0.00     0.031 C 
ATOM     60  C   UNL     1      14.889  -4.632  -0.440  1.00  0.00     0.029 A 
ATOM     61  C   UNL     1      13.941  -3.627  -0.538  1.00  0.00     0.049 A 
ATOM     62  H   UNL     1      12.056  -3.665  -1.488  1.00  0.00     0.167 HD
ATOM     63  C   UNL     1      13.022  -1.355  -0.150  1.00  0.00     0.074 A 
ATOM     64  C   UNL     1      13.089  -0.016   0.397  1.00  0.00     0.031 C 
ATOM     65  C   UNL     1      13.996  -2.287  -0.010  1.00  0.00     0.037 A 
BRANCH  52  66
ATOM     66  C   UNL     1      12.694  -7.724  -2.646  1.00  0.00     0.064 A 
ATOM     67  C   UNL     1      13.036  -8.155  -3.937  1.00  0.00     0.173 A 
ATOM     68  C   UNL     1      12.794  -8.651  -1.598  1.00  0.00     0.173 A 
ATOM     69  F   UNL     1      12.946  -7.312  -4.976  1.00  0.00    -0.203 F 
ATOM     70  C   UNL     1      13.431  -9.470  -4.173  1.00  0.00     0.198 A 
ATOM     71  C   UNL     1      13.221  -9.956  -1.832  1.00  0.00     0.198 A 
ATOM     72  F   UNL     1      12.485  -8.290  -0.343  1.00  0.00    -0.203 F 
ATOM     73  F   UNL     1      13.702  -9.872  -5.422  1.00  0.00    -0.200 F 
ATOM     74  C   UNL     1      13.530 -10.366  -3.120  1.00  0.00     0.200 A 
ATOM     75  F   UNL     1      13.329 -10.818  -0.812  1.00  0.00    -0.200 F 
ATOM     76  F   UNL     1      13.918 -11.629  -3.348  1.00  0.00    -0.200 F 
ENDBRANCH  52  66
BRANCH  53  77
ATOM     77  C   UNL     1       9.393   1.545  -0.903  1.00  0.00     0.064 A 
ATOM     78  C   UNL     1      10.030   2.664  -1.458  1.00  0.00     0.173 A 
ATOM     79  C   UNL     1       8.288   1.770  -0.070  1.00  0.00     0.173 A 
ATOM     80  F   UNL     1      11.104   2.500  -2.245  1.00  0.00    -0.203 F 
ATOM     81  C   UNL     1       9.595   3.956  -1.172  1.00  0.00     0.198 A 
ATOM     82  C   UNL     1       7.835   3.062   0.192  1.00  0.00     0.198 A 
ATOM     83  F   UNL     1       7.640   0.733   0.482  1.00  0.00    -0.203 F 
ATOM     84  F   UNL     1      10.253   5.008  -1.677  1.00  0.00    -0.200 F 
ATOM     85  C   UNL     1       8.495   4.154  -0.352  1.00  0.00     0.200 A 
ATOM     86  F   UNL     1       6.764   3.247   0.975  1.00  0.00    -0.200 F 
ATOM     87  F   UNL     1       8.076   5.396  -0.078  1.00  0.00    -0.200 F 
ENDBRANCH  53  77
BRANCH  65  88
ATOM     88  C   UNL     1      15.236  -1.879   0.732  1.00  0.00     0.064 A 
ATOM     89  C   UNL     1      15.234  -1.683   2.120  1.00  0.00     0.173 A 
ATOM     90  C   UNL     1      16.450  -1.718   0.047  1.00  0.00     0.173 A 
ATOM     91  F   UNL     1      14.095  -1.810   2.819  1.00  0.00    -0.203 F 
ATOM     92  C   UNL     1      16.396  -1.313   2.792  1.00  0.00     0.198 A 
ATOM     93  C   UNL     1      17.617  -1.379   0.726  1.00  0.00     0.198 A 
ATOM     94  F   UNL     1      16.507  -1.901  -1.281  1.00  0.00    -0.203 F 
ATOM     95  F   UNL     1      16.360  -1.083   4.112  1.00  0.00    -0.200 F 
ATOM     96  C   UNL     1      17.588  -1.170   2.096  1.00  0.00     0.200 A 
ATOM     97  F   UNL     1      18.770  -1.255   0.054  1.00  0.00    -0.200 F 
ATOM     98  F   UNL     1      18.707  -0.821   2.746  1.00  0.00    -0.200 F 
ENDBRANCH  65  88
ENDBRANCH  39  40
ENDBRANCH  31  34
ENDBRANCH  29  30
ENDBRANCH  28  29
ENDBRANCH  27  28
ENDBRANCH   1  27
TORSDOF 16
