REMARK SMILES CC(C)(CCc1ccc(Cl)c2ccccc12)C(=O)NCCCCCCNC(=O)c1ccc(-c2c3nc(c(-c4c(F)c(F)c(F)c(F)c4F)c4ccc([nH]4)c(-c4c(F)c(F)c(F)c(F)c4F)c4nc(c(-c5c(F)c(F)c(F)c(F)c5F)c5ccc2[nH]5)C=C4)C=C3)cc1
REMARK SMILES IDX 22 1 21 2 20 3 19 4 17 5 18 6 2 8 1 9 3 10 4 11 5 12 6 13
REMARK SMILES IDX 7 14 16 15 8 16 11 17 15 18 9 19 12 20 14 21 10 22 13 23
REMARK SMILES IDX 23 24 24 25 25 26 26 27 27 28 28 30 29 31 30 32 91 33 31 34
REMARK SMILES IDX 90 35 32 36 33 37 34 38 84 39 35 40 89 41 83 42 85 43 36 44
REMARK SMILES IDX 88 45 82 46 81 47 37 49 69 50 49 51 68 52 50 53 53 54 67 55
REMARK SMILES IDX 86 56 51 57 52 58 66 60 87 61 54 62 38 63 39 64 47 65 40 66
REMARK SMILES IDX 41 67 45 68 48 69 42 70 43 71 46 72 44 73 70 74 71 75 79 76
REMARK SMILES IDX 72 77 73 78 77 79 80 80 74 81 75 82 78 83 76 84 55 85 56 86
REMARK SMILES IDX 64 87 57 88 58 89 62 90 65 91 59 92 60 93 63 94 61 95
REMARK H PARENT 19 7 26 29 85 48 53 59
REMARK Flexibility Score: inf
ROOT
ATOM      1  C   UNL     1      -0.817   6.264   1.140  1.00  0.00     0.002 C 
ENDROOT
BRANCH   1   2
ATOM      2  C   UNL     1      -1.261   5.189   0.147  1.00  0.00     0.021 C 
BRANCH   2   3
ATOM      3  C   UNL     1      -0.126   4.401  -0.494  1.00  0.00     0.116 C 
BRANCH   3   4
ATOM      4  N   UNL     1       0.699   3.701   0.474  1.00  0.00    -0.356 N 
ATOM      5  C   UNL     1       1.050   2.396   0.630  1.00  0.00     0.225 C 
ATOM      6  O   UNL     1       1.905   2.167   1.491  1.00  0.00    -0.275 OA
ATOM      7  H   UNL     1       1.085   4.294   1.159  1.00  0.00     0.163 HD
BRANCH   5   8
ATOM      8  C   UNL     1       0.446   1.261  -0.220  1.00  0.00     0.044 C 
ATOM      9  C   UNL     1       1.111  -0.080   0.172  1.00  0.00     0.021 C 
ATOM     10  C   UNL     1       0.842   1.467  -1.702  1.00  0.00     0.021 C 
BRANCH   8  11
ATOM     11  C   UNL     1      -1.098   1.156  -0.046  1.00  0.00     0.021 C 
BRANCH  11  12
ATOM     12  C   UNL     1      -1.654   0.608   1.299  1.00  0.00     0.037 C 
BRANCH  12  13
ATOM     13  C   UNL     1      -1.411   1.462   2.533  1.00  0.00    -0.040 A 
ATOM     14  C   UNL     1      -2.039   2.715   2.564  1.00  0.00     0.006 A 
ATOM     15  C   UNL     1      -0.603   1.070   3.641  1.00  0.00    -0.014 A 
ATOM     16  C   UNL     1      -1.747   3.645   3.553  1.00  0.00     0.021 A 
ATOM     17  C   UNL     1      -0.305   2.020   4.663  1.00  0.00     0.001 A 
ATOM     18  C   UNL     1      -0.092  -0.239   3.801  1.00  0.00     0.009 A 
ATOM     19  C   UNL     1      -0.853   3.319   4.567  1.00  0.00     0.048 A 
ATOM     20  C   UNL     1       0.514   1.624   5.748  1.00  0.00     0.010 A 
ATOM     21  C   UNL     1       0.687  -0.610   4.898  1.00  0.00     0.001 A 
ATOM     22  Cl  UNL     1      -0.490   4.577   5.706  1.00  0.00    -0.084 Cl
ATOM     23  C   UNL     1       0.997   0.324   5.869  1.00  0.00     0.001 A 
ENDBRANCH  12  13
ENDBRANCH  11  12
ENDBRANCH   8  11
ENDBRANCH   5   8
ENDBRANCH   3   4
ENDBRANCH   2   3
ENDBRANCH   1   2
BRANCH   1  24
ATOM     24  C   UNL     1      -0.092   7.444   0.494  1.00  0.00     0.002 C 
BRANCH  24  25
ATOM     25  C   UNL     1      -0.865   8.120  -0.640  1.00  0.00     0.021 C 
BRANCH  25  26
ATOM     26  C   UNL     1      -2.290   8.525  -0.278  1.00  0.00     0.116 C 
BRANCH  26  27
ATOM     27  N   UNL     1      -2.318   9.553   0.750  1.00  0.00    -0.352 N 
ATOM     28  C   UNL     1      -2.882  10.803   0.692  1.00  0.00     0.251 C 
ATOM     29  H   UNL     1      -1.874   9.322   1.598  1.00  0.00     0.163 HD
ATOM     30  O   UNL     1      -2.642  11.644   1.547  1.00  0.00    -0.269 OA
BRANCH  28  31
ATOM     31  C   UNL     1      -3.775  11.127  -0.439  1.00  0.00     0.039 A 
ATOM     32  C   UNL     1      -3.559  12.303  -1.159  1.00  0.00     0.014 A 
ATOM     33  C   UNL     1      -4.799  10.247  -0.803  1.00  0.00     0.014 A 
ATOM     34  C   UNL     1      -4.338  12.569  -2.286  1.00  0.00     0.010 A 
ATOM     35  C   UNL     1      -5.519  10.475  -1.970  1.00  0.00     0.010 A 
ATOM     36  C   UNL     1      -5.300  11.641  -2.720  1.00  0.00    -0.014 A 
BRANCH  36  37
ATOM     37  C   UNL     1      -6.087  11.873  -3.957  1.00  0.00     0.031 A 
ATOM     38  C   UNL     1      -7.579  12.034  -3.881  1.00  0.00     0.074 A 
ATOM     39  C   UNL     1      -5.465  11.879  -5.152  1.00  0.00     0.049 A 
ATOM     40  N   UNL     1      -8.448  12.180  -4.849  1.00  0.00    -0.248 NA
ATOM     41  C   UNL     1      -8.180  11.997  -2.538  1.00  0.00     0.031 C 
ATOM     42  C   UNL     1      -4.029  11.689  -5.359  1.00  0.00     0.029 A 
ATOM     43  N   UNL     1      -5.964  12.041  -6.421  1.00  0.00    -0.354 N 
ATOM     44  C   UNL     1      -9.691  12.242  -4.235  1.00  0.00     0.074 A 
ATOM     45  C   UNL     1      -9.473  12.056  -2.817  1.00  0.00     0.031 C 
ATOM     46  C   UNL     1      -3.759  11.771  -6.672  1.00  0.00     0.029 A 
ATOM     47  C   UNL     1      -5.006  11.974  -7.403  1.00  0.00     0.049 A 
ATOM     48  H   UNL     1      -6.919  12.192  -6.609  1.00  0.00     0.167 HD
ATOM     49  C   UNL     1     -10.902  12.459  -4.800  1.00  0.00     0.037 A 
ATOM     50  C   UNL     1      -5.122  12.056  -8.742  1.00  0.00     0.037 A 
ATOM     51  C   UNL     1     -11.111  12.661  -6.210  1.00  0.00     0.049 A 
ATOM     52  C   UNL     1      -6.484  12.274  -9.347  1.00  0.00     0.074 A 
ATOM     53  C   UNL     1     -12.290  12.944  -6.876  1.00  0.00     0.029 A 
ATOM     54  N   UNL     1     -10.114  12.592  -7.174  1.00  0.00    -0.354 N 
ATOM     55  N   UNL     1      -7.644  12.403  -8.750  1.00  0.00    -0.248 NA
ATOM     56  C   UNL     1      -6.551  12.362 -10.812  1.00  0.00     0.031 C 
ATOM     57  C   UNL     1     -12.018  12.988  -8.247  1.00  0.00     0.029 A 
ATOM     58  C   UNL     1     -10.659  12.797  -8.432  1.00  0.00     0.049 A 
ATOM     59  H   UNL     1      -9.162  12.422  -6.991  1.00  0.00     0.167 HD
ATOM     60  C   UNL     1      -8.571  12.619  -9.761  1.00  0.00     0.074 A 
ATOM     61  C   UNL     1      -7.836  12.619 -11.008  1.00  0.00     0.031 C 
ATOM     62  C   UNL     1      -9.912  12.802  -9.664  1.00  0.00     0.037 A 
BRANCH  49  63
ATOM     63  C   UNL     1     -12.099  12.489  -3.892  1.00  0.00     0.064 A 
ATOM     64  C   UNL     1     -12.296  13.523  -2.963  1.00  0.00     0.173 A 
ATOM     65  C   UNL     1     -13.081  11.490  -3.976  1.00  0.00     0.173 A 
ATOM     66  F   UNL     1     -11.383  14.497  -2.834  1.00  0.00    -0.203 F 
ATOM     67  C   UNL     1     -13.413  13.538  -2.132  1.00  0.00     0.198 A 
ATOM     68  C   UNL     1     -14.214  11.528  -3.168  1.00  0.00     0.198 A 
ATOM     69  F   UNL     1     -12.948  10.481  -4.850  1.00  0.00    -0.203 F 
ATOM     70  F   UNL     1     -13.550  14.506  -1.216  1.00  0.00    -0.200 F 
ATOM     71  C   UNL     1     -14.375  12.546  -2.240  1.00  0.00     0.200 A 
ATOM     72  F   UNL     1     -15.151  10.576  -3.285  1.00  0.00    -0.200 F 
ATOM     73  F   UNL     1     -15.454  12.567  -1.446  1.00  0.00    -0.200 F 
ENDBRANCH  49  63
BRANCH  50  74
ATOM     74  C   UNL     1      -3.914  11.947  -9.603  1.00  0.00     0.064 A 
ATOM     75  C   UNL     1      -3.449  13.049 -10.336  1.00  0.00     0.173 A 
ATOM     76  C   UNL     1      -3.206  10.742  -9.720  1.00  0.00     0.173 A 
ATOM     77  F   UNL     1      -4.103  14.218 -10.273  1.00  0.00    -0.203 F 
ATOM     78  C   UNL     1      -2.339  12.942 -11.171  1.00  0.00     0.198 A 
ATOM     79  C   UNL     1      -2.077  10.645 -10.530  1.00  0.00     0.198 A 
ATOM     80  F   UNL     1      -3.605   9.659  -9.036  1.00  0.00    -0.203 F 
ATOM     81  F   UNL     1      -1.948  13.996 -11.900  1.00  0.00    -0.200 F 
ATOM     82  C   UNL     1      -1.650  11.742 -11.263  1.00  0.00     0.200 A 
ATOM     83  F   UNL     1      -1.405   9.488 -10.603  1.00  0.00    -0.200 F 
ATOM     84  F   UNL     1      -0.581  11.640 -12.064  1.00  0.00    -0.200 F 
ENDBRANCH  50  74
BRANCH  62  85
ATOM     85  C   UNL     1     -10.668  13.056 -10.937  1.00  0.00     0.064 A 
ATOM     86  C   UNL     1     -10.865  12.049 -11.894  1.00  0.00     0.173 A 
ATOM     87  C   UNL     1     -11.241  14.314 -11.181  1.00  0.00     0.173 A 
ATOM     88  F   UNL     1     -10.326  10.833 -11.716  1.00  0.00    -0.203 F 
ATOM     89  C   UNL     1     -11.585  12.300 -13.059  1.00  0.00     0.198 A 
ATOM     90  C   UNL     1     -11.989  14.551 -12.331  1.00  0.00     0.198 A 
ATOM     91  F   UNL     1     -11.089  15.310 -10.296  1.00  0.00    -0.203 F 
ATOM     92  F   UNL     1     -11.717  11.337 -13.982  1.00  0.00    -0.200 F 
ATOM     93  C   UNL     1     -12.154  13.547 -13.272  1.00  0.00     0.200 A 
ATOM     94  F   UNL     1     -12.552  15.751 -12.526  1.00  0.00    -0.200 F 
ATOM     95  F   UNL     1     -12.856  13.783 -14.389  1.00  0.00    -0.200 F 
ENDBRANCH  62  85
ENDBRANCH  36  37
ENDBRANCH  28  31
ENDBRANCH  26  27
ENDBRANCH  25  26
ENDBRANCH  24  25
ENDBRANCH   1  24
TORSDOF 16
