REMARK SMILES COCCNC(=O)NC(=O)C[N@H+]1CC[C@H](C(=O)NCCCCCCNC(=O)c2ccc(-c3c4nc(c(-c5c(F)c(F)c(F)c(F)c5F)c5ccc([nH]5)c(-c5c(F)c(F)c(F)c(F)c5F)c5nc(c(-c6c(F)c(F)c(F)c(F)c6F)c6ccc3[nH]6)C=C5)C=C4)cc2)[C@@H]1C
REMARK SMILES IDX 20 1 19 2 18 3 16 4 17 5 15 7 12 8 13 9 91 10 14 12 92 13
REMARK SMILES IDX 11 14 9 15 5 16 6 17 7 19 8 20 10 22 4 23 3 24 2 25 1 26
REMARK SMILES IDX 21 27 22 28 23 29 24 30 25 31 26 32 27 34 28 35 29 36 90 37
REMARK SMILES IDX 30 38 89 39 31 40 32 41 33 42 83 43 34 44 88 45 82 46 84 47
REMARK SMILES IDX 35 48 87 49 81 50 80 51 36 53 68 54 48 55 67 56 49 57 52 58
REMARK SMILES IDX 66 59 85 60 50 61 51 62 65 64 86 65 53 66 37 67 38 68 46 69
REMARK SMILES IDX 39 70 40 71 44 72 47 73 41 74 42 75 45 76 43 77 69 78 70 79
REMARK SMILES IDX 78 80 71 81 72 82 76 83 79 84 73 85 74 86 77 87 75 88 54 89
REMARK SMILES IDX 55 90 63 91 56 92 57 93 61 94 64 95 58 96 59 97 62 98 60 99
REMARK H PARENT 18 6 12 11 5 18 8 21 25 33 84 52 52 63
REMARK Flexibility Score: inf
ROOT
ATOM      1  C   UNL     1       4.297  -2.382   0.701  1.00  0.00     0.021 C 
ENDROOT
BRANCH   1   2
ATOM      2  C   UNL     1       2.959  -3.158   0.679  1.00  0.00     0.116 C 
BRANCH   2   3
ATOM      3  N   UNL     1       1.688  -2.533   1.211  1.00  0.00    -0.356 N 
ATOM      4  C   UNL     1       0.597  -1.764   0.858  1.00  0.00     0.229 C 
ATOM      5  O   UNL     1      -0.232  -1.647   1.779  1.00  0.00    -0.275 OA
ATOM      6  H   UNL     1       1.611  -2.757   2.167  1.00  0.00     0.163 HD
BRANCH   4   7
ATOM      7  C   UNL     1       0.230  -0.958  -0.526  1.00  0.00     0.142 C 
ATOM      8  N   UNL     1       1.778  -1.327  -3.277  1.00  0.00    -0.324 N 
ATOM      9  C   UNL     1       2.142   0.503  -2.718  1.00  0.00     0.263 C 
ATOM     10  C   UNL     1       0.547  -2.162  -2.076  1.00  0.00     0.194 C 
ATOM     11  H   UNL     1       2.700  -1.761  -3.230  1.00  0.00     0.348 HD
ATOM     12  C   UNL     1       1.002   0.858  -1.058  1.00  0.00     0.081 C 
ATOM     13  C   UNL     1       0.650  -3.675  -1.891  1.00  0.00     0.076 C 
BRANCH   8  14
ATOM     14  C   UNL     1       1.394  -1.570  -4.677  1.00  0.00     0.364 C 
BRANCH  14  15
ATOM     15  C   UNL     1       1.825  -0.477  -5.610  1.00  0.00     0.283 C 
ATOM     16  N   UNL     1       0.054   1.104  -3.481  1.00  0.00    -0.335 N 
ATOM     17  C   UNL     1       0.313   1.438  -4.766  1.00  0.00     0.321 C 
ATOM     18  H   UNL     1      -0.401   1.836  -3.004  1.00  0.00     0.165 HD
ATOM     19  O   UNL     1      -0.105   2.528  -5.164  1.00  0.00    -0.248 OA
ATOM     20  N   UNL     1       1.121   0.715  -5.599  1.00  0.00    -0.273 N 
ATOM     21  H   UNL     1       1.238   1.188  -6.455  1.00  0.00     0.175 HD
ATOM     22  O   UNL     1       2.734  -0.638  -6.428  1.00  0.00    -0.268 OA
BRANCH  16  23
ATOM     23  C   UNL     1       0.289  -0.171  -2.516  1.00  0.00     0.146 C 
BRANCH  23  24
ATOM     24  C   UNL     1       2.014  -0.819  -1.331  1.00  0.00     0.181 C 
BRANCH  24  25
ATOM     25  O   UNL     1       2.870   0.002  -0.270  1.00  0.00    -0.383 OA
ATOM     26  C   UNL     1       2.501   0.293   1.105  1.00  0.00     0.194 C 
ENDBRANCH  24  25
ENDBRANCH  23  24
ENDBRANCH  16  23
ENDBRANCH  14  15
ENDBRANCH   8  14
ENDBRANCH   4   7
ENDBRANCH   2   3
ENDBRANCH   1   2
BRANCH   1  27
ATOM     27  C   UNL     1       5.398  -2.932   1.604  1.00  0.00     0.002 C 
BRANCH  27  28
ATOM     28  C   UNL     1       5.887  -4.335   1.265  1.00  0.00     0.002 C 
BRANCH  28  29
ATOM     29  C   UNL     1       6.454  -4.510  -0.147  1.00  0.00     0.021 C 
BRANCH  29  30
ATOM     30  C   UNL     1       7.652  -3.621  -0.480  1.00  0.00     0.116 C 
BRANCH  30  31
ATOM     31  N   UNL     1       8.738  -3.800   0.472  1.00  0.00    -0.352 N 
ATOM     32  C   UNL     1       9.961  -4.398   0.310  1.00  0.00     0.251 C 
ATOM     33  H   UNL     1       8.569  -3.435   1.371  1.00  0.00     0.163 HD
ATOM     34  O   UNL     1      10.619  -4.733   1.290  1.00  0.00    -0.269 OA
BRANCH  32  35
ATOM     35  C   UNL     1      10.497  -4.633  -1.047  1.00  0.00     0.039 A 
ATOM     36  C   UNL     1      11.158  -5.833  -1.321  1.00  0.00     0.014 A 
ATOM     37  C   UNL     1      10.394  -3.646  -2.031  1.00  0.00     0.014 A 
ATOM     38  C   UNL     1      11.672  -6.062  -2.599  1.00  0.00     0.010 A 
ATOM     39  C   UNL     1      10.841  -3.906  -3.323  1.00  0.00     0.010 A 
ATOM     40  C   UNL     1      11.493  -5.112  -3.617  1.00  0.00    -0.014 A 
BRANCH  40  41
ATOM     41  C   UNL     1      11.986  -5.359  -4.996  1.00  0.00     0.031 A 
ATOM     42  C   UNL     1      13.050  -4.477  -5.588  1.00  0.00     0.074 A 
ATOM     43  C   UNL     1      11.422  -6.334  -5.735  1.00  0.00     0.049 A 
ATOM     44  N   UNL     1      13.558  -4.488  -6.795  1.00  0.00    -0.248 NA
ATOM     45  C   UNL     1      13.598  -3.423  -4.719  1.00  0.00     0.031 C 
ATOM     46  C   UNL     1      10.345  -7.219  -5.286  1.00  0.00     0.029 A 
ATOM     47  N   UNL     1      11.663  -6.735  -7.026  1.00  0.00    -0.354 N 
ATOM     48  C   UNL     1      14.463  -3.436  -6.834  1.00  0.00     0.074 A 
ATOM     49  C   UNL     1      14.405  -2.778  -5.548  1.00  0.00     0.031 C 
ATOM     50  C   UNL     1      10.029  -8.066  -6.278  1.00  0.00     0.029 A 
ATOM     51  C   UNL     1      10.848  -7.758  -7.446  1.00  0.00     0.049 A 
ATOM     52  H   UNL     1      12.355  -6.328  -7.596  1.00  0.00     0.167 HD
ATOM     53  C   UNL     1      15.281  -3.065  -7.848  1.00  0.00     0.037 A 
ATOM     54  C   UNL     1      10.761  -8.368  -8.644  1.00  0.00     0.037 A 
ATOM     55  C   UNL     1      15.354  -3.746  -9.114  1.00  0.00     0.049 A 
ATOM     56  C   UNL     1      11.687  -7.936  -9.750  1.00  0.00     0.074 A 
ATOM     57  C   UNL     1      16.210  -3.505 -10.174  1.00  0.00     0.029 A 
ATOM     58  N   UNL     1      14.533  -4.798  -9.495  1.00  0.00    -0.354 N 
ATOM     59  N   UNL     1      12.606  -7.001  -9.744  1.00  0.00    -0.248 NA
ATOM     60  C   UNL     1      11.569  -8.651 -11.029  1.00  0.00     0.031 C 
ATOM     61  C   UNL     1      15.864  -4.366 -11.220  1.00  0.00     0.029 A 
ATOM     62  C   UNL     1      14.839  -5.192 -10.787  1.00  0.00     0.049 A 
ATOM     63  H   UNL     1      13.836  -5.204  -8.930  1.00  0.00     0.167 HD
ATOM     64  C   UNL     1      13.196  -7.036 -11.001  1.00  0.00     0.074 A 
ATOM     65  C   UNL     1      12.543  -8.098 -11.738  1.00  0.00     0.031 C 
ATOM     66  C   UNL     1      14.187  -6.259 -11.502  1.00  0.00     0.037 A 
BRANCH  53  67
ATOM     67  C   UNL     1      16.162  -1.866  -7.642  1.00  0.00     0.064 A 
ATOM     68  C   UNL     1      17.248  -1.889  -6.754  1.00  0.00     0.173 A 
ATOM     69  C   UNL     1      15.956  -0.699  -8.394  1.00  0.00     0.173 A 
ATOM     70  F   UNL     1      17.486  -2.976  -6.005  1.00  0.00    -0.203 F 
ATOM     71  C   UNL     1      18.080  -0.781  -6.611  1.00  0.00     0.198 A 
ATOM     72  C   UNL     1      16.808   0.395  -8.271  1.00  0.00     0.198 A 
ATOM     73  F   UNL     1      14.936  -0.625  -9.262  1.00  0.00    -0.203 F 
ATOM     74  F   UNL     1      19.087  -0.812  -5.726  1.00  0.00    -0.200 F 
ATOM     75  C   UNL     1      17.866   0.355  -7.376  1.00  0.00     0.200 A 
ATOM     76  F   UNL     1      16.610   1.486  -9.024  1.00  0.00    -0.200 F 
ATOM     77  F   UNL     1      18.678   1.414  -7.249  1.00  0.00    -0.200 F 
ENDBRANCH  53  67
BRANCH  54  78
ATOM     78  C   UNL     1       9.766  -9.451  -8.862  1.00  0.00     0.064 A 
ATOM     79  C   UNL     1      10.174 -10.773  -9.095  1.00  0.00     0.173 A 
ATOM     80  C   UNL     1       8.389  -9.185  -8.870  1.00  0.00     0.173 A 
ATOM     81  F   UNL     1      11.480 -11.077  -9.116  1.00  0.00    -0.203 F 
ATOM     82  C   UNL     1       9.245 -11.777  -9.361  1.00  0.00     0.198 A 
ATOM     83  C   UNL     1       7.460 -10.198  -9.101  1.00  0.00     0.198 A 
ATOM     84  F   UNL     1       7.943  -7.941  -8.645  1.00  0.00    -0.203 F 
ATOM     85  F   UNL     1       9.666 -13.018  -9.642  1.00  0.00    -0.200 F 
ATOM     86  C   UNL     1       7.889 -11.490  -9.359  1.00  0.00     0.200 A 
ATOM     87  F   UNL     1       6.149  -9.919  -9.079  1.00  0.00    -0.200 F 
ATOM     88  F   UNL     1       6.997 -12.456  -9.617  1.00  0.00    -0.200 F 
ENDBRANCH  54  78
BRANCH  66  89
ATOM     89  C   UNL     1      14.658  -6.554 -12.897  1.00  0.00     0.064 A 
ATOM     90  C   UNL     1      13.862  -6.284 -14.020  1.00  0.00     0.173 A 
ATOM     91  C   UNL     1      15.943  -7.077 -13.113  1.00  0.00     0.173 A 
ATOM     92  F   UNL     1      12.621  -5.798 -13.867  1.00  0.00    -0.203 F 
ATOM     93  C   UNL     1      14.324  -6.554 -15.305  1.00  0.00     0.198 A 
ATOM     94  C   UNL     1      16.415  -7.311 -14.401  1.00  0.00     0.198 A 
ATOM     95  F   UNL     1      16.748  -7.346 -12.075  1.00  0.00    -0.203 F 
ATOM     96  F   UNL     1      13.525  -6.339 -16.360  1.00  0.00    -0.200 F 
ATOM     97  C   UNL     1      15.602  -7.058 -15.495  1.00  0.00     0.200 A 
ATOM     98  F   UNL     1      17.656  -7.781 -14.583  1.00  0.00    -0.200 F 
ATOM     99  F   UNL     1      16.048  -7.307 -16.734  1.00  0.00    -0.200 F 
ENDBRANCH  66  89
ENDBRANCH  40  41
ENDBRANCH  32  35
ENDBRANCH  30  31
ENDBRANCH  29  30
ENDBRANCH  28  29
ENDBRANCH  27  28
ENDBRANCH   1  27
TORSDOF 18
