REMARK SMILES CC[C@@H](NC(=O)N[C@H]1CCCCC[C@@H]1C(=O)NCCCCCCNC(=O)c1ccc(-c2c3nc(c(-c4c(F)c(F)c(F)c(F)c4F)c4ccc([nH]4)c(-c4c(F)c(F)c(F)c(F)c4F)c4nc(c(-c5c(F)c(F)c(F)c(F)c5F)c5ccc2[nH]5)C=C4)C=C3)cc1)C(C)C
REMARK SMILES IDX 19 1 18 2 17 3 15 4 16 5 14 7 8 8 7 9 4 10 5 11 6 13 3 15
REMARK SMILES IDX 2 16 1 17 90 18 91 19 92 20 9 21 10 22 11 23 13 25 12 26
REMARK SMILES IDX 20 28 21 29 22 30 23 31 24 32 25 33 26 35 27 36 28 37 89 38
REMARK SMILES IDX 29 39 88 40 30 41 31 42 32 43 82 44 33 45 87 46 81 47 83 48
REMARK SMILES IDX 34 49 86 50 80 51 79 52 35 54 67 55 47 56 66 57 48 58 51 59
REMARK SMILES IDX 65 60 84 61 49 62 50 63 64 65 85 66 52 67 36 68 37 69 45 70
REMARK SMILES IDX 38 71 39 72 43 73 46 74 40 75 41 76 44 77 42 78 68 79 69 80
REMARK SMILES IDX 77 81 70 82 71 83 75 84 78 85 72 86 73 87 76 88 74 89 53 90
REMARK SMILES IDX 54 91 62 92 55 93 56 94 60 95 63 96 57 97 58 98 61 99 59 100
REMARK H PARENT 17 6 4 12 7 14 24 34 83 53 51 64
REMARK Flexibility Score: 90.00
ROOT
ATOM      1  C   UNL     1       3.960  -0.408   7.910  1.00  0.00     0.021 C 
ENDROOT
BRANCH   1   2
ATOM      2  C   UNL     1       2.491  -0.465   8.368  1.00  0.00     0.116 C 
BRANCH   2   3
ATOM      3  N   UNL     1       1.509  -0.299   7.321  1.00  0.00    -0.356 N 
ATOM      4  C   UNL     1       1.740  -0.708   6.052  1.00  0.00     0.225 C 
ATOM      5  O   UNL     1       2.024   0.253   5.345  1.00  0.00    -0.275 OA
ATOM      6  H   UNL     1       0.647   0.125   7.537  1.00  0.00     0.163 HD
BRANCH   4   7
ATOM      7  C   UNL     1       1.673  -2.183   5.555  1.00  0.00     0.101 C 
BRANCH   7   8
ATOM      8  C   UNL     1       0.338  -2.489   4.768  1.00  0.00     0.096 C 
BRANCH   8   9
ATOM      9  N   UNL     1       0.429  -2.909   3.311  1.00  0.00    -0.335 N 
ATOM     10  N   UNL     1       0.893  -1.281   1.626  1.00  0.00    -0.335 N 
ATOM     11  C   UNL     1       0.529  -2.491   2.047  1.00  0.00     0.315 C 
ATOM     12  H   UNL     1       0.839  -1.157   0.651  1.00  0.00     0.165 HD
ATOM     13  O   UNL     1       0.256  -3.325   1.177  1.00  0.00    -0.249 OA
ATOM     14  H   UNL     1       0.404  -3.893   3.291  1.00  0.00     0.165 HD
BRANCH  10  15
ATOM     15  C   UNL     1       1.362  -0.102   2.360  1.00  0.00     0.086 C 
BRANCH  15  16
ATOM     16  C   UNL     1       2.771  -0.552   2.857  1.00  0.00     0.022 C 
ATOM     17  C   UNL     1       3.930  -0.040   1.997  1.00  0.00     0.006 C 
ENDBRANCH  15  16
BRANCH  15  18
ATOM     18  C   UNL     1       0.025   0.463   3.016  1.00  0.00     0.005 C 
ATOM     19  C   UNL     1      -0.096   1.288   4.296  1.00  0.00     0.009 C 
ATOM     20  C   UNL     1      -0.708   1.302   1.939  1.00  0.00     0.009 C 
ENDBRANCH  15  18
ENDBRANCH  10  15
ENDBRANCH   8   9
BRANCH   8  21
ATOM     21  C   UNL     1      -0.522  -3.601   5.446  1.00  0.00     0.026 C 
BRANCH  21  22
ATOM     22  C   UNL     1       0.046  -5.033   5.353  1.00  0.00     0.002 C 
BRANCH  22  23
ATOM     23  C   UNL     1       1.028  -5.401   6.450  1.00  0.00     0.000 CG0
ATOM     24  G   UNL     1       2.281  -4.550   6.433  1.00  0.00     0.000 G0
ENDBRANCH  22  23
ENDBRANCH  21  22
ENDBRANCH   8  21
ENDBRANCH   7   8
BRANCH   7  25
ATOM     25  C   UNL     1       1.998  -3.096   6.750  1.00  0.00     0.015 C 
BRANCH  25  26
ATOM     26  C   UNL     1       2.281  -4.550   6.433  1.00  0.00     0.001 CG0
ATOM     27  G   UNL     1       1.028  -5.401   6.450  1.00  0.00     0.000 G0
ENDBRANCH  25  26
ENDBRANCH   7  25
ENDBRANCH   4   7
ENDBRANCH   2   3
ENDBRANCH   1   2
BRANCH   1  28
ATOM     28  C   UNL     1       4.578   0.972   7.648  1.00  0.00     0.002 C 
BRANCH  28  29
ATOM     29  C   UNL     1       4.420   2.028   8.743  1.00  0.00     0.002 C 
BRANCH  29  30
ATOM     30  C   UNL     1       4.582   1.536  10.178  1.00  0.00     0.021 C 
BRANCH  30  31
ATOM     31  C   UNL     1       5.866   0.772  10.452  1.00  0.00     0.116 C 
BRANCH  31  32
ATOM     32  N   UNL     1       7.013   1.648  10.551  1.00  0.00    -0.352 N 
ATOM     33  C   UNL     1       7.889   1.761  11.603  1.00  0.00     0.251 C 
ATOM     34  H   UNL     1       7.185   2.230   9.776  1.00  0.00     0.163 HD
ATOM     35  O   UNL     1       8.700   2.673  11.654  1.00  0.00    -0.269 OA
BRANCH  33  36
ATOM     36  C   UNL     1       7.817   0.764  12.693  1.00  0.00     0.039 A 
ATOM     37  C   UNL     1       7.760   1.211  14.013  1.00  0.00     0.014 A 
ATOM     38  C   UNL     1       7.774  -0.605  12.403  1.00  0.00     0.014 A 
ATOM     39  C   UNL     1       7.637   0.282  15.047  1.00  0.00     0.010 A 
ATOM     40  C   UNL     1       7.566  -1.522  13.427  1.00  0.00     0.010 A 
ATOM     41  C   UNL     1       7.526  -1.089  14.761  1.00  0.00    -0.014 A 
BRANCH  41  42
ATOM     42  C   UNL     1       7.432  -2.088  15.854  1.00  0.00     0.031 A 
ATOM     43  C   UNL     1       8.545  -3.081  16.050  1.00  0.00     0.074 A 
ATOM     44  C   UNL     1       6.343  -2.120  16.646  1.00  0.00     0.049 A 
ATOM     45  N   UNL     1       8.651  -4.047  16.927  1.00  0.00    -0.248 NA
ATOM     46  C   UNL     1       9.680  -2.998  15.115  1.00  0.00     0.031 C 
ATOM     47  C   UNL     1       5.181  -1.241  16.521  1.00  0.00     0.029 A 
ATOM     48  N   UNL     1       6.037  -2.927  17.713  1.00  0.00    -0.354 N 
ATOM     49  C   UNL     1       9.850  -4.687  16.641  1.00  0.00     0.074 A 
ATOM     50  C   UNL     1      10.405  -4.046  15.470  1.00  0.00     0.031 C 
ATOM     51  C   UNL     1       4.301  -1.535  17.492  1.00  0.00     0.029 A 
ATOM     52  C   UNL     1       4.822  -2.643  18.287  1.00  0.00     0.049 A 
ATOM     53  H   UNL     1       6.633  -3.641  18.036  1.00  0.00     0.167 HD
ATOM     54  C   UNL     1      10.450  -5.698  17.312  1.00  0.00     0.037 A 
ATOM     55  C   UNL     1       4.204  -3.214  19.338  1.00  0.00     0.037 A 
ATOM     56  C   UNL     1       9.907  -6.309  18.496  1.00  0.00     0.049 A 
ATOM     57  C   UNL     1       4.896  -4.332  20.072  1.00  0.00     0.074 A 
ATOM     58  C   UNL     1      10.458  -7.302  19.285  1.00  0.00     0.029 A 
ATOM     59  N   UNL     1       8.683  -5.981  19.060  1.00  0.00    -0.354 N 
ATOM     60  N   UNL     1       6.062  -4.883  19.834  1.00  0.00    -0.248 NA
ATOM     61  C   UNL     1       4.190  -4.900  21.229  1.00  0.00     0.031 C 
ATOM     62  C   UNL     1       9.546  -7.608  20.300  1.00  0.00     0.029 A 
ATOM     63  C   UNL     1       8.452  -6.767  20.177  1.00  0.00     0.049 A 
ATOM     64  H   UNL     1       8.069  -5.292  18.717  1.00  0.00     0.167 HD
ATOM     65  C   UNL     1       6.245  -5.835  20.828  1.00  0.00     0.074 A 
ATOM     66  C   UNL     1       5.075  -5.777  21.680  1.00  0.00     0.031 C 
ATOM     67  C   UNL     1       7.286  -6.683  21.018  1.00  0.00     0.037 A 
BRANCH  54  68
ATOM     68  C   UNL     1      11.764  -6.199  16.785  1.00  0.00     0.064 A 
ATOM     69  C   UNL     1      12.929  -5.417  16.843  1.00  0.00     0.173 A 
ATOM     70  C   UNL     1      11.868  -7.488  16.242  1.00  0.00     0.173 A 
ATOM     71  F   UNL     1      12.882  -4.171  17.340  1.00  0.00    -0.203 F 
ATOM     72  C   UNL     1      14.140  -5.895  16.349  1.00  0.00     0.198 A 
ATOM     73  C   UNL     1      13.088  -7.975  15.780  1.00  0.00     0.198 A 
ATOM     74  F   UNL     1      10.788  -8.280  16.165  1.00  0.00    -0.203 F 
ATOM     75  F   UNL     1      15.225  -5.109  16.367  1.00  0.00    -0.200 F 
ATOM     76  C   UNL     1      14.220  -7.176  15.826  1.00  0.00     0.200 A 
ATOM     77  F   UNL     1      13.168  -9.219  15.285  1.00  0.00    -0.200 F 
ATOM     78  F   UNL     1      15.388  -7.638  15.358  1.00  0.00    -0.200 F 
ENDBRANCH  54  68
BRANCH  55  79
ATOM     79  C   UNL     1       2.873  -2.719  19.780  1.00  0.00     0.064 A 
ATOM     80  C   UNL     1       2.722  -2.048  21.002  1.00  0.00     0.173 A 
ATOM     81  C   UNL     1       1.726  -2.912  18.997  1.00  0.00     0.173 A 
ATOM     82  F   UNL     1       3.786  -1.854  21.795  1.00  0.00    -0.203 F 
ATOM     83  C   UNL     1       1.472  -1.613  21.436  1.00  0.00     0.198 A 
ATOM     84  C   UNL     1       0.481  -2.449  19.418  1.00  0.00     0.198 A 
ATOM     85  F   UNL     1       1.816  -3.541  17.816  1.00  0.00    -0.203 F 
ATOM     86  F   UNL     1       1.349  -1.019  22.631  1.00  0.00    -0.200 F 
ATOM     87  C   UNL     1       0.352  -1.809  20.641  1.00  0.00     0.200 A 
ATOM     88  F   UNL     1      -0.595  -2.627  18.639  1.00  0.00    -0.200 F 
ATOM     89  F   UNL     1      -0.850  -1.388  21.056  1.00  0.00    -0.200 F 
ENDBRANCH  55  79
BRANCH  67  90
ATOM     90  C   UNL     1       7.227  -7.585  22.218  1.00  0.00     0.064 A 
ATOM     91  C   UNL     1       6.333  -8.662  22.288  1.00  0.00     0.173 A 
ATOM     92  C   UNL     1       8.105  -7.386  23.294  1.00  0.00     0.173 A 
ATOM     93  F   UNL     1       5.464  -8.886  21.291  1.00  0.00    -0.203 F 
ATOM     94  C   UNL     1       6.298  -9.490  23.407  1.00  0.00     0.198 A 
ATOM     95  C   UNL     1       8.091  -8.236  24.396  1.00  0.00     0.198 A 
ATOM     96  F   UNL     1       8.986  -6.375  23.272  1.00  0.00    -0.203 F 
ATOM     97  F   UNL     1       5.399 -10.481  23.477  1.00  0.00    -0.200 F 
ATOM     98  C   UNL     1       7.181  -9.281  24.456  1.00  0.00     0.200 A 
ATOM     99  F   UNL     1       8.956  -8.042  25.401  1.00  0.00    -0.200 F 
ATOM    100  F   UNL     1       7.151 -10.083  25.529  1.00  0.00    -0.200 F 
ENDBRANCH  67  90
ENDBRANCH  41  42
ENDBRANCH  33  36
ENDBRANCH  31  32
ENDBRANCH  30  31
ENDBRANCH  29  30
ENDBRANCH  28  29
ENDBRANCH   1  28
TORSDOF 17
