REMARK SMILES Cc1[nH]c(=O)sc1S(=O)(=O)NC1(CC(=O)NCCCCCCNC(=O)c2ccc(-c3c4nc(c(-c5c(F)c(F)c(F)c(F)c5F)c5ccc([nH]5)c(-c5c(F)c(F)c(F)c(F)c5F)c5nc(c(-c6c(F)c(F)c(F)c(F)c6F)c6ccc3[nH]6)C=C5)C=C4)cc2)CCC1
REMARK SMILES IDX 18 1 17 2 16 3 14 4 15 5 13 7 12 8 89 9 91 10 90 11 11 12
REMARK SMILES IDX 8 14 9 15 10 16 7 17 1 18 2 19 3 20 4 21 6 23 5 24 19 25
REMARK SMILES IDX 20 26 21 27 22 28 23 29 24 30 25 32 26 33 27 34 88 35 28 36
REMARK SMILES IDX 87 37 29 38 30 39 31 40 81 41 32 42 86 43 80 44 82 45 33 46
REMARK SMILES IDX 85 47 79 48 78 49 34 51 66 52 46 53 65 54 47 55 50 56 64 57
REMARK SMILES IDX 83 58 48 59 49 60 63 62 84 63 51 64 35 65 36 66 44 67 37 68
REMARK SMILES IDX 38 69 42 70 45 71 39 72 40 73 43 74 41 75 67 76 68 77 76 78
REMARK SMILES IDX 69 79 70 80 74 81 77 82 71 83 72 84 75 85 73 86 52 87 53 88
REMARK SMILES IDX 61 89 54 90 55 91 59 92 62 93 56 94 57 95 60 96 58 97
REMARK H PARENT 16 6 11 13 3 22 23 31 82 50 50 61
REMARK Flexibility Score: inf
ROOT
ATOM      1  C   UNL     1       1.427  -2.234  -2.832  1.00  0.00     0.021 C 
ENDROOT
BRANCH   1   2
ATOM      2  C   UNL     1       1.195  -1.510  -4.159  1.00  0.00     0.116 C 
BRANCH   2   3
ATOM      3  N   UNL     1      -0.195  -1.157  -4.352  1.00  0.00    -0.356 N 
ATOM      4  C   UNL     1      -0.843   0.030  -4.201  1.00  0.00     0.221 C 
ATOM      5  O   UNL     1      -1.974   0.135  -4.684  1.00  0.00    -0.275 OA
ATOM      6  H   UNL     1      -0.770  -1.902  -4.642  1.00  0.00     0.163 HD
BRANCH   4   7
ATOM      7  C   UNL     1      -0.188   1.231  -3.564  1.00  0.00     0.123 C 
BRANCH   7   8
ATOM      8  C   UNL     1       0.096   1.248  -2.050  1.00  0.00     0.042 C 
ATOM      9  C   UNL     1       0.555   2.704  -1.621  1.00  0.00     0.024 C 
ATOM     10  C   UNL     1       1.528   0.794  -1.642  1.00  0.00     0.024 C 
ATOM     11  C   UNL     1       2.002   2.244  -1.556  1.00  0.00     0.004 C 
BRANCH   8  12
ATOM     12  N   UNL     1      -1.085   0.890  -1.174  1.00  0.00    -0.204 NA
ATOM     13  H   UNL     1      -0.786   1.229  -0.259  1.00  0.00     0.142 HD
BRANCH  12  14
ATOM     14  S   UNL     1      -1.945  -0.504  -0.774  1.00  0.00     0.252 S 
ATOM     15  O   UNL     1      -2.420  -1.047  -2.026  1.00  0.00    -0.206 OA
ATOM     16  O   UNL     1      -2.911  -0.017   0.193  1.00  0.00    -0.206 OA
BRANCH  14  17
ATOM     17  C   UNL     1      -0.977  -1.702   0.011  1.00  0.00     0.158 A 
ATOM     18  C   UNL     1       0.454  -0.192   1.549  1.00  0.00     0.067 C 
ATOM     19  C   UNL     1      -0.033  -1.463   0.938  1.00  0.00     0.046 A 
ATOM     20  N   UNL     1       0.554  -2.627   1.397  1.00  0.00    -0.315 N 
ATOM     21  C   UNL     1       0.056  -3.801   0.912  1.00  0.00     0.305 A 
ATOM     22  H   UNL     1       1.297  -2.609   2.043  1.00  0.00     0.170 HD
ATOM     23  S   UNL     1      -1.238  -3.434  -0.199  1.00  0.00    -0.061 S 
ATOM     24  O   UNL     1       0.453  -4.929   1.187  1.00  0.00    -0.257 OA
ENDBRANCH  14  17
ENDBRANCH  12  14
ENDBRANCH   8  12
ENDBRANCH   7   8
ENDBRANCH   4   7
ENDBRANCH   2   3
ENDBRANCH   1   2
BRANCH   1  25
ATOM     25  C   UNL     1       1.218  -3.749  -2.884  1.00  0.00     0.002 C 
BRANCH  25  26
ATOM     26  C   UNL     1       2.256  -4.522  -3.706  1.00  0.00     0.002 C 
BRANCH  26  27
ATOM     27  C   UNL     1       3.717  -4.358  -3.258  1.00  0.00     0.021 C 
BRANCH  27  28
ATOM     28  C   UNL     1       4.006  -4.925  -1.872  1.00  0.00     0.116 C 
BRANCH  28  29
ATOM     29  N   UNL     1       3.917  -6.380  -1.848  1.00  0.00    -0.352 N 
ATOM     30  C   UNL     1       4.290  -7.252  -0.852  1.00  0.00     0.251 C 
ATOM     31  H   UNL     1       3.537  -6.795  -2.656  1.00  0.00     0.163 HD
ATOM     32  O   UNL     1       4.477  -8.438  -1.101  1.00  0.00    -0.269 OA
BRANCH  30  33
ATOM     33  C   UNL     1       4.466  -6.756   0.525  1.00  0.00     0.039 A 
ATOM     34  C   UNL     1       5.493  -7.255   1.331  1.00  0.00     0.014 A 
ATOM     35  C   UNL     1       3.567  -5.820   1.030  1.00  0.00     0.014 A 
ATOM     36  C   UNL     1       5.650  -6.754   2.621  1.00  0.00     0.010 A 
ATOM     37  C   UNL     1       3.764  -5.266   2.275  1.00  0.00     0.010 A 
ATOM     38  C   UNL     1       4.791  -5.746   3.083  1.00  0.00    -0.014 A 
BRANCH  38  39
ATOM     39  C   UNL     1       5.085  -5.051   4.337  1.00  0.00     0.031 A 
ATOM     40  C   UNL     1       6.413  -4.369   4.348  1.00  0.00     0.074 A 
ATOM     41  C   UNL     1       4.152  -4.818   5.286  1.00  0.00     0.049 A 
ATOM     42  N   UNL     1       7.389  -4.524   5.180  1.00  0.00    -0.248 NA
ATOM     43  C   UNL     1       6.739  -3.483   3.215  1.00  0.00     0.031 C 
ATOM     44  C   UNL     1       2.725  -5.154   5.228  1.00  0.00     0.029 A 
ATOM     45  N   UNL     1       4.250  -4.117   6.453  1.00  0.00    -0.354 N 
ATOM     46  C   UNL     1       8.384  -3.628   4.784  1.00  0.00     0.074 A 
ATOM     47  C   UNL     1       8.001  -3.151   3.485  1.00  0.00     0.031 C 
ATOM     48  C   UNL     1       2.061  -4.469   6.183  1.00  0.00     0.029 A 
ATOM     49  C   UNL     1       3.024  -3.763   7.009  1.00  0.00     0.049 A 
ATOM     50  H   UNL     1       5.112  -3.883   6.867  1.00  0.00     0.167 HD
ATOM     51  C   UNL     1       9.298  -3.163   5.681  1.00  0.00     0.037 A 
ATOM     52  C   UNL     1       2.809  -2.918   8.048  1.00  0.00     0.037 A 
ATOM     53  C   UNL     1       9.360  -4.038   6.827  1.00  0.00     0.049 A 
ATOM     54  C   UNL     1       4.090  -2.777   8.776  1.00  0.00     0.074 A 
ATOM     55  C   UNL     1       9.715  -5.352   7.050  1.00  0.00     0.029 A 
ATOM     56  N   UNL     1       8.659  -3.637   7.934  1.00  0.00    -0.354 N 
ATOM     57  N   UNL     1       4.643  -3.726   9.474  1.00  0.00    -0.248 NA
ATOM     58  C   UNL     1       4.964  -1.667   8.428  1.00  0.00     0.031 C 
ATOM     59  C   UNL     1       8.864  -5.799   8.107  1.00  0.00     0.029 A 
ATOM     60  C   UNL     1       8.073  -4.725   8.515  1.00  0.00     0.049 A 
ATOM     61  H   UNL     1       8.588  -2.710   8.258  1.00  0.00     0.167 HD
ATOM     62  C   UNL     1       6.001  -3.562   9.266  1.00  0.00     0.074 A 
ATOM     63  C   UNL     1       6.142  -2.203   8.756  1.00  0.00     0.031 C 
ATOM     64  C   UNL     1       6.829  -4.648   9.245  1.00  0.00     0.037 A 
BRANCH  51  65
ATOM     65  C   UNL     1       9.759  -1.712   5.764  1.00  0.00     0.064 A 
ATOM     66  C   UNL     1      10.607  -1.339   6.833  1.00  0.00     0.173 A 
ATOM     67  C   UNL     1       9.161  -0.631   5.079  1.00  0.00     0.173 A 
ATOM     68  F   UNL     1      11.257  -2.268   7.550  1.00  0.00    -0.203 F 
ATOM     69  C   UNL     1      10.718  -0.015   7.270  1.00  0.00     0.198 A 
ATOM     70  C   UNL     1       9.312   0.694   5.491  1.00  0.00     0.198 A 
ATOM     71  F   UNL     1       8.328  -0.798   4.048  1.00  0.00    -0.203 F 
ATOM     72  F   UNL     1      11.406   0.261   8.387  1.00  0.00    -0.200 F 
ATOM     73  C   UNL     1      10.053   0.998   6.611  1.00  0.00     0.200 A 
ATOM     74  F   UNL     1       8.654   1.662   4.837  1.00  0.00    -0.200 F 
ATOM     75  F   UNL     1      10.089   2.255   7.072  1.00  0.00    -0.200 F 
ENDBRANCH  51  65
BRANCH  52  76
ATOM     76  C   UNL     1       1.649  -2.041   8.338  1.00  0.00     0.064 A 
ATOM     77  C   UNL     1       1.467  -1.478   9.615  1.00  0.00     0.173 A 
ATOM     78  C   UNL     1       0.858  -1.506   7.304  1.00  0.00     0.173 A 
ATOM     79  F   UNL     1       2.210  -1.898  10.649  1.00  0.00    -0.203 F 
ATOM     80  C   UNL     1       0.578  -0.421   9.834  1.00  0.00     0.198 A 
ATOM     81  C   UNL     1      -0.037  -0.457   7.526  1.00  0.00     0.198 A 
ATOM     82  F   UNL     1       1.013  -1.915   6.036  1.00  0.00    -0.203 F 
ATOM     83  F   UNL     1       0.493   0.140  11.049  1.00  0.00    -0.200 F 
ATOM     84  C   UNL     1      -0.165   0.097   8.787  1.00  0.00     0.200 A 
ATOM     85  F   UNL     1      -0.718   0.062   6.495  1.00  0.00    -0.200 F 
ATOM     86  F   UNL     1      -0.962   1.156   8.980  1.00  0.00    -0.200 F 
ENDBRANCH  52  76
BRANCH  64  87
ATOM     87  C   UNL     1       6.312  -5.922   9.852  1.00  0.00     0.064 A 
ATOM     88  C   UNL     1       5.197  -6.637   9.383  1.00  0.00     0.173 A 
ATOM     89  C   UNL     1       7.051  -6.492  10.897  1.00  0.00     0.173 A 
ATOM     90  F   UNL     1       4.494  -6.209   8.326  1.00  0.00    -0.203 F 
ATOM     91  C   UNL     1       4.813  -7.840   9.972  1.00  0.00     0.198 A 
ATOM     92  C   UNL     1       6.692  -7.715  11.454  1.00  0.00     0.198 A 
ATOM     93  F   UNL     1       8.154  -5.877  11.354  1.00  0.00    -0.203 F 
ATOM     94  F   UNL     1       3.728  -8.491   9.526  1.00  0.00    -0.200 F 
ATOM     95  C   UNL     1       5.565  -8.382  11.001  1.00  0.00     0.200 A 
ATOM     96  F   UNL     1       7.451  -8.256  12.416  1.00  0.00    -0.200 F 
ATOM     97  F   UNL     1       5.219  -9.557  11.543  1.00  0.00    -0.200 F 
ENDBRANCH  64  87
ENDBRANCH  38  39
ENDBRANCH  30  33
ENDBRANCH  28  29
ENDBRANCH  27  28
ENDBRANCH  26  27
ENDBRANCH  25  26
ENDBRANCH   1  25
TORSDOF 17
