REMARK SMILES C[C@@H](C(=O)NCCCCCCNC(=O)c1ccc(-c2c3nc(c(-c4c(F)c(F)c(F)c(F)c4F)c4ccc([nH]4)c(-c4c(F)c(F)c(F)c(F)c4F)c4nc(c(-c5c(F)c(F)c(F)c(F)c5F)c5ccc2[nH]5)C=C4)C=C3)cc1)N1C(=O)/C(=C/c2ccc(F)cc2)SC1=S
REMARK SMILES IDX 8 1 7 2 6 3 5 4 3 5 4 6 2 8 1 9 78 10 79 11 91 12 80 13
REMARK SMILES IDX 81 14 90 15 92 16 82 17 83 18 84 19 89 20 85 21 88 22 86 23
REMARK SMILES IDX 87 24 9 25 10 26 11 27 12 28 13 29 14 31 15 32 16 33 77 34
REMARK SMILES IDX 17 35 76 36 18 37 19 38 20 39 70 40 21 41 75 42 69 43 71 44
REMARK SMILES IDX 22 45 74 46 68 47 67 48 23 50 55 51 35 52 54 53 36 54 39 55
REMARK SMILES IDX 53 56 72 57 37 58 38 59 52 61 73 62 40 63 24 64 25 65 33 66
REMARK SMILES IDX 26 67 27 68 31 69 34 70 28 71 29 72 32 73 30 74 56 75 57 76
REMARK SMILES IDX 65 77 58 78 59 79 63 80 66 81 60 82 61 83 64 84 62 85 41 86
REMARK SMILES IDX 42 87 50 88 43 89 44 90 48 91 51 92 45 93 46 94 49 95 47 96
REMARK H PARENT 5 7 12 30 71 49 39 60
REMARK Flexibility Score: inf
ROOT
ATOM      1  C   UNL     1       4.851  -0.212   2.747  1.00  0.00     0.002 C 
ENDROOT
BRANCH   1   2
ATOM      2  C   UNL     1       4.077  -0.274   1.422  1.00  0.00     0.021 C 
BRANCH   2   3
ATOM      3  C   UNL     1       3.229  -1.538   1.275  1.00  0.00     0.116 C 
BRANCH   3   4
ATOM      4  N   UNL     1       2.109  -1.494   2.189  1.00  0.00    -0.354 N 
ATOM      5  C   UNL     1       0.799  -1.202   1.955  1.00  0.00     0.242 C 
ATOM      6  O   UNL     1       0.057  -1.124   2.938  1.00  0.00    -0.273 OA
ATOM      7  H   UNL     1       2.326  -1.708   3.125  1.00  0.00     0.163 HD
BRANCH   5   8
ATOM      8  C   UNL     1       0.275  -1.041   0.511  1.00  0.00     0.178 C 
ATOM      9  C   UNL     1       0.880   0.111  -0.291  1.00  0.00     0.042 C 
BRANCH   8  10
ATOM     10  N   UNL     1      -1.202  -1.022   0.586  1.00  0.00    -0.281 N 
ATOM     11  C   UNL     1      -1.846  -2.252   0.520  1.00  0.00     0.266 C 
ATOM     12  C   UNL     1      -2.003   0.062   0.893  1.00  0.00     0.149 C 
ATOM     13  O   UNL     1      -1.309  -3.340   0.374  1.00  0.00    -0.268 OA
ATOM     14  C   UNL     1      -3.316  -2.076   0.629  1.00  0.00     0.081 C 
ATOM     15  S   UNL     1      -3.694  -0.423   0.882  1.00  0.00    -0.054 SA
ATOM     16  S   UNL     1      -1.590   1.647   1.220  1.00  0.00    -0.052 S 
ATOM     17  C   UNL     1      -4.173  -3.100   0.509  1.00  0.00     0.029 C 
BRANCH  17  18
ATOM     18  C   UNL     1      -5.631  -2.954   0.479  1.00  0.00    -0.024 A 
ATOM     19  C   UNL     1      -6.421  -3.456   1.519  1.00  0.00     0.011 A 
ATOM     20  C   UNL     1      -6.242  -2.296  -0.600  1.00  0.00     0.011 A 
ATOM     21  C   UNL     1      -7.806  -3.277   1.490  1.00  0.00     0.040 A 
ATOM     22  C   UNL     1      -7.623  -2.113  -0.624  1.00  0.00     0.040 A 
ATOM     23  C   UNL     1      -8.393  -2.603   0.424  1.00  0.00     0.123 A 
ATOM     24  F   UNL     1      -9.719  -2.422   0.405  1.00  0.00    -0.207 F 
ENDBRANCH  17  18
ENDBRANCH   8  10
ENDBRANCH   5   8
ENDBRANCH   3   4
ENDBRANCH   2   3
ENDBRANCH   1   2
BRANCH   1  25
ATOM     25  C   UNL     1       5.842  -1.362   2.965  1.00  0.00     0.002 C 
BRANCH  25  26
ATOM     26  C   UNL     1       6.882  -1.528   1.856  1.00  0.00     0.021 C 
BRANCH  26  27
ATOM     27  C   UNL     1       7.780  -0.313   1.655  1.00  0.00     0.116 C 
BRANCH  27  28
ATOM     28  N   UNL     1       8.614  -0.057   2.819  1.00  0.00    -0.352 N 
ATOM     29  C   UNL     1       9.979   0.047   2.905  1.00  0.00     0.251 C 
ATOM     30  H   UNL     1       8.129   0.058   3.668  1.00  0.00     0.163 HD
ATOM     31  O   UNL     1      10.533   0.048   3.999  1.00  0.00    -0.269 OA
BRANCH  29  32
ATOM     32  C   UNL     1      10.786   0.140   1.670  1.00  0.00     0.039 A 
ATOM     33  C   UNL     1      11.956  -0.616   1.569  1.00  0.00     0.014 A 
ATOM     34  C   UNL     1      10.393   0.975   0.620  1.00  0.00     0.014 A 
ATOM     35  C   UNL     1      12.701  -0.579   0.389  1.00  0.00     0.010 A 
ATOM     36  C   UNL     1      11.092   0.949  -0.583  1.00  0.00     0.010 A 
ATOM     37  C   UNL     1      12.256   0.175  -0.710  1.00  0.00    -0.014 A 
BRANCH  37  38
ATOM     38  C   UNL     1      12.995   0.167  -1.998  1.00  0.00     0.031 A 
ATOM     39  C   UNL     1      13.611   1.432  -2.526  1.00  0.00     0.074 A 
ATOM     40  C   UNL     1      13.058  -0.969  -2.720  1.00  0.00     0.049 A 
ATOM     41  N   UNL     1      14.239   1.639  -3.656  1.00  0.00    -0.248 NA
ATOM     42  C   UNL     1      13.480   2.632  -1.686  1.00  0.00     0.031 C 
ATOM     43  C   UNL     1      12.462  -2.249  -2.336  1.00  0.00     0.029 A 
ATOM     44  N   UNL     1      13.645  -1.228  -3.934  1.00  0.00    -0.354 N 
ATOM     45  C   UNL     1      14.566   2.988  -3.666  1.00  0.00     0.074 A 
ATOM     46  C   UNL     1      14.017   3.565  -2.458  1.00  0.00     0.031 C 
ATOM     47  C   UNL     1      12.734  -3.162  -3.281  1.00  0.00     0.029 A 
ATOM     48  C   UNL     1      13.484  -2.524  -4.358  1.00  0.00     0.049 A 
ATOM     49  H   UNL     1      14.135  -0.548  -4.451  1.00  0.00     0.167 HD
ATOM     50  C   UNL     1      15.282   3.678  -4.586  1.00  0.00     0.037 A 
ATOM     51  C   UNL     1      13.886  -3.127  -5.493  1.00  0.00     0.037 A 
ATOM     52  C   UNL     1      15.841   3.094  -5.778  1.00  0.00     0.049 A 
ATOM     53  C   UNL     1      14.660  -2.332  -6.510  1.00  0.00     0.074 A 
ATOM     54  C   UNL     1      16.629   3.694  -6.744  1.00  0.00     0.029 A 
ATOM     55  N   UNL     1      15.663   1.775  -6.171  1.00  0.00    -0.354 N 
ATOM     56  N   UNL     1      15.027  -1.074  -6.474  1.00  0.00    -0.248 NA
ATOM     57  C   UNL     1      15.083  -3.044  -7.724  1.00  0.00     0.031 C 
ATOM     58  C   UNL     1      16.878   2.756  -7.751  1.00  0.00     0.029 A 
ATOM     59  C   UNL     1      16.302   1.551  -7.380  1.00  0.00     0.049 A 
ATOM     60  H   UNL     1      15.158   1.098  -5.665  1.00  0.00     0.167 HD
ATOM     61  C   UNL     1      15.749  -0.853  -7.639  1.00  0.00     0.074 A 
ATOM     62  C   UNL     1      15.782  -2.111  -8.354  1.00  0.00     0.031 C 
ATOM     63  C   UNL     1      16.332   0.290  -8.078  1.00  0.00     0.037 A 
BRANCH  50  64
ATOM     64  C   UNL     1      15.500   5.144  -4.343  1.00  0.00     0.064 A 
ATOM     65  C   UNL     1      16.311   5.607  -3.296  1.00  0.00     0.173 A 
ATOM     66  C   UNL     1      14.919   6.100  -5.191  1.00  0.00     0.173 A 
ATOM     67  F   UNL     1      16.883   4.738  -2.449  1.00  0.00    -0.203 F 
ATOM     68  C   UNL     1      16.506   6.971  -3.087  1.00  0.00     0.198 A 
ATOM     69  C   UNL     1      15.145   7.461  -5.000  1.00  0.00     0.198 A 
ATOM     70  F   UNL     1      14.139   5.715  -6.212  1.00  0.00    -0.203 F 
ATOM     71  F   UNL     1      17.241   7.389  -2.047  1.00  0.00    -0.200 F 
ATOM     72  C   UNL     1      15.930   7.896  -3.943  1.00  0.00     0.200 A 
ATOM     73  F   UNL     1      14.600   8.353  -5.839  1.00  0.00    -0.200 F 
ATOM     74  F   UNL     1      16.126   9.207  -3.747  1.00  0.00    -0.200 F 
ENDBRANCH  50  64
BRANCH  51  75
ATOM     75  C   UNL     1      13.578  -4.564  -5.722  1.00  0.00     0.064 A 
ATOM     76  C   UNL     1      14.597  -5.526  -5.747  1.00  0.00     0.173 A 
ATOM     77  C   UNL     1      12.262  -5.004  -5.931  1.00  0.00     0.173 A 
ATOM     78  F   UNL     1      15.874  -5.152  -5.572  1.00  0.00    -0.203 F 
ATOM     79  C   UNL     1      14.317  -6.867  -5.997  1.00  0.00     0.198 A 
ATOM     80  C   UNL     1      11.979  -6.351  -6.149  1.00  0.00     0.198 A 
ATOM     81  F   UNL     1      11.248  -4.127  -5.912  1.00  0.00    -0.203 F 
ATOM     82  F   UNL     1      15.317  -7.756  -6.068  1.00  0.00    -0.200 F 
ATOM     83  C   UNL     1      13.008  -7.280  -6.192  1.00  0.00     0.200 A 
ATOM     84  F   UNL     1      10.711  -6.748  -6.319  1.00  0.00    -0.200 F 
ATOM     85  F   UNL     1      12.738  -8.571  -6.429  1.00  0.00    -0.200 F 
ENDBRANCH  51  75
BRANCH  63  86
ATOM     86  C   UNL     1      17.093   0.225  -9.372  1.00  0.00     0.064 A 
ATOM     87  C   UNL     1      16.443   0.066 -10.605  1.00  0.00     0.173 A 
ATOM     88  C   UNL     1      18.489   0.363  -9.380  1.00  0.00     0.173 A 
ATOM     89  F   UNL     1      15.111  -0.085 -10.653  1.00  0.00    -0.203 F 
ATOM     90  C   UNL     1      17.166   0.018 -11.795  1.00  0.00     0.198 A 
ATOM     91  C   UNL     1      19.206   0.351 -10.574  1.00  0.00     0.198 A 
ATOM     92  F   UNL     1      19.160   0.526  -8.230  1.00  0.00    -0.203 F 
ATOM     93  F   UNL     1      16.529  -0.190 -12.955  1.00  0.00    -0.200 F 
ATOM     94  C   UNL     1      18.545   0.169 -11.779  1.00  0.00     0.200 A 
ATOM     95  F   UNL     1      20.535   0.515 -10.557  1.00  0.00    -0.200 F 
ATOM     96  F   UNL     1      19.238   0.132 -12.925  1.00  0.00    -0.200 F 
ENDBRANCH  63  86
ENDBRANCH  37  38
ENDBRANCH  29  32
ENDBRANCH  27  28
ENDBRANCH  26  27
ENDBRANCH  25  26
ENDBRANCH   1  25
TORSDOF 15
