REMARK SMILES CC1=C(C(=O)NCCCCCCNC(=O)c2ccc(-c3c4nc(c(-c5c(F)c(F)c(F)c(F)c5F)c5ccc([nH]5)c(-c5c(F)c(F)c(F)c(F)c5F)c5nc(c(-c6c(F)c(F)c(F)c(F)c6F)c6ccc3[nH]6)C=C5)C=C4)cc2)N2C(=O)[C@@H](NC(=O)c3ccn(C)n3)[C@H]2SC1
REMARK SMILES IDX 9 1 8 2 7 3 6 4 4 5 5 6 3 8 1 9 2 10 94 11 79 12 93 13 80 14
REMARK SMILES IDX 92 15 81 16 82 17 83 18 84 19 85 21 86 22 87 23 91 24 88 25
REMARK SMILES IDX 89 26 90 27 10 28 11 29 12 30 13 31 14 32 15 34 16 35 17 36
REMARK SMILES IDX 78 37 18 38 77 39 19 40 20 41 21 42 71 43 22 44 76 45 70 46
REMARK SMILES IDX 72 47 23 48 75 49 69 50 68 51 24 53 56 54 36 55 55 56 37 57
REMARK SMILES IDX 40 58 54 59 73 60 38 61 39 62 53 64 74 65 41 66 25 67 26 68
REMARK SMILES IDX 34 69 27 70 28 71 32 72 35 73 29 74 30 75 33 76 31 77 57 78
REMARK SMILES IDX 58 79 66 80 59 81 60 82 64 83 67 84 61 85 62 86 65 87 63 88
REMARK SMILES IDX 42 89 43 90 51 91 44 92 45 93 49 94 52 95 46 96 47 97 50 98
REMARK SMILES IDX 48 99
REMARK H PARENT 6 7 83 20 13 33 72 52 40 63
REMARK Flexibility Score: inf
ROOT
ATOM      1  C   UNL     1       3.275  -5.511   1.985  1.00  0.00     0.002 C 
ENDROOT
BRANCH   1   2
ATOM      2  C   UNL     1       2.993  -4.045   2.328  1.00  0.00     0.021 C 
BRANCH   2   3
ATOM      3  C   UNL     1       2.636  -3.130   1.166  1.00  0.00     0.116 C 
BRANCH   3   4
ATOM      4  N   UNL     1       1.421  -3.454   0.455  1.00  0.00    -0.351 N 
ATOM      5  C   UNL     1       0.615  -2.643  -0.297  1.00  0.00     0.268 C 
ATOM      6  O   UNL     1      -0.259  -3.159  -0.995  1.00  0.00    -0.268 OA
ATOM      7  H   UNL     1       1.131  -4.393   0.520  1.00  0.00     0.163 HD
BRANCH   5   8
ATOM      8  C   UNL     1       0.746  -1.136  -0.253  1.00  0.00     0.110 C 
ATOM      9  C   UNL     1       3.178  -0.964  -0.939  1.00  0.00     0.043 C 
ATOM     10  C   UNL     1       1.881  -0.408  -0.417  1.00  0.00    -0.034 C 
ATOM     11  C   UNL     1       1.971   1.100  -0.155  1.00  0.00     0.104 C 
ATOM     12  N   UNL     1      -0.428  -0.449  -0.231  1.00  0.00    -0.290 N 
ATOM     13  S   UNL     1       0.403   1.931   0.280  1.00  0.00    -0.129 SA
ATOM     14  C   UNL     1      -1.732  -0.622   0.055  1.00  0.00     0.253 C 
ATOM     15  C   UNL     1      -0.540   0.863  -0.826  1.00  0.00     0.181 C 
ATOM     16  O   UNL     1      -2.356  -1.482   0.633  1.00  0.00    -0.272 OA
ATOM     17  C   UNL     1      -2.065   0.712  -0.675  1.00  0.00     0.206 C 
BRANCH  17  18
ATOM     18  N   UNL     1      -2.804   1.774   0.040  1.00  0.00    -0.336 N 
ATOM     19  C   UNL     1      -3.807   2.574  -0.481  1.00  0.00     0.272 C 
ATOM     20  H   UNL     1      -2.558   1.929   0.980  1.00  0.00     0.164 HD
ATOM     21  O   UNL     1      -4.195   3.543   0.170  1.00  0.00    -0.267 OA
BRANCH  19  22
ATOM     22  C   UNL     1      -4.347   2.225  -1.807  1.00  0.00     0.150 A 
ATOM     23  C   UNL     1      -4.873   0.969  -2.228  1.00  0.00     0.056 A 
ATOM     24  N   UNL     1      -4.354   3.103  -2.829  1.00  0.00    -0.168 NA
ATOM     25  C   UNL     1      -5.159   1.117  -3.563  1.00  0.00     0.109 A 
ATOM     26  N   UNL     1      -4.879   2.417  -3.859  1.00  0.00    -0.275 N 
ATOM     27  C   UNL     1      -5.072   3.059  -5.138  1.00  0.00     0.173 C 
ENDBRANCH  19  22
ENDBRANCH  17  18
ENDBRANCH   5   8
ENDBRANCH   3   4
ENDBRANCH   2   3
ENDBRANCH   1   2
BRANCH   1  28
ATOM     28  C   UNL     1       4.266  -5.789   0.850  1.00  0.00     0.002 C 
BRANCH  28  29
ATOM     29  C   UNL     1       5.635  -5.111   0.943  1.00  0.00     0.021 C 
BRANCH  29  30
ATOM     30  C   UNL     1       6.386  -5.295   2.256  1.00  0.00     0.116 C 
BRANCH  30  31
ATOM     31  N   UNL     1       6.636  -6.688   2.581  1.00  0.00    -0.352 N 
ATOM     32  C   UNL     1       7.805  -7.310   2.943  1.00  0.00     0.251 C 
ATOM     33  H   UNL     1       5.847  -7.275   2.534  1.00  0.00     0.163 HD
ATOM     34  O   UNL     1       7.843  -8.532   3.050  1.00  0.00    -0.269 OA
BRANCH  32  35
ATOM     35  C   UNL     1       9.033  -6.517   3.176  1.00  0.00     0.039 A 
ATOM     36  C   UNL     1      10.242  -6.987   2.656  1.00  0.00     0.014 A 
ATOM     37  C   UNL     1       9.003  -5.326   3.907  1.00  0.00     0.014 A 
ATOM     38  C   UNL     1      11.406  -6.231   2.814  1.00  0.00     0.010 A 
ATOM     39  C   UNL     1      10.146  -4.535   3.992  1.00  0.00     0.010 A 
ATOM     40  C   UNL     1      11.361  -4.980   3.450  1.00  0.00    -0.014 A 
BRANCH  40  41
ATOM     41  C   UNL     1      12.574  -4.126   3.549  1.00  0.00     0.031 A 
ATOM     42  C   UNL     1      13.146  -3.771   4.894  1.00  0.00     0.074 A 
ATOM     43  C   UNL     1      13.129  -3.624   2.428  1.00  0.00     0.049 A 
ATOM     44  N   UNL     1      14.161  -2.996   5.184  1.00  0.00    -0.248 NA
ATOM     45  C   UNL     1      12.471  -4.340   6.070  1.00  0.00     0.031 C 
ATOM     46  C   UNL     1      12.643  -3.861   1.068  1.00  0.00     0.029 A 
ATOM     47  N   UNL     1      14.217  -2.806   2.254  1.00  0.00    -0.354 N 
ATOM     48  C   UNL     1      14.241  -2.981   6.571  1.00  0.00     0.074 A 
ATOM     49  C   UNL     1      13.134  -3.771   7.065  1.00  0.00     0.031 C 
ATOM     50  C   UNL     1      13.445  -3.225   0.199  1.00  0.00     0.029 A 
ATOM     51  C   UNL     1      14.471  -2.498   0.940  1.00  0.00     0.049 A 
ATOM     52  H   UNL     1      14.764  -2.471   3.001  1.00  0.00     0.167 HD
ATOM     53  C   UNL     1      15.168  -2.384   7.359  1.00  0.00     0.037 A 
ATOM     54  C   UNL     1      15.416  -1.709   0.393  1.00  0.00     0.037 A 
ATOM     55  C   UNL     1      16.272  -1.606   6.861  1.00  0.00     0.049 A 
ATOM     56  C   UNL     1      16.413  -1.029   1.292  1.00  0.00     0.074 A 
ATOM     57  C   UNL     1      17.292  -1.001   7.574  1.00  0.00     0.029 A 
ATOM     58  N   UNL     1      16.495  -1.316   5.522  1.00  0.00    -0.354 N 
ATOM     59  N   UNL     1      16.520  -1.078   2.598  1.00  0.00    -0.248 NA
ATOM     60  C   UNL     1      17.426  -0.189   0.640  1.00  0.00     0.031 C 
ATOM     61  C   UNL     1      18.093  -0.290   6.674  1.00  0.00     0.029 A 
ATOM     62  C   UNL     1      17.618  -0.512   5.392  1.00  0.00     0.049 A 
ATOM     63  H   UNL     1      15.939  -1.633   4.774  1.00  0.00     0.167 HD
ATOM     64  C   UNL     1      17.627  -0.305   2.921  1.00  0.00     0.074 A 
ATOM     65  C   UNL     1      18.168   0.189   1.671  1.00  0.00     0.031 C 
ATOM     66  C   UNL     1      18.149  -0.030   4.142  1.00  0.00     0.037 A 
BRANCH  53  67
ATOM     67  C   UNL     1      15.021  -2.542   8.847  1.00  0.00     0.064 A 
ATOM     68  C   UNL     1      15.192  -3.784   9.479  1.00  0.00     0.173 A 
ATOM     69  C   UNL     1      14.736  -1.432   9.657  1.00  0.00     0.173 A 
ATOM     70  F   UNL     1      15.457  -4.881   8.754  1.00  0.00    -0.203 F 
ATOM     71  C   UNL     1      15.045  -3.915  10.858  1.00  0.00     0.198 A 
ATOM     72  C   UNL     1      14.628  -1.560  11.040  1.00  0.00     0.198 A 
ATOM     73  F   UNL     1      14.570  -0.219   9.109  1.00  0.00    -0.203 F 
ATOM     74  F   UNL     1      15.152  -5.122  11.430  1.00  0.00    -0.200 F 
ATOM     75  C   UNL     1      14.771  -2.802  11.638  1.00  0.00     0.200 A 
ATOM     76  F   UNL     1      14.380  -0.479  11.793  1.00  0.00    -0.200 F 
ATOM     77  F   UNL     1      14.637  -2.928  12.965  1.00  0.00    -0.200 F 
ENDBRANCH  53  67
BRANCH  54  78
ATOM     78  C   UNL     1      15.472  -1.530  -1.083  1.00  0.00     0.064 A 
ATOM     79  C   UNL     1      16.544  -2.033  -1.832  1.00  0.00     0.173 A 
ATOM     80  C   UNL     1      14.459  -0.848  -1.774  1.00  0.00     0.173 A 
ATOM     81  F   UNL     1      17.548  -2.676  -1.216  1.00  0.00    -0.203 F 
ATOM     82  C   UNL     1      16.615  -1.840  -3.211  1.00  0.00     0.198 A 
ATOM     83  C   UNL     1      14.513  -0.686  -3.157  1.00  0.00     0.198 A 
ATOM     84  F   UNL     1      13.406  -0.352  -1.107  1.00  0.00    -0.203 F 
ATOM     85  F   UNL     1      17.678  -2.286  -3.894  1.00  0.00    -0.200 F 
ATOM     86  C   UNL     1      15.595  -1.173  -3.873  1.00  0.00     0.200 A 
ATOM     87  F   UNL     1      13.516  -0.057  -3.794  1.00  0.00    -0.200 F 
ATOM     88  F   UNL     1      15.660  -0.992  -5.199  1.00  0.00    -0.200 F 
ENDBRANCH  54  78
BRANCH  66  89
ATOM     89  C   UNL     1      19.394   0.812   4.188  1.00  0.00     0.064 A 
ATOM     90  C   UNL     1      19.381   2.175   3.858  1.00  0.00     0.173 A 
ATOM     91  C   UNL     1      20.612   0.252   4.608  1.00  0.00     0.173 A 
ATOM     92  F   UNL     1      18.248   2.758   3.437  1.00  0.00    -0.203 F 
ATOM     93  C   UNL     1      20.545   2.938   3.915  1.00  0.00     0.198 A 
ATOM     94  C   UNL     1      21.765   1.026   4.701  1.00  0.00     0.198 A 
ATOM     95  F   UNL     1      20.680  -1.045   4.943  1.00  0.00    -0.203 F 
ATOM     96  F   UNL     1      20.520   4.224   3.540  1.00  0.00    -0.200 F 
ATOM     97  C   UNL     1      21.733   2.366   4.345  1.00  0.00     0.200 A 
ATOM     98  F   UNL     1      22.907   0.475   5.134  1.00  0.00    -0.200 F 
ATOM     99  F   UNL     1      22.850   3.104   4.409  1.00  0.00    -0.200 F 
ENDBRANCH  66  89
ENDBRANCH  40  41
ENDBRANCH  32  35
ENDBRANCH  30  31
ENDBRANCH  29  30
ENDBRANCH  28  29
ENDBRANCH   1  28
TORSDOF 15
