REMARK SMILES CCS(=O)(=O)Nc1ccc(N2CC[NH+](C)CC2)cc1C(=O)NCCCCCCNC(=O)c1ccc(-c2c3nc(c(-c4c(F)c(F)c(F)c(F)c4F)c4ccc([nH]4)c(-c4c(F)c(F)c(F)c(F)c4F)c4nc(c(-c5c(F)c(F)c(F)c(F)c5F)c5ccc2[nH]5)C=C4)C=C3)cc1
REMARK SMILES IDX 25 1 24 2 23 3 22 4 20 5 21 6 19 8 7 9 8 10 9 11 18 12 10 13
REMARK SMILES IDX 6 14 3 16 4 17 5 18 2 19 1 20 11 21 12 22 17 23 13 24 16 25
REMARK SMILES IDX 14 26 15 27 26 29 27 30 28 31 29 32 30 33 31 35 32 36 33 37
REMARK SMILES IDX 94 38 34 39 93 40 35 41 36 42 37 43 87 44 38 45 92 46 86 47
REMARK SMILES IDX 88 48 39 49 91 50 85 51 84 52 40 54 72 55 52 56 71 57 53 58
REMARK SMILES IDX 56 59 70 60 89 61 54 62 55 63 69 65 90 66 57 67 41 68 42 69
REMARK SMILES IDX 50 70 43 71 44 72 48 73 51 74 45 75 46 76 49 77 47 78 73 79
REMARK SMILES IDX 74 80 82 81 75 82 76 83 80 84 83 85 77 86 78 87 81 88 79 89
REMARK SMILES IDX 58 90 59 91 67 92 60 93 61 94 65 95 68 96 62 97 63 98 66 99
REMARK SMILES IDX 64 100
REMARK H PARENT 22 7 6 15 14 28 29 34 88 53 56 64
REMARK Flexibility Score: inf
ROOT
ATOM      1  C   UNL     1       0.112  -0.215  -4.739  1.00  0.00     0.002 C 
ENDROOT
BRANCH   1   2
ATOM      2  C   UNL     1       1.631   0.009  -4.639  1.00  0.00     0.021 C 
BRANCH   2   3
ATOM      3  C   UNL     1       2.189   0.451  -3.286  1.00  0.00     0.116 C 
BRANCH   3   4
ATOM      4  N   UNL     1       1.886  -0.464  -2.204  1.00  0.00    -0.352 N 
ATOM      5  C   UNL     1       2.327  -0.522  -0.907  1.00  0.00     0.253 C 
ATOM      6  O   UNL     1       1.951  -1.476  -0.221  1.00  0.00    -0.269 OA
ATOM      7  H   UNL     1       1.247  -1.173  -2.444  1.00  0.00     0.163 HD
BRANCH   5   8
ATOM      8  C   UNL     1       3.265   0.462  -0.294  1.00  0.00     0.066 A 
ATOM      9  C   UNL     1       3.263   1.845  -0.491  1.00  0.00     0.061 A 
ATOM     10  C   UNL     1       4.324   2.599   0.021  1.00  0.00     0.030 A 
ATOM     11  C   UNL     1       5.225   2.043   0.922  1.00  0.00     0.028 A 
ATOM     12  C   UNL     1       4.158  -0.067   0.681  1.00  0.00     0.042 A 
ATOM     13  C   UNL     1       5.080   0.733   1.376  1.00  0.00     0.038 A 
BRANCH   9  14
ATOM     14  N   UNL     1       2.256   2.632  -1.124  1.00  0.00    -0.283 N 
ATOM     15  H   UNL     1       2.518   3.174  -1.902  1.00  0.00     0.180 HD
BRANCH  14  16
ATOM     16  S   UNL     1       0.661   2.697  -0.632  1.00  0.00     0.232 S 
ATOM     17  O   UNL     1      -0.093   1.717  -1.378  1.00  0.00    -0.207 OA
ATOM     18  O   UNL     1       0.336   4.101  -0.782  1.00  0.00    -0.207 OA
BRANCH  16  19
ATOM     19  C   UNL     1       0.517   2.302   1.109  1.00  0.00     0.156 C 
ATOM     20  C   UNL     1       0.362   0.825   1.418  1.00  0.00     0.023 C 
ENDBRANCH  16  19
ENDBRANCH  14  16
ENDBRANCH   9  14
BRANCH  13  21
ATOM     21  N   UNL     1       5.737   0.310   2.512  1.00  0.00    -0.360 N 
ATOM     22  C   UNL     1       6.322  -1.027   2.686  1.00  0.00     0.178 C 
ATOM     23  C   UNL     1       6.081   1.277   3.574  1.00  0.00     0.178 C 
ATOM     24  C   UNL     1       6.083  -1.555   4.127  1.00  0.00     0.283 C 
ATOM     25  C   UNL     1       5.811   0.682   4.971  1.00  0.00     0.283 C 
ATOM     26  N   UNL     1       6.507  -0.603   5.181  1.00  0.00    -0.334 N 
ATOM     27  C   UNL     1       6.205  -1.128   6.512  1.00  0.00     0.332 C 
ATOM     28  H   UNL     1       7.516  -0.465   5.122  1.00  0.00     0.347 HD
ENDBRANCH  13  21
ENDBRANCH   5   8
ENDBRANCH   3   4
ENDBRANCH   2   3
ENDBRANCH   1   2
BRANCH   1  29
ATOM     29  C   UNL     1      -0.838   0.937  -4.397  1.00  0.00     0.002 C 
BRANCH  29  30
ATOM     30  C   UNL     1      -0.502   2.314  -4.959  1.00  0.00     0.021 C 
BRANCH  30  31
ATOM     31  C   UNL     1      -0.383   2.360  -6.473  1.00  0.00     0.116 C 
BRANCH  31  32
ATOM     32  N   UNL     1      -1.592   1.927  -7.159  1.00  0.00    -0.352 N 
ATOM     33  C   UNL     1      -2.171   2.448  -8.289  1.00  0.00     0.251 C 
ATOM     34  H   UNL     1      -2.057   1.157  -6.758  1.00  0.00     0.163 HD
ATOM     35  O   UNL     1      -3.256   2.042  -8.689  1.00  0.00    -0.269 OA
BRANCH  33  36
ATOM     36  C   UNL     1      -1.477   3.535  -9.007  1.00  0.00     0.039 A 
ATOM     37  C   UNL     1      -2.193   4.679  -9.366  1.00  0.00     0.014 A 
ATOM     38  C   UNL     1      -0.111   3.438  -9.279  1.00  0.00     0.014 A 
ATOM     39  C   UNL     1      -1.521   5.756  -9.945  1.00  0.00     0.010 A 
ATOM     40  C   UNL     1       0.571   4.543  -9.769  1.00  0.00     0.010 A 
ATOM     41  C   UNL     1      -0.129   5.710 -10.117  1.00  0.00    -0.014 A 
BRANCH  41  42
ATOM     42  C   UNL     1       0.628   6.843 -10.702  1.00  0.00     0.031 A 
ATOM     43  C   UNL     1       1.379   6.635 -11.989  1.00  0.00     0.074 A 
ATOM     44  C   UNL     1       0.705   8.018 -10.048  1.00  0.00     0.049 A 
ATOM     45  N   UNL     1       2.230   7.425 -12.591  1.00  0.00    -0.248 NA
ATOM     46  C   UNL     1       1.172   5.346 -12.672  1.00  0.00     0.031 C 
ATOM     47  C   UNL     1       0.044   8.330  -8.779  1.00  0.00     0.029 A 
ATOM     48  N   UNL     1       1.395   9.166 -10.351  1.00  0.00    -0.354 N 
ATOM     49  C   UNL     1       2.663   6.726 -13.710  1.00  0.00     0.074 A 
ATOM     50  C   UNL     1       2.039   5.423 -13.669  1.00  0.00     0.031 C 
ATOM     51  C   UNL     1       0.351   9.587  -8.420  1.00  0.00     0.029 A 
ATOM     52  C   UNL     1       1.269  10.153  -9.403  1.00  0.00     0.049 A 
ATOM     53  H   UNL     1       1.929   9.272 -11.171  1.00  0.00     0.167 HD
ATOM     54  C   UNL     1       3.482   7.147 -14.702  1.00  0.00     0.037 A 
ATOM     55  C   UNL     1       1.850  11.366  -9.329  1.00  0.00     0.037 A 
ATOM     56  C   UNL     1       4.079   8.454 -14.750  1.00  0.00     0.049 A 
ATOM     57  C   UNL     1       2.790  11.793 -10.429  1.00  0.00     0.074 A 
ATOM     58  C   UNL     1       4.910   8.987 -15.719  1.00  0.00     0.029 A 
ATOM     59  N   UNL     1       3.900   9.436 -13.787  1.00  0.00    -0.354 N 
ATOM     60  N   UNL     1       3.161  11.139 -11.503  1.00  0.00    -0.248 NA
ATOM     61  C   UNL     1       3.387  13.131 -10.311  1.00  0.00     0.031 C 
ATOM     62  C   UNL     1       5.268  10.278 -15.322  1.00  0.00     0.029 A 
ATOM     63  C   UNL     1       4.611  10.571 -14.138  1.00  0.00     0.049 A 
ATOM     64  H   UNL     1       3.350   9.341 -12.976  1.00  0.00     0.167 HD
ATOM     65  C   UNL     1       3.990  12.001 -12.209  1.00  0.00     0.074 A 
ATOM     66  C   UNL     1       4.064  13.228 -11.446  1.00  0.00     0.031 C 
ATOM     67  C   UNL     1       4.633  11.798 -13.384  1.00  0.00     0.037 A 
BRANCH  54  68
ATOM     68  C   UNL     1       3.761   6.197 -15.829  1.00  0.00     0.064 A 
ATOM     69  C   UNL     1       2.765   5.849 -16.755  1.00  0.00     0.173 A 
ATOM     70  C   UNL     1       5.048   5.676 -16.024  1.00  0.00     0.173 A 
ATOM     71  F   UNL     1       1.514   6.310 -16.605  1.00  0.00    -0.203 F 
ATOM     72  C   UNL     1       3.043   5.000 -17.822  1.00  0.00     0.198 A 
ATOM     73  C   UNL     1       5.331   4.854 -17.112  1.00  0.00     0.198 A 
ATOM     74  F   UNL     1       6.038   5.979 -15.171  1.00  0.00    -0.203 F 
ATOM     75  F   UNL     1       2.065   4.649 -18.669  1.00  0.00    -0.200 F 
ATOM     76  C   UNL     1       4.328   4.513 -18.006  1.00  0.00     0.200 A 
ATOM     77  F   UNL     1       6.577   4.396 -17.297  1.00  0.00    -0.200 F 
ATOM     78  F   UNL     1       4.599   3.711 -19.045  1.00  0.00    -0.200 F 
ENDBRANCH  54  68
BRANCH  55  79
ATOM     79  C   UNL     1       1.575  12.271  -8.179  1.00  0.00     0.064 A 
ATOM     80  C   UNL     1       0.924  13.499  -8.366  1.00  0.00     0.173 A 
ATOM     81  C   UNL     1       2.011  11.960  -6.882  1.00  0.00     0.173 A 
ATOM     82  F   UNL     1       0.503  13.854  -9.589  1.00  0.00    -0.203 F 
ATOM     83  C   UNL     1       0.763  14.400  -7.314  1.00  0.00     0.198 A 
ATOM     84  C   UNL     1       1.815  12.844  -5.823  1.00  0.00     0.198 A 
ATOM     85  F   UNL     1       2.634  10.796  -6.643  1.00  0.00    -0.203 F 
ATOM     86  F   UNL     1       0.210  15.599  -7.541  1.00  0.00    -0.200 F 
ATOM     87  C   UNL     1       1.208  14.071  -6.043  1.00  0.00     0.200 A 
ATOM     88  F   UNL     1       2.233  12.516  -4.593  1.00  0.00    -0.200 F 
ATOM     89  F   UNL     1       1.067  14.942  -5.035  1.00  0.00    -0.200 F 
ENDBRANCH  55  79
BRANCH  67  90
ATOM     90  C   UNL     1       5.403  12.947 -13.967  1.00  0.00     0.064 A 
ATOM     91  C   UNL     1       6.609  13.393 -13.409  1.00  0.00     0.173 A 
ATOM     92  C   UNL     1       4.954  13.565 -15.146  1.00  0.00     0.173 A 
ATOM     93  F   UNL     1       7.074  12.844 -12.277  1.00  0.00    -0.203 F 
ATOM     94  C   UNL     1       7.328  14.429 -13.999  1.00  0.00     0.198 A 
ATOM     95  C   UNL     1       5.693  14.576 -15.751  1.00  0.00     0.198 A 
ATOM     96  F   UNL     1       3.810  13.168 -15.724  1.00  0.00    -0.203 F 
ATOM     97  F   UNL     1       8.456  14.869 -13.425  1.00  0.00    -0.200 F 
ATOM     98  C   UNL     1       6.876  15.012 -15.174  1.00  0.00     0.200 A 
ATOM     99  F   UNL     1       5.264  15.124 -16.896  1.00  0.00    -0.200 F 
ATOM    100  F   UNL     1       7.579  15.997 -15.749  1.00  0.00    -0.200 F 
ENDBRANCH  67  90
ENDBRANCH  41  42
ENDBRANCH  33  36
ENDBRANCH  31  32
ENDBRANCH  30  31
ENDBRANCH  29  30
ENDBRANCH   1  29
TORSDOF 17
