REMARK SMILES COc1c[nH]c(C[N@H+]2CCC[C@@H](c3ccc(C(=O)NCCCCCCNC(=O)c4ccc(-c5c6nc(c(-c7c(F)c(F)c(F)c(F)c7F)c7ccc([nH]7)c(-c7c(F)c(F)c(F)c(F)c7F)c7nc(c(-c8c(F)c(F)c(F)c(F)c8F)c8ccc5[nH]8)C=C7)C=C6)cc4)cc3)C2)cc1=O
REMARK SMILES IDX 21 1 20 2 19 3 17 4 18 5 16 7 13 8 14 9 93 10 15 11 92 12
REMARK SMILES IDX 12 13 8 14 9 15 94 16 10 18 11 19 7 20 6 21 3 22 4 23 96 24
REMARK SMILES IDX 5 25 95 26 97 27 2 29 1 30 22 31 23 32 24 33 25 34 26 35
REMARK SMILES IDX 27 36 28 38 29 39 30 40 91 41 31 42 90 43 32 44 33 45 34 46
REMARK SMILES IDX 84 47 35 48 89 49 83 50 85 51 36 52 88 53 82 54 81 55 37 57
REMARK SMILES IDX 69 58 49 59 68 60 50 61 53 62 67 63 86 64 51 65 52 66 66 68
REMARK SMILES IDX 87 69 54 70 38 71 39 72 47 73 40 74 41 75 45 76 48 77 42 78
REMARK SMILES IDX 43 79 46 80 44 81 70 82 71 83 79 84 72 85 73 86 77 87 80 88
REMARK SMILES IDX 74 89 75 90 78 91 76 92 55 93 56 94 64 95 57 96 58 97 62 98
REMARK SMILES IDX 65 99 59 100 60 101 63 102 61 103
REMARK H PARENT 19 6 8 17 5 28 26 37 85 56 53 67
REMARK Flexibility Score: inf
ROOT
ATOM      1  C   UNL     1      -6.839  10.442  -3.097  1.00  0.00     0.021 C 
ENDROOT
BRANCH   1   2
ATOM      2  C   UNL     1      -6.550   9.421  -1.996  1.00  0.00     0.116 C 
BRANCH   2   3
ATOM      3  N   UNL     1      -6.619   8.086  -2.549  1.00  0.00    -0.352 N 
ATOM      4  C   UNL     1      -5.648   7.235  -3.001  1.00  0.00     0.251 C 
ATOM      5  O   UNL     1      -6.009   6.161  -3.482  1.00  0.00    -0.269 OA
ATOM      6  H   UNL     1      -7.532   7.723  -2.611  1.00  0.00     0.163 HD
BRANCH   4   7
ATOM      7  C   UNL     1      -4.193   7.517  -2.858  1.00  0.00     0.039 A 
ATOM      8  C   UNL     1      -1.429   7.837  -2.365  1.00  0.00    -0.039 A 
ATOM      9  C   UNL     1      -1.998   6.559  -2.482  1.00  0.00     0.005 A 
ATOM     10  C   UNL     1      -2.244   8.949  -2.596  1.00  0.00     0.005 A 
ATOM     11  C   UNL     1      -3.365   6.402  -2.704  1.00  0.00     0.014 A 
ATOM     12  C   UNL     1      -3.607   8.786  -2.873  1.00  0.00     0.014 A 
BRANCH   8  13
ATOM     13  C   UNL     1       0.037   8.024  -2.000  1.00  0.00     0.074 C 
ATOM     14  N   UNL     1       1.826   7.167  -0.406  1.00  0.00    -0.329 N 
ATOM     15  C   UNL     1       2.657   6.792  -1.560  1.00  0.00     0.262 C 
ATOM     16  C   UNL     1       0.400   7.184  -0.755  1.00  0.00     0.270 C 
ATOM     17  H   UNL     1       2.079   8.120  -0.143  1.00  0.00     0.348 HD
ATOM     18  C   UNL     1       2.405   7.702  -2.764  1.00  0.00     0.062 C 
ATOM     19  C   UNL     1       0.940   7.665  -3.184  1.00  0.00     0.020 C 
BRANCH  14  20
ATOM     20  C   UNL     1       2.105   6.312   0.776  1.00  0.00     0.317 C 
BRANCH  20  21
ATOM     21  C   UNL     1       1.825   4.818   0.613  1.00  0.00     0.074 A 
ATOM     22  C   UNL     1       1.044   2.167  -0.110  1.00  0.00     0.182 A 
ATOM     23  C   UNL     1       0.161   3.135   0.165  1.00  0.00     0.133 A 
ATOM     24  C   UNL     1       2.494   2.511   0.117  1.00  0.00     0.223 A 
ATOM     25  N   UNL     1       0.510   4.384   0.600  1.00  0.00    -0.357 N 
ATOM     26  C   UNL     1       2.823   3.932   0.438  1.00  0.00     0.083 A 
ATOM     27  O   UNL     1       3.404   1.693   0.014  1.00  0.00    -0.286 OA
ATOM     28  H   UNL     1      -0.196   4.994   0.913  1.00  0.00     0.166 HD
BRANCH  22  29
ATOM     29  O   UNL     1       0.621   0.973  -0.662  1.00  0.00    -0.491 OA
ATOM     30  C   UNL     1       1.115  -0.174   0.016  1.00  0.00     0.278 C 
ENDBRANCH  22  29
ENDBRANCH  20  21
ENDBRANCH  14  20
ENDBRANCH   8  13
ENDBRANCH   4   7
ENDBRANCH   2   3
ENDBRANCH   1   2
BRANCH   1  31
ATOM     31  C   UNL     1      -8.333  10.551  -3.428  1.00  0.00     0.002 C 
BRANCH  31  32
ATOM     32  C   UNL     1      -9.206  11.035  -2.264  1.00  0.00     0.002 C 
BRANCH  32  33
ATOM     33  C   UNL     1      -8.755  12.358  -1.643  1.00  0.00     0.021 C 
BRANCH  33  34
ATOM     34  C   UNL     1      -8.787  13.528  -2.618  1.00  0.00     0.116 C 
BRANCH  34  35
ATOM     35  N   UNL     1     -10.151  13.852  -3.012  1.00  0.00    -0.352 N 
ATOM     36  C   UNL     1     -10.823  15.042  -2.869  1.00  0.00     0.251 C 
ATOM     37  H   UNL     1     -10.658  13.123  -3.437  1.00  0.00     0.163 HD
ATOM     38  O   UNL     1     -12.033  15.108  -3.017  1.00  0.00    -0.269 OA
BRANCH  36  39
ATOM     39  C   UNL     1     -10.047  16.248  -2.520  1.00  0.00     0.039 A 
ATOM     40  C   UNL     1     -10.471  17.058  -1.465  1.00  0.00     0.014 A 
ATOM     41  C   UNL     1      -8.877  16.546  -3.225  1.00  0.00     0.014 A 
ATOM     42  C   UNL     1      -9.682  18.140  -1.071  1.00  0.00     0.010 A 
ATOM     43  C   UNL     1      -8.059  17.576  -2.785  1.00  0.00     0.010 A 
ATOM     44  C   UNL     1      -8.454  18.385  -1.707  1.00  0.00    -0.014 A 
BRANCH  44  45
ATOM     45  C   UNL     1      -7.557  19.490  -1.292  1.00  0.00     0.031 A 
ATOM     46  C   UNL     1      -7.252  20.591  -2.267  1.00  0.00     0.074 A 
ATOM     47  C   UNL     1      -6.937  19.444  -0.098  1.00  0.00     0.049 A 
ATOM     48  N   UNL     1      -6.358  21.543  -2.191  1.00  0.00    -0.248 NA
ATOM     49  C   UNL     1      -8.037  20.600  -3.513  1.00  0.00     0.031 C 
ATOM     50  C   UNL     1      -7.137  18.414   0.921  1.00  0.00     0.029 A 
ATOM     51  N   UNL     1      -5.989  20.273   0.449  1.00  0.00    -0.354 N 
ATOM     52  C   UNL     1      -6.455  22.244  -3.386  1.00  0.00     0.074 A 
ATOM     53  C   UNL     1      -7.458  21.581  -4.189  1.00  0.00     0.031 C 
ATOM     54  C   UNL     1      -6.341  18.674   1.971  1.00  0.00     0.029 A 
ATOM     55  C   UNL     1      -5.537  19.857   1.677  1.00  0.00     0.049 A 
ATOM     56  H   UNL     1      -5.665  21.089   0.002  1.00  0.00     0.167 HD
ATOM     57  C   UNL     1      -5.778  23.352  -3.769  1.00  0.00     0.037 A 
ATOM     58  C   UNL     1      -4.565  20.360   2.463  1.00  0.00     0.037 A 
ATOM     59  C   UNL     1      -4.800  24.018  -2.951  1.00  0.00     0.049 A 
ATOM     60  C   UNL     1      -3.806  21.577   2.003  1.00  0.00     0.074 A 
ATOM     61  C   UNL     1      -4.093  25.175  -3.223  1.00  0.00     0.029 A 
ATOM     62  N   UNL     1      -4.392  23.582  -1.698  1.00  0.00    -0.354 N 
ATOM     63  N   UNL     1      -3.936  22.261   0.892  1.00  0.00    -0.248 NA
ATOM     64  C   UNL     1      -2.766  22.093   2.904  1.00  0.00     0.031 C 
ATOM     65  C   UNL     1      -3.218  25.411  -2.159  1.00  0.00     0.029 A 
ATOM     66  C   UNL     1      -3.426  24.438  -1.195  1.00  0.00     0.049 A 
ATOM     67  H   UNL     1      -4.737  22.784  -1.237  1.00  0.00     0.167 HD
ATOM     68  C   UNL     1      -3.030  23.309   0.980  1.00  0.00     0.074 A 
ATOM     69  C   UNL     1      -2.352  23.170   2.251  1.00  0.00     0.031 C 
ATOM     70  C   UNL     1      -2.787  24.301   0.089  1.00  0.00     0.037 A 
BRANCH  57  71
ATOM     71  C   UNL     1      -6.066  23.908  -5.133  1.00  0.00     0.064 A 
ATOM     72  C   UNL     1      -7.297  24.508  -5.441  1.00  0.00     0.173 A 
ATOM     73  C   UNL     1      -5.085  23.875  -6.136  1.00  0.00     0.173 A 
ATOM     74  F   UNL     1      -8.273  24.556  -4.521  1.00  0.00    -0.203 F 
ATOM     75  C   UNL     1      -7.546  25.023  -6.710  1.00  0.00     0.198 A 
ATOM     76  C   UNL     1      -5.326  24.422  -7.393  1.00  0.00     0.198 A 
ATOM     77  F   UNL     1      -3.889  23.319  -5.894  1.00  0.00    -0.203 F 
ATOM     78  F   UNL     1      -8.749  25.541  -6.996  1.00  0.00    -0.200 F 
ATOM     79  C   UNL     1      -6.559  24.987  -7.682  1.00  0.00     0.200 A 
ATOM     80  F   UNL     1      -4.364  24.401  -8.326  1.00  0.00    -0.200 F 
ATOM     81  F   UNL     1      -6.797  25.492  -8.900  1.00  0.00    -0.200 F 
ENDBRANCH  57  71
BRANCH  58  82
ATOM     82  C   UNL     1      -4.260  19.720   3.770  1.00  0.00     0.064 A 
ATOM     83  C   UNL     1      -4.546  20.376   4.976  1.00  0.00     0.173 A 
ATOM     84  C   UNL     1      -3.674  18.448   3.845  1.00  0.00     0.173 A 
ATOM     85  F   UNL     1      -5.090  21.602   4.957  1.00  0.00    -0.203 F 
ATOM     86  C   UNL     1      -4.238  19.796   6.204  1.00  0.00     0.198 A 
ATOM     87  C   UNL     1      -3.393  17.855   5.075  1.00  0.00     0.198 A 
ATOM     88  F   UNL     1      -3.385  17.773   2.723  1.00  0.00    -0.203 F 
ATOM     89  F   UNL     1      -4.478  20.467   7.339  1.00  0.00    -0.200 F 
ATOM     90  C   UNL     1      -3.667  18.533   6.253  1.00  0.00     0.200 A 
ATOM     91  F   UNL     1      -2.857  16.628   5.118  1.00  0.00    -0.200 F 
ATOM     92  F   UNL     1      -3.373  17.974   7.435  1.00  0.00    -0.200 F 
ENDBRANCH  58  82
BRANCH  70  93
ATOM     93  C   UNL     1      -1.799  25.362   0.475  1.00  0.00     0.064 A 
ATOM     94  C   UNL     1      -0.419  25.121   0.488  1.00  0.00     0.173 A 
ATOM     95  C   UNL     1      -2.243  26.668   0.742  1.00  0.00     0.173 A 
ATOM     96  F   UNL     1       0.053  23.887   0.253  1.00  0.00    -0.203 F 
ATOM     97  C   UNL     1       0.482  26.147   0.761  1.00  0.00     0.198 A 
ATOM     98  C   UNL     1      -1.338  27.696   0.985  1.00  0.00     0.198 A 
ATOM     99  F   UNL     1      -3.554  26.950   0.735  1.00  0.00    -0.203 F 
ATOM    100  F   UNL     1       1.797  25.889   0.796  1.00  0.00    -0.200 F 
ATOM    101  C   UNL     1       0.023  27.435   0.997  1.00  0.00     0.200 A 
ATOM    102  F   UNL     1      -1.784  28.942   1.195  1.00  0.00    -0.200 F 
ATOM    103  F   UNL     1       0.894  28.425   1.234  1.00  0.00    -0.200 F 
ENDBRANCH  70  93
ENDBRANCH  44  45
ENDBRANCH  36  39
ENDBRANCH  34  35
ENDBRANCH  33  34
ENDBRANCH  32  33
ENDBRANCH  31  32
ENDBRANCH   1  31
TORSDOF 17
