REMARK SMILES [NH3+][C@]1(C(=O)NCCCCCCNC(=O)c2ccc(-c3c4nc(c(-c5c(F)c(F)c(F)c(F)c5F)c5ccc([nH]5)c(-c5c(F)c(F)c(F)c(F)c5F)c5nc(c(-c6c(F)c(F)c(F)c(F)c6F)c6ccc3[nH]6)C=C5)C=C4)cc2)CC[C@@H](Sc2cc3ccccc3[nH]2)C1
REMARK SMILES IDX 8 1 7 2 6 3 5 4 3 5 4 6 2 8 78 9 91 10 79 11 80 12 1 13
REMARK SMILES IDX 81 17 82 18 83 19 90 20 84 21 89 22 85 24 88 25 86 26 87 27
REMARK SMILES IDX 9 28 10 29 11 30 12 31 13 32 14 34 15 35 16 36 77 37 17 38
REMARK SMILES IDX 76 39 18 40 19 41 20 42 70 43 21 44 75 45 69 46 71 47 22 48
REMARK SMILES IDX 74 49 68 50 67 51 23 53 55 54 35 55 54 56 36 57 39 58 53 59
REMARK SMILES IDX 72 60 37 61 38 62 52 64 73 65 40 66 24 67 25 68 33 69 26 70
REMARK SMILES IDX 27 71 31 72 34 73 28 74 29 75 32 76 30 77 56 78 57 79 65 80
REMARK SMILES IDX 58 81 59 82 63 83 66 84 60 85 61 86 64 87 62 88 41 89 42 90
REMARK SMILES IDX 50 91 43 92 44 93 48 94 51 95 45 96 46 97 49 98 47 99
REMARK H PARENT 5 7 1 14 1 15 1 16 90 23 12 33 71 52 39 63
REMARK Flexibility Score: inf
ROOT
ATOM      1  C   UNL     1       4.817   1.487   1.142  1.00  0.00     0.002 C 
ENDROOT
BRANCH   1   2
ATOM      2  C   UNL     1       4.042   1.785  -0.144  1.00  0.00     0.021 C 
BRANCH   2   3
ATOM      3  C   UNL     1       3.369   0.575  -0.782  1.00  0.00     0.116 C 
BRANCH   3   4
ATOM      4  N   UNL     1       2.371  -0.021   0.080  1.00  0.00    -0.351 N 
ATOM      5  C   UNL     1       1.088  -0.406  -0.179  1.00  0.00     0.281 C 
ATOM      6  O   UNL     1       0.486  -0.985   0.728  1.00  0.00    -0.268 OA
ATOM      7  H   UNL     1       2.667  -0.174   1.006  1.00  0.00     0.163 HD
BRANCH   5   8
ATOM      8  C   UNL     1       0.437  -0.112  -1.553  1.00  0.00     0.175 C 
ATOM      9  C   UNL     1      -1.028  -0.584  -1.591  1.00  0.00     0.080 C 
ATOM     10  C   UNL     1       0.318   1.399  -1.788  1.00  0.00     0.094 C 
ATOM     11  C   UNL     1      -1.660   0.258  -2.688  1.00  0.00     0.022 C 
ATOM     12  C   UNL     1      -0.995   1.621  -2.544  1.00  0.00     0.060 C 
BRANCH   8  13
ATOM     13  N   UNL     1       1.160  -0.781  -2.660  1.00  0.00    -0.345 N 
ATOM     14  H   UNL     1       0.703  -0.565  -3.545  1.00  0.00     0.345 HD
ATOM     15  H   UNL     1       1.151  -1.790  -2.510  1.00  0.00     0.345 HD
ATOM     16  H   UNL     1       2.124  -0.450  -2.685  1.00  0.00     0.345 HD
ENDBRANCH   8  13
BRANCH  12  17
ATOM     17  S   UNL     1      -1.862   2.966  -1.722  1.00  0.00    -0.105 SA
BRANCH  17  18
ATOM     18  C   UNL     1      -3.151   2.296  -0.773  1.00  0.00     0.073 A 
ATOM     19  C   UNL     1      -3.445   2.540   0.555  1.00  0.00     0.043 A 
ATOM     20  N   UNL     1      -4.356   2.109  -1.403  1.00  0.00    -0.350 N 
ATOM     21  C   UNL     1      -4.716   3.203   0.493  1.00  0.00     0.001 A 
ATOM     22  C   UNL     1      -5.240   2.967  -0.780  1.00  0.00     0.046 A 
ATOM     23  H   UNL     1      -4.549   1.492  -2.145  1.00  0.00     0.167 HD
ATOM     24  C   UNL     1      -5.371   4.125   1.329  1.00  0.00     0.010 A 
ATOM     25  C   UNL     1      -6.359   3.624  -1.290  1.00  0.00     0.027 A 
ATOM     26  C   UNL     1      -6.443   4.859   0.804  1.00  0.00     0.001 A 
ATOM     27  C   UNL     1      -6.918   4.619  -0.487  1.00  0.00     0.002 A 
ENDBRANCH  17  18
ENDBRANCH  12  17
ENDBRANCH   5   8
ENDBRANCH   3   4
ENDBRANCH   2   3
ENDBRANCH   1   2
BRANCH   1  28
ATOM     28  C   UNL     1       5.843   0.354   1.041  1.00  0.00     0.002 C 
BRANCH  28  29
ATOM     29  C   UNL     1       6.866   0.495  -0.088  1.00  0.00     0.021 C 
BRANCH  29  30
ATOM     30  C   UNL     1       7.662   1.795  -0.074  1.00  0.00     0.116 C 
BRANCH  30  31
ATOM     31  N   UNL     1       8.458   1.941   1.132  1.00  0.00    -0.352 N 
ATOM     32  C   UNL     1       9.803   2.188   1.266  1.00  0.00     0.251 C 
ATOM     33  H   UNL     1       7.962   1.851   1.977  1.00  0.00     0.163 HD
ATOM     34  O   UNL     1      10.340   2.100   2.363  1.00  0.00    -0.269 OA
BRANCH  32  35
ATOM     35  C   UNL     1      10.609   2.536   0.076  1.00  0.00     0.039 A 
ATOM     36  C   UNL     1      11.855   1.927  -0.092  1.00  0.00     0.014 A 
ATOM     37  C   UNL     1      10.147   3.460  -0.865  1.00  0.00     0.014 A 
ATOM     38  C   UNL     1      12.610   2.198  -1.234  1.00  0.00     0.010 A 
ATOM     39  C   UNL     1      10.864   3.671  -2.039  1.00  0.00     0.010 A 
ATOM     40  C   UNL     1      12.104   3.044  -2.235  1.00  0.00    -0.014 A 
BRANCH  40  41
ATOM     41  C   UNL     1      12.857   3.277  -3.495  1.00  0.00     0.031 A 
ATOM     42  C   UNL     1      13.350   4.654  -3.841  1.00  0.00     0.074 A 
ATOM     43  C   UNL     1      13.041   2.258  -4.357  1.00  0.00     0.049 A 
ATOM     44  N   UNL     1      13.970   5.066  -4.919  1.00  0.00    -0.248 NA
ATOM     45  C   UNL     1      13.090   5.718  -2.858  1.00  0.00     0.031 C 
ATOM     46  C   UNL     1      12.567   0.887  -4.157  1.00  0.00     0.029 A 
ATOM     47  N   UNL     1      13.665   2.217  -5.579  1.00  0.00    -0.354 N 
ATOM     48  C   UNL     1      14.158   6.431  -4.750  1.00  0.00     0.074 A 
ATOM     49  C   UNL     1      13.543   6.790  -3.491  1.00  0.00     0.031 C 
ATOM     50  C   UNL     1      12.933   0.137  -5.209  1.00  0.00     0.029 A 
ATOM     51  C   UNL     1      13.629   0.980  -6.176  1.00  0.00     0.049 A 
ATOM     52  H   UNL     1      14.097   3.001  -5.989  1.00  0.00     0.167 HD
ATOM     53  C   UNL     1      14.804   7.301  -5.563  1.00  0.00     0.037 A 
ATOM     54  C   UNL     1      14.092   0.575  -7.374  1.00  0.00     0.037 A 
ATOM     55  C   UNL     1      15.436   6.933  -6.803  1.00  0.00     0.049 A 
ATOM     56  C   UNL     1      14.799   1.565  -8.260  1.00  0.00     0.074 A 
ATOM     57  C   UNL     1      16.178   7.726  -7.660  1.00  0.00     0.029 A 
ATOM     58  N   UNL     1      15.393   5.667  -7.367  1.00  0.00    -0.354 N 
ATOM     59  N   UNL     1      15.044   2.836  -8.051  1.00  0.00    -0.248 NA
ATOM     60  C   UNL     1      15.301   1.063  -9.547  1.00  0.00     0.031 C 
ATOM     61  C   UNL     1      16.531   6.957  -8.773  1.00  0.00     0.029 A 
ATOM     62  C   UNL     1      16.067   5.666  -8.579  1.00  0.00     0.049 A 
ATOM     63  H   UNL     1      14.950   4.884  -6.967  1.00  0.00     0.167 HD
ATOM     64  C   UNL     1      15.751   3.277  -9.162  1.00  0.00     0.074 A 
ATOM     65  C   UNL     1      15.913   2.133 -10.034  1.00  0.00     0.031 C 
ATOM     66  C   UNL     1      16.225   4.518  -9.435  1.00  0.00     0.037 A 
BRANCH  53  67
ATOM     67  C   UNL     1      14.858   8.743  -5.144  1.00  0.00     0.064 A 
ATOM     68  C   UNL     1      15.617   9.166  -4.042  1.00  0.00     0.173 A 
ATOM     69  C   UNL     1      14.182   9.723  -5.888  1.00  0.00     0.173 A 
ATOM     70  F   UNL     1      16.274   8.270  -3.291  1.00  0.00    -0.203 F 
ATOM     71  C   UNL     1      15.675  10.511  -3.684  1.00  0.00     0.198 A 
ATOM     72  C   UNL     1      14.270  11.071  -5.547  1.00  0.00     0.198 A 
ATOM     73  F   UNL     1      13.447   9.376  -6.955  1.00  0.00    -0.203 F 
ATOM     74  F   UNL     1      16.367  10.884  -2.599  1.00  0.00    -0.200 F 
ATOM     75  C   UNL     1      15.009  11.462  -4.442  1.00  0.00     0.200 A 
ATOM     76  F   UNL     1      13.639  11.990  -6.290  1.00  0.00    -0.200 F 
ATOM     77  F   UNL     1      15.077  12.758  -4.104  1.00  0.00    -0.200 F 
ENDBRANCH  53  67
BRANCH  54  78
ATOM     78  C   UNL     1      13.910  -0.837  -7.804  1.00  0.00     0.064 A 
ATOM     79  C   UNL     1      15.008  -1.698  -7.948  1.00  0.00     0.173 A 
ATOM     80  C   UNL     1      12.638  -1.351  -8.097  1.00  0.00     0.173 A 
ATOM     81  F   UNL     1      16.247  -1.248  -7.699  1.00  0.00    -0.203 F 
ATOM     82  C   UNL     1      14.844  -3.007  -8.396  1.00  0.00     0.198 A 
ATOM     83  C   UNL     1      12.472  -2.671  -8.512  1.00  0.00     0.198 A 
ATOM     84  F   UNL     1      11.553  -0.574  -7.970  1.00  0.00    -0.203 F 
ATOM     85  F   UNL     1      15.916  -3.789  -8.578  1.00  0.00    -0.200 F 
ATOM     86  C   UNL     1      13.576  -3.495  -8.672  1.00  0.00     0.200 A 
ATOM     87  F   UNL     1      11.242  -3.143  -8.761  1.00  0.00    -0.200 F 
ATOM     88  F   UNL     1      13.418  -4.754  -9.100  1.00  0.00    -0.200 F 
ENDBRANCH  54  78
BRANCH  66  89
ATOM     89  C   UNL     1      16.996   4.697 -10.712  1.00  0.00     0.064 A 
ATOM     90  C   UNL     1      16.372   4.644 -11.967  1.00  0.00     0.173 A 
ATOM     91  C   UNL     1      18.373   4.965 -10.675  1.00  0.00     0.173 A 
ATOM     92  F   UNL     1      15.060   4.376 -12.058  1.00  0.00    -0.203 F 
ATOM     93  C   UNL     1      17.103   4.824 -13.138  1.00  0.00     0.198 A 
ATOM     94  C   UNL     1      19.094   5.180 -11.847  1.00  0.00     0.198 A 
ATOM     95  F   UNL     1      19.019   5.035  -9.501  1.00  0.00    -0.203 F 
ATOM     96  F   UNL     1      16.495   4.715 -14.328  1.00  0.00    -0.200 F 
ATOM     97  C   UNL     1      18.461   5.100 -13.077  1.00  0.00     0.200 A 
ATOM     98  F   UNL     1      20.402   5.464 -11.784  1.00  0.00    -0.200 F 
ATOM     99  F   UNL     1      19.160   5.283 -14.205  1.00  0.00    -0.200 F 
ENDBRANCH  66  89
ENDBRANCH  40  41
ENDBRANCH  32  35
ENDBRANCH  30  31
ENDBRANCH  29  30
ENDBRANCH  28  29
ENDBRANCH   1  28
TORSDOF 16
