REMARK SMILES O=C(NCCCCCCNC(=O)[C@@H]1C=C[C@@H]([NH+]2CC3(CC3)C2)C1)c1ccc(-c2c3nc(c(-c4c(F)c(F)c(F)c(F)c4F)c4ccc([nH]4)c(-c4c(F)c(F)c(F)c(F)c4F)c4nc(c(-c5c(F)c(F)c(F)c(F)c5F)c5ccc2[nH]5)C=C4)C=C3)cc1
REMARK SMILES IDX 6 1 5 2 4 3 3 4 1 5 2 6 24 8 25 9 86 10 26 11 85 12 27 13
REMARK SMILES IDX 28 14 29 15 79 16 30 17 84 18 78 19 80 20 31 21 83 22 77 23
REMARK SMILES IDX 76 24 32 26 64 27 44 28 63 29 45 30 48 31 62 32 81 33 46 34
REMARK SMILES IDX 47 35 61 37 82 38 49 39 33 40 34 41 42 42 35 43 36 44 40 45
REMARK SMILES IDX 43 46 37 47 38 48 41 49 39 50 65 51 66 52 74 53 67 54 68 55
REMARK SMILES IDX 72 56 75 57 69 58 70 59 73 60 71 61 50 62 51 63 59 64 52 65
REMARK SMILES IDX 53 66 57 67 60 68 54 69 55 70 58 71 56 72 7 73 8 74 9 75
REMARK SMILES IDX 10 76 11 77 12 79 13 80 14 81 23 82 15 83 16 84 17 85 18 86
REMARK SMILES IDX 22 87 19 89 20 90 21 91
REMARK H PARENT 3 7 80 25 48 36 10 78 17 88
REMARK Flexibility Score: inf
ROOT
ATOM      1  C   UNL     1       5.169  -0.107   2.879  1.00  0.00     0.002 C 
ENDROOT
BRANCH   1   2
ATOM      2  C   UNL     1       3.829  -0.508   3.494  1.00  0.00     0.021 C 
BRANCH   2   3
ATOM      3  C   UNL     1       2.734   0.540   3.344  1.00  0.00     0.116 C 
BRANCH   3   4
ATOM      4  N   UNL     1       2.355   0.743   1.954  1.00  0.00    -0.352 N 
ATOM      5  O   UNL     1       0.993   0.664   0.153  1.00  0.00    -0.269 OA
ATOM      6  C   UNL     1       1.115   0.645   1.375  1.00  0.00     0.251 C 
ATOM      7  H   UNL     1       3.090   0.985   1.345  1.00  0.00     0.163 HD
BRANCH   6   8
ATOM      8  C   UNL     1      -0.079   0.498   2.233  1.00  0.00     0.039 A 
ATOM      9  C   UNL     1      -0.234   1.296   3.369  1.00  0.00     0.014 A 
ATOM     10  C   UNL     1      -1.054  -0.443   1.894  1.00  0.00     0.014 A 
ATOM     11  C   UNL     1      -1.291   1.060   4.238  1.00  0.00     0.010 A 
ATOM     12  C   UNL     1      -2.166  -0.616   2.722  1.00  0.00     0.010 A 
ATOM     13  C   UNL     1      -2.281   0.119   3.913  1.00  0.00    -0.014 A 
BRANCH  13  14
ATOM     14  C   UNL     1      -3.466  -0.019   4.794  1.00  0.00     0.031 A 
ATOM     15  C   UNL     1      -3.749  -1.296   5.531  1.00  0.00     0.074 A 
ATOM     16  C   UNL     1      -4.287   1.040   4.930  1.00  0.00     0.049 A 
ATOM     17  N   UNL     1      -4.740  -1.578   6.340  1.00  0.00    -0.248 NA
ATOM     18  C   UNL     1      -2.805  -2.404   5.330  1.00  0.00     0.031 C 
ATOM     19  C   UNL     1      -4.119   2.325   4.247  1.00  0.00     0.029 A 
ATOM     20  N   UNL     1      -5.415   1.213   5.689  1.00  0.00    -0.354 N 
ATOM     21  C   UNL     1      -4.550  -2.897   6.729  1.00  0.00     0.074 A 
ATOM     22  C   UNL     1      -3.364  -3.370   6.047  1.00  0.00     0.031 C 
ATOM     23  C   UNL     1      -5.085   3.164   4.643  1.00  0.00     0.029 A 
ATOM     24  C   UNL     1      -5.978   2.458   5.555  1.00  0.00     0.049 A 
ATOM     25  H   UNL     1      -5.786   0.513   6.273  1.00  0.00     0.167 HD
ATOM     26  C   UNL     1      -5.297  -3.639   7.583  1.00  0.00     0.037 A 
ATOM     27  C   UNL     1      -7.103   2.970   6.085  1.00  0.00     0.037 A 
ATOM     28  C   UNL     1      -6.473  -3.153   8.262  1.00  0.00     0.049 A 
ATOM     29  C   UNL     1      -7.925   2.116   7.006  1.00  0.00     0.074 A 
ATOM     30  C   UNL     1      -7.271  -3.811   9.182  1.00  0.00     0.029 A 
ATOM     31  N   UNL     1      -7.026  -1.892   8.085  1.00  0.00    -0.354 N 
ATOM     32  N   UNL     1      -7.708   0.887   7.407  1.00  0.00    -0.248 NA
ATOM     33  C   UNL     1      -9.148   2.720   7.549  1.00  0.00     0.031 C 
ATOM     34  C   UNL     1      -8.338  -2.970   9.518  1.00  0.00     0.029 A 
ATOM     35  C   UNL     1      -8.172  -1.764   8.855  1.00  0.00     0.049 A 
ATOM     36  H   UNL     1      -6.658  -1.192   7.500  1.00  0.00     0.167 HD
ATOM     37  C   UNL     1      -8.755   0.574   8.260  1.00  0.00     0.074 A 
ATOM     38  C   UNL     1      -9.595   1.752   8.337  1.00  0.00     0.031 C 
ATOM     39  C   UNL     1      -9.000  -0.586   8.918  1.00  0.00     0.037 A 
BRANCH  26  40
ATOM     40  C   UNL     1      -4.883  -5.064   7.818  1.00  0.00     0.064 A 
ATOM     41  C   UNL     1      -3.722  -5.390   8.535  1.00  0.00     0.173 A 
ATOM     42  C   UNL     1      -5.684  -6.121   7.357  1.00  0.00     0.173 A 
ATOM     43  F   UNL     1      -2.914  -4.420   8.991  1.00  0.00    -0.203 F 
ATOM     44  C   UNL     1      -3.364  -6.718   8.757  1.00  0.00     0.198 A 
ATOM     45  C   UNL     1      -5.340  -7.447   7.607  1.00  0.00     0.198 A 
ATOM     46  F   UNL     1      -6.810  -5.867   6.673  1.00  0.00    -0.203 F 
ATOM     47  F   UNL     1      -2.226  -7.005   9.404  1.00  0.00    -0.200 F 
ATOM     48  C   UNL     1      -4.177  -7.745   8.299  1.00  0.00     0.200 A 
ATOM     49  F   UNL     1      -6.134  -8.437   7.176  1.00  0.00    -0.200 F 
ATOM     50  F   UNL     1      -3.835  -9.022   8.520  1.00  0.00    -0.200 F 
ENDBRANCH  26  40
BRANCH  27  51
ATOM     51  C   UNL     1      -7.513   4.355   5.740  1.00  0.00     0.064 A 
ATOM     52  C   UNL     1      -7.486   5.378   6.697  1.00  0.00     0.173 A 
ATOM     53  C   UNL     1      -7.918   4.688   4.438  1.00  0.00     0.173 A 
ATOM     54  F   UNL     1      -7.121   5.106   7.958  1.00  0.00    -0.203 F 
ATOM     55  C   UNL     1      -7.864   6.678   6.369  1.00  0.00     0.198 A 
ATOM     56  C   UNL     1      -8.263   5.994   4.103  1.00  0.00     0.198 A 
ATOM     57  F   UNL     1      -7.952   3.746   3.484  1.00  0.00    -0.203 F 
ATOM     58  F   UNL     1      -7.868   7.630   7.312  1.00  0.00    -0.200 F 
ATOM     59  C   UNL     1      -8.244   6.987   5.071  1.00  0.00     0.200 A 
ATOM     60  F   UNL     1      -8.609   6.291   2.844  1.00  0.00    -0.200 F 
ATOM     61  F   UNL     1      -8.595   8.240   4.753  1.00  0.00    -0.200 F 
ENDBRANCH  27  51
BRANCH  39  62
ATOM     62  C   UNL     1     -10.214  -0.625   9.801  1.00  0.00     0.064 A 
ATOM     63  C   UNL     1     -11.512  -0.645   9.269  1.00  0.00     0.173 A 
ATOM     64  C   UNL     1     -10.075  -0.669  11.197  1.00  0.00     0.173 A 
ATOM     65  F   UNL     1     -11.698  -0.586   7.942  1.00  0.00    -0.203 F 
ATOM     66  C   UNL     1     -12.626  -0.679  10.103  1.00  0.00     0.198 A 
ATOM     67  C   UNL     1     -11.190  -0.736  12.026  1.00  0.00     0.198 A 
ATOM     68  F   UNL     1      -8.855  -0.656  11.756  1.00  0.00    -0.203 F 
ATOM     69  F   UNL     1     -13.857  -0.643   9.575  1.00  0.00    -0.200 F 
ATOM     70  C   UNL     1     -12.465  -0.732  11.479  1.00  0.00     0.200 A 
ATOM     71  F   UNL     1     -11.032  -0.800  13.355  1.00  0.00    -0.200 F 
ATOM     72  F   UNL     1     -13.538  -0.771  12.280  1.00  0.00    -0.200 F 
ENDBRANCH  39  62
ENDBRANCH  13  14
ENDBRANCH   6   8
ENDBRANCH   3   4
ENDBRANCH   2   3
ENDBRANCH   1   2
BRANCH   1  73
ATOM     73  C   UNL     1       5.769   1.191   3.431  1.00  0.00     0.002 C 
BRANCH  73  74
ATOM     74  C   UNL     1       5.938   1.230   4.956  1.00  0.00     0.021 C 
BRANCH  74  75
ATOM     75  C   UNL     1       6.827   0.112   5.501  1.00  0.00     0.116 C 
BRANCH  75  76
ATOM     76  N   UNL     1       8.196   0.291   5.051  1.00  0.00    -0.356 N 
ATOM     77  C   UNL     1       9.290   0.736   5.740  1.00  0.00     0.227 C 
ATOM     78  H   UNL     1       8.362   0.057   4.109  1.00  0.00     0.163 HD
ATOM     79  O   UNL     1      10.322   0.971   5.112  1.00  0.00    -0.274 OA
BRANCH  77  80
ATOM     80  C   UNL     1       9.208   0.807   7.261  1.00  0.00     0.107 C 
ATOM     81  C   UNL     1      10.051   1.856   7.906  1.00  0.00    -0.012 C 
ATOM     82  C   UNL     1       9.734  -0.513   7.842  1.00  0.00     0.087 C 
ATOM     83  C   UNL     1      10.955   1.333   8.739  1.00  0.00     0.033 C 
ATOM     84  C   UNL     1      10.961  -0.167   8.716  1.00  0.00     0.208 C 
BRANCH  84  85
ATOM     85  N   UNL     1      11.104  -0.741  10.059  1.00  0.00    -0.328 N 
ATOM     86  C   UNL     1       9.842  -0.949  10.787  1.00  0.00     0.275 C 
ATOM     87  C   UNL     1      11.340  -2.193   9.998  1.00  0.00     0.275 C 
ATOM     88  H   UNL     1      11.792  -0.103  10.459  1.00  0.00     0.348 HD
ATOM     89  C   UNL     1       9.934  -2.378  10.412  1.00  0.00     0.068 C 
ATOM     90  C   UNL     1       8.907  -3.218   9.712  1.00  0.00     0.020 C 
ATOM     91  C   UNL     1       9.335  -3.552  11.115  1.00  0.00     0.020 C 
ENDBRANCH  84  85
ENDBRANCH  77  80
ENDBRANCH  75  76
ENDBRANCH  74  75
ENDBRANCH  73  74
ENDBRANCH   1  73
TORSDOF 14
