REMARK SMILES CC[C@@](C)(NC(=O)Nc1c(C)cccc1Cl)C(=O)NCCCCCCNC(=O)c1ccc(-c2c3nc(c(-c4c(F)c(F)c(F)c(F)c4F)c4ccc([nH]4)c(-c4c(F)c(F)c(F)c(F)c4F)c4nc(c(-c5c(F)c(F)c(F)c(F)c5F)c5ccc2[nH]5)C=C4)C=C3)cc1
REMARK SMILES IDX 22 1 21 2 20 3 19 4 17 5 18 6 3 8 4 9 2 10 1 11 5 12 6 13
REMARK SMILES IDX 7 15 8 16 9 18 10 19 15 20 11 21 12 22 14 23 16 24 13 25
REMARK SMILES IDX 23 26 24 27 25 28 26 29 27 30 28 32 29 33 30 34 91 35 31 36
REMARK SMILES IDX 90 37 32 38 33 39 34 40 84 41 35 42 89 43 83 44 85 45 36 46
REMARK SMILES IDX 88 47 82 48 81 49 37 51 69 52 49 53 68 54 50 55 53 56 67 57
REMARK SMILES IDX 86 58 51 59 52 60 66 62 87 63 54 64 38 65 39 66 47 67 40 68
REMARK SMILES IDX 41 69 45 70 48 71 42 72 43 73 46 74 44 75 70 76 71 77 79 78
REMARK SMILES IDX 72 79 73 80 77 81 80 82 74 83 75 84 78 85 76 86 55 87 56 88
REMARK SMILES IDX 64 89 57 90 58 91 62 92 65 93 59 94 60 95 63 96 61 97
REMARK H PARENT 19 7 5 14 8 17 26 31 85 50 53 61
REMARK Flexibility Score: inf
ROOT
ATOM      1  C   UNL     1       3.926  -5.618   2.773  1.00  0.00     0.002 C 
ENDROOT
BRANCH   1   2
ATOM      2  C   UNL     1       2.412  -5.866   2.679  1.00  0.00     0.021 C 
BRANCH   2   3
ATOM      3  C   UNL     1       1.394  -4.757   3.010  1.00  0.00     0.116 C 
BRANCH   3   4
ATOM      4  N   UNL     1       1.788  -3.390   2.716  1.00  0.00    -0.354 N 
ATOM      5  C   UNL     1       1.192  -2.332   2.027  1.00  0.00     0.245 C 
ATOM      6  O   UNL     1       1.255  -1.187   2.481  1.00  0.00    -0.272 OA
ATOM      7  H   UNL     1       2.671  -3.158   3.084  1.00  0.00     0.163 HD
BRANCH   5   8
ATOM      8  C   UNL     1       0.344  -2.612   0.787  1.00  0.00     0.117 C 
ATOM      9  C   UNL     1      -1.072  -2.806   1.385  1.00  0.00     0.045 C 
BRANCH   8  10
ATOM     10  C   UNL     1       0.220  -1.611  -0.395  1.00  0.00     0.035 C 
ATOM     11  C   UNL     1       0.472  -0.139  -0.150  1.00  0.00     0.007 C 
ENDBRANCH   8  10
BRANCH   8  12
ATOM     12  N   UNL     1       0.940  -3.822   0.257  1.00  0.00    -0.324 N 
ATOM     13  C   UNL     1       2.196  -4.122  -0.071  1.00  0.00     0.320 C 
ATOM     14  H   UNL     1       0.300  -4.556   0.112  1.00  0.00     0.166 HD
ATOM     15  O   UNL     1       2.309  -5.220  -0.644  1.00  0.00    -0.248 OA
ATOM     16  N   UNL     1       3.345  -3.445   0.059  1.00  0.00    -0.306 N 
ATOM     17  H   UNL     1       4.035  -4.096  -0.204  1.00  0.00     0.171 HD
BRANCH  16  18
ATOM     18  C   UNL     1       4.095  -2.257   0.385  1.00  0.00     0.064 A 
ATOM     19  C   UNL     1       4.175  -1.332   1.471  1.00  0.00    -0.026 A 
ATOM     20  C   UNL     1       5.083  -2.026  -0.626  1.00  0.00     0.064 A 
ATOM     21  C   UNL     1       4.100  -1.575   2.974  1.00  0.00     0.046 C 
ATOM     22  C   UNL     1       4.861  -0.095   1.290  1.00  0.00     0.005 A 
ATOM     23  C   UNL     1       5.878  -0.879  -0.699  1.00  0.00     0.023 A 
ATOM     24  Cl  UNL     1       5.397  -3.216  -1.870  1.00  0.00    -0.082 Cl
ATOM     25  C   UNL     1       5.712   0.126   0.226  1.00  0.00     0.002 A 
ENDBRANCH  16  18
ENDBRANCH   8  12
ENDBRANCH   5   8
ENDBRANCH   3   4
ENDBRANCH   2   3
ENDBRANCH   1   2
BRANCH   1  26
ATOM     26  C   UNL     1       4.530  -5.154   4.098  1.00  0.00     0.002 C 
BRANCH  26  27
ATOM     27  C   UNL     1       4.096  -5.887   5.352  1.00  0.00     0.021 C 
BRANCH  27  28
ATOM     28  C   UNL     1       4.378  -7.375   5.346  1.00  0.00     0.116 C 
BRANCH  28  29
ATOM     29  N   UNL     1       5.789  -7.694   5.475  1.00  0.00    -0.352 N 
ATOM     30  C   UNL     1       6.382  -8.621   6.309  1.00  0.00     0.251 C 
ATOM     31  H   UNL     1       6.400  -7.186   4.895  1.00  0.00     0.163 HD
ATOM     32  O   UNL     1       7.593  -8.695   6.403  1.00  0.00    -0.269 OA
BRANCH  30  33
ATOM     33  C   UNL     1       5.514  -9.504   7.125  1.00  0.00     0.039 A 
ATOM     34  C   UNL     1       5.813  -9.685   8.476  1.00  0.00     0.014 A 
ATOM     35  C   UNL     1       4.389 -10.117   6.566  1.00  0.00     0.014 A 
ATOM     36  C   UNL     1       4.951 -10.438   9.277  1.00  0.00     0.010 A 
ATOM     37  C   UNL     1       3.479 -10.773   7.385  1.00  0.00     0.010 A 
ATOM     38  C   UNL     1       3.761 -10.963   8.745  1.00  0.00    -0.014 A 
BRANCH  38  39
ATOM     39  C   UNL     1       2.831 -11.763   9.581  1.00  0.00     0.031 A 
ATOM     40  C   UNL     1       2.569 -13.204   9.230  1.00  0.00     0.074 A 
ATOM     41  C   UNL     1       2.200 -11.194  10.627  1.00  0.00     0.049 A 
ATOM     42  N   UNL     1       1.756 -14.061   9.795  1.00  0.00    -0.248 NA
ATOM     43  C   UNL     1       3.296 -13.748   8.070  1.00  0.00     0.031 C 
ATOM     44  C   UNL     1       2.332  -9.796  11.039  1.00  0.00     0.029 A 
ATOM     45  N   UNL     1       1.313 -11.723  11.532  1.00  0.00    -0.354 N 
ATOM     46  C   UNL     1       1.879 -15.235   9.063  1.00  0.00     0.074 A 
ATOM     47  C   UNL     1       2.778 -14.961   7.965  1.00  0.00     0.031 C 
ATOM     48  C   UNL     1       1.575  -9.585  12.129  1.00  0.00     0.029 A 
ATOM     49  C   UNL     1       0.875 -10.819  12.469  1.00  0.00     0.049 A 
ATOM     50  H   UNL     1       1.020 -12.663  11.511  1.00  0.00     0.167 HD
ATOM     51  C   UNL     1       1.327 -16.447   9.306  1.00  0.00     0.037 A 
ATOM     52  C   UNL     1       0.001 -10.971  13.483  1.00  0.00     0.037 A 
ATOM     53  C   UNL     1       0.444 -16.724  10.407  1.00  0.00     0.049 A 
ATOM     54  C   UNL     1      -0.617 -12.326  13.716  1.00  0.00     0.074 A 
ATOM     55  C   UNL     1      -0.163 -17.919  10.749  1.00  0.00     0.029 A 
ATOM     56  N   UNL     1       0.046 -15.788  11.351  1.00  0.00    -0.354 N 
ATOM     57  N   UNL     1      -0.452 -13.441  13.047  1.00  0.00    -0.248 NA
ATOM     58  C   UNL     1      -1.531 -12.447  14.861  1.00  0.00     0.031 C 
ATOM     59  C   UNL     1      -0.961 -17.698  11.875  1.00  0.00     0.029 A 
ATOM     60  C   UNL     1      -0.801 -16.380  12.273  1.00  0.00     0.049 A 
ATOM     61  H   UNL     1       0.325 -14.844  11.364  1.00  0.00     0.167 HD
ATOM     62  C   UNL     1      -1.202 -14.402  13.713  1.00  0.00     0.074 A 
ATOM     63  C   UNL     1      -1.811 -13.742  14.848  1.00  0.00     0.031 C 
ATOM     64  C   UNL     1      -1.373 -15.714  13.414  1.00  0.00     0.037 A 
BRANCH  51  65
ATOM     65  C   UNL     1       1.684 -17.572   8.377  1.00  0.00     0.064 A 
ATOM     66  C   UNL     1       2.979 -18.114   8.351  1.00  0.00     0.173 A 
ATOM     67  C   UNL     1       0.717 -18.145   7.539  1.00  0.00     0.173 A 
ATOM     68  F   UNL     1       3.946 -17.593   9.121  1.00  0.00    -0.203 F 
ATOM     69  C   UNL     1       3.297 -19.171   7.503  1.00  0.00     0.198 A 
ATOM     70  C   UNL     1       1.030 -19.225   6.717  1.00  0.00     0.198 A 
ATOM     71  F   UNL     1      -0.537 -17.668   7.526  1.00  0.00    -0.203 F 
ATOM     72  F   UNL     1       4.553 -19.639   7.460  1.00  0.00    -0.200 F 
ATOM     73  C   UNL     1       2.321 -19.733   6.695  1.00  0.00     0.200 A 
ATOM     74  F   UNL     1       0.082 -19.777   5.947  1.00  0.00    -0.200 F 
ATOM     75  F   UNL     1       2.625 -20.760   5.890  1.00  0.00    -0.200 F 
ENDBRANCH  51  65
BRANCH  52  76
ATOM     76  C   UNL     1      -0.341  -9.821  14.364  1.00  0.00     0.064 A 
ATOM     77  C   UNL     1       0.003  -9.821  15.725  1.00  0.00     0.173 A 
ATOM     78  C   UNL     1      -1.063  -8.722  13.878  1.00  0.00     0.173 A 
ATOM     79  F   UNL     1       0.679 -10.857  16.245  1.00  0.00    -0.203 F 
ATOM     80  C   UNL     1      -0.404  -8.792  16.572  1.00  0.00     0.198 A 
ATOM     81  C   UNL     1      -1.436  -7.674  14.718  1.00  0.00     0.198 A 
ATOM     82  F   UNL     1      -1.410  -8.665  12.584  1.00  0.00    -0.203 F 
ATOM     83  F   UNL     1      -0.127  -8.857  17.881  1.00  0.00    -0.200 F 
ATOM     84  C   UNL     1      -1.121  -7.718  16.067  1.00  0.00     0.200 A 
ATOM     85  F   UNL     1      -2.113  -6.630  14.222  1.00  0.00    -0.200 F 
ATOM     86  F   UNL     1      -1.519  -6.733  16.883  1.00  0.00    -0.200 F 
ENDBRANCH  52  76
BRANCH  64  87
ATOM     87  C   UNL     1      -2.191 -16.538  14.368  1.00  0.00     0.064 A 
ATOM     88  C   UNL     1      -3.575 -16.364  14.507  1.00  0.00     0.173 A 
ATOM     89  C   UNL     1      -1.575 -17.539  15.137  1.00  0.00     0.173 A 
ATOM     90  F   UNL     1      -4.211 -15.414  13.804  1.00  0.00    -0.203 F 
ATOM     91  C   UNL     1      -4.305 -17.131  15.411  1.00  0.00     0.198 A 
ATOM     92  C   UNL     1      -2.314 -18.329  16.011  1.00  0.00     0.198 A 
ATOM     93  F   UNL     1      -0.255 -17.756  15.034  1.00  0.00    -0.203 F 
ATOM     94  F   UNL     1      -5.616 -16.901  15.575  1.00  0.00    -0.200 F 
ATOM     95  C   UNL     1      -3.676 -18.117  16.157  1.00  0.00     0.200 A 
ATOM     96  F   UNL     1      -1.708 -19.294  16.716  1.00  0.00    -0.200 F 
ATOM     97  F   UNL     1      -4.382 -18.856  17.023  1.00  0.00    -0.200 F 
ENDBRANCH  64  87
ENDBRANCH  38  39
ENDBRANCH  30  33
ENDBRANCH  28  29
ENDBRANCH  27  28
ENDBRANCH  26  27
ENDBRANCH   1  26
TORSDOF 16
