REMARK SMILES CC[C@@](C)(Nc1c([N+](=O)[O-])c(C(C)C)nn1C)C(=O)NCCCCCCNC(=O)c1ccc(-c2c3nc(c(-c4c(F)c(F)c(F)c(F)c4F)c4ccc([nH]4)c(-c4c(F)c(F)c(F)c(F)c4F)c4nc(c(-c5c(F)c(F)c(F)c(F)c5F)c5ccc2[nH]5)C=C4)C=C3)cc1
REMARK SMILES IDX 23 1 22 2 21 3 20 4 18 5 19 6 3 8 4 9 2 10 1 11 5 12 6 14
REMARK SMILES IDX 7 15 16 16 11 17 15 18 17 19 8 20 9 21 10 22 12 23 13 24
REMARK SMILES IDX 14 25 24 26 25 27 26 28 27 29 28 30 29 32 30 33 31 34 92 35
REMARK SMILES IDX 32 36 91 37 33 38 34 39 35 40 85 41 36 42 90 43 84 44 86 45
REMARK SMILES IDX 37 46 89 47 83 48 82 49 38 51 70 52 50 53 69 54 51 55 54 56
REMARK SMILES IDX 68 57 87 58 52 59 53 60 67 62 88 63 55 64 39 65 40 66 48 67
REMARK SMILES IDX 41 68 42 69 46 70 49 71 43 72 44 73 47 74 45 75 71 76 72 77
REMARK SMILES IDX 80 78 73 79 74 80 78 81 81 82 75 83 76 84 79 85 77 86 56 87
REMARK SMILES IDX 57 88 65 89 58 90 59 91 63 92 66 93 60 94 61 95 64 96 62 97
REMARK H PARENT 20 7 5 13 27 31 86 50 54 61
REMARK Flexibility Score: inf
ROOT
ATOM      1  C   UNL     1       4.200   5.976   1.935  1.00  0.00     0.002 C 
ENDROOT
BRANCH   1   2
ATOM      2  C   UNL     1       2.672   5.899   1.890  1.00  0.00     0.021 C 
BRANCH   2   3
ATOM      3  C   UNL     1       2.069   5.239   0.651  1.00  0.00     0.116 C 
BRANCH   3   4
ATOM      4  N   UNL     1       2.689   3.983   0.276  1.00  0.00    -0.354 N 
ATOM      5  C   UNL     1       2.302   2.682   0.398  1.00  0.00     0.245 C 
ATOM      6  O   UNL     1       3.084   1.859  -0.095  1.00  0.00    -0.272 OA
ATOM      7  H   UNL     1       3.568   4.092  -0.153  1.00  0.00     0.163 HD
BRANCH   5   8
ATOM      8  C   UNL     1       0.978   2.236   1.085  1.00  0.00     0.115 C 
ATOM      9  C   UNL     1      -0.196   2.719   0.194  1.00  0.00     0.045 C 
BRANCH   8  10
ATOM     10  C   UNL     1       0.834   0.689   1.241  1.00  0.00     0.035 C 
ATOM     11  C   UNL     1       0.891  -0.153  -0.029  1.00  0.00     0.007 C 
ENDBRANCH   8  10
BRANCH   8  12
ATOM     12  N   UNL     1       0.776   2.796   2.441  1.00  0.00    -0.351 N 
ATOM     13  H   UNL     1      -0.127   3.161   2.588  1.00  0.00     0.163 HD
BRANCH  12  14
ATOM     14  C   UNL     1       1.601   2.906   3.533  1.00  0.00     0.205 A 
ATOM     15  C   UNL     1       1.233   3.217   4.849  1.00  0.00     0.334 A 
ATOM     16  N   UNL     1       2.978   2.793   3.619  1.00  0.00    -0.246 N 
ATOM     17  C   UNL     1       2.433   3.585   5.516  1.00  0.00     0.145 A 
ATOM     18  N   UNL     1       3.484   3.410   4.708  1.00  0.00    -0.169 NA
ATOM     19  C   UNL     1       3.932   2.041   2.842  1.00  0.00     0.176 C 
BRANCH  15  20
ATOM     20  N   UNL     1      -0.107   3.212   5.369  1.00  0.00     0.068 N 
ATOM     21  O   UNL     1      -0.253   3.430   6.577  1.00  0.00    -0.258 OA
ATOM     22  O   UNL     1      -1.028   2.963   4.576  1.00  0.00    -0.258 OA
ENDBRANCH  15  20
BRANCH  17  23
ATOM     23  C   UNL     1       2.657   4.149   6.899  1.00  0.00     0.041 C 
ATOM     24  C   UNL     1       4.015   3.741   7.487  1.00  0.00     0.014 C 
ATOM     25  C   UNL     1       2.530   5.676   6.902  1.00  0.00     0.014 C 
ENDBRANCH  17  23
ENDBRANCH  12  14
ENDBRANCH   8  12
ENDBRANCH   5   8
ENDBRANCH   3   4
ENDBRANCH   2   3
ENDBRANCH   1   2
BRANCH   1  26
ATOM     26  C   UNL     1       4.854   6.763   0.800  1.00  0.00     0.002 C 
BRANCH  26  27
ATOM     27  C   UNL     1       4.332   8.186   0.616  1.00  0.00     0.021 C 
BRANCH  27  28
ATOM     28  C   UNL     1       4.384   9.051   1.869  1.00  0.00     0.116 C 
BRANCH  28  29
ATOM     29  N   UNL     1       5.745   9.330   2.298  1.00  0.00    -0.352 N 
ATOM     30  C   UNL     1       6.302  10.547   2.617  1.00  0.00     0.251 C 
ATOM     31  H   UNL     1       6.343   8.551   2.369  1.00  0.00     0.163 HD
ATOM     32  O   UNL     1       7.501  10.668   2.810  1.00  0.00    -0.269 OA
BRANCH  30  33
ATOM     33  C   UNL     1       5.412  11.725   2.697  1.00  0.00     0.039 A 
ATOM     34  C   UNL     1       5.720  12.861   1.947  1.00  0.00     0.014 A 
ATOM     35  C   UNL     1       4.249  11.671   3.469  1.00  0.00     0.014 A 
ATOM     36  C   UNL     1       4.823  13.930   1.925  1.00  0.00     0.010 A 
ATOM     37  C   UNL     1       3.324  12.706   3.389  1.00  0.00     0.010 A 
ATOM     38  C   UNL     1       3.605  13.847   2.620  1.00  0.00    -0.014 A 
BRANCH  38  39
ATOM     39  C   UNL     1       2.614  14.950   2.567  1.00  0.00     0.031 A 
ATOM     40  C   UNL     1       2.277  15.713   3.816  1.00  0.00     0.074 A 
ATOM     41  C   UNL     1       1.972  15.218   1.414  1.00  0.00     0.049 A 
ATOM     42  N   UNL     1       1.399  16.668   3.994  1.00  0.00    -0.248 NA
ATOM     43  C   UNL     1       3.001  15.329   5.038  1.00  0.00     0.031 C 
ATOM     44  C   UNL     1       2.174  14.509   0.150  1.00  0.00     0.029 A 
ATOM     45  N   UNL     1       1.011  16.153   1.122  1.00  0.00    -0.354 N 
ATOM     46  C   UNL     1       1.456  16.985   5.344  1.00  0.00     0.074 A 
ATOM     47  C   UNL     1       2.408  16.082   5.952  1.00  0.00     0.031 C 
ATOM     48  C   UNL     1       1.378  15.049  -0.787  1.00  0.00     0.029 A 
ATOM     49  C   UNL     1       0.587  16.117  -0.184  1.00  0.00     0.049 A 
ATOM     50  H   UNL     1       0.658  16.789   1.786  1.00  0.00     0.167 HD
ATOM     51  C   UNL     1       0.793  17.959   6.011  1.00  0.00     0.037 A 
ATOM     52  C   UNL     1      -0.338  16.862  -0.819  1.00  0.00     0.037 A 
ATOM     53  C   UNL     1      -0.135  18.870   5.395  1.00  0.00     0.049 A 
ATOM     54  C   UNL     1      -1.058  17.942  -0.058  1.00  0.00     0.074 A 
ATOM     55  C   UNL     1      -0.810  19.934   5.967  1.00  0.00     0.029 A 
ATOM     56  N   UNL     1      -0.522  18.820   4.063  1.00  0.00    -0.354 N 
ATOM     57  N   UNL     1      -0.940  18.286   1.201  1.00  0.00    -0.248 NA
ATOM     58  C   UNL     1      -2.033  18.744  -0.810  1.00  0.00     0.031 C 
ATOM     59  C   UNL     1      -1.641  20.498   4.993  1.00  0.00     0.029 A 
ATOM     60  C   UNL     1      -1.444  19.820   3.800  1.00  0.00     0.049 A 
ATOM     61  H   UNL     1      -0.190  18.169   3.403  1.00  0.00     0.167 HD
ATOM     62  C   UNL     1      -1.802  19.358   1.387  1.00  0.00     0.074 A 
ATOM     63  C   UNL     1      -2.426  19.617   0.107  1.00  0.00     0.031 C 
ATOM     64  C   UNL     1      -2.052  20.065   2.517  1.00  0.00     0.037 A 
BRANCH  51  65
ATOM     65  C   UNL     1       1.054  18.086   7.485  1.00  0.00     0.064 A 
ATOM     66  C   UNL     1       2.293  18.522   7.980  1.00  0.00     0.173 A 
ATOM     67  C   UNL     1       0.048  17.783   8.415  1.00  0.00     0.173 A 
ATOM     68  F   UNL     1       3.293  18.814   7.134  1.00  0.00    -0.203 F 
ATOM     69  C   UNL     1       2.528  18.611   9.349  1.00  0.00     0.198 A 
ATOM     70  C   UNL     1       0.276  17.906   9.783  1.00  0.00     0.198 A 
ATOM     71  F   UNL     1      -1.157  17.367   7.998  1.00  0.00    -0.203 F 
ATOM     72  F   UNL     1       3.739  18.971   9.797  1.00  0.00    -0.200 F 
ATOM     73  C   UNL     1       1.518  18.309  10.249  1.00  0.00     0.200 A 
ATOM     74  F   UNL     1      -0.705  17.626  10.652  1.00  0.00    -0.200 F 
ATOM     75  F   UNL     1       1.745  18.398  11.567  1.00  0.00    -0.200 F 
ENDBRANCH  51  65
BRANCH  52  76
ATOM     76  C   UNL     1      -0.608  16.632  -2.262  1.00  0.00     0.064 A 
ATOM     77  C   UNL     1      -0.213  17.570  -3.226  1.00  0.00     0.173 A 
ATOM     78  C   UNL     1      -1.252  15.470  -2.710  1.00  0.00     0.173 A 
ATOM     79  F   UNL     1       0.390  18.706  -2.846  1.00  0.00    -0.203 F 
ATOM     80  C   UNL     1      -0.467  17.363  -4.580  1.00  0.00     0.198 A 
ATOM     81  C   UNL     1      -1.482  15.251  -4.066  1.00  0.00     0.198 A 
ATOM     82  F   UNL     1      -1.645  14.538  -1.829  1.00  0.00    -0.203 F 
ATOM     83  F   UNL     1      -0.114  18.294  -5.476  1.00  0.00    -0.200 F 
ATOM     84  C   UNL     1      -1.095  16.200  -5.000  1.00  0.00     0.200 A 
ATOM     85  F   UNL     1      -2.075  14.119  -4.469  1.00  0.00    -0.200 F 
ATOM     86  F   UNL     1      -1.332  15.997  -6.303  1.00  0.00    -0.200 F 
ENDBRANCH  52  76
BRANCH  64  87
ATOM     87  C   UNL     1      -3.020  21.208   2.413  1.00  0.00     0.064 A 
ATOM     88  C   UNL     1      -4.397  20.996   2.256  1.00  0.00     0.173 A 
ATOM     89  C   UNL     1      -2.566  22.532   2.518  1.00  0.00     0.173 A 
ATOM     90  F   UNL     1      -4.879  19.750   2.137  1.00  0.00    -0.203 F 
ATOM     91  C   UNL     1      -5.282  22.069   2.184  1.00  0.00     0.198 A 
ATOM     92  C   UNL     1      -3.457  23.601   2.476  1.00  0.00     0.198 A 
ATOM     93  F   UNL     1      -1.259  22.789   2.675  1.00  0.00    -0.203 F 
ATOM     94  F   UNL     1      -6.589  21.844   1.988  1.00  0.00    -0.200 F 
ATOM     95  C   UNL     1      -4.813  23.369   2.302  1.00  0.00     0.200 A 
ATOM     96  F   UNL     1      -3.003  24.855   2.604  1.00  0.00    -0.200 F 
ATOM     97  F   UNL     1      -5.668  24.399   2.242  1.00  0.00    -0.200 F 
ENDBRANCH  64  87
ENDBRANCH  38  39
ENDBRANCH  30  33
ENDBRANCH  28  29
ENDBRANCH  27  28
ENDBRANCH  26  27
ENDBRANCH   1  26
TORSDOF 18
