REMARK SMILES COc1ccc(CCN2/C(=[NH+]/C(=O)CCC(=O)NCCCCCCNC(=O)c3ccc(-c4c5nc(c(-c6c(F)c(F)c(F)c(F)c6F)c6ccc([nH]6)c(-c6c(F)c(F)c(F)c(F)c6F)c6nc(c(-c7c(F)c(F)c(F)c(F)c7F)c7ccc4[nH]7)C=C6)C=C5)cc3)S[C@@H]3CS(=O)(=O)C[C@@H]32)cc1
REMARK SMILES IDX 19 1 18 2 16 3 17 4 15 6 14 7 12 8 9 9 10 10 98 11 11 12
REMARK SMILES IDX 91 13 92 14 97 15 93 17 94 18 13 19 95 20 96 21 8 22 7 23
REMARK SMILES IDX 6 24 3 25 4 26 100 27 5 28 99 29 2 30 1 31 20 32 21 33 22 34
REMARK SMILES IDX 23 35 24 36 25 37 26 38 27 40 28 41 29 42 90 43 30 44 89 45
REMARK SMILES IDX 31 46 32 47 33 48 83 49 34 50 88 51 82 52 84 53 35 54 87 55
REMARK SMILES IDX 81 56 80 57 36 59 68 60 48 61 67 62 49 63 52 64 66 65 85 66
REMARK SMILES IDX 50 67 51 68 65 70 86 71 53 72 37 73 38 74 46 75 39 76 40 77
REMARK SMILES IDX 44 78 47 79 41 80 42 81 45 82 43 83 69 84 70 85 78 86 71 87
REMARK SMILES IDX 72 88 76 89 79 90 73 91 74 92 77 93 75 94 54 95 55 96 63 97
REMARK SMILES IDX 56 98 57 99 61 100 64 101 58 102 59 103 62 104 60 105
REMARK H PARENT 18 5 11 16 25 39 84 58 52 69
REMARK Flexibility Score: inf
ROOT
ATOM      1  C   UNL     1      -1.304   0.991  -2.913  1.00  0.00     0.116 C 
ENDROOT
BRANCH   1   2
ATOM      2  N   UNL     1      -0.272   2.027  -2.807  1.00  0.00    -0.356 N 
ATOM      3  C   UNL     1      -0.256   3.303  -3.276  1.00  0.00     0.220 C 
ATOM      4  O   UNL     1       0.799   3.938  -3.252  1.00  0.00    -0.275 OA
ATOM      5  H   UNL     1       0.538   1.755  -2.319  1.00  0.00     0.163 HD
BRANCH   3   6
ATOM      6  C   UNL     1      -1.542   3.920  -3.758  1.00  0.00     0.112 C 
BRANCH   6   7
ATOM      7  C   UNL     1      -1.409   4.507  -5.161  1.00  0.00     0.138 C 
BRANCH   7   8
ATOM      8  C   UNL     1      -1.694   3.499  -6.261  1.00  0.00     0.308 C 
ATOM      9  N   UNL     1       0.473   0.862  -7.702  1.00  0.00    -0.251 N 
ATOM     10  C   UNL     1      -0.643   1.739  -7.467  1.00  0.00     0.314 C 
ATOM     11  C   UNL     1       0.188  -0.393  -8.518  1.00  0.00     0.206 C 
ATOM     12  N   UNL     1      -0.577   2.828  -6.750  1.00  0.00    -0.205 N 
ATOM     13  S   UNL     1      -2.245   1.146  -8.106  1.00  0.00    -0.030 SA
ATOM     14  C   UNL     1      -1.774  -0.539  -8.575  1.00  0.00     0.120 C 
ATOM     15  C   UNL     1       1.084  -2.060  -7.865  1.00  0.00     0.187 C 
ATOM     16  H   UNL     1       0.313   3.195  -6.543  1.00  0.00     0.316 HD
ATOM     17  C   UNL     1      -2.403  -2.310  -7.796  1.00  0.00     0.156 C 
ATOM     18  S   UNL     1      -0.499  -3.587  -7.199  1.00  0.00     0.155 S 
ATOM     19  O   UNL     1      -2.878   3.322  -6.552  1.00  0.00    -0.247 OA
ATOM     20  O   UNL     1      -0.402  -3.818  -5.766  1.00  0.00    -0.229 OA
ATOM     21  O   UNL     1      -0.372  -4.793  -8.006  1.00  0.00    -0.229 OA
BRANCH   9  22
ATOM     22  C   UNL     1       1.944   1.178  -7.430  1.00  0.00     0.242 C 
BRANCH  22  23
ATOM     23  C   UNL     1       2.856   1.059  -6.025  1.00  0.00     0.081 C 
BRANCH  23  24
ATOM     24  C   UNL     1       2.936   0.383  -4.601  1.00  0.00    -0.044 A 
ATOM     25  C   UNL     1       2.579  -0.335  -1.824  1.00  0.00     0.118 A 
ATOM     26  C   UNL     1       2.311  -1.236  -2.846  1.00  0.00     0.046 A 
ATOM     27  C   UNL     1       3.285   0.805  -2.166  1.00  0.00     0.046 A 
ATOM     28  C   UNL     1       2.614  -0.925  -4.203  1.00  0.00     0.007 A 
ATOM     29  C   UNL     1       3.441   1.161  -3.531  1.00  0.00     0.007 A 
BRANCH  25  30
ATOM     30  O   UNL     1       2.183  -0.684  -0.564  1.00  0.00    -0.497 OA
ATOM     31  C   UNL     1       1.753   0.388   0.281  1.00  0.00     0.278 C 
ENDBRANCH  25  30
ENDBRANCH  23  24
ENDBRANCH  22  23
ENDBRANCH   9  22
ENDBRANCH   7   8
ENDBRANCH   6   7
ENDBRANCH   3   6
ENDBRANCH   1   2
BRANCH   1  32
ATOM     32  C   UNL     1      -1.505   0.484  -4.350  1.00  0.00     0.021 C 
BRANCH  32  33
ATOM     33  C   UNL     1      -0.136   0.248  -4.927  1.00  0.00     0.002 C 
BRANCH  33  34
ATOM     34  C   UNL     1       0.218  -0.954  -5.815  1.00  0.00     0.002 C 
BRANCH  34  35
ATOM     35  C   UNL     1      -0.755  -1.406  -6.995  1.00  0.00     0.021 C 
BRANCH  35  36
ATOM     36  C   UNL     1      -0.690  -2.245  -8.973  1.00  0.00     0.116 C 
BRANCH  36  37
ATOM     37  N   UNL     1       0.307  -2.291 -10.153  1.00  0.00    -0.352 N 
ATOM     38  C   UNL     1       0.243  -3.158 -11.245  1.00  0.00     0.251 C 
ATOM     39  H   UNL     1       1.056  -1.652 -10.132  1.00  0.00     0.163 HD
ATOM     40  O   UNL     1       1.216  -3.341 -11.963  1.00  0.00    -0.269 OA
BRANCH  38  41
ATOM     41  C   UNL     1      -1.053  -3.784 -11.554  1.00  0.00     0.039 A 
ATOM     42  C   UNL     1      -1.216  -5.168 -11.565  1.00  0.00     0.014 A 
ATOM     43  C   UNL     1      -2.140  -2.921 -11.718  1.00  0.00     0.014 A 
ATOM     44  C   UNL     1      -2.503  -5.685 -11.705  1.00  0.00     0.010 A 
ATOM     45  C   UNL     1      -3.420  -3.433 -11.695  1.00  0.00     0.010 A 
ATOM     46  C   UNL     1      -3.609  -4.819 -11.743  1.00  0.00    -0.014 A 
BRANCH  46  47
ATOM     47  C   UNL     1      -4.983  -5.324 -11.931  1.00  0.00     0.031 A 
ATOM     48  C   UNL     1      -5.742  -4.902 -13.159  1.00  0.00     0.074 A 
ATOM     49  C   UNL     1      -5.542  -6.099 -10.985  1.00  0.00     0.049 A 
ATOM     50  N   UNL     1      -6.975  -5.165 -13.503  1.00  0.00    -0.248 NA
ATOM     51  C   UNL     1      -5.034  -4.024 -14.110  1.00  0.00     0.031 C 
ATOM     52  C   UNL     1      -4.898  -6.504  -9.733  1.00  0.00     0.029 A 
ATOM     53  N   UNL     1      -6.777  -6.686 -10.930  1.00  0.00    -0.354 N 
ATOM     54  C   UNL     1      -7.182  -4.479 -14.693  1.00  0.00     0.074 A 
ATOM     55  C   UNL     1      -5.995  -3.706 -14.961  1.00  0.00     0.031 C 
ATOM     56  C   UNL     1      -5.728  -7.312  -9.055  1.00  0.00     0.029 A 
ATOM     57  C   UNL     1      -6.974  -7.442  -9.802  1.00  0.00     0.049 A 
ATOM     58  H   UNL     1      -7.458  -6.577 -11.633  1.00  0.00     0.167 HD
ATOM     59  C   UNL     1      -8.254  -4.532 -15.515  1.00  0.00     0.037 A 
ATOM     60  C   UNL     1      -8.050  -8.157  -9.425  1.00  0.00     0.037 A 
ATOM     61  C   UNL     1      -9.411  -5.335 -15.239  1.00  0.00     0.049 A 
ATOM     62  C   UNL     1      -9.236  -8.194 -10.352  1.00  0.00     0.074 A 
ATOM     63  C   UNL     1     -10.546  -5.510 -16.006  1.00  0.00     0.029 A 
ATOM     64  N   UNL     1      -9.573  -6.104 -14.093  1.00  0.00    -0.354 N 
ATOM     65  N   UNL     1      -9.400  -7.597 -11.511  1.00  0.00    -0.248 NA
ATOM     66  C   UNL     1     -10.380  -9.009  -9.930  1.00  0.00     0.031 C 
ATOM     67  C   UNL     1     -11.421  -6.337 -15.296  1.00  0.00     0.029 A 
ATOM     68  C   UNL     1     -10.802  -6.736 -14.120  1.00  0.00     0.049 A 
ATOM     69  H   UNL     1      -8.911  -6.186 -13.369  1.00  0.00     0.167 HD
ATOM     70  C   UNL     1     -10.650  -7.987 -11.969  1.00  0.00     0.074 A 
ATOM     71  C   UNL     1     -11.191  -8.888 -10.971  1.00  0.00     0.031 C 
ATOM     72  C   UNL     1     -11.299  -7.634 -13.107  1.00  0.00     0.037 A 
BRANCH  59  73
ATOM     73  C   UNL     1      -8.209  -3.712 -16.773  1.00  0.00     0.064 A 
ATOM     74  C   UNL     1      -7.295  -3.987 -17.804  1.00  0.00     0.173 A 
ATOM     75  C   UNL     1      -9.093  -2.639 -16.955  1.00  0.00     0.173 A 
ATOM     76  F   UNL     1      -6.411  -4.988 -17.675  1.00  0.00    -0.203 F 
ATOM     77  C   UNL     1      -7.246  -3.199 -18.951  1.00  0.00     0.198 A 
ATOM     78  C   UNL     1      -9.067  -1.876 -18.120  1.00  0.00     0.198 A 
ATOM     79  F   UNL     1      -9.983  -2.326 -16.002  1.00  0.00    -0.203 F 
ATOM     80  F   UNL     1      -6.319  -3.441 -19.889  1.00  0.00    -0.200 F 
ATOM     81  C   UNL     1      -8.137  -2.150 -19.112  1.00  0.00     0.200 A 
ATOM     82  F   UNL     1      -9.937  -0.870 -18.279  1.00  0.00    -0.200 F 
ATOM     83  F   UNL     1      -8.094  -1.396 -20.219  1.00  0.00    -0.200 F 
ENDBRANCH  59  73
BRANCH  60  84
ATOM     84  C   UNL     1      -8.042  -8.899  -8.136  1.00  0.00     0.064 A 
ATOM     85  C   UNL     1      -8.078 -10.300  -8.101  1.00  0.00     0.173 A 
ATOM     86  C   UNL     1      -7.997  -8.221  -6.908  1.00  0.00     0.173 A 
ATOM     87  F   UNL     1      -8.130 -10.997  -9.246  1.00  0.00    -0.203 F 
ATOM     88  C   UNL     1      -8.104 -10.992  -6.892  1.00  0.00     0.198 A 
ATOM     89  C   UNL     1      -7.987  -8.915  -5.699  1.00  0.00     0.198 A 
ATOM     90  F   UNL     1      -7.947  -6.881  -6.881  1.00  0.00    -0.203 F 
ATOM     91  F   UNL     1      -8.196 -12.329  -6.889  1.00  0.00    -0.200 F 
ATOM     92  C   UNL     1      -8.053 -10.299  -5.692  1.00  0.00     0.200 A 
ATOM     93  F   UNL     1      -7.916  -8.241  -4.544  1.00  0.00    -0.200 F 
ATOM     94  F   UNL     1      -8.077 -10.965  -4.529  1.00  0.00    -0.200 F 
ENDBRANCH  60  84
BRANCH  72  95
ATOM     95  C   UNL     1     -12.643  -8.255 -13.347  1.00  0.00     0.064 A 
ATOM     96  C   UNL     1     -13.762  -7.915 -12.574  1.00  0.00     0.173 A 
ATOM     97  C   UNL     1     -12.821  -9.166 -14.400  1.00  0.00     0.173 A 
ATOM     98  F   UNL     1     -13.641  -7.057 -11.549  1.00  0.00    -0.203 F 
ATOM     99  C   UNL     1     -15.004  -8.491 -12.825  1.00  0.00     0.198 A 
ATOM    100  C   UNL     1     -14.072  -9.707 -14.674  1.00  0.00     0.198 A 
ATOM    101  F   UNL     1     -11.783  -9.513 -15.177  1.00  0.00    -0.203 F 
ATOM    102  F   UNL     1     -16.047  -8.197 -12.037  1.00  0.00    -0.200 F 
ATOM    103  C   UNL     1     -15.159  -9.377 -13.880  1.00  0.00     0.200 A 
ATOM    104  F   UNL     1     -14.224 -10.545 -15.709  1.00  0.00    -0.200 F 
ATOM    105  F   UNL     1     -16.359  -9.920 -14.129  1.00  0.00    -0.200 F 
ENDBRANCH  72  95
ENDBRANCH  46  47
ENDBRANCH  38  41
ENDBRANCH  36  37
ENDBRANCH  35  36
ENDBRANCH  34  35
ENDBRANCH  33  34
ENDBRANCH  32  33
ENDBRANCH   1  32
TORSDOF 19
