REMARK SMILES C[C@H](C(=O)NCCCCCCNC(=O)c1ccc(-c2c3nc(c(-c4c(F)c(F)c(F)c(F)c4F)c4ccc([nH]4)c(-c4c(F)c(F)c(F)c(F)c4F)c4nc(c(-c5c(F)c(F)c(F)c(F)c5F)c5ccc2[nH]5)C=C4)C=C3)cc1)c1ccc(C[C@@H]2CCC[C@H]2O)cc1
REMARK SMILES IDX 7 1 6 2 5 3 3 4 4 5 2 7 1 8 78 9 79 10 90 11 80 12 89 13
REMARK SMILES IDX 81 14 82 15 83 16 84 17 87 18 85 19 86 20 88 21 8 23 9 24
REMARK SMILES IDX 10 25 11 26 12 27 13 28 14 30 15 31 16 32 77 33 17 34 76 35
REMARK SMILES IDX 18 36 19 37 20 38 70 39 21 40 75 41 69 42 71 43 22 44 74 45
REMARK SMILES IDX 68 46 67 47 23 49 55 50 35 51 54 52 36 53 39 54 53 55 72 56
REMARK SMILES IDX 37 57 38 58 52 60 73 61 40 62 24 63 25 64 33 65 26 66 27 67
REMARK SMILES IDX 31 68 34 69 28 70 29 71 32 72 30 73 56 74 57 75 65 76 58 77
REMARK SMILES IDX 59 78 63 79 66 80 60 81 61 82 64 83 62 84 41 85 42 86 50 87
REMARK SMILES IDX 43 88 44 89 48 90 51 91 45 92 46 93 49 94 47 95
REMARK H PARENT 5 6 88 22 12 29 71 48 39 59
REMARK Flexibility Score: inf
ROOT
ATOM      1  C   UNL     1      -6.810  -0.550   5.739  1.00  0.00     0.021 C 
ENDROOT
BRANCH   1   2
ATOM      2  C   UNL     1      -7.983  -0.219   6.667  1.00  0.00     0.116 C 
BRANCH   2   3
ATOM      3  N   UNL     1      -8.076   1.214   6.860  1.00  0.00    -0.356 N 
ATOM      4  C   UNL     1      -8.765   2.155   6.150  1.00  0.00     0.227 C 
ATOM      5  O   UNL     1      -8.490   3.334   6.397  1.00  0.00    -0.274 OA
ATOM      6  H   UNL     1      -7.562   1.563   7.623  1.00  0.00     0.163 HD
BRANCH   4   7
ATOM      7  C   UNL     1      -9.874   1.763   5.152  1.00  0.00     0.105 C 
ATOM      8  C   UNL     1     -10.813   2.970   4.966  1.00  0.00     0.023 C 
BRANCH   7   9
ATOM      9  C   UNL     1      -9.351   1.252   3.812  1.00  0.00    -0.036 A 
ATOM     10  C   UNL     1      -9.273  -0.127   3.565  1.00  0.00     0.005 A 
ATOM     11  C   UNL     1      -8.938   2.116   2.790  1.00  0.00     0.005 A 
ATOM     12  C   UNL     1      -8.655  -0.626   2.414  1.00  0.00     0.004 A 
ATOM     13  C   UNL     1      -8.394   1.616   1.602  1.00  0.00     0.004 A 
ATOM     14  C   UNL     1      -8.168   0.245   1.439  1.00  0.00    -0.048 A 
BRANCH  14  15
ATOM     15  C   UNL     1      -7.394  -0.279   0.255  1.00  0.00     0.041 C 
BRANCH  15  16
ATOM     16  C   UNL     1      -5.850  -0.205   0.336  1.00  0.00     0.022 C 
ATOM     17  C   UNL     1      -5.239  -1.017   1.493  1.00  0.00     0.007 C 
ATOM     18  C   UNL     1      -5.275   1.208   0.508  1.00  0.00     0.117 C 
ATOM     19  C   UNL     1      -4.605  -0.023   2.464  1.00  0.00     0.003 C 
ATOM     20  C   UNL     1      -5.018   1.366   2.001  1.00  0.00     0.032 C 
BRANCH  18  21
ATOM     21  O   UNL     1      -4.037   1.308  -0.199  1.00  0.00    -0.393 OA
ATOM     22  H   UNL     1      -3.422   0.634   0.130  1.00  0.00     0.210 HD
ENDBRANCH  18  21
ENDBRANCH  15  16
ENDBRANCH  14  15
ENDBRANCH   7   9
ENDBRANCH   4   7
ENDBRANCH   2   3
ENDBRANCH   1   2
BRANCH   1  23
ATOM     23  C   UNL     1      -5.529  -0.930   6.489  1.00  0.00     0.002 C 
BRANCH  23  24
ATOM     24  C   UNL     1      -5.543  -2.340   7.093  1.00  0.00     0.002 C 
BRANCH  24  25
ATOM     25  C   UNL     1      -5.770  -3.483   6.096  1.00  0.00     0.021 C 
BRANCH  25  26
ATOM     26  C   UNL     1      -4.772  -3.542   4.943  1.00  0.00     0.116 C 
BRANCH  26  27
ATOM     27  N   UNL     1      -3.425  -3.835   5.406  1.00  0.00    -0.352 N 
ATOM     28  C   UNL     1      -2.643  -4.940   5.177  1.00  0.00     0.251 C 
ATOM     29  H   UNL     1      -3.013  -3.138   5.966  1.00  0.00     0.163 HD
ATOM     30  O   UNL     1      -1.627  -5.126   5.839  1.00  0.00    -0.269 OA
BRANCH  28  31
ATOM     31  C   UNL     1      -3.022  -5.915   4.132  1.00  0.00     0.039 A 
ATOM     32  C   UNL     1      -2.930  -7.282   4.411  1.00  0.00     0.014 A 
ATOM     33  C   UNL     1      -3.427  -5.483   2.866  1.00  0.00     0.014 A 
ATOM     34  C   UNL     1      -3.292  -8.216   3.437  1.00  0.00     0.010 A 
ATOM     35  C   UNL     1      -3.850  -6.412   1.919  1.00  0.00     0.010 A 
ATOM     36  C   UNL     1      -3.777  -7.787   2.191  1.00  0.00    -0.014 A 
BRANCH  36  37
ATOM     37  C   UNL     1      -4.189  -8.754   1.142  1.00  0.00     0.031 A 
ATOM     38  C   UNL     1      -3.428  -8.821  -0.152  1.00  0.00     0.074 A 
ATOM     39  C   UNL     1      -5.289  -9.510   1.318  1.00  0.00     0.049 A 
ATOM     40  N   UNL     1      -3.696  -9.499  -1.240  1.00  0.00    -0.248 NA
ATOM     41  C   UNL     1      -2.219  -7.989  -0.246  1.00  0.00     0.031 C 
ATOM     42  C   UNL     1      -6.130  -9.513   2.514  1.00  0.00     0.029 A 
ATOM     43  N   UNL     1      -5.900 -10.408   0.478  1.00  0.00    -0.354 N 
ATOM     44  C   UNL     1      -2.707  -9.155  -2.152  1.00  0.00     0.074 A 
ATOM     45  C   UNL     1      -1.860  -8.174  -1.507  1.00  0.00     0.031 C 
ATOM     46  C   UNL     1      -7.143 -10.376   2.337  1.00  0.00     0.029 A 
ATOM     47  C   UNL     1      -7.045 -10.957   1.000  1.00  0.00     0.049 A 
ATOM     48  H   UNL     1      -5.551 -10.636  -0.413  1.00  0.00     0.167 HD
ATOM     49  C   UNL     1      -2.511  -9.629  -3.406  1.00  0.00     0.037 A 
ATOM     50  C   UNL     1      -7.924 -11.821   0.457  1.00  0.00     0.037 A 
ATOM     51  C   UNL     1      -3.339 -10.626  -4.032  1.00  0.00     0.049 A 
ATOM     52  C   UNL     1      -7.687 -12.333  -0.938  1.00  0.00     0.074 A 
ATOM     53  C   UNL     1      -3.191 -11.215  -5.275  1.00  0.00     0.029 A 
ATOM     54  N   UNL     1      -4.473 -11.183  -3.458  1.00  0.00    -0.354 N 
ATOM     55  N   UNL     1      -6.719 -12.043  -1.773  1.00  0.00    -0.248 NA
ATOM     56  C   UNL     1      -8.662 -13.298  -1.465  1.00  0.00     0.031 C 
ATOM     57  C   UNL     1      -4.260 -12.096  -5.472  1.00  0.00     0.029 A 
ATOM     58  C   UNL     1      -5.046 -12.095  -4.330  1.00  0.00     0.049 A 
ATOM     59  H   UNL     1      -4.820 -10.962  -2.563  1.00  0.00     0.167 HD
ATOM     60  C   UNL     1      -6.948 -12.809  -2.907  1.00  0.00     0.074 A 
ATOM     61  C   UNL     1      -8.145 -13.584  -2.651  1.00  0.00     0.031 C 
ATOM     62  C   UNL     1      -6.230 -12.868  -4.055  1.00  0.00     0.037 A 
BRANCH  49  63
ATOM     63  C   UNL     1      -1.358  -9.065  -4.186  1.00  0.00     0.064 A 
ATOM     64  C   UNL     1      -0.026  -9.339  -3.837  1.00  0.00     0.173 A 
ATOM     65  C   UNL     1      -1.586  -8.255  -5.308  1.00  0.00     0.173 A 
ATOM     66  F   UNL     1       0.247 -10.100  -2.765  1.00  0.00    -0.203 F 
ATOM     67  C   UNL     1       1.032  -8.793  -4.558  1.00  0.00     0.198 A 
ATOM     68  C   UNL     1      -0.526  -7.737  -6.047  1.00  0.00     0.198 A 
ATOM     69  F   UNL     1      -2.839  -7.966  -5.691  1.00  0.00    -0.203 F 
ATOM     70  F   UNL     1       2.294  -9.021  -4.169  1.00  0.00    -0.200 F 
ATOM     71  C   UNL     1       0.782  -7.997  -5.665  1.00  0.00     0.200 A 
ATOM     72  F   UNL     1      -0.769  -6.979  -7.125  1.00  0.00    -0.200 F 
ATOM     73  F   UNL     1       1.801  -7.473  -6.360  1.00  0.00    -0.200 F 
ENDBRANCH  49  63
BRANCH  50  74
ATOM     74  C   UNL     1      -9.098 -12.273   1.248  1.00  0.00     0.064 A 
ATOM     75  C   UNL     1      -9.173 -13.586   1.734  1.00  0.00     0.173 A 
ATOM     76  C   UNL     1     -10.158 -11.405   1.544  1.00  0.00     0.173 A 
ATOM     77  F   UNL     1      -8.192 -14.458   1.459  1.00  0.00    -0.203 F 
ATOM     78  C   UNL     1     -10.270 -14.017   2.476  1.00  0.00     0.198 A 
ATOM     79  C   UNL     1     -11.243 -11.829   2.308  1.00  0.00     0.198 A 
ATOM     80  F   UNL     1     -10.131 -10.137   1.107  1.00  0.00    -0.203 F 
ATOM     81  F   UNL     1     -10.334 -15.287   2.897  1.00  0.00    -0.200 F 
ATOM     82  C   UNL     1     -11.301 -13.136   2.768  1.00  0.00     0.200 A 
ATOM     83  F   UNL     1     -12.229 -10.972   2.602  1.00  0.00    -0.200 F 
ATOM     84  F   UNL     1     -12.353 -13.549   3.489  1.00  0.00    -0.200 F 
ENDBRANCH  50  74
BRANCH  62  85
ATOM     85  C   UNL     1      -6.689 -13.834  -5.109  1.00  0.00     0.064 A 
ATOM     86  C   UNL     1      -7.838 -13.597  -5.877  1.00  0.00     0.173 A 
ATOM     87  C   UNL     1      -5.937 -14.986  -5.386  1.00  0.00     0.173 A 
ATOM     88  F   UNL     1      -8.598 -12.518  -5.640  1.00  0.00    -0.203 F 
ATOM     89  C   UNL     1      -8.228 -14.489  -6.872  1.00  0.00     0.198 A 
ATOM     90  C   UNL     1      -6.315 -15.861  -6.401  1.00  0.00     0.198 A 
ATOM     91  F   UNL     1      -4.827 -15.254  -4.683  1.00  0.00    -0.203 F 
ATOM     92  F   UNL     1      -9.352 -14.265  -7.567  1.00  0.00    -0.200 F 
ATOM     93  C   UNL     1      -7.462 -15.615  -7.139  1.00  0.00     0.200 A 
ATOM     94  F   UNL     1      -5.566 -16.940  -6.666  1.00  0.00    -0.200 F 
ATOM     95  F   UNL     1      -7.834 -16.467  -8.104  1.00  0.00    -0.200 F 
ENDBRANCH  62  85
ENDBRANCH  36  37
ENDBRANCH  28  31
ENDBRANCH  26  27
ENDBRANCH  25  26
ENDBRANCH  24  25
ENDBRANCH  23  24
ENDBRANCH   1  23
TORSDOF 17
