REMARK SMILES CCc1nn2c(nnc3c(=O)n([C@H](C(=O)NCCCCCCNC(=O)c4ccc(-c5c6nc(c(-c7c(F)c(F)c(F)c(F)c7F)c7ccc([nH]7)c(-c7c(F)c(F)c(F)c(F)c7F)c7nc(c(-c8c(F)c(F)c(F)c(F)c8F)c8ccc5[nH]8)C=C7)C=C6)cc4)C(C)C)ccc32)c1-c1ccc(Cl)cc1
REMARK SMILES IDX 19 1 18 2 17 3 16 4 14 5 15 6 13 8 12 9 3 10 4 11 95 12 5 13
REMARK SMILES IDX 6 14 94 15 7 16 9 17 93 18 8 19 10 20 92 21 11 22 2 23 1 24
REMARK SMILES IDX 96 25 97 26 102 27 98 28 101 29 99 30 100 31 89 32 90 33
REMARK SMILES IDX 91 34 20 35 21 36 22 37 23 38 24 39 25 41 26 42 27 43 88 44
REMARK SMILES IDX 28 45 87 46 29 47 30 48 31 49 81 50 32 51 86 52 80 53 82 54
REMARK SMILES IDX 33 55 85 56 79 57 78 58 34 60 66 61 46 62 65 63 47 64 50 65
REMARK SMILES IDX 64 66 83 67 48 68 49 69 63 71 84 72 51 73 35 74 36 75 44 76
REMARK SMILES IDX 37 77 38 78 42 79 45 80 39 81 40 82 43 83 41 84 67 85 68 86
REMARK SMILES IDX 76 87 69 88 70 89 74 90 77 91 71 92 72 93 75 94 73 95 52 96
REMARK SMILES IDX 53 97 61 98 54 99 55 100 59 101 62 102 56 103 57 104 60 105
REMARK SMILES IDX 58 106
REMARK H PARENT 16 7 23 40 82 59 50 70
REMARK Flexibility Score: inf
ROOT
ATOM      1  C   UNL     1       3.411  -4.636   5.787  1.00  0.00     0.002 C 
ENDROOT
BRANCH   1   2
ATOM      2  C   UNL     1       3.579  -6.110   6.161  1.00  0.00     0.021 C 
BRANCH   2   3
ATOM      3  C   UNL     1       2.297  -6.932   6.100  1.00  0.00     0.116 C 
BRANCH   3   4
ATOM      4  N   UNL     1       1.776  -7.046   4.750  1.00  0.00    -0.354 N 
ATOM      5  C   UNL     1       1.359  -8.165   4.075  1.00  0.00     0.243 C 
ATOM      6  O   UNL     1       0.946  -8.027   2.921  1.00  0.00    -0.273 OA
ATOM      7  H   UNL     1       1.712  -6.202   4.248  1.00  0.00     0.163 HD
BRANCH   5   8
ATOM      8  C   UNL     1       1.383  -9.559   4.767  1.00  0.00     0.182 C 
BRANCH   8   9
ATOM      9  N   UNL     1       2.818  -9.932   5.082  1.00  0.00    -0.301 N 
ATOM     10  C   UNL     1       8.962 -10.980   6.200  1.00  0.00     0.073 A 
ATOM     11  N   UNL     1       7.999 -10.387   5.471  1.00  0.00    -0.170 NA
ATOM     12  C   UNL     1       8.412 -11.711   7.282  1.00  0.00     0.052 A 
ATOM     13  N   UNL     1       6.825 -10.792   6.032  1.00  0.00    -0.210 N 
ATOM     14  C   UNL     1       7.048 -11.592   7.141  1.00  0.00     0.186 A 
ATOM     15  C   UNL     1       5.511 -10.530   5.637  1.00  0.00     0.102 A 
ATOM     16  N   UNL     1       6.004 -12.104   7.853  1.00  0.00    -0.129 NA
ATOM     17  C   UNL     1       4.553 -11.130   6.363  1.00  0.00     0.177 A 
ATOM     18  C   UNL     1       5.149  -9.697   4.518  1.00  0.00     0.049 A 
ATOM     19  N   UNL     1       4.823 -11.911   7.469  1.00  0.00    -0.141 NA
ATOM     20  C   UNL     1       3.122 -10.994   5.938  1.00  0.00     0.281 A 
ATOM     21  C   UNL     1       3.859  -9.409   4.293  1.00  0.00     0.092 A 
ATOM     22  O   UNL     1       2.317 -11.825   6.338  1.00  0.00    -0.267 OA
BRANCH  10  23
ATOM     23  C   UNL     1      10.390 -10.783   5.783  1.00  0.00     0.055 C 
ATOM     24  C   UNL     1      11.413 -11.727   6.400  1.00  0.00     0.011 C 
ENDBRANCH  10  23
BRANCH  12  25
ATOM     25  C   UNL     1       8.996 -12.486   8.353  1.00  0.00    -0.013 A 
ATOM     26  C   UNL     1       9.626 -11.840   9.423  1.00  0.00     0.010 A 
ATOM     27  C   UNL     1       8.888 -13.883   8.346  1.00  0.00     0.010 A 
ATOM     28  C   UNL     1      10.153 -12.591  10.476  1.00  0.00     0.021 A 
ATOM     29  C   UNL     1       9.412 -14.630   9.401  1.00  0.00     0.021 A 
ATOM     30  C   UNL     1      10.043 -13.981  10.461  1.00  0.00     0.041 A 
ATOM     31  Cl  UNL     1      10.685 -14.902  11.764  1.00  0.00    -0.084 Cl
ENDBRANCH  12  25
ENDBRANCH   8   9
BRANCH   8  32
ATOM     32  C   UNL     1       0.289  -9.494   5.923  1.00  0.00     0.015 C 
ATOM     33  C   UNL     1      -1.035  -8.880   5.405  1.00  0.00     0.010 C 
ATOM     34  C   UNL     1      -0.110 -10.820   6.580  1.00  0.00     0.010 C 
ENDBRANCH   8  32
ENDBRANCH   5   8
ENDBRANCH   3   4
ENDBRANCH   2   3
ENDBRANCH   1   2
BRANCH   1  35
ATOM     35  C   UNL     1       2.310  -3.876   6.540  1.00  0.00     0.002 C 
BRANCH  35  36
ATOM     36  C   UNL     1       2.348  -3.952   8.073  1.00  0.00     0.021 C 
BRANCH  36  37
ATOM     37  C   UNL     1       3.629  -3.414   8.686  1.00  0.00     0.116 C 
BRANCH  37  38
ATOM     38  N   UNL     1       3.812  -1.992   8.425  1.00  0.00    -0.352 N 
ATOM     39  C   UNL     1       4.842  -1.169   8.827  1.00  0.00     0.251 C 
ATOM     40  H   UNL     1       3.106  -1.562   7.890  1.00  0.00     0.163 HD
ATOM     41  O   UNL     1       4.696   0.042   8.861  1.00  0.00    -0.269 OA
BRANCH  39  42
ATOM     42  C   UNL     1       6.135  -1.769   9.202  1.00  0.00     0.039 A 
ATOM     43  C   UNL     1       6.909  -1.207  10.221  1.00  0.00     0.014 A 
ATOM     44  C   UNL     1       6.596  -2.875   8.486  1.00  0.00     0.014 A 
ATOM     45  C   UNL     1       8.130  -1.792  10.534  1.00  0.00     0.010 A 
ATOM     46  C   UNL     1       7.727  -3.537   8.886  1.00  0.00     0.010 A 
ATOM     47  C   UNL     1       8.526  -2.957   9.859  1.00  0.00    -0.014 A 
BRANCH  47  48
ATOM     48  C   UNL     1       9.756  -3.638  10.220  1.00  0.00     0.031 A 
ATOM     49  C   UNL     1       9.754  -4.160  11.604  1.00  0.00     0.074 A 
ATOM     50  C   UNL     1      10.723  -3.935   9.326  1.00  0.00     0.049 A 
ATOM     51  N   UNL     1      10.395  -3.683  12.616  1.00  0.00    -0.248 NA
ATOM     52  C   UNL     1       8.814  -5.239  11.949  1.00  0.00     0.031 C 
ATOM     53  C   UNL     1      10.674  -3.786   7.867  1.00  0.00     0.029 A 
ATOM     54  N   UNL     1      11.940  -4.515   9.531  1.00  0.00    -0.354 N 
ATOM     55  C   UNL     1      10.130  -4.551  13.671  1.00  0.00     0.074 A 
ATOM     56  C   UNL     1       9.000  -5.343  13.268  1.00  0.00     0.031 C 
ATOM     57  C   UNL     1      11.712  -4.448   7.307  1.00  0.00     0.029 A 
ATOM     58  C   UNL     1      12.588  -4.914   8.365  1.00  0.00     0.049 A 
ATOM     59  H   UNL     1      12.328  -4.641  10.428  1.00  0.00     0.167 HD
ATOM     60  C   UNL     1      11.071  -4.752  14.634  1.00  0.00     0.037 A 
ATOM     61  C   UNL     1      13.765  -5.582   8.291  1.00  0.00     0.037 A 
ATOM     62  C   UNL     1      12.116  -3.764  14.530  1.00  0.00     0.049 A 
ATOM     63  C   UNL     1      14.484  -5.326   9.561  1.00  0.00     0.074 A 
ATOM     64  C   UNL     1      12.289  -2.442  14.873  1.00  0.00     0.029 A 
ATOM     65  N   UNL     1      13.057  -4.067  13.583  1.00  0.00    -0.354 N 
ATOM     66  N   UNL     1      14.936  -4.152   9.905  1.00  0.00    -0.248 NA
ATOM     67  C   UNL     1      14.422  -6.316  10.631  1.00  0.00     0.031 C 
ATOM     68  C   UNL     1      13.289  -1.926  13.993  1.00  0.00     0.029 A 
ATOM     69  C   UNL     1      13.731  -2.953  13.164  1.00  0.00     0.049 A 
ATOM     70  H   UNL     1      13.228  -4.976  13.245  1.00  0.00     0.167 HD
ATOM     71  C   UNL     1      14.812  -4.133  11.278  1.00  0.00     0.074 A 
ATOM     72  C   UNL     1      14.675  -5.527  11.678  1.00  0.00     0.031 C 
ATOM     73  C   UNL     1      14.484  -2.983  11.931  1.00  0.00     0.037 A 
BRANCH  60  74
ATOM     74  C   UNL     1      11.340  -6.073  15.324  1.00  0.00     0.064 A 
ATOM     75  C   UNL     1      12.269  -6.112  16.386  1.00  0.00     0.173 A 
ATOM     76  C   UNL     1      10.973  -7.331  14.799  1.00  0.00     0.173 A 
ATOM     77  F   UNL     1      12.720  -4.976  16.940  1.00  0.00    -0.203 F 
ATOM     78  C   UNL     1      12.822  -7.312  16.845  1.00  0.00     0.198 A 
ATOM     79  C   UNL     1      11.485  -8.529  15.295  1.00  0.00     0.198 A 
ATOM     80  F   UNL     1      10.203  -7.454  13.712  1.00  0.00    -0.203 F 
ATOM     81  F   UNL     1      13.785  -7.289  17.776  1.00  0.00    -0.200 F 
ATOM     82  C   UNL     1      12.429  -8.520  16.299  1.00  0.00     0.200 A 
ATOM     83  F   UNL     1      11.116  -9.687  14.728  1.00  0.00    -0.200 F 
ATOM     84  F   UNL     1      12.992  -9.667  16.701  1.00  0.00    -0.200 F 
ENDBRANCH  60  74
BRANCH  61  85
ATOM     85  C   UNL     1      14.251  -6.581   7.309  1.00  0.00     0.064 A 
ATOM     86  C   UNL     1      15.598  -6.990   7.317  1.00  0.00     0.173 A 
ATOM     87  C   UNL     1      13.363  -7.377   6.566  1.00  0.00     0.173 A 
ATOM     88  F   UNL     1      16.513  -6.291   8.004  1.00  0.00    -0.203 F 
ATOM     89  C   UNL     1      16.013  -8.172   6.697  1.00  0.00     0.198 A 
ATOM     90  C   UNL     1      13.788  -8.540   5.920  1.00  0.00     0.198 A 
ATOM     91  F   UNL     1      12.051  -7.104   6.535  1.00  0.00    -0.203 F 
ATOM     92  F   UNL     1      17.284  -8.580   6.817  1.00  0.00    -0.200 F 
ATOM     93  C   UNL     1      15.102  -8.959   6.018  1.00  0.00     0.200 A 
ATOM     94  F   UNL     1      12.904  -9.289   5.251  1.00  0.00    -0.200 F 
ATOM     95  F   UNL     1      15.474 -10.135   5.495  1.00  0.00    -0.200 F 
ENDBRANCH  61  85
BRANCH  73  96
ATOM     96  C   UNL     1      14.782  -1.687  11.247  1.00  0.00     0.064 A 
ATOM     97  C   UNL     1      14.127  -1.222  10.096  1.00  0.00     0.173 A 
ATOM     98  C   UNL     1      15.726  -0.841  11.844  1.00  0.00     0.173 A 
ATOM     99  F   UNL     1      13.169  -1.948   9.507  1.00  0.00    -0.203 F 
ATOM    100  C   UNL     1      14.425   0.029   9.556  1.00  0.00     0.198 A 
ATOM    101  C   UNL     1      15.997   0.419  11.324  1.00  0.00     0.198 A 
ATOM    102  F   UNL     1      16.359  -1.226  12.963  1.00  0.00    -0.203 F 
ATOM    103  F   UNL     1      13.797   0.451   8.449  1.00  0.00    -0.200 F 
ATOM    104  C   UNL     1      15.353   0.851  10.176  1.00  0.00     0.200 A 
ATOM    105  F   UNL     1      16.867   1.223  11.949  1.00  0.00    -0.200 F 
ATOM    106  F   UNL     1      15.612   2.069   9.680  1.00  0.00    -0.200 F 
ENDBRANCH  73  96
ENDBRANCH  47  48
ENDBRANCH  39  42
ENDBRANCH  37  38
ENDBRANCH  36  37
ENDBRANCH  35  36
ENDBRANCH   1  35
TORSDOF 17
