REMARK SMILES Cc1cc2c(c(C)c1Br)C=C(C(=O)NCCCCCCNC(=O)c1ccc(-c3c4nc(c(-c5c(F)c(F)c(F)c(F)c5F)c5ccc([nH]5)c(-c5c(F)c(F)c(F)c(F)c5F)c5nc(c(-c6c(F)c(F)c(F)c(F)c6F)c6ccc3[nH]6)C=C5)C=C4)cc1)[C@@H](C(F)(F)F)O2
REMARK SMILES IDX 18 1 17 2 16 3 15 4 14 5 12 6 13 7 11 9 1 10 2 11 3 12 8 13
REMARK SMILES IDX 4 14 6 15 9 16 5 17 92 18 7 19 10 20 87 21 88 22 89 23 90 24
REMARK SMILES IDX 91 25 19 26 20 27 21 28 22 29 23 31 24 32 25 33 86 34 26 35
REMARK SMILES IDX 85 36 27 37 28 38 29 39 79 40 30 41 84 42 78 43 80 44 31 45
REMARK SMILES IDX 83 46 77 47 76 48 32 50 64 51 44 52 63 53 45 54 48 55 62 56
REMARK SMILES IDX 81 57 46 58 47 59 61 61 82 62 49 63 33 64 34 65 42 66 35 67
REMARK SMILES IDX 36 68 40 69 43 70 37 71 38 72 41 73 39 74 65 75 66 76 74 77
REMARK SMILES IDX 67 78 68 79 72 80 75 81 69 82 70 83 73 84 71 85 50 86 51 87
REMARK SMILES IDX 59 88 52 89 53 90 57 91 60 92 54 93 55 94 58 95 56 96
REMARK H PARENT 14 8 21 30 80 49 48 60
REMARK Flexibility Score: inf
ROOT
ATOM      1  C   UNL     1       0.325  -9.968   6.568  1.00  0.00     0.002 C 
ENDROOT
BRANCH   1   2
ATOM      2  C   UNL     1       1.260  -8.826   6.987  1.00  0.00     0.002 C 
BRANCH   2   3
ATOM      3  C   UNL     1       1.576  -7.811   5.886  1.00  0.00     0.021 C 
BRANCH   3   4
ATOM      4  C   UNL     1       0.336  -7.189   5.255  1.00  0.00     0.116 C 
BRANCH   4   5
ATOM      5  N   UNL     1      -0.165  -6.072   6.035  1.00  0.00    -0.352 N 
ATOM      6  C   UNL     1      -0.421  -4.758   5.834  1.00  0.00     0.251 C 
ATOM      7  O   UNL     1      -0.893  -4.161   6.807  1.00  0.00    -0.270 OA
ATOM      8  H   UNL     1      -0.374  -6.343   6.958  1.00  0.00     0.163 HD
BRANCH   6   9
ATOM      9  C   UNL     1      -0.175  -4.017   4.560  1.00  0.00     0.067 C 
ATOM     10  C   UNL     1       0.998   0.273  -0.185  1.00  0.00     0.046 C 
ATOM     11  C   UNL     1       0.562  -0.402   1.088  1.00  0.00    -0.033 A 
ATOM     12  C   UNL     1       0.775  -1.781   1.161  1.00  0.00     0.051 A 
ATOM     13  C   UNL     1       0.029   0.260   2.215  1.00  0.00     0.024 A 
ATOM     14  C   UNL     1       0.455  -2.494   2.309  1.00  0.00     0.128 A 
ATOM     15  C   UNL     1      -0.318  -0.461   3.390  1.00  0.00    -0.026 A 
ATOM     16  Br  UNL     1      -0.186   2.160   2.145  1.00  0.00    -0.050 Br
ATOM     17  C   UNL     1      -0.076  -1.858   3.432  1.00  0.00     0.021 A 
ATOM     18  O   UNL     1       0.749  -3.822   2.252  1.00  0.00    -0.475 OA
ATOM     19  C   UNL     1      -0.915   0.211   4.607  1.00  0.00     0.046 C 
ATOM     20  C   UNL     1      -0.299  -2.679   4.628  1.00  0.00     0.026 C 
ATOM     21  C   UNL     1       0.167  -4.677   3.261  1.00  0.00     0.314 C 
BRANCH  21  22
ATOM     22  C   UNL     1      -1.018  -5.443   2.647  1.00  0.00     0.429 C 
ATOM     23  F   UNL     1      -0.578  -6.320   1.708  1.00  0.00    -0.167 F 
ATOM     24  F   UNL     1      -1.698  -6.177   3.558  1.00  0.00    -0.167 F 
ATOM     25  F   UNL     1      -1.913  -4.625   2.051  1.00  0.00    -0.167 F 
ENDBRANCH  21  22
ENDBRANCH   6   9
ENDBRANCH   4   5
ENDBRANCH   3   4
ENDBRANCH   2   3
ENDBRANCH   1   2
BRANCH   1  26
ATOM     26  C   UNL     1       0.722 -10.699   5.281  1.00  0.00     0.021 C 
BRANCH  26  27
ATOM     27  C   UNL     1       2.117 -11.313   5.309  1.00  0.00     0.116 C 
BRANCH  27  28
ATOM     28  N   UNL     1       2.254 -12.289   6.377  1.00  0.00    -0.352 N 
ATOM     29  C   UNL     1       2.633 -13.602   6.307  1.00  0.00     0.251 C 
ATOM     30  H   UNL     1       2.044 -11.959   7.280  1.00  0.00     0.163 HD
ATOM     31  O   UNL     1       2.481 -14.345   7.276  1.00  0.00    -0.269 OA
BRANCH  29  32
ATOM     32  C   UNL     1       3.220 -14.130   5.061  1.00  0.00     0.039 A 
ATOM     33  C   UNL     1       2.791 -15.371   4.584  1.00  0.00     0.014 A 
ATOM     34  C   UNL     1       4.207 -13.412   4.380  1.00  0.00     0.014 A 
ATOM     35  C   UNL     1       3.320 -15.872   3.394  1.00  0.00     0.010 A 
ATOM     36  C   UNL     1       4.685 -13.881   3.161  1.00  0.00     0.010 A 
ATOM     37  C   UNL     1       4.252 -15.119   2.663  1.00  0.00    -0.014 A 
BRANCH  37  38
ATOM     38  C   UNL     1       4.804 -15.614   1.380  1.00  0.00     0.031 A 
ATOM     39  C   UNL     1       6.263 -15.955   1.276  1.00  0.00     0.074 A 
ATOM     40  C   UNL     1       4.004 -15.703   0.301  1.00  0.00     0.049 A 
ATOM     41  N   UNL     1       6.957 -16.314   0.227  1.00  0.00    -0.248 NA
ATOM     42  C   UNL     1       7.053 -15.860   2.515  1.00  0.00     0.031 C 
ATOM     43  C   UNL     1       2.577 -15.383   0.281  1.00  0.00     0.029 A 
ATOM     44  N   UNL     1       4.280 -16.082  -0.988  1.00  0.00    -0.354 N 
ATOM     45  C   UNL     1       8.259 -16.483   0.676  1.00  0.00     0.074 A 
ATOM     46  C   UNL     1       8.274 -16.133   2.079  1.00  0.00     0.031 C 
ATOM     47  C   UNL     1       2.097 -15.601  -0.954  1.00  0.00     0.029 A 
ATOM     48  C   UNL     1       3.189 -16.032  -1.821  1.00  0.00     0.049 A 
ATOM     49  H   UNL     1       5.175 -16.363  -1.288  1.00  0.00     0.167 HD
ATOM     50  C   UNL     1       9.338 -16.916  -0.017  1.00  0.00     0.037 A 
ATOM     51  C   UNL     1       3.087 -16.296  -3.137  1.00  0.00     0.037 A 
ATOM     52  C   UNL     1       9.312 -17.274  -1.411  1.00  0.00     0.049 A 
ATOM     53  C   UNL     1       4.312 -16.733  -3.893  1.00  0.00     0.074 A 
ATOM     54  C   UNL     1      10.347 -17.746  -2.199  1.00  0.00     0.029 A 
ATOM     55  N   UNL     1       8.190 -17.200  -2.225  1.00  0.00    -0.354 N 
ATOM     56  N   UNL     1       5.533 -16.918  -3.454  1.00  0.00    -0.248 NA
ATOM     57  C   UNL     1       4.144 -17.000  -5.328  1.00  0.00     0.031 C 
ATOM     58  C   UNL     1       9.864 -17.913  -3.500  1.00  0.00     0.029 A 
ATOM     59  C   UNL     1       8.513 -17.601  -3.511  1.00  0.00     0.049 A 
ATOM     60  H   UNL     1       7.297 -16.907  -1.931  1.00  0.00     0.167 HD
ATOM     61  C   UNL     1       6.272 -17.350  -4.547  1.00  0.00     0.074 A 
ATOM     62  C   UNL     1       5.357 -17.413  -5.668  1.00  0.00     0.031 C 
ATOM     63  C   UNL     1       7.589 -17.664  -4.615  1.00  0.00     0.037 A 
BRANCH  50  64
ATOM     64  C   UNL     1      10.640 -17.038   0.721  1.00  0.00     0.064 A 
ATOM     65  C   UNL     1      10.842 -18.033   1.689  1.00  0.00     0.173 A 
ATOM     66  C   UNL     1      11.718 -16.194   0.414  1.00  0.00     0.173 A 
ATOM     67  F   UNL     1       9.840 -18.857   2.030  1.00  0.00    -0.203 F 
ATOM     68  C   UNL     1      12.069 -18.168   2.333  1.00  0.00     0.198 A 
ATOM     69  C   UNL     1      12.953 -16.351   1.038  1.00  0.00     0.198 A 
ATOM     70  F   UNL     1      11.580 -15.227  -0.506  1.00  0.00    -0.203 F 
ATOM     71  F   UNL     1      12.227 -19.102   3.282  1.00  0.00    -0.200 F 
ATOM     72  C   UNL     1      13.126 -17.335   1.999  1.00  0.00     0.200 A 
ATOM     73  F   UNL     1      13.977 -15.554   0.704  1.00  0.00    -0.200 F 
ATOM     74  F   UNL     1      14.312 -17.478   2.607  1.00  0.00    -0.200 F 
ENDBRANCH  50  64
BRANCH  51  75
ATOM     75  C   UNL     1       1.767 -16.184  -3.811  1.00  0.00     0.064 A 
ATOM     76  C   UNL     1       1.094 -17.328  -4.262  1.00  0.00     0.173 A 
ATOM     77  C   UNL     1       1.141 -14.942  -3.998  1.00  0.00     0.173 A 
ATOM     78  F   UNL     1       1.661 -18.535  -4.125  1.00  0.00    -0.203 F 
ATOM     79  C   UNL     1      -0.149 -17.234  -4.884  1.00  0.00     0.198 A 
ATOM     80  C   UNL     1      -0.115 -14.852  -4.594  1.00  0.00     0.198 A 
ATOM     81  F   UNL     1       1.741 -13.818  -3.581  1.00  0.00    -0.203 F 
ATOM     82  F   UNL     1      -0.754 -18.340  -5.338  1.00  0.00    -0.200 F 
ATOM     83  C   UNL     1      -0.757 -15.997  -5.042  1.00  0.00     0.200 A 
ATOM     84  F   UNL     1      -0.706 -13.657  -4.730  1.00  0.00    -0.200 F 
ATOM     85  F   UNL     1      -1.958 -15.909  -5.628  1.00  0.00    -0.200 F 
ENDBRANCH  51  75
BRANCH  63  86
ATOM     86  C   UNL     1       8.120 -18.136  -5.938  1.00  0.00     0.064 A 
ATOM     87  C   UNL     1       8.277 -17.260  -7.023  1.00  0.00     0.173 A 
ATOM     88  C   UNL     1       8.535 -19.467  -6.103  1.00  0.00     0.173 A 
ATOM     89  F   UNL     1       7.886 -15.981  -6.920  1.00  0.00    -0.203 F 
ATOM     90  C   UNL     1       8.808 -17.706  -8.230  1.00  0.00     0.198 A 
ATOM     91  C   UNL     1       9.096 -19.900  -7.301  1.00  0.00     0.198 A 
ATOM     92  F   UNL     1       8.416 -20.342  -5.093  1.00  0.00    -0.203 F 
ATOM     93  F   UNL     1       8.907 -16.863  -9.267  1.00  0.00    -0.200 F 
ATOM     94  C   UNL     1       9.226 -19.022  -8.365  1.00  0.00     0.200 A 
ATOM     95  F   UNL     1       9.515 -21.167  -7.423  1.00  0.00    -0.200 F 
ATOM     96  F   UNL     1       9.749 -19.444  -9.524  1.00  0.00    -0.200 F 
ENDBRANCH  63  86
ENDBRANCH  37  38
ENDBRANCH  29  32
ENDBRANCH  27  28
ENDBRANCH  26  27
ENDBRANCH   1  26
TORSDOF 14
