REMARK SMILES COc1ccc(C(=O)N[C@@H](CC(=O)NCCCCCCNC(=O)c2ccc(-c3c4nc(c(-c5c(F)c(F)c(F)c(F)c5F)c5ccc([nH]5)c(-c5c(F)c(F)c(F)c(F)c5F)c5nc(c(-c6c(F)c(F)c(F)c(F)c6F)c6ccc3[nH]6)C=C5)C=C4)cc2)c2cccs2)cc1
REMARK SMILES IDX 16 1 15 2 14 3 12 4 13 5 11 7 10 8 9 9 7 10 8 11 6 13 3 14
REMARK SMILES IDX 4 15 93 16 5 17 92 18 2 19 1 20 87 21 88 22 91 23 89 24
REMARK SMILES IDX 90 25 17 26 18 27 19 28 20 29 21 30 22 31 23 33 24 34 25 35
REMARK SMILES IDX 86 36 26 37 85 38 27 39 28 40 29 41 79 42 30 43 84 44 78 45
REMARK SMILES IDX 80 46 31 47 83 48 77 49 76 50 32 52 64 53 44 54 63 55 45 56
REMARK SMILES IDX 48 57 62 58 81 59 46 60 47 61 61 63 82 64 49 65 33 66 34 67
REMARK SMILES IDX 42 68 35 69 36 70 40 71 43 72 37 73 38 74 41 75 39 76 65 77
REMARK SMILES IDX 66 78 74 79 67 80 68 81 72 82 75 83 69 84 70 85 73 86 71 87
REMARK SMILES IDX 50 88 51 89 59 90 52 91 53 92 57 93 60 94 54 95 55 96 58 97
REMARK SMILES IDX 56 98
REMARK H PARENT 14 6 9 12 21 32 80 51 48 62
REMARK Flexibility Score: inf
ROOT
ATOM      1  C   UNL     1       3.944   7.966  -4.886  1.00  0.00     0.021 C 
ENDROOT
BRANCH   1   2
ATOM      2  C   UNL     1       4.687   6.747  -5.435  1.00  0.00     0.116 C 
BRANCH   2   3
ATOM      3  N   UNL     1       6.002   6.646  -4.832  1.00  0.00    -0.356 N 
ATOM      4  C   UNL     1       6.492   5.766  -3.918  1.00  0.00     0.222 C 
ATOM      5  O   UNL     1       7.643   5.944  -3.513  1.00  0.00    -0.275 OA
ATOM      6  H   UNL     1       6.646   7.326  -5.134  1.00  0.00     0.163 HD
BRANCH   4   7
ATOM      7  C   UNL     1       5.685   4.568  -3.456  1.00  0.00     0.130 C 
BRANCH   7   8
ATOM      8  C   UNL     1       4.686   4.799  -2.315  1.00  0.00     0.132 C 
BRANCH   8   9
ATOM      9  N   UNL     1       3.439   5.371  -2.805  1.00  0.00    -0.344 N 
ATOM     10  C   UNL     1       2.263   4.839  -3.260  1.00  0.00     0.251 C 
ATOM     11  O   UNL     1       1.522   5.589  -3.899  1.00  0.00    -0.269 OA
ATOM     12  H   UNL     1       3.443   6.356  -2.809  1.00  0.00     0.164 HD
BRANCH  10  13
ATOM     13  C   UNL     1       1.786   3.476  -2.909  1.00  0.00     0.040 A 
ATOM     14  C   UNL     1       0.703   1.111  -1.880  1.00  0.00     0.118 A 
ATOM     15  C   UNL     1      -0.144   2.160  -2.216  1.00  0.00     0.047 A 
ATOM     16  C   UNL     1       2.062   1.183  -2.176  1.00  0.00     0.047 A 
ATOM     17  C   UNL     1       0.399   3.343  -2.717  1.00  0.00     0.017 A 
ATOM     18  C   UNL     1       2.599   2.357  -2.717  1.00  0.00     0.017 A 
BRANCH  14  19
ATOM     19  O   UNL     1       0.152   0.004  -1.298  1.00  0.00    -0.497 OA
ATOM     20  C   UNL     1       0.639  -0.156   0.037  1.00  0.00     0.278 C 
ENDBRANCH  14  19
ENDBRANCH  10  13
ENDBRANCH   8   9
BRANCH   8  21
ATOM     21  C   UNL     1       5.215   5.621  -1.165  1.00  0.00     0.027 A 
ATOM     22  C   UNL     1       5.210   6.989  -0.955  1.00  0.00     0.017 A 
ATOM     23  S   UNL     1       5.941   4.801   0.166  1.00  0.00    -0.147 S 
ATOM     24  C   UNL     1       5.759   7.352   0.309  1.00  0.00     0.012 A 
ATOM     25  C   UNL     1       6.189   6.257   1.020  1.00  0.00     0.065 A 
ENDBRANCH   8  21
ENDBRANCH   7   8
ENDBRANCH   4   7
ENDBRANCH   2   3
ENDBRANCH   1   2
BRANCH   1  26
ATOM     26  C   UNL     1       4.382   9.301  -5.492  1.00  0.00     0.002 C 
BRANCH  26  27
ATOM     27  C   UNL     1       4.063   9.468  -6.979  1.00  0.00     0.002 C 
BRANCH  27  28
ATOM     28  C   UNL     1       2.604   9.212  -7.363  1.00  0.00     0.021 C 
BRANCH  28  29
ATOM     29  C   UNL     1       1.583  10.035  -6.582  1.00  0.00     0.116 C 
BRANCH  29  30
ATOM     30  N   UNL     1       1.760  11.463  -6.791  1.00  0.00    -0.352 N 
ATOM     31  C   UNL     1       0.880  12.384  -7.301  1.00  0.00     0.251 C 
ATOM     32  H   UNL     1       2.639  11.821  -6.528  1.00  0.00     0.163 HD
ATOM     33  O   UNL     1       1.264  13.508  -7.606  1.00  0.00    -0.269 OA
BRANCH  31  34
ATOM     34  C   UNL     1      -0.536  12.012  -7.495  1.00  0.00     0.039 A 
ATOM     35  C   UNL     1      -1.167  12.353  -8.693  1.00  0.00     0.014 A 
ATOM     36  C   UNL     1      -1.240  11.342  -6.491  1.00  0.00     0.014 A 
ATOM     37  C   UNL     1      -2.494  11.975  -8.907  1.00  0.00     0.010 A 
ATOM     38  C   UNL     1      -2.538  10.902  -6.733  1.00  0.00     0.010 A 
ATOM     39  C   UNL     1      -3.180  11.222  -7.939  1.00  0.00    -0.014 A 
BRANCH  39  40
ATOM     40  C   UNL     1      -4.574  10.769  -8.165  1.00  0.00     0.031 A 
ATOM     41  C   UNL     1      -5.686  11.293  -7.303  1.00  0.00     0.074 A 
ATOM     42  C   UNL     1      -4.827   9.839  -9.105  1.00  0.00     0.049 A 
ATOM     43  N   UNL     1      -6.959  10.984  -7.312  1.00  0.00    -0.248 NA
ATOM     44  C   UNL     1      -5.313  12.276  -6.275  1.00  0.00     0.031 C 
ATOM     45  C   UNL     1      -3.824   9.225  -9.975  1.00  0.00     0.029 A 
ATOM     46  N   UNL     1      -6.005   9.245  -9.479  1.00  0.00    -0.354 N 
ATOM     47  C   UNL     1      -7.532  11.721  -6.284  1.00  0.00     0.074 A 
ATOM     48  C   UNL     1      -6.460  12.446  -5.636  1.00  0.00     0.031 C 
ATOM     49  C   UNL     1      -4.434   8.365 -10.806  1.00  0.00     0.029 A 
ATOM     50  C   UNL     1      -5.862   8.339 -10.501  1.00  0.00     0.049 A 
ATOM     51  H   UNL     1      -6.870   9.448  -9.056  1.00  0.00     0.167 HD
ATOM     52  C   UNL     1      -8.836  11.803  -5.928  1.00  0.00     0.037 A 
ATOM     53  C   UNL     1      -6.781   7.577 -11.122  1.00  0.00     0.037 A 
ATOM     54  C   UNL     1      -9.900  11.091  -6.587  1.00  0.00     0.049 A 
ATOM     55  C   UNL     1      -8.220   7.666 -10.694  1.00  0.00     0.074 A 
ATOM     56  C   UNL     1     -11.261  11.153  -6.348  1.00  0.00     0.029 A 
ATOM     57  N   UNL     1      -9.716  10.175  -7.614  1.00  0.00    -0.354 N 
ATOM     58  N   UNL     1      -8.764   8.420  -9.771  1.00  0.00    -0.248 NA
ATOM     59  C   UNL     1      -9.172   6.797 -11.399  1.00  0.00     0.031 C 
ATOM     60  C   UNL     1     -11.896  10.236  -7.194  1.00  0.00     0.029 A 
ATOM     61  C   UNL     1     -10.937   9.642  -7.999  1.00  0.00     0.049 A 
ATOM     62  H   UNL     1      -8.846   9.938  -8.010  1.00  0.00     0.167 HD
ATOM     63  C   UNL     1     -10.124   8.141  -9.802  1.00  0.00     0.074 A 
ATOM     64  C   UNL     1     -10.322   7.154 -10.844  1.00  0.00     0.031 C 
ATOM     65  C   UNL     1     -11.118   8.660  -9.039  1.00  0.00     0.037 A 
BRANCH  52  66
ATOM     66  C   UNL     1      -9.175  12.691  -4.764  1.00  0.00     0.064 A 
ATOM     67  C   UNL     1      -9.040  14.087  -4.835  1.00  0.00     0.173 A 
ATOM     68  C   UNL     1      -9.633  12.140  -3.558  1.00  0.00     0.173 A 
ATOM     69  F   UNL     1      -8.595  14.666  -5.961  1.00  0.00    -0.203 F 
ATOM     70  C   UNL     1      -9.302  14.891  -3.729  1.00  0.00     0.198 A 
ATOM     71  C   UNL     1      -9.928  12.950  -2.464  1.00  0.00     0.198 A 
ATOM     72  F   UNL     1      -9.789  10.813  -3.435  1.00  0.00    -0.203 F 
ATOM     73  F   UNL     1      -9.097  16.214  -3.800  1.00  0.00    -0.200 F 
ATOM     74  C   UNL     1      -9.750  14.323  -2.546  1.00  0.00     0.200 A 
ATOM     75  F   UNL     1     -10.374  12.401  -1.326  1.00  0.00    -0.200 F 
ATOM     76  F   UNL     1      -9.997  15.098  -1.481  1.00  0.00    -0.200 F 
ENDBRANCH  52  66
BRANCH  53  77
ATOM     77  C   UNL     1      -6.370   6.702 -12.250  1.00  0.00     0.064 A 
ATOM     78  C   UNL     1      -6.732   7.021 -13.566  1.00  0.00     0.173 A 
ATOM     79  C   UNL     1      -5.590   5.555 -12.046  1.00  0.00     0.173 A 
ATOM     80  F   UNL     1      -7.494   8.098 -13.807  1.00  0.00    -0.203 F 
ATOM     81  C   UNL     1      -6.337   6.221 -14.635  1.00  0.00     0.198 A 
ATOM     82  C   UNL     1      -5.175   4.769 -13.118  1.00  0.00     0.198 A 
ATOM     83  F   UNL     1      -5.214   5.210 -10.805  1.00  0.00    -0.203 F 
ATOM     84  F   UNL     1      -6.722   6.532 -15.880  1.00  0.00    -0.200 F 
ATOM     85  C   UNL     1      -5.552   5.100 -14.411  1.00  0.00     0.200 A 
ATOM     86  F   UNL     1      -4.405   3.694 -12.900  1.00  0.00    -0.200 F 
ATOM     87  F   UNL     1      -5.162   4.337 -15.441  1.00  0.00    -0.200 F 
ENDBRANCH  53  77
BRANCH  65  88
ATOM     88  C   UNL     1     -12.516   8.194  -9.325  1.00  0.00     0.064 A 
ATOM     89  C   UNL     1     -12.946   6.902  -8.989  1.00  0.00     0.173 A 
ATOM     90  C   UNL     1     -13.448   9.065  -9.909  1.00  0.00     0.173 A 
ATOM     91  F   UNL     1     -12.089   6.025  -8.443  1.00  0.00    -0.203 F 
ATOM     92  C   UNL     1     -14.251   6.491  -9.250  1.00  0.00     0.198 A 
ATOM     93  C   UNL     1     -14.760   8.661 -10.141  1.00  0.00     0.198 A 
ATOM     94  F   UNL     1     -13.089  10.313 -10.245  1.00  0.00    -0.203 F 
ATOM     95  F   UNL     1     -14.626   5.236  -8.965  1.00  0.00    -0.200 F 
ATOM     96  C   UNL     1     -15.158   7.373  -9.818  1.00  0.00     0.200 A 
ATOM     97  F   UNL     1     -15.639   9.519 -10.678  1.00  0.00    -0.200 F 
ATOM     98  F   UNL     1     -16.415   6.978 -10.062  1.00  0.00    -0.200 F 
ENDBRANCH  65  88
ENDBRANCH  39  40
ENDBRANCH  31  34
ENDBRANCH  29  30
ENDBRANCH  28  29
ENDBRANCH  27  28
ENDBRANCH  26  27
ENDBRANCH   1  26
TORSDOF 18
