REMARK SMILES O=C(NCCCCCCNC(=O)c1cc([C@@H]2C=NN=C2c2ccc(F)cc2)c2c(ccc3ccccc32)n1)c1ccc(-c2c3nc(c(-c4c(F)c(F)c(F)c(F)c4F)c4ccc([nH]4)c(-c4c(F)c(F)c(F)c(F)c4F)c4nc(c(-c5c(F)c(F)c(F)c(F)c5F)c5ccc2[nH]5)C=C4)C=C3)cc1
REMARK SMILES IDX 6 1 5 2 4 3 3 4 1 5 2 6 39 8 40 9 101 10 41 11 100 12 42 13
REMARK SMILES IDX 43 14 44 15 94 16 45 17 99 18 93 19 95 20 46 21 98 22 92 23
REMARK SMILES IDX 91 24 47 26 79 27 59 28 78 29 60 30 63 31 77 32 96 33 61 34
REMARK SMILES IDX 62 35 76 37 97 38 64 39 48 40 49 41 57 42 50 43 51 44 55 45
REMARK SMILES IDX 58 46 52 47 53 48 56 49 54 50 80 51 81 52 89 53 82 54 83 55
REMARK SMILES IDX 87 56 90 57 84 58 85 59 88 60 86 61 65 62 66 63 74 64 67 65
REMARK SMILES IDX 68 66 72 67 75 68 69 69 70 70 73 71 71 72 7 73 8 74 9 75
REMARK SMILES IDX 10 76 11 77 12 79 13 80 14 81 38 82 15 83 29 84 28 85 30 86
REMARK SMILES IDX 37 87 31 88 32 89 36 90 33 91 35 92 34 93 16 94 17 95 20 96
REMARK SMILES IDX 18 97 19 98 21 99 22 100 27 101 23 102 26 103 24 104 25 105
REMARK H PARENT 3 7 95 25 63 36 10 78
REMARK Flexibility Score: inf
ROOT
ATOM      1  C   UNL     1       4.303  -2.457  -2.751  1.00  0.00     0.002 C 
ENDROOT
BRANCH   1   2
ATOM      2  C   UNL     1       4.822  -1.902  -1.418  1.00  0.00     0.021 C 
BRANCH   2   3
ATOM      3  C   UNL     1       4.660  -0.390  -1.255  1.00  0.00     0.116 C 
BRANCH   3   4
ATOM      4  N   UNL     1       3.292   0.065  -1.351  1.00  0.00    -0.352 N 
ATOM      5  O   UNL     1       1.253   0.768  -0.878  1.00  0.00    -0.269 OA
ATOM      6  C   UNL     1       2.264   0.194  -0.465  1.00  0.00     0.251 C 
ATOM      7  H   UNL     1       3.047   0.346  -2.263  1.00  0.00     0.163 HD
BRANCH   6   8
ATOM      8  C   UNL     1       2.248  -0.385   0.903  1.00  0.00     0.039 A 
ATOM      9  C   UNL     1       3.340  -0.944   1.572  1.00  0.00     0.014 A 
ATOM     10  C   UNL     1       0.985  -0.423   1.521  1.00  0.00     0.014 A 
ATOM     11  C   UNL     1       3.155  -1.648   2.755  1.00  0.00     0.010 A 
ATOM     12  C   UNL     1       0.796  -1.105   2.710  1.00  0.00     0.010 A 
ATOM     13  C   UNL     1       1.873  -1.768   3.288  1.00  0.00    -0.014 A 
BRANCH  13  14
ATOM     14  C   UNL     1       1.702  -2.503   4.533  1.00  0.00     0.031 A 
ATOM     15  C   UNL     1       2.323  -1.855   5.726  1.00  0.00     0.074 A 
ATOM     16  C   UNL     1       0.899  -3.585   4.600  1.00  0.00     0.049 A 
ATOM     17  N   UNL     1       3.163  -2.354   6.575  1.00  0.00    -0.248 NA
ATOM     18  C   UNL     1       2.046  -0.422   5.939  1.00  0.00     0.031 C 
ATOM     19  C   UNL     1       0.041  -4.143   3.550  1.00  0.00     0.029 A 
ATOM     20  N   UNL     1       0.600  -4.365   5.673  1.00  0.00    -0.354 N 
ATOM     21  C   UNL     1       3.393  -1.355   7.522  1.00  0.00     0.074 A 
ATOM     22  C   UNL     1       2.791  -0.153   7.011  1.00  0.00     0.031 C 
ATOM     23  C   UNL     1      -0.844  -5.004   4.103  1.00  0.00     0.029 A 
ATOM     24  C   UNL     1      -0.531  -5.156   5.512  1.00  0.00     0.049 A 
ATOM     25  H   UNL     1       1.141  -4.369   6.496  1.00  0.00     0.167 HD
ATOM     26  C   UNL     1       3.878  -1.635   8.763  1.00  0.00     0.037 A 
ATOM     27  C   UNL     1      -1.198  -5.808   6.499  1.00  0.00     0.037 A 
ATOM     28  C   UNL     1       4.555  -2.901   8.796  1.00  0.00     0.049 A 
ATOM     29  C   UNL     1      -0.264  -5.927   7.649  1.00  0.00     0.074 A 
ATOM     30  C   UNL     1       5.689  -3.407   8.193  1.00  0.00     0.029 A 
ATOM     31  N   UNL     1       3.873  -3.991   9.271  1.00  0.00    -0.354 N 
ATOM     32  N   UNL     1       0.826  -6.644   7.626  1.00  0.00    -0.248 NA
ATOM     33  C   UNL     1      -0.303  -4.871   8.649  1.00  0.00     0.031 C 
ATOM     34  C   UNL     1       5.370  -4.764   7.893  1.00  0.00     0.029 A 
ATOM     35  C   UNL     1       4.089  -5.015   8.385  1.00  0.00     0.049 A 
ATOM     36  H   UNL     1       3.331  -4.032  10.092  1.00  0.00     0.167 HD
ATOM     37  C   UNL     1       1.761  -5.884   8.311  1.00  0.00     0.074 A 
ATOM     38  C   UNL     1       0.993  -4.827   8.965  1.00  0.00     0.031 C 
ATOM     39  C   UNL     1       3.096  -6.007   8.054  1.00  0.00     0.037 A 
BRANCH  26  40
ATOM     40  C   UNL     1       3.438  -0.919  10.015  1.00  0.00     0.064 A 
ATOM     41  C   UNL     1       2.198  -0.253  10.130  1.00  0.00     0.173 A 
ATOM     42  C   UNL     1       4.119  -1.150  11.227  1.00  0.00     0.173 A 
ATOM     43  F   UNL     1       1.393  -0.066   9.077  1.00  0.00    -0.203 F 
ATOM     44  C   UNL     1       1.676   0.146  11.358  1.00  0.00     0.198 A 
ATOM     45  C   UNL     1       3.566  -0.795  12.462  1.00  0.00     0.198 A 
ATOM     46  F   UNL     1       5.291  -1.802  11.239  1.00  0.00    -0.203 F 
ATOM     47  F   UNL     1       0.479   0.749  11.399  1.00  0.00    -0.200 F 
ATOM     48  C   UNL     1       2.344  -0.150  12.526  1.00  0.00     0.200 A 
ATOM     49  F   UNL     1       4.193  -1.140  13.595  1.00  0.00    -0.200 F 
ATOM     50  F   UNL     1       1.786   0.138  13.709  1.00  0.00    -0.200 F 
ENDBRANCH  26  40
BRANCH  27  51
ATOM     51  C   UNL     1      -2.671  -5.926   6.664  1.00  0.00     0.064 A 
ATOM     52  C   UNL     1      -3.549  -4.960   6.133  1.00  0.00     0.173 A 
ATOM     53  C   UNL     1      -3.225  -6.824   7.592  1.00  0.00     0.173 A 
ATOM     54  F   UNL     1      -3.104  -4.006   5.303  1.00  0.00    -0.203 F 
ATOM     55  C   UNL     1      -4.888  -4.883   6.521  1.00  0.00     0.198 A 
ATOM     56  C   UNL     1      -4.567  -6.742   7.985  1.00  0.00     0.198 A 
ATOM     57  F   UNL     1      -2.450  -7.744   8.185  1.00  0.00    -0.203 F 
ATOM     58  F   UNL     1      -5.666  -3.906   6.031  1.00  0.00    -0.200 F 
ATOM     59  C   UNL     1      -5.394  -5.764   7.457  1.00  0.00     0.200 A 
ATOM     60  F   UNL     1      -5.043  -7.574   8.922  1.00  0.00    -0.200 F 
ATOM     61  F   UNL     1      -6.660  -5.642   7.880  1.00  0.00    -0.200 F 
ENDBRANCH  27  51
BRANCH  39  62
ATOM     62  C   UNL     1       3.540  -7.123   7.150  1.00  0.00     0.064 A 
ATOM     63  C   UNL     1       4.466  -8.051   7.641  1.00  0.00     0.173 A 
ATOM     64  C   UNL     1       3.232  -7.182   5.779  1.00  0.00     0.173 A 
ATOM     65  F   UNL     1       4.842  -8.004   8.929  1.00  0.00    -0.203 F 
ATOM     66  C   UNL     1       5.066  -8.986   6.802  1.00  0.00     0.198 A 
ATOM     67  C   UNL     1       3.808  -8.141   4.947  1.00  0.00     0.198 A 
ATOM     68  F   UNL     1       2.433  -6.271   5.213  1.00  0.00    -0.203 F 
ATOM     69  F   UNL     1       6.001  -9.813   7.289  1.00  0.00    -0.200 F 
ATOM     70  C   UNL     1       4.734  -9.034   5.457  1.00  0.00     0.200 A 
ATOM     71  F   UNL     1       3.505  -8.168   3.640  1.00  0.00    -0.200 F 
ATOM     72  F   UNL     1       5.334  -9.917   4.647  1.00  0.00    -0.200 F 
ENDBRANCH  39  62
ENDBRANCH  13  14
ENDBRANCH   6   8
ENDBRANCH   3   4
ENDBRANCH   2   3
ENDBRANCH   1   2
BRANCH   1  73
ATOM     73  C   UNL     1       4.799  -1.727  -4.004  1.00  0.00     0.002 C 
BRANCH  73  74
ATOM     74  C   UNL     1       6.318  -1.603  -4.123  1.00  0.00     0.021 C 
BRANCH  74  75
ATOM     75  C   UNL     1       7.049  -2.935  -4.195  1.00  0.00     0.116 C 
BRANCH  75  76
ATOM     76  N   UNL     1       6.771  -3.643  -5.434  1.00  0.00    -0.351 N 
ATOM     77  C   UNL     1       7.651  -4.034  -6.421  1.00  0.00     0.269 C 
ATOM     78  H   UNL     1       5.827  -3.875  -5.590  1.00  0.00     0.163 HD
ATOM     79  O   UNL     1       7.216  -4.480  -7.484  1.00  0.00    -0.268 OA
BRANCH  77  80
ATOM     80  C   UNL     1       9.115  -3.958  -6.164  1.00  0.00     0.129 A 
ATOM     81  C   UNL     1       9.618  -4.459  -4.988  1.00  0.00     0.039 A 
ATOM     82  N   UNL     1       9.892  -3.387  -7.087  1.00  0.00    -0.243 NA
ATOM     83  C   UNL     1      10.980  -4.284  -4.657  1.00  0.00    -0.021 A 
ATOM     84  C   UNL     1      11.203  -3.297  -6.847  1.00  0.00     0.072 A 
ATOM     85  C   UNL     1      11.871  -3.702  -5.644  1.00  0.00     0.012 A 
ATOM     86  C   UNL     1      11.900  -2.772  -7.910  1.00  0.00     0.029 A 
ATOM     87  C   UNL     1      13.336  -3.509  -5.620  1.00  0.00    -0.009 A 
ATOM     88  C   UNL     1      13.275  -2.614  -7.886  1.00  0.00     0.011 A 
ATOM     89  C   UNL     1      14.000  -2.973  -6.761  1.00  0.00    -0.018 A 
ATOM     90  C   UNL     1      14.211  -3.829  -4.556  1.00  0.00     0.009 A 
ATOM     91  C   UNL     1      15.396  -2.800  -6.804  1.00  0.00     0.009 A 
ATOM     92  C   UNL     1      15.600  -3.653  -4.593  1.00  0.00     0.001 A 
ATOM     93  C   UNL     1      16.197  -3.139  -5.724  1.00  0.00     0.001 A 
BRANCH  83  94
ATOM     94  C   UNL     1      11.268  -4.813  -3.271  1.00  0.00     0.115 C 
ATOM     95  C   UNL     1      11.841  -3.882  -2.268  1.00  0.00     0.123 C 
ATOM     96  C   UNL     1      12.161  -5.985  -3.034  1.00  0.00     0.083 C 
ATOM     97  N   UNL     1      12.720  -4.453  -1.510  1.00  0.00    -0.162 NA
ATOM     98  N   UNL     1      12.920  -5.796  -1.990  1.00  0.00    -0.154 NA
BRANCH  96  99
ATOM     99  C   UNL     1      12.081  -7.263  -3.775  1.00  0.00    -0.001 A 
ATOM    100  C   UNL     1      12.339  -8.445  -3.068  1.00  0.00     0.013 A 
ATOM    101  C   UNL     1      11.750  -7.336  -5.134  1.00  0.00     0.013 A 
ATOM    102  C   UNL     1      12.234  -9.683  -3.708  1.00  0.00     0.040 A 
ATOM    103  C   UNL     1      11.643  -8.574  -5.770  1.00  0.00     0.040 A 
ATOM    104  C   UNL     1      11.880  -9.736  -5.050  1.00  0.00     0.123 A 
ATOM    105  F   UNL     1      11.773 -10.922  -5.662  1.00  0.00    -0.207 F 
ENDBRANCH  96  99
ENDBRANCH  83  94
ENDBRANCH  77  80
ENDBRANCH  75  76
ENDBRANCH  74  75
ENDBRANCH  73  74
ENDBRANCH   1  73
TORSDOF 15
