REMARK SMILES CSc1ccc(Cl)c(C(=O)N[C@@H](CO)C(=O)NCCCCCCNC(=O)c2ccc(-c3c4nc(c(-c5c(F)c(F)c(F)c(F)c5F)c5ccc([nH]5)c(-c5c(F)c(F)c(F)c(F)c5F)c5nc(c(-c6c(F)c(F)c(F)c(F)c6F)c6ccc3[nH]6)C=C5)C=C4)cc2)c1
REMARK SMILES IDX 20 1 19 2 18 3 17 4 15 5 16 6 12 8 11 9 9 10 10 11 8 13 3 14
REMARK SMILES IDX 4 15 90 16 5 17 6 18 7 19 2 20 1 21 13 22 14 23 21 25 22 26
REMARK SMILES IDX 23 27 24 28 25 29 26 31 27 32 28 33 89 34 29 35 88 36 30 37
REMARK SMILES IDX 31 38 32 39 82 40 33 41 87 42 81 43 83 44 34 45 86 46 80 47
REMARK SMILES IDX 79 48 35 50 67 51 47 52 66 53 48 54 51 55 65 56 84 57 49 58
REMARK SMILES IDX 50 59 64 61 85 62 52 63 36 64 37 65 45 66 38 67 39 68 43 69
REMARK SMILES IDX 46 70 40 71 41 72 44 73 42 74 68 75 69 76 77 77 70 78 71 79
REMARK SMILES IDX 75 80 78 81 72 82 73 83 76 84 74 85 53 86 54 87 62 88 55 89
REMARK SMILES IDX 56 90 60 91 63 92 57 93 58 94 61 95 59 96
REMARK H PARENT 17 7 11 12 14 24 24 30 83 49 51 60
REMARK Flexibility Score: inf
ROOT
ATOM      1  C   UNL     1       5.496  -7.931   8.675  1.00  0.00     0.002 C 
ENDROOT
BRANCH   1   2
ATOM      2  C   UNL     1       5.773  -6.925   7.552  1.00  0.00     0.021 C 
BRANCH   2   3
ATOM      3  C   UNL     1       5.409  -7.421   6.159  1.00  0.00     0.116 C 
BRANCH   3   4
ATOM      4  N   UNL     1       4.001  -7.728   6.082  1.00  0.00    -0.354 N 
ATOM      5  C   UNL     1       3.063  -7.394   5.168  1.00  0.00     0.244 C 
ATOM      6  O   UNL     1       1.912  -7.791   5.391  1.00  0.00    -0.273 OA
ATOM      7  H   UNL     1       3.664  -8.277   6.827  1.00  0.00     0.163 HD
BRANCH   5   8
ATOM      8  C   UNL     1       3.371  -6.629   3.872  1.00  0.00     0.197 C 
BRANCH   8   9
ATOM      9  N   UNL     1       3.878  -5.269   4.006  1.00  0.00    -0.338 N 
ATOM     10  C   UNL     1       3.517  -4.062   3.470  1.00  0.00     0.253 C 
ATOM     11  O   UNL     1       4.292  -3.140   3.752  1.00  0.00    -0.269 OA
ATOM     12  H   UNL     1       4.649  -5.204   4.615  1.00  0.00     0.164 HD
BRANCH  10  13
ATOM     13  C   UNL     1       2.276  -3.725   2.685  1.00  0.00     0.059 A 
ATOM     14  C   UNL     1       0.834  -1.808   2.085  1.00  0.00     0.008 A 
ATOM     15  C   UNL     1      -0.042  -2.656   1.425  1.00  0.00     0.016 A 
ATOM     16  C   UNL     1       1.934  -2.349   2.762  1.00  0.00     0.030 A 
ATOM     17  C   UNL     1       0.274  -4.001   1.311  1.00  0.00     0.022 A 
ATOM     18  C   UNL     1       1.469  -4.515   1.851  1.00  0.00     0.053 A 
ATOM     19  Cl  UNL     1       1.893  -6.028   1.142  1.00  0.00    -0.083 Cl
BRANCH  14  20
ATOM     20  S   UNL     1       0.609  -0.046   1.972  1.00  0.00    -0.130 SA
ATOM     21  C   UNL     1       1.091   0.167   0.229  1.00  0.00     0.091 C 
ENDBRANCH  14  20
ENDBRANCH  10  13
ENDBRANCH   8   9
BRANCH   8  22
ATOM     22  C   UNL     1       4.247  -7.456   2.904  1.00  0.00     0.191 C 
BRANCH  22  23
ATOM     23  O   UNL     1       5.629  -7.502   3.265  1.00  0.00    -0.394 OA
ATOM     24  H   UNL     1       5.999  -6.605   3.243  1.00  0.00     0.210 HD
ENDBRANCH  22  23
ENDBRANCH   8  22
ENDBRANCH   5   8
ENDBRANCH   3   4
ENDBRANCH   2   3
ENDBRANCH   1   2
BRANCH   1  25
ATOM     25  C   UNL     1       6.108  -9.319   8.469  1.00  0.00     0.002 C 
BRANCH  25  26
ATOM     26  C   UNL     1       7.609  -9.322   8.178  1.00  0.00     0.021 C 
BRANCH  26  27
ATOM     27  C   UNL     1       8.445  -8.555   9.191  1.00  0.00     0.116 C 
BRANCH  27  28
ATOM     28  N   UNL     1       8.317  -9.101  10.531  1.00  0.00    -0.352 N 
ATOM     29  C   UNL     1       9.306  -9.477  11.400  1.00  0.00     0.251 C 
ATOM     30  H   UNL     1       7.396  -9.217  10.858  1.00  0.00     0.163 HD
ATOM     31  O   UNL     1       9.038 -10.106  12.421  1.00  0.00    -0.269 OA
BRANCH  29  32
ATOM     32  C   UNL     1      10.707  -9.137  11.087  1.00  0.00     0.039 A 
ATOM     33  C   UNL     1      11.687 -10.121  11.221  1.00  0.00     0.014 A 
ATOM     34  C   UNL     1      11.045  -7.854  10.644  1.00  0.00     0.014 A 
ATOM     35  C   UNL     1      13.003  -9.833  10.862  1.00  0.00     0.010 A 
ATOM     36  C   UNL     1      12.338  -7.595  10.207  1.00  0.00     0.010 A 
ATOM     37  C   UNL     1      13.332  -8.578  10.323  1.00  0.00    -0.014 A 
BRANCH  37  38
ATOM     38  C   UNL     1      14.717  -8.272   9.886  1.00  0.00     0.031 A 
ATOM     39  C   UNL     1      15.498  -7.187  10.570  1.00  0.00     0.074 A 
ATOM     40  C   UNL     1      15.246  -8.934   8.841  1.00  0.00     0.049 A 
ATOM     41  N   UNL     1      16.695  -6.731  10.299  1.00  0.00    -0.248 NA
ATOM     42  C   UNL     1      14.835  -6.502  11.691  1.00  0.00     0.031 C 
ATOM     43  C   UNL     1      14.566  -9.973   8.066  1.00  0.00     0.029 A 
ATOM     44  N   UNL     1      16.476  -8.824   8.241  1.00  0.00    -0.354 N 
ATOM     45  C   UNL     1      16.923  -5.708  11.210  1.00  0.00     0.074 A 
ATOM     46  C   UNL     1      15.716  -5.561  11.993  1.00  0.00     0.031 C 
ATOM     47  C   UNL     1      15.392 -10.418   7.107  1.00  0.00     0.029 A 
ATOM     48  C   UNL     1      16.643  -9.669   7.172  1.00  0.00     0.049 A 
ATOM     49  H   UNL     1      17.171  -8.199   8.549  1.00  0.00     0.167 HD
ATOM     50  C   UNL     1      18.049  -4.977  11.395  1.00  0.00     0.037 A 
ATOM     51  C   UNL     1      17.684  -9.812   6.330  1.00  0.00     0.037 A 
ATOM     52  C   UNL     1      19.248  -5.133  10.614  1.00  0.00     0.049 A 
ATOM     53  C   UNL     1      18.915  -8.972   6.539  1.00  0.00     0.074 A 
ATOM     54  C   UNL     1      20.456  -4.472  10.746  1.00  0.00     0.029 A 
ATOM     55  N   UNL     1      19.386  -6.009   9.546  1.00  0.00    -0.354 N 
ATOM     56  N   UNL     1      19.146  -8.054   7.446  1.00  0.00    -0.248 NA
ATOM     57  C   UNL     1      20.034  -9.196   5.614  1.00  0.00     0.031 C 
ATOM     58  C   UNL     1      21.305  -4.906   9.723  1.00  0.00     0.029 A 
ATOM     59  C   UNL     1      20.651  -5.887   8.994  1.00  0.00     0.049 A 
ATOM     60  H   UNL     1      18.688  -6.627   9.229  1.00  0.00     0.167 HD
ATOM     61  C   UNL     1      20.442  -7.609   7.219  1.00  0.00     0.074 A 
ATOM     62  C   UNL     1      20.953  -8.373   6.099  1.00  0.00     0.031 C 
ATOM     63  C   UNL     1      21.145  -6.656   7.879  1.00  0.00     0.037 A 
BRANCH  50  64
ATOM     64  C   UNL     1      18.028  -3.943  12.486  1.00  0.00     0.064 A 
ATOM     65  C   UNL     1      17.951  -4.304  13.841  1.00  0.00     0.173 A 
ATOM     66  C   UNL     1      18.102  -2.577  12.178  1.00  0.00     0.173 A 
ATOM     67  F   UNL     1      17.868  -5.596  14.194  1.00  0.00    -0.203 F 
ATOM     68  C   UNL     1      17.907  -3.335  14.841  1.00  0.00     0.198 A 
ATOM     69  C   UNL     1      18.095  -1.612  13.182  1.00  0.00     0.198 A 
ATOM     70  F   UNL     1      18.184  -2.174  10.900  1.00  0.00    -0.203 F 
ATOM     71  F   UNL     1      17.768  -3.703  16.122  1.00  0.00    -0.200 F 
ATOM     72  C   UNL     1      17.986  -1.991  14.511  1.00  0.00     0.200 A 
ATOM     73  F   UNL     1      18.188  -0.314  12.863  1.00  0.00    -0.200 F 
ATOM     74  F   UNL     1      17.947  -1.060  15.475  1.00  0.00    -0.200 F 
ENDBRANCH  50  64
BRANCH  51  75
ATOM     75  C   UNL     1      17.606 -10.800   5.222  1.00  0.00     0.064 A 
ATOM     76  C   UNL     1      18.403 -11.954   5.223  1.00  0.00     0.173 A 
ATOM     77  C   UNL     1      16.727 -10.616   4.144  1.00  0.00     0.173 A 
ATOM     78  F   UNL     1      19.272 -12.166   6.222  1.00  0.00    -0.203 F 
ATOM     79  C   UNL     1      18.339 -12.874   4.178  1.00  0.00     0.198 A 
ATOM     80  C   UNL     1      16.641 -11.553   3.117  1.00  0.00     0.198 A 
ATOM     81  F   UNL     1      15.938  -9.533   4.099  1.00  0.00    -0.203 F 
ATOM     82  F   UNL     1      19.145 -13.944   4.181  1.00  0.00    -0.200 F 
ATOM     83  C   UNL     1      17.453 -12.677   3.130  1.00  0.00     0.200 A 
ATOM     84  F   UNL     1      15.770 -11.367   2.115  1.00  0.00    -0.200 F 
ATOM     85  F   UNL     1      17.386 -13.566   2.130  1.00  0.00    -0.200 F 
ENDBRANCH  51  75
BRANCH  63  86
ATOM     86  C   UNL     1      22.558  -6.407   7.431  1.00  0.00     0.064 A 
ATOM     87  C   UNL     1      22.847  -5.791   6.204  1.00  0.00     0.173 A 
ATOM     88  C   UNL     1      23.635  -6.753   8.261  1.00  0.00     0.173 A 
ATOM     89  F   UNL     1      21.855  -5.454   5.367  1.00  0.00    -0.203 F 
ATOM     90  C   UNL     1      24.163  -5.557   5.814  1.00  0.00     0.198 A 
ATOM     91  C   UNL     1      24.948  -6.485   7.883  1.00  0.00     0.198 A 
ATOM     92  F   UNL     1      23.415  -7.338   9.448  1.00  0.00    -0.203 F 
ATOM     93  F   UNL     1      24.418  -5.015   4.614  1.00  0.00    -0.200 F 
ATOM     94  C   UNL     1      25.211  -5.896   6.656  1.00  0.00     0.200 A 
ATOM     95  F   UNL     1      25.958  -6.797   8.707  1.00  0.00    -0.200 F 
ATOM     96  F   UNL     1      26.476  -5.660   6.283  1.00  0.00    -0.200 F 
ENDBRANCH  63  86
ENDBRANCH  37  38
ENDBRANCH  29  32
ENDBRANCH  27  28
ENDBRANCH  26  27
ENDBRANCH  25  26
ENDBRANCH   1  25
TORSDOF 18
