REMARK SMILES CCn1cc(Br)cc1C(=O)N[C@@H]1C=C[C@@H](C(=O)NCCCCCCNC(=O)c2ccc(-c3c4nc(c(-c5c(F)c(F)c(F)c(F)c5F)c5ccc([nH]5)c(-c5c(F)c(F)c(F)c(F)c5F)c5nc(c(-c6c(F)c(F)c(F)c(F)c6F)c6ccc3[nH]6)C=C5)C=C4)cc2)C1
REMARK SMILES IDX 21 1 20 2 19 3 18 4 16 5 17 6 15 8 12 9 13 10 91 11 14 12
REMARK SMILES IDX 11 13 9 14 10 15 8 17 3 18 4 19 5 20 7 21 6 22 2 23 1 24
REMARK SMILES IDX 22 25 23 26 24 27 25 28 26 29 27 31 28 32 29 33 90 34 30 35
REMARK SMILES IDX 89 36 31 37 32 38 33 39 83 40 34 41 88 42 82 43 84 44 35 45
REMARK SMILES IDX 87 46 81 47 80 48 36 50 68 51 48 52 67 53 49 54 52 55 66 56
REMARK SMILES IDX 85 57 50 58 51 59 65 61 86 62 53 63 37 64 38 65 46 66 39 67
REMARK SMILES IDX 40 68 44 69 47 70 41 71 42 72 45 73 43 74 69 75 70 76 78 77
REMARK SMILES IDX 71 78 72 79 76 80 79 81 73 82 74 83 77 84 75 85 54 86 55 87
REMARK SMILES IDX 63 88 56 89 57 90 61 91 64 92 58 93 59 94 62 95 60 96
REMARK H PARENT 18 7 11 16 25 30 84 49 52 60
REMARK Flexibility Score: inf
ROOT
ATOM      1  C   UNL     1       4.818  -0.447   6.007  1.00  0.00     0.002 C 
ENDROOT
BRANCH   1   2
ATOM      2  C   UNL     1       4.210  -0.078   4.654  1.00  0.00     0.021 C 
BRANCH   2   3
ATOM      3  C   UNL     1       2.981  -0.894   4.269  1.00  0.00     0.116 C 
BRANCH   3   4
ATOM      4  N   UNL     1       1.846  -0.610   5.137  1.00  0.00    -0.356 N 
ATOM      5  C   UNL     1       0.550  -0.238   4.903  1.00  0.00     0.227 C 
ATOM      6  O   UNL     1      -0.150  -0.036   5.901  1.00  0.00    -0.274 OA
ATOM      7  H   UNL     1       2.055  -0.706   6.094  1.00  0.00     0.163 HD
BRANCH   5   8
ATOM      8  C   UNL     1      -0.086  -0.185   3.504  1.00  0.00     0.103 C 
ATOM      9  C   UNL     1       1.119  -0.099   1.332  1.00  0.00     0.106 C 
ATOM     10  C   UNL     1       0.944  -1.445   1.891  1.00  0.00    -0.006 C 
ATOM     11  C   UNL     1       0.526   0.779   2.463  1.00  0.00     0.047 C 
ATOM     12  C   UNL     1       0.155  -1.540   2.951  1.00  0.00    -0.016 C 
BRANCH   9  13
ATOM     13  N   UNL     1       0.462  -0.027   0.040  1.00  0.00    -0.345 N 
ATOM     14  C   UNL     1       0.499  -0.912  -1.030  1.00  0.00     0.268 C 
ATOM     15  O   UNL     1       0.528  -0.395  -2.148  1.00  0.00    -0.268 OA
ATOM     16  H   UNL     1      -0.095   0.772  -0.100  1.00  0.00     0.164 HD
BRANCH  14  17
ATOM     17  C   UNL     1       0.200  -2.337  -0.867  1.00  0.00     0.108 A 
ATOM     18  N   UNL     1       0.924  -3.436  -0.403  1.00  0.00    -0.343 N 
ATOM     19  C   UNL     1       0.061  -4.514  -0.263  1.00  0.00     0.102 A 
ATOM     20  C   UNL     1      -1.073  -4.223  -0.962  1.00  0.00     0.036 A 
ATOM     21  C   UNL     1      -0.990  -2.885  -1.363  1.00  0.00     0.049 A 
ATOM     22  Br  UNL     1      -2.493  -5.378  -1.334  1.00  0.00    -0.049 Br
BRANCH  18  23
ATOM     23  C   UNL     1       2.331  -3.660  -0.087  1.00  0.00     0.119 C 
ATOM     24  C   UNL     1       3.361  -2.587  -0.384  1.00  0.00     0.027 C 
ENDBRANCH  18  23
ENDBRANCH  14  17
ENDBRANCH   9  13
ENDBRANCH   5   8
ENDBRANCH   3   4
ENDBRANCH   2   3
ENDBRANCH   1   2
BRANCH   1  25
ATOM     25  C   UNL     1       5.387  -1.867   6.130  1.00  0.00     0.002 C 
BRANCH  25  26
ATOM     26  C   UNL     1       6.444  -2.290   5.100  1.00  0.00     0.021 C 
BRANCH  26  27
ATOM     27  C   UNL     1       7.670  -1.391   5.032  1.00  0.00     0.116 C 
BRANCH  27  28
ATOM     28  N   UNL     1       8.434  -1.361   6.276  1.00  0.00    -0.352 N 
ATOM     29  C   UNL     1       9.522  -0.568   6.600  1.00  0.00     0.251 C 
ATOM     30  H   UNL     1       8.137  -1.987   6.976  1.00  0.00     0.163 HD
ATOM     31  O   UNL     1      10.294  -0.888   7.484  1.00  0.00    -0.269 OA
BRANCH  29  32
ATOM     32  C   UNL     1       9.732   0.683   5.844  1.00  0.00     0.039 A 
ATOM     33  C   UNL     1      11.012   1.096   5.469  1.00  0.00     0.014 A 
ATOM     34  C   UNL     1       8.615   1.435   5.493  1.00  0.00     0.014 A 
ATOM     35  C   UNL     1      11.141   2.225   4.662  1.00  0.00     0.010 A 
ATOM     36  C   UNL     1       8.727   2.442   4.568  1.00  0.00     0.010 A 
ATOM     37  C   UNL     1       9.988   2.879   4.191  1.00  0.00    -0.014 A 
BRANCH  37  38
ATOM     38  C   UNL     1      10.095   3.967   3.226  1.00  0.00     0.031 A 
ATOM     39  C   UNL     1      10.917   3.652   2.028  1.00  0.00     0.074 A 
ATOM     40  C   UNL     1       9.387   5.114   3.296  1.00  0.00     0.049 A 
ATOM     41  N   UNL     1      12.073   4.143   1.729  1.00  0.00    -0.248 NA
ATOM     42  C   UNL     1      10.473   2.581   1.125  1.00  0.00     0.031 C 
ATOM     43  C   UNL     1       8.305   5.476   4.219  1.00  0.00     0.029 A 
ATOM     44  N   UNL     1       9.441   6.194   2.469  1.00  0.00    -0.354 N 
ATOM     45  C   UNL     1      12.428   3.587   0.505  1.00  0.00     0.074 A 
ATOM     46  C   UNL     1      11.492   2.519   0.264  1.00  0.00     0.031 C 
ATOM     47  C   UNL     1       7.663   6.573   3.761  1.00  0.00     0.029 A 
ATOM     48  C   UNL     1       8.395   7.095   2.622  1.00  0.00     0.049 A 
ATOM     49  H   UNL     1      10.164   6.326   1.814  1.00  0.00     0.167 HD
ATOM     50  C   UNL     1      13.325   4.215  -0.306  1.00  0.00     0.037 A 
ATOM     51  C   UNL     1       8.143   8.186   1.857  1.00  0.00     0.037 A 
ATOM     52  C   UNL     1      14.067   5.215   0.426  1.00  0.00     0.049 A 
ATOM     53  C   UNL     1       9.406   8.541   1.165  1.00  0.00     0.074 A 
ATOM     54  C   UNL     1      14.890   5.193   1.537  1.00  0.00     0.029 A 
ATOM     55  N   UNL     1      13.705   6.530   0.266  1.00  0.00    -0.354 N 
ATOM     56  N   UNL     1      10.457   9.015   1.773  1.00  0.00    -0.248 NA
ATOM     57  C   UNL     1       9.654   7.941  -0.137  1.00  0.00     0.031 C 
ATOM     58  C   UNL     1      14.562   6.378   2.261  1.00  0.00     0.029 A 
ATOM     59  C   UNL     1      13.622   7.088   1.515  1.00  0.00     0.049 A 
ATOM     60  H   UNL     1      13.536   6.987  -0.589  1.00  0.00     0.167 HD
ATOM     61  C   UNL     1      11.525   8.373   1.169  1.00  0.00     0.074 A 
ATOM     62  C   UNL     1      10.981   7.803  -0.062  1.00  0.00     0.031 C 
ATOM     63  C   UNL     1      12.674   8.120   1.862  1.00  0.00     0.037 A 
BRANCH  50  64
ATOM     64  C   UNL     1      13.268   4.219  -1.816  1.00  0.00     0.064 A 
ATOM     65  C   UNL     1      14.306   4.849  -2.533  1.00  0.00     0.173 A 
ATOM     66  C   UNL     1      12.106   3.928  -2.562  1.00  0.00     0.173 A 
ATOM     67  F   UNL     1      15.457   5.177  -1.925  1.00  0.00    -0.203 F 
ATOM     68  C   UNL     1      14.148   5.255  -3.861  1.00  0.00     0.198 A 
ATOM     69  C   UNL     1      11.973   4.287  -3.903  1.00  0.00     0.198 A 
ATOM     70  F   UNL     1      11.013   3.395  -2.007  1.00  0.00    -0.203 F 
ATOM     71  F   UNL     1      15.106   5.980  -4.453  1.00  0.00    -0.200 F 
ATOM     72  C   UNL     1      12.976   4.984  -4.541  1.00  0.00     0.200 A 
ATOM     73  F   UNL     1      10.822   4.028  -4.540  1.00  0.00    -0.200 F 
ATOM     74  F   UNL     1      12.791   5.436  -5.788  1.00  0.00    -0.200 F 
ENDBRANCH  50  64
BRANCH  51  75
ATOM     75  C   UNL     1       6.841   8.773   1.470  1.00  0.00     0.064 A 
ATOM     76  C   UNL     1       6.763  10.069   0.935  1.00  0.00     0.173 A 
ATOM     77  C   UNL     1       5.695   7.967   1.332  1.00  0.00     0.173 A 
ATOM     78  F   UNL     1       7.825  10.887   0.991  1.00  0.00    -0.203 F 
ATOM     79  C   UNL     1       5.621  10.519   0.265  1.00  0.00     0.198 A 
ATOM     80  C   UNL     1       4.554   8.419   0.667  1.00  0.00     0.198 A 
ATOM     81  F   UNL     1       5.697   6.692   1.748  1.00  0.00    -0.203 F 
ATOM     82  F   UNL     1       5.611  11.736  -0.296  1.00  0.00    -0.200 F 
ATOM     83  C   UNL     1       4.523   9.688   0.118  1.00  0.00     0.200 A 
ATOM     84  F   UNL     1       3.512   7.591   0.499  1.00  0.00    -0.200 F 
ATOM     85  F   UNL     1       3.457  10.091  -0.586  1.00  0.00    -0.200 F 
ENDBRANCH  51  75
BRANCH  63  86
ATOM     86  C   UNL     1      12.862   8.809   3.186  1.00  0.00     0.064 A 
ATOM     87  C   UNL     1      12.004   8.666   4.291  1.00  0.00     0.173 A 
ATOM     88  C   UNL     1      14.027   9.566   3.372  1.00  0.00     0.173 A 
ATOM     89  F   UNL     1      10.925   7.875   4.234  1.00  0.00    -0.203 F 
ATOM     90  C   UNL     1      12.273   9.303   5.502  1.00  0.00     0.198 A 
ATOM     91  C   UNL     1      14.314  10.165   4.595  1.00  0.00     0.198 A 
ATOM     92  F   UNL     1      14.913   9.694   2.371  1.00  0.00    -0.203 F 
ATOM     93  F   UNL     1      11.424   9.174   6.533  1.00  0.00    -0.200 F 
ATOM     94  C   UNL     1      13.430  10.048   5.654  1.00  0.00     0.200 A 
ATOM     95  F   UNL     1      15.460  10.843   4.750  1.00  0.00    -0.200 F 
ATOM     96  F   UNL     1      13.706  10.634   6.827  1.00  0.00    -0.200 F 
ENDBRANCH  63  86
ENDBRANCH  37  38
ENDBRANCH  29  32
ENDBRANCH  27  28
ENDBRANCH  26  27
ENDBRANCH  25  26
ENDBRANCH   1  25
TORSDOF 16
