REMARK SMILES COc1ccc([C@@H]2Nc3c(C(=O)NCCCCCCNC(=O)c4ccc(-c5c6nc(c(-c7c(F)c(F)c(F)c(F)c7F)c7ccc([nH]7)c(-c7c(F)c(F)c(F)c(F)c7F)c7nc(c(-c8c(F)c(F)c(F)c(F)c8F)c8ccc5[nH]8)C=C7)C=C6)cc4)cccc3[C@@H]3[C@H]4CC[C@H](C4)[C@H]32)cc1[N+](=O)[O-]
REMARK SMILES IDX 16 1 15 2 14 3 13 4 11 5 12 6 10 8 7 9 8 10 96 11 9 12 90 14
REMARK SMILES IDX 94 15 89 16 91 17 93 18 95 19 86 20 88 21 92 22 87 23 6 24
REMARK SMILES IDX 3 25 4 26 98 27 5 28 97 29 2 30 1 31 99 32 100 33 101 34
REMARK SMILES IDX 17 35 18 36 19 37 20 38 21 39 22 41 23 42 24 43 85 44 25 45
REMARK SMILES IDX 84 46 26 47 27 48 28 49 78 50 29 51 83 52 77 53 79 54 30 55
REMARK SMILES IDX 82 56 76 57 75 58 31 60 63 61 43 62 62 63 44 64 47 65 61 66
REMARK SMILES IDX 80 67 45 68 46 69 60 71 81 72 48 73 32 74 33 75 41 76 34 77
REMARK SMILES IDX 35 78 39 79 42 80 36 81 37 82 40 83 38 84 64 85 65 86 73 87
REMARK SMILES IDX 66 88 67 89 71 90 74 91 68 92 69 93 72 94 70 95 49 96 50 97
REMARK SMILES IDX 58 98 51 99 52 100 56 101 59 102 53 103 54 104 57 105 55 106
REMARK H PARENT 13 7 8 13 20 40 79 59 47 70
REMARK Flexibility Score: inf
ROOT
ATOM      1  C   UNL     1       1.665  11.094   1.284  1.00  0.00     0.002 C 
ENDROOT
BRANCH   1   2
ATOM      2  C   UNL     1       0.659   9.999   1.649  1.00  0.00     0.021 C 
BRANCH   2   3
ATOM      3  C   UNL     1       0.844   9.310   2.994  1.00  0.00     0.116 C 
BRANCH   3   4
ATOM      4  N   UNL     1       0.805  10.183   4.146  1.00  0.00    -0.352 N 
ATOM      5  C   UNL     1       0.463   9.876   5.444  1.00  0.00     0.253 C 
ATOM      6  O   UNL     1       0.607  10.736   6.312  1.00  0.00    -0.269 OA
ATOM      7  H   UNL     1       1.055  11.121   3.981  1.00  0.00     0.163 HD
BRANCH   5   8
ATOM      8  C   UNL     1      -0.196   8.588   5.796  1.00  0.00     0.063 A 
ATOM      9  C   UNL     1       1.954   5.662   4.544  1.00  0.00     0.114 C 
ATOM     10  N   UNL     1       1.509   7.037   4.861  1.00  0.00    -0.377 N 
ATOM     11  C   UNL     1       1.188   4.724   5.474  1.00  0.00     0.027 C 
ATOM     12  C   UNL     1       0.241   7.302   5.426  1.00  0.00     0.051 A 
ATOM     13  H   UNL     1       2.115   7.790   4.673  1.00  0.00     0.161 HD
ATOM     14  C   UNL     1      -0.283   4.898   5.059  1.00  0.00     0.030 C 
ATOM     15  C   UNL     1       1.327   3.204   5.604  1.00  0.00    -0.005 C 
ATOM     16  C   UNL     1      -0.667   6.215   5.660  1.00  0.00    -0.020 A 
ATOM     17  C   UNL     1      -0.885   3.510   5.360  1.00  0.00    -0.003 C 
ATOM     18  C   UNL     1       1.023   2.461   4.300  1.00  0.00     0.004 C 
ATOM     19  C   UNL     1       0.046   2.930   6.425  1.00  0.00     0.008 C 
ATOM     20  C   UNL     1      -1.371   8.732   6.563  1.00  0.00     0.016 A 
ATOM     21  C   UNL     1      -1.846   6.381   6.390  1.00  0.00     0.006 A 
ATOM     22  C   UNL     1      -0.504   2.603   4.160  1.00  0.00     0.004 C 
ATOM     23  C   UNL     1      -2.173   7.636   6.881  1.00  0.00     0.001 A 
BRANCH   9  24
ATOM     24  C   UNL     1       3.459   5.500   4.636  1.00  0.00    -0.018 A 
ATOM     25  C   UNL     1       6.188   4.740   4.818  1.00  0.00     0.196 A 
ATOM     26  C   UNL     1       5.490   5.178   5.948  1.00  0.00     0.054 A 
ATOM     27  C   UNL     1       5.536   4.756   3.585  1.00  0.00     0.311 A 
ATOM     28  C   UNL     1       4.146   5.571   5.856  1.00  0.00     0.010 A 
ATOM     29  C   UNL     1       4.185   5.135   3.487  1.00  0.00     0.095 A 
BRANCH  25  30
ATOM     30  O   UNL     1       7.371   4.093   5.043  1.00  0.00    -0.490 OA
ATOM     31  C   UNL     1       8.532   4.850   4.710  1.00  0.00     0.278 C 
ENDBRANCH  25  30
BRANCH  27  32
ATOM     32  N   UNL     1       6.197   4.308   2.371  1.00  0.00     0.066 N 
ATOM     33  O   UNL     1       5.586   3.493   1.667  1.00  0.00    -0.258 OA
ATOM     34  O   UNL     1       7.278   4.837   2.072  1.00  0.00    -0.258 OA
ENDBRANCH  27  32
ENDBRANCH   9  24
ENDBRANCH   5   8
ENDBRANCH   3   4
ENDBRANCH   2   3
ENDBRANCH   1   2
BRANCH   1  35
ATOM     35  C   UNL     1       3.148  10.797   1.523  1.00  0.00     0.002 C 
BRANCH  35  36
ATOM     36  C   UNL     1       3.708   9.505   0.925  1.00  0.00     0.021 C 
BRANCH  36  37
ATOM     37  C   UNL     1       3.412   9.261  -0.550  1.00  0.00     0.116 C 
BRANCH  37  38
ATOM     38  N   UNL     1       3.880  10.334  -1.408  1.00  0.00    -0.352 N 
ATOM     39  C   UNL     1       4.700  10.291  -2.509  1.00  0.00     0.251 C 
ATOM     40  H   UNL     1       3.560  11.232  -1.163  1.00  0.00     0.163 HD
ATOM     41  O   UNL     1       5.091  11.331  -3.023  1.00  0.00    -0.269 OA
BRANCH  39  42
ATOM     42  C   UNL     1       5.144   8.990  -3.057  1.00  0.00     0.039 A 
ATOM     43  C   UNL     1       6.493   8.834  -3.389  1.00  0.00     0.014 A 
ATOM     44  C   UNL     1       4.249   7.934  -3.248  1.00  0.00     0.014 A 
ATOM     45  C   UNL     1       6.958   7.596  -3.834  1.00  0.00     0.010 A 
ATOM     46  C   UNL     1       4.727   6.680  -3.626  1.00  0.00     0.010 A 
ATOM     47  C   UNL     1       6.088   6.496  -3.912  1.00  0.00    -0.014 A 
BRANCH  47  48
ATOM     48  C   UNL     1       6.601   5.141  -4.239  1.00  0.00     0.031 A 
ATOM     49  C   UNL     1       6.164   4.434  -5.490  1.00  0.00     0.074 A 
ATOM     50  C   UNL     1       7.417   4.521  -3.364  1.00  0.00     0.049 A 
ATOM     51  N   UNL     1       6.464   3.229  -5.908  1.00  0.00    -0.248 NA
ATOM     52  C   UNL     1       5.250   5.166  -6.379  1.00  0.00     0.031 C 
ATOM     53  C   UNL     1       7.867   5.080  -2.088  1.00  0.00     0.029 A 
ATOM     54  N   UNL     1       8.001   3.280  -3.406  1.00  0.00    -0.354 N 
ATOM     55  C   UNL     1       5.773   3.057  -7.099  1.00  0.00     0.074 A 
ATOM     56  C   UNL     1       4.998   4.261  -7.314  1.00  0.00     0.031 C 
ATOM     57  C   UNL     1       8.670   4.196  -1.478  1.00  0.00     0.029 A 
ATOM     58  C   UNL     1       8.761   2.993  -2.298  1.00  0.00     0.049 A 
ATOM     59  H   UNL     1       7.887   2.655  -4.159  1.00  0.00     0.167 HD
ATOM     60  C   UNL     1       5.797   1.998  -7.944  1.00  0.00     0.037 A 
ATOM     61  C   UNL     1       9.443   1.878  -1.973  1.00  0.00     0.037 A 
ATOM     62  C   UNL     1       6.576   0.805  -7.728  1.00  0.00     0.049 A 
ATOM     63  C   UNL     1       9.437   0.711  -2.920  1.00  0.00     0.074 A 
ATOM     64  C   UNL     1       6.714  -0.297  -8.555  1.00  0.00     0.029 A 
ATOM     65  N   UNL     1       7.340   0.552  -6.597  1.00  0.00    -0.354 N 
ATOM     66  N   UNL     1       8.841   0.588  -4.081  1.00  0.00    -0.248 NA
ATOM     67  C   UNL     1      10.201  -0.476  -2.510  1.00  0.00     0.031 C 
ATOM     68  C   UNL     1       7.511  -1.241  -7.899  1.00  0.00     0.029 A 
ATOM     69  C   UNL     1       7.923  -0.703  -6.691  1.00  0.00     0.049 A 
ATOM     70  H   UNL     1       7.452   1.172  -5.840  1.00  0.00     0.167 HD
ATOM     71  C   UNL     1       9.171  -0.677  -4.548  1.00  0.00     0.074 A 
ATOM     72  C   UNL     1      10.041  -1.273  -3.557  1.00  0.00     0.031 C 
ATOM     73  C   UNL     1       8.783  -1.290  -5.694  1.00  0.00     0.037 A 
BRANCH  60  74
ATOM     74  C   UNL     1       4.952   2.076  -9.184  1.00  0.00     0.064 A 
ATOM     75  C   UNL     1       5.256   2.961 -10.230  1.00  0.00     0.173 A 
ATOM     76  C   UNL     1       3.852   1.220  -9.351  1.00  0.00     0.173 A 
ATOM     77  F   UNL     1       6.291   3.807 -10.120  1.00  0.00    -0.203 F 
ATOM     78  C   UNL     1       4.474   3.007 -11.382  1.00  0.00     0.198 A 
ATOM     79  C   UNL     1       3.092   1.246 -10.518  1.00  0.00     0.198 A 
ATOM     80  F   UNL     1       3.520   0.348  -8.387  1.00  0.00    -0.203 F 
ATOM     81  F   UNL     1       4.755   3.895 -12.345  1.00  0.00    -0.200 F 
ATOM     82  C   UNL     1       3.398   2.144 -11.528  1.00  0.00     0.200 A 
ATOM     83  F   UNL     1       2.063   0.400 -10.664  1.00  0.00    -0.200 F 
ATOM     84  F   UNL     1       2.653   2.183 -12.642  1.00  0.00    -0.200 F 
ENDBRANCH  60  74
BRANCH  61  85
ATOM     85  C   UNL     1      10.200   1.819  -0.695  1.00  0.00     0.064 A 
ATOM     86  C   UNL     1      11.601   1.795  -0.691  1.00  0.00     0.173 A 
ATOM     87  C   UNL     1       9.541   1.776   0.542  1.00  0.00     0.173 A 
ATOM     88  F   UNL     1      12.275   1.808  -1.850  1.00  0.00    -0.203 F 
ATOM     89  C   UNL     1      12.315   1.709   0.502  1.00  0.00     0.198 A 
ATOM     90  C   UNL     1      10.257   1.724   1.736  1.00  0.00     0.198 A 
ATOM     91  F   UNL     1       8.202   1.787   0.591  1.00  0.00    -0.203 F 
ATOM     92  F   UNL     1      13.653   1.634   0.476  1.00  0.00    -0.200 F 
ATOM     93  C   UNL     1      11.642   1.681   1.715  1.00  0.00     0.200 A 
ATOM     94  F   UNL     1       9.605   1.708   2.907  1.00  0.00    -0.200 F 
ATOM     95  F   UNL     1      12.330   1.601   2.862  1.00  0.00    -0.200 F 
ENDBRANCH  61  85
BRANCH  73  96
ATOM     96  C   UNL     1       9.315  -2.672  -5.947  1.00  0.00     0.064 A 
ATOM     97  C   UNL     1       8.892  -3.775  -5.189  1.00  0.00     0.173 A 
ATOM     98  C   UNL     1      10.238  -2.901  -6.979  1.00  0.00     0.173 A 
ATOM     99  F   UNL     1       8.024  -3.608  -4.180  1.00  0.00    -0.203 F 
ATOM    100  C   UNL     1       9.396  -5.049  -5.436  1.00  0.00     0.198 A 
ATOM    101  C   UNL     1      10.712  -4.183  -7.246  1.00  0.00     0.198 A 
ATOM    102  F   UNL     1      10.671  -1.884  -7.739  1.00  0.00    -0.203 F 
ATOM    103  F   UNL     1       9.018  -6.078  -4.664  1.00  0.00    -0.200 F 
ATOM    104  C   UNL     1      10.298  -5.253  -6.469  1.00  0.00     0.200 A 
ATOM    105  F   UNL     1      11.572  -4.380  -8.255  1.00  0.00    -0.200 F 
ATOM    106  F   UNL     1      10.776  -6.482  -6.710  1.00  0.00    -0.200 F 
ENDBRANCH  73  96
ENDBRANCH  47  48
ENDBRANCH  39  42
ENDBRANCH  37  38
ENDBRANCH  36  37
ENDBRANCH  35  36
ENDBRANCH   1  35
TORSDOF 16
