REMARK SMILES O=C(NCCCCCCNC(=O)c1ccccc1NC(=O)c1ccncc1)c1ccc(-c2c3nc(c(-c4c(F)c(F)c(F)c(F)c4F)c4ccc([nH]4)c(-c4c(F)c(F)c(F)c(F)c4F)c4nc(c(-c5c(F)c(F)c(F)c(F)c5F)c5ccc2[nH]5)C=C4)C=C3)cc1
REMARK SMILES IDX 6 1 5 2 4 3 3 4 1 5 2 6 28 8 29 9 90 10 30 11 89 12 31 13
REMARK SMILES IDX 32 14 33 15 83 16 34 17 88 18 82 19 84 20 35 21 87 22 81 23
REMARK SMILES IDX 80 24 36 26 68 27 48 28 67 29 49 30 52 31 66 32 85 33 50 34
REMARK SMILES IDX 51 35 65 37 86 38 53 39 37 40 38 41 46 42 39 43 40 44 44 45
REMARK SMILES IDX 47 46 41 47 42 48 45 49 43 50 69 51 70 52 78 53 71 54 72 55
REMARK SMILES IDX 76 56 79 57 73 58 74 59 77 60 75 61 54 62 55 63 63 64 56 65
REMARK SMILES IDX 57 66 61 67 64 68 58 69 59 70 62 71 60 72 7 73 8 74 9 75
REMARK SMILES IDX 10 76 11 77 12 79 13 80 14 81 18 82 15 83 17 84 16 85 19 86
REMARK SMILES IDX 20 87 21 89 22 90 23 91 27 92 24 93 26 94 25 95
REMARK H PARENT 3 7 84 25 52 36 10 78 19 88
REMARK Flexibility Score: inf
ROOT
ATOM      1  C   UNL     1       4.199  -2.958   2.460  1.00  0.00     0.002 C 
ENDROOT
BRANCH   1   2
ATOM      2  C   UNL     1       4.665  -1.550   2.092  1.00  0.00     0.021 C 
BRANCH   2   3
ATOM      3  C   UNL     1       4.378  -1.135   0.655  1.00  0.00     0.116 C 
BRANCH   3   4
ATOM      4  N   UNL     1       2.955  -1.093   0.359  1.00  0.00    -0.352 N 
ATOM      5  O   UNL     1       0.978  -0.140  -0.174  1.00  0.00    -0.269 OA
ATOM      6  C   UNL     1       2.203  -0.056  -0.132  1.00  0.00     0.251 C 
ATOM      7  H   UNL     1       2.462  -1.926   0.535  1.00  0.00     0.163 HD
BRANCH   6   8
ATOM      8  C   UNL     1       2.870   1.180  -0.589  1.00  0.00     0.039 A 
ATOM      9  C   UNL     1       4.003   1.120  -1.405  1.00  0.00     0.014 A 
ATOM     10  C   UNL     1       2.351   2.416  -0.195  1.00  0.00     0.014 A 
ATOM     11  C   UNL     1       4.695   2.286  -1.714  1.00  0.00     0.010 A 
ATOM     12  C   UNL     1       3.000   3.591  -0.578  1.00  0.00     0.010 A 
ATOM     13  C   UNL     1       4.193   3.535  -1.316  1.00  0.00    -0.014 A 
BRANCH  13  14
ATOM     14  C   UNL     1       4.894   4.778  -1.721  1.00  0.00     0.031 A 
ATOM     15  C   UNL     1       5.496   5.695  -0.696  1.00  0.00     0.074 A 
ATOM     16  C   UNL     1       4.973   5.082  -3.031  1.00  0.00     0.049 A 
ATOM     17  N   UNL     1       6.092   6.849  -0.866  1.00  0.00    -0.248 NA
ATOM     18  C   UNL     1       5.409   5.266   0.708  1.00  0.00     0.031 C 
ATOM     19  C   UNL     1       4.425   4.268  -4.117  1.00  0.00     0.029 A 
ATOM     20  N   UNL     1       5.539   6.154  -3.671  1.00  0.00    -0.354 N 
ATOM     21  C   UNL     1       6.431   7.293   0.405  1.00  0.00     0.074 A 
ATOM     22  C   UNL     1       5.949   6.298   1.340  1.00  0.00     0.031 C 
ATOM     23  C   UNL     1       4.699   4.857  -5.289  1.00  0.00     0.029 A 
ATOM     24  C   UNL     1       5.381   6.120  -5.034  1.00  0.00     0.049 A 
ATOM     25  H   UNL     1       6.013   6.877  -3.199  1.00  0.00     0.167 HD
ATOM     26  C   UNL     1       7.091   8.424   0.755  1.00  0.00     0.037 A 
ATOM     27  C   UNL     1       5.718   7.022  -5.974  1.00  0.00     0.037 A 
ATOM     28  C   UNL     1       7.568   9.406  -0.187  1.00  0.00     0.049 A 
ATOM     29  C   UNL     1       6.404   8.291  -5.557  1.00  0.00     0.074 A 
ATOM     30  C   UNL     1       8.277  10.569   0.063  1.00  0.00     0.029 A 
ATOM     31  N   UNL     1       7.374   9.346  -1.560  1.00  0.00    -0.354 N 
ATOM     32  N   UNL     1       6.753   8.685  -4.356  1.00  0.00    -0.248 NA
ATOM     33  C   UNL     1       6.746   9.239  -6.624  1.00  0.00     0.031 C 
ATOM     34  C   UNL     1       8.456  11.242  -1.150  1.00  0.00     0.029 A 
ATOM     35  C   UNL     1       7.923  10.466  -2.167  1.00  0.00     0.049 A 
ATOM     36  H   UNL     1       6.914   8.616  -2.034  1.00  0.00     0.167 HD
ATOM     37  C   UNL     1       7.380   9.912  -4.524  1.00  0.00     0.074 A 
ATOM     38  C   UNL     1       7.372  10.191  -5.946  1.00  0.00     0.031 C 
ATOM     39  C   UNL     1       7.916  10.729  -3.585  1.00  0.00     0.037 A 
BRANCH  26  40
ATOM     40  C   UNL     1       7.307   8.679   2.221  1.00  0.00     0.064 A 
ATOM     41  C   UNL     1       8.174   7.891   2.993  1.00  0.00     0.173 A 
ATOM     42  C   UNL     1       6.655   9.747   2.859  1.00  0.00     0.173 A 
ATOM     43  F   UNL     1       8.818   6.853   2.437  1.00  0.00    -0.203 F 
ATOM     44  C   UNL     1       8.351   8.137   4.353  1.00  0.00     0.198 A 
ATOM     45  C   UNL     1       6.861  10.011   4.211  1.00  0.00     0.198 A 
ATOM     46  F   UNL     1       5.822  10.541   2.170  1.00  0.00    -0.203 F 
ATOM     47  F   UNL     1       9.140   7.333   5.080  1.00  0.00    -0.200 F 
ATOM     48  C   UNL     1       7.699   9.200   4.959  1.00  0.00     0.200 A 
ATOM     49  F   UNL     1       6.243  11.050   4.791  1.00  0.00    -0.200 F 
ATOM     50  F   UNL     1       7.873   9.437   6.267  1.00  0.00    -0.200 F 
ENDBRANCH  26  40
BRANCH  27  51
ATOM     51  C   UNL     1       5.400   6.747  -7.399  1.00  0.00     0.064 A 
ATOM     52  C   UNL     1       6.415   6.487  -8.328  1.00  0.00     0.173 A 
ATOM     53  C   UNL     1       4.072   6.708  -7.853  1.00  0.00     0.173 A 
ATOM     54  F   UNL     1       7.700   6.527  -7.944  1.00  0.00    -0.203 F 
ATOM     55  C   UNL     1       6.117   6.212  -9.661  1.00  0.00     0.198 A 
ATOM     56  C   UNL     1       3.774   6.402  -9.178  1.00  0.00     0.198 A 
ATOM     57  F   UNL     1       3.063   6.941  -7.001  1.00  0.00    -0.203 F 
ATOM     58  F   UNL     1       7.108   6.003 -10.537  1.00  0.00    -0.200 F 
ATOM     59  C   UNL     1       4.796   6.161 -10.082  1.00  0.00     0.200 A 
ATOM     60  F   UNL     1       2.496   6.333  -9.576  1.00  0.00    -0.200 F 
ATOM     61  F   UNL     1       4.510   5.883 -11.361  1.00  0.00    -0.200 F 
ENDBRANCH  27  51
BRANCH  39  62
ATOM     62  C   UNL     1       8.589  11.983  -4.066  1.00  0.00     0.064 A 
ATOM     63  C   UNL     1       7.862  13.063  -4.587  1.00  0.00     0.173 A 
ATOM     64  C   UNL     1       9.982  12.119  -3.962  1.00  0.00     0.173 A 
ATOM     65  F   UNL     1       6.530  12.977  -4.725  1.00  0.00    -0.203 F 
ATOM     66  C   UNL     1       8.507  14.223  -5.008  1.00  0.00     0.198 A 
ATOM     67  C   UNL     1      10.620  13.293  -4.351  1.00  0.00     0.198 A 
ATOM     68  F   UNL     1      10.725  11.118  -3.466  1.00  0.00    -0.203 F 
ATOM     69  F   UNL     1       7.797  15.223  -5.549  1.00  0.00    -0.200 F 
ATOM     70  C   UNL     1       9.883  14.341  -4.881  1.00  0.00     0.200 A 
ATOM     71  F   UNL     1      11.948  13.410  -4.213  1.00  0.00    -0.200 F 
ATOM     72  F   UNL     1      10.501  15.463  -5.276  1.00  0.00    -0.200 F 
ENDBRANCH  39  62
ENDBRANCH  13  14
ENDBRANCH   6   8
ENDBRANCH   3   4
ENDBRANCH   2   3
ENDBRANCH   1   2
BRANCH   1  73
ATOM     73  C   UNL     1       4.700  -4.075   1.540  1.00  0.00     0.002 C 
BRANCH  73  74
ATOM     74  C   UNL     1       6.221  -4.148   1.345  1.00  0.00     0.021 C 
BRANCH  74  75
ATOM     75  C   UNL     1       7.035  -4.223   2.633  1.00  0.00     0.116 C 
BRANCH  75  76
ATOM     76  N   UNL     1       6.675  -5.380   3.431  1.00  0.00    -0.352 N 
ATOM     77  C   UNL     1       7.467  -6.368   3.950  1.00  0.00     0.253 C 
ATOM     78  H   UNL     1       5.715  -5.468   3.630  1.00  0.00     0.163 HD
ATOM     79  O   UNL     1       6.948  -7.376   4.421  1.00  0.00    -0.269 OA
BRANCH  77  80
ATOM     80  C   UNL     1       8.940  -6.241   3.968  1.00  0.00     0.063 A 
ATOM     81  C   UNL     1       9.653  -7.307   3.396  1.00  0.00     0.016 A 
ATOM     82  C   UNL     1       9.616  -5.176   4.601  1.00  0.00     0.054 A 
ATOM     83  C   UNL     1      11.043  -7.332   3.452  1.00  0.00     0.001 A 
ATOM     84  C   UNL     1      11.005  -5.279   4.731  1.00  0.00     0.027 A 
ATOM     85  C   UNL     1      11.716  -6.330   4.140  1.00  0.00     0.002 A 
BRANCH  82  86
ATOM     86  N   UNL     1       8.878  -4.069   5.080  1.00  0.00    -0.321 N 
ATOM     87  C   UNL     1       9.214  -2.770   5.384  1.00  0.00     0.255 C 
ATOM     88  H   UNL     1       7.925  -4.269   5.225  1.00  0.00     0.170 HD
ATOM     89  O   UNL     1       8.347  -1.991   5.776  1.00  0.00    -0.269 OA
BRANCH  87  90
ATOM     90  C   UNL     1      10.581  -2.254   5.225  1.00  0.00     0.043 A 
ATOM     91  C   UNL     1      11.242  -2.287   3.997  1.00  0.00     0.034 A 
ATOM     92  C   UNL     1      11.212  -1.744   6.356  1.00  0.00     0.034 A 
ATOM     93  C   UNL     1      12.569  -1.898   3.984  1.00  0.00     0.112 A 
ATOM     94  C   UNL     1      12.533  -1.365   6.231  1.00  0.00     0.112 A 
ATOM     95  N   UNL     1      13.229  -1.453   5.076  1.00  0.00    -0.265 NA
ENDBRANCH  87  90
ENDBRANCH  82  86
ENDBRANCH  77  80
ENDBRANCH  75  76
ENDBRANCH  74  75
ENDBRANCH  73  74
ENDBRANCH   1  73
TORSDOF 15
