REMARK SMILES CC[NH2+][C@]1(C(=O)NCCCCCCNC(=O)c2ccc(-c3c4nc(c(-c5c(F)c(F)c(F)c(F)c5F)c5ccc([nH]5)c(-c5c(F)c(F)c(F)c(F)c5F)c5nc(c(-c6c(F)c(F)c(F)c(F)c6F)c6ccc3[nH]6)C=C5)C=C4)cc2)CCC[C@H]1CCSc1n[nH]c(=O)n1C
REMARK SMILES IDX 9 1 8 2 7 3 5 4 6 5 4 7 80 8 83 9 81 10 82 11 3 12 2 15 1 16
REMARK SMILES IDX 84 17 85 18 86 19 87 20 88 21 92 22 89 23 90 24 93 25 91 27
REMARK SMILES IDX 10 28 11 29 12 30 13 31 14 32 15 33 16 35 17 36 18 37 79 38
REMARK SMILES IDX 19 39 78 40 20 41 21 42 22 43 72 44 23 45 77 46 71 47 73 48
REMARK SMILES IDX 24 49 76 50 70 51 69 52 25 54 57 55 37 56 56 57 38 58 41 59
REMARK SMILES IDX 55 60 74 61 39 62 40 63 54 65 75 66 42 67 26 68 27 69 35 70
REMARK SMILES IDX 28 71 29 72 33 73 36 74 30 75 31 76 34 77 32 78 58 79 59 80
REMARK SMILES IDX 67 81 60 82 61 83 65 84 68 85 62 86 63 87 66 88 64 89 43 90
REMARK SMILES IDX 44 91 52 92 45 93 46 94 50 95 53 96 47 97 48 98 51 99 49 100
REMARK H PARENT 7 6 3 13 3 14 89 26 14 34 73 53 41 64
REMARK Flexibility Score: inf
ROOT
ATOM      1  C   UNL     1       1.596  -2.341  -1.698  1.00  0.00     0.021 C 
ENDROOT
BRANCH   1   2
ATOM      2  C   UNL     1       0.664  -2.143  -0.484  1.00  0.00     0.116 C 
BRANCH   2   3
ATOM      3  N   UNL     1       1.116  -1.334   0.623  1.00  0.00    -0.351 N 
ATOM      4  C   UNL     1       0.888  -1.414   1.974  1.00  0.00     0.281 C 
ATOM      5  O   UNL     1       1.194  -0.381   2.587  1.00  0.00    -0.268 OA
ATOM      6  H   UNL     1       1.698  -0.585   0.359  1.00  0.00     0.163 HD
BRANCH   4   7
ATOM      7  C   UNL     1       0.373  -2.709   2.735  1.00  0.00     0.178 C 
ATOM      8  C   UNL     1      -1.015  -3.133   2.195  1.00  0.00     0.079 C 
ATOM      9  C   UNL     1       1.244  -4.025   2.633  1.00  0.00     0.061 C 
ATOM     10  C   UNL     1      -1.172  -4.574   2.647  1.00  0.00     0.008 C 
ATOM     11  C   UNL     1       0.216  -5.175   2.481  1.00  0.00     0.011 C 
BRANCH   7  12
ATOM     12  N   UNL     1       0.087  -2.313   4.170  1.00  0.00    -0.334 N 
ATOM     13  H   UNL     1       0.158  -1.297   4.222  1.00  0.00     0.347 HD
ATOM     14  H   UNL     1      -0.834  -2.710   4.359  1.00  0.00     0.347 HD
BRANCH  12  15
ATOM     15  C   UNL     1       0.930  -2.856   5.223  1.00  0.00     0.257 C 
ATOM     16  C   UNL     1       0.643  -2.260   6.590  1.00  0.00     0.071 C 
ENDBRANCH  12  15
ENDBRANCH   7  12
BRANCH   9  17
ATOM     17  C   UNL     1       2.385  -4.208   1.617  1.00  0.00     0.022 C 
BRANCH  17  18
ATOM     18  C   UNL     1       3.452  -3.121   1.558  1.00  0.00     0.079 C 
BRANCH  18  19
ATOM     19  S   UNL     1       5.040  -3.393   2.354  1.00  0.00    -0.086 SA
BRANCH  19  20
ATOM     20  C   UNL     1       4.687  -2.996   3.988  1.00  0.00     0.191 A 
ATOM     21  N   UNL     1       4.718  -3.912   4.910  1.00  0.00    -0.146 NA
ATOM     22  N   UNL     1       4.420  -1.744   4.428  1.00  0.00    -0.273 N 
ATOM     23  N   UNL     1       4.467  -3.224   6.057  1.00  0.00    -0.226 N 
ATOM     24  C   UNL     1       4.289  -1.875   5.787  1.00  0.00     0.343 A 
ATOM     25  C   UNL     1       4.227  -0.470   3.767  1.00  0.00     0.157 C 
ATOM     26  H   UNL     1       4.419  -3.627   6.954  1.00  0.00     0.195 HD
ATOM     27  O   UNL     1       4.040  -1.010   6.612  1.00  0.00    -0.246 OA
ENDBRANCH  19  20
ENDBRANCH  18  19
ENDBRANCH  17  18
ENDBRANCH   9  17
ENDBRANCH   4   7
ENDBRANCH   2   3
ENDBRANCH   1   2
BRANCH   1  28
ATOM     28  C   UNL     1       2.778  -1.403  -1.985  1.00  0.00     0.002 C 
BRANCH  28  29
ATOM     29  C   UNL     1       4.211  -1.918  -1.735  1.00  0.00     0.002 C 
BRANCH  29  30
ATOM     30  C   UNL     1       4.510  -3.401  -1.994  1.00  0.00     0.021 C 
BRANCH  30  31
ATOM     31  C   UNL     1       4.346  -3.858  -3.436  1.00  0.00     0.116 C 
BRANCH  31  32
ATOM     32  N   UNL     1       5.358  -3.296  -4.315  1.00  0.00    -0.352 N 
ATOM     33  C   UNL     1       6.240  -3.934  -5.155  1.00  0.00     0.251 C 
ATOM     34  H   UNL     1       5.421  -2.314  -4.308  1.00  0.00     0.163 HD
ATOM     35  O   UNL     1       7.145  -3.302  -5.692  1.00  0.00    -0.269 OA
BRANCH  33  36
ATOM     36  C   UNL     1       6.114  -5.388  -5.403  1.00  0.00     0.039 A 
ATOM     37  C   UNL     1       7.266  -6.181  -5.428  1.00  0.00     0.014 A 
ATOM     38  C   UNL     1       4.863  -5.966  -5.626  1.00  0.00     0.014 A 
ATOM     39  C   UNL     1       7.156  -7.564  -5.611  1.00  0.00     0.010 A 
ATOM     40  C   UNL     1       4.748  -7.348  -5.723  1.00  0.00     0.010 A 
ATOM     41  C   UNL     1       5.893  -8.162  -5.726  1.00  0.00    -0.014 A 
BRANCH  41  42
ATOM     42  C   UNL     1       5.715  -9.628  -5.891  1.00  0.00     0.031 A 
ATOM     43  C   UNL     1       5.054 -10.150  -7.137  1.00  0.00     0.074 A 
ATOM     44  C   UNL     1       6.035 -10.470  -4.890  1.00  0.00     0.049 A 
ATOM     45  N   UNL     1       4.604 -11.350  -7.402  1.00  0.00    -0.248 NA
ATOM     46  C   UNL     1       4.833  -9.174  -8.217  1.00  0.00     0.031 C 
ATOM     47  C   UNL     1       6.666 -10.085  -3.628  1.00  0.00     0.029 A 
ATOM     48  N   UNL     1       5.844 -11.824  -4.767  1.00  0.00    -0.354 N 
ATOM     49  C   UNL     1       4.022 -11.263  -8.660  1.00  0.00     0.074 A 
ATOM     50  C   UNL     1       4.127  -9.884  -9.083  1.00  0.00     0.031 C 
ATOM     51  C   UNL     1       6.815 -11.177  -2.861  1.00  0.00     0.029 A 
ATOM     52  C   UNL     1       6.242 -12.328  -3.552  1.00  0.00     0.049 A 
ATOM     53  H   UNL     1       5.458 -12.381  -5.482  1.00  0.00     0.167 HD
ATOM     54  C   UNL     1       3.466 -12.251  -9.402  1.00  0.00     0.037 A 
ATOM     55  C   UNL     1       6.132 -13.572  -3.046  1.00  0.00     0.037 A 
ATOM     56  C   UNL     1       3.393 -13.625  -8.984  1.00  0.00     0.049 A 
ATOM     57  C   UNL     1       5.483 -14.648  -3.878  1.00  0.00     0.074 A 
ATOM     58  C   UNL     1       2.893 -14.713  -9.677  1.00  0.00     0.029 A 
ATOM     59  N   UNL     1       3.836 -14.100  -7.758  1.00  0.00    -0.354 N 
ATOM     60  N   UNL     1       4.968 -14.567  -5.081  1.00  0.00    -0.248 NA
ATOM     61  C   UNL     1       5.400 -15.990  -3.283  1.00  0.00     0.031 C 
ATOM     62  C   UNL     1       2.985 -15.836  -8.851  1.00  0.00     0.029 A 
ATOM     63  C   UNL     1       3.603 -15.462  -7.668  1.00  0.00     0.049 A 
ATOM     64  H   UNL     1       4.255 -13.550  -7.056  1.00  0.00     0.167 HD
ATOM     65  C   UNL     1       4.544 -15.849  -5.404  1.00  0.00     0.074 A 
ATOM     66  C   UNL     1       4.857 -16.691  -4.269  1.00  0.00     0.031 C 
ATOM     67  C   UNL     1       3.953 -16.290  -6.542  1.00  0.00     0.037 A 
BRANCH  54  68
ATOM     68  C   UNL     1       2.890 -11.877 -10.739  1.00  0.00     0.064 A 
ATOM     69  C   UNL     1       3.703 -11.457 -11.803  1.00  0.00     0.173 A 
ATOM     70  C   UNL     1       1.508 -11.964 -10.967  1.00  0.00     0.173 A 
ATOM     71  F   UNL     1       5.029 -11.346 -11.637  1.00  0.00    -0.203 F 
ATOM     72  C   UNL     1       3.151 -11.101 -13.031  1.00  0.00     0.198 A 
ATOM     73  C   UNL     1       0.963 -11.643 -12.208  1.00  0.00     0.198 A 
ATOM     74  F   UNL     1       0.684 -12.366  -9.988  1.00  0.00    -0.203 F 
ATOM     75  F   UNL     1       3.942 -10.642 -14.011  1.00  0.00    -0.200 F 
ATOM     76  C   UNL     1       1.783 -11.201 -13.235  1.00  0.00     0.200 A 
ATOM     77  F   UNL     1      -0.357 -11.756 -12.408  1.00  0.00    -0.200 F 
ATOM     78  F   UNL     1       1.254 -10.863 -14.419  1.00  0.00    -0.200 F 
ENDBRANCH  54  68
BRANCH  55  79
ATOM     79  C   UNL     1       6.659 -13.874  -1.688  1.00  0.00     0.064 A 
ATOM     80  C   UNL     1       7.773 -14.710  -1.521  1.00  0.00     0.173 A 
ATOM     81  C   UNL     1       6.064 -13.346  -0.533  1.00  0.00     0.173 A 
ATOM     82  F   UNL     1       8.365 -15.257  -2.593  1.00  0.00    -0.203 F 
ATOM     83  C   UNL     1       8.257 -15.023  -0.253  1.00  0.00     0.198 A 
ATOM     84  C   UNL     1       6.567 -13.635   0.734  1.00  0.00     0.198 A 
ATOM     85  F   UNL     1       4.998 -12.538  -0.636  1.00  0.00    -0.203 F 
ATOM     86  F   UNL     1       9.291 -15.865  -0.122  1.00  0.00    -0.200 F 
ATOM     87  C   UNL     1       7.657 -14.481   0.874  1.00  0.00     0.200 A 
ATOM     88  F   UNL     1       5.994 -13.097   1.819  1.00  0.00    -0.200 F 
ATOM     89  F   UNL     1       8.124 -14.780   2.094  1.00  0.00    -0.200 F 
ENDBRANCH  55  79
BRANCH  67  90
ATOM     90  C   UNL     1       3.670 -17.759  -6.659  1.00  0.00     0.064 A 
ATOM     91  C   UNL     1       2.636 -18.377  -5.942  1.00  0.00     0.173 A 
ATOM     92  C   UNL     1       4.395 -18.540  -7.574  1.00  0.00     0.173 A 
ATOM     93  F   UNL     1       1.924 -17.677  -5.046  1.00  0.00    -0.203 F 
ATOM     94  C   UNL     1       2.345 -19.725  -6.130  1.00  0.00     0.198 A 
ATOM     95  C   UNL     1       4.080 -19.879  -7.782  1.00  0.00     0.198 A 
ATOM     96  F   UNL     1       5.389 -17.994  -8.290  1.00  0.00    -0.203 F 
ATOM     97  F   UNL     1       1.373 -20.304  -5.411  1.00  0.00    -0.200 F 
ATOM     98  C   UNL     1       3.057 -20.472  -7.057  1.00  0.00     0.200 A 
ATOM     99  F   UNL     1       4.758 -20.593  -8.692  1.00  0.00    -0.200 F 
ATOM    100  F   UNL     1       2.758 -21.763  -7.253  1.00  0.00    -0.200 F 
ENDBRANCH  67  90
ENDBRANCH  41  42
ENDBRANCH  33  36
ENDBRANCH  31  32
ENDBRANCH  30  31
ENDBRANCH  29  30
ENDBRANCH  28  29
ENDBRANCH   1  28
TORSDOF 19
