REMARK SMILES Cc1cscc1C(=O)N1CC[C@H](C(=O)NCCCCCCNC(=O)c2ccc(-c3c4nc(c(-c5c(F)c(F)c(F)c(F)c5F)c5ccc([nH]5)c(-c5c(F)c(F)c(F)c(F)c5F)c5nc(c(-c6c(F)c(F)c(F)c(F)c6F)c6ccc3[nH]6)C=C5)C=C4)cc2)[C@H]1C
REMARK SMILES IDX 18 1 17 2 16 3 15 4 13 5 14 6 12 8 9 9 10 10 88 11 11 12
REMARK SMILES IDX 89 13 7 14 8 15 6 16 1 17 2 18 3 19 4 20 5 21 19 22 20 23
REMARK SMILES IDX 21 24 22 25 23 26 24 28 25 29 26 30 87 31 27 32 86 33 28 34
REMARK SMILES IDX 29 35 30 36 80 37 31 38 85 39 79 40 81 41 32 42 84 43 78 44
REMARK SMILES IDX 77 45 33 47 65 48 45 49 64 50 46 51 49 52 63 53 82 54 47 55
REMARK SMILES IDX 48 56 62 58 83 59 50 60 34 61 35 62 43 63 36 64 37 65 41 66
REMARK SMILES IDX 44 67 38 68 39 69 42 70 40 71 66 72 67 73 75 74 68 75 69 76
REMARK SMILES IDX 73 77 76 78 70 79 71 80 74 81 72 82 51 83 52 84 60 85 53 86
REMARK SMILES IDX 54 87 58 88 61 89 55 90 56 91 59 92 57 93
REMARK H PARENT 15 7 22 27 81 46 49 57
REMARK Flexibility Score: inf
ROOT
ATOM      1  C   UNL     1       8.998   5.830  -1.595  1.00  0.00     0.002 C 
ENDROOT
BRANCH   1   2
ATOM      2  C   UNL     1       8.739   4.377  -1.187  1.00  0.00     0.021 C 
BRANCH   2   3
ATOM      3  C   UNL     1       7.472   4.171  -0.366  1.00  0.00     0.116 C 
BRANCH   3   4
ATOM      4  N   UNL     1       6.292   4.600  -1.089  1.00  0.00    -0.356 N 
ATOM      5  C   UNL     1       5.138   3.919  -1.332  1.00  0.00     0.225 C 
ATOM      6  O   UNL     1       4.295   4.449  -2.051  1.00  0.00    -0.275 OA
ATOM      7  H   UNL     1       6.330   5.512  -1.457  1.00  0.00     0.163 HD
BRANCH   5   8
ATOM      8  C   UNL     1       4.984   2.530  -0.737  1.00  0.00     0.102 C 
ATOM      9  N   UNL     1       2.803   1.931   0.076  1.00  0.00    -0.335 N 
ATOM     10  C   UNL     1       3.467   2.737   1.078  1.00  0.00     0.121 C 
ATOM     11  C   UNL     1       3.646   1.865  -1.133  1.00  0.00     0.094 C 
ATOM     12  C   UNL     1       4.937   2.552   0.794  1.00  0.00     0.037 C 
ATOM     13  C   UNL     1       3.915   0.439  -1.612  1.00  0.00     0.032 C 
BRANCH   9  14
ATOM     14  C   UNL     1       1.440   2.177  -0.064  1.00  0.00     0.255 C 
ATOM     15  O   UNL     1       1.002   3.324  -0.144  1.00  0.00    -0.269 OA
BRANCH  14  16
ATOM     16  C   UNL     1       0.546   1.014  -0.045  1.00  0.00     0.053 A 
ATOM     17  C   UNL     1       2.006  -0.885   1.057  1.00  0.00     0.046 C 
ATOM     18  C   UNL     1       0.771  -0.347   0.413  1.00  0.00    -0.028 A 
ATOM     19  C   UNL     1      -0.359  -1.127   0.231  1.00  0.00     0.069 A 
ATOM     20  S   UNL     1      -1.691  -0.256  -0.371  1.00  0.00    -0.151 S 
ATOM     21  C   UNL     1      -0.777   1.177  -0.433  1.00  0.00     0.079 A 
ENDBRANCH  14  16
ENDBRANCH   9  14
ENDBRANCH   5   8
ENDBRANCH   3   4
ENDBRANCH   2   3
ENDBRANCH   1   2
BRANCH   1  22
ATOM     22  C   UNL     1       8.981   6.839  -0.443  1.00  0.00     0.002 C 
BRANCH  22  23
ATOM     23  C   UNL     1       9.932   6.519   0.711  1.00  0.00     0.021 C 
BRANCH  23  24
ATOM     24  C   UNL     1      11.385   6.321   0.297  1.00  0.00     0.116 C 
BRANCH  24  25
ATOM     25  N   UNL     1      11.944   7.508  -0.326  1.00  0.00    -0.352 N 
ATOM     26  C   UNL     1      13.107   8.175  -0.035  1.00  0.00     0.251 C 
ATOM     27  H   UNL     1      11.413   7.887  -1.063  1.00  0.00     0.163 HD
ATOM     28  O   UNL     1      13.336   9.268  -0.538  1.00  0.00    -0.269 OA
BRANCH  26  29
ATOM     29  C   UNL     1      14.075   7.578   0.909  1.00  0.00     0.039 A 
ATOM     30  C   UNL     1      14.653   8.395   1.883  1.00  0.00     0.014 A 
ATOM     31  C   UNL     1      14.415   6.224   0.832  1.00  0.00     0.014 A 
ATOM     32  C   UNL     1      15.533   7.841   2.814  1.00  0.00     0.010 A 
ATOM     33  C   UNL     1      15.230   5.659   1.809  1.00  0.00     0.010 A 
ATOM     34  C   UNL     1      15.804   6.463   2.805  1.00  0.00    -0.014 A 
BRANCH  34  35
ATOM     35  C   UNL     1      16.690   5.851   3.829  1.00  0.00     0.031 A 
ATOM     36  C   UNL     1      17.979   5.194   3.417  1.00  0.00     0.074 A 
ATOM     37  C   UNL     1      16.307   5.841   5.120  1.00  0.00     0.049 A 
ATOM     38  N   UNL     1      18.856   4.559   4.154  1.00  0.00    -0.248 NA
ATOM     39  C   UNL     1      18.318   5.230   1.985  1.00  0.00     0.031 C 
ATOM     40  C   UNL     1      15.056   6.401   5.636  1.00  0.00     0.029 A 
ATOM     41  N   UNL     1      16.925   5.332   6.236  1.00  0.00    -0.354 N 
ATOM     42  C   UNL     1      19.834   4.110   3.277  1.00  0.00     0.074 A 
ATOM     43  C   UNL     1      19.423   4.500   1.947  1.00  0.00     0.031 C 
ATOM     44  C   UNL     1      15.008   6.222   6.966  1.00  0.00     0.029 A 
ATOM     45  C   UNL     1      16.201   5.498   7.392  1.00  0.00     0.049 A 
ATOM     46  H   UNL     1      17.804   4.890   6.210  1.00  0.00     0.167 HD
ATOM     47  C   UNL     1      20.982   3.450   3.561  1.00  0.00     0.037 A 
ATOM     48  C   UNL     1      16.464   5.099   8.651  1.00  0.00     0.037 A 
ATOM     49  C   UNL     1      21.404   3.094   4.890  1.00  0.00     0.049 A 
ATOM     50  C   UNL     1      17.752   4.370   8.934  1.00  0.00     0.074 A 
ATOM     51  C   UNL     1      22.586   2.493   5.286  1.00  0.00     0.029 A 
ATOM     52  N   UNL     1      20.657   3.303   6.039  1.00  0.00    -0.354 N 
ATOM     53  N   UNL     1      18.709   4.026   8.106  1.00  0.00    -0.248 NA
ATOM     54  C   UNL     1      18.002   3.983  10.329  1.00  0.00     0.031 C 
ATOM     55  C   UNL     1      22.528   2.281   6.666  1.00  0.00     0.029 A 
ATOM     56  C   UNL     1      21.341   2.813   7.141  1.00  0.00     0.049 A 
ATOM     57  H   UNL     1      19.773   3.735   6.069  1.00  0.00     0.167 HD
ATOM     58  C   UNL     1      19.685   3.416   8.883  1.00  0.00     0.074 A 
ATOM     59  C   UNL     1      19.214   3.454  10.251  1.00  0.00     0.031 C 
ATOM     60  C   UNL     1      20.865   2.871   8.499  1.00  0.00     0.037 A 
BRANCH  47  61
ATOM     61  C   UNL     1      21.876   3.065   2.417  1.00  0.00     0.064 A 
ATOM     62  C   UNL     1      22.603   4.021   1.693  1.00  0.00     0.173 A 
ATOM     63  C   UNL     1      22.070   1.712   2.095  1.00  0.00     0.173 A 
ATOM     64  F   UNL     1      22.447   5.328   1.953  1.00  0.00    -0.203 F 
ATOM     65  C   UNL     1      23.479   3.639   0.679  1.00  0.00     0.198 A 
ATOM     66  C   UNL     1      22.969   1.332   1.103  1.00  0.00     0.198 A 
ATOM     67  F   UNL     1      21.402   0.757   2.760  1.00  0.00    -0.203 F 
ATOM     68  F   UNL     1      24.136   4.572  -0.023  1.00  0.00    -0.200 F 
ATOM     69  C   UNL     1      23.670   2.295   0.394  1.00  0.00     0.200 A 
ATOM     70  F   UNL     1      23.163   0.032   0.840  1.00  0.00    -0.200 F 
ATOM     71  F   UNL     1      24.528   1.928  -0.568  1.00  0.00    -0.200 F 
ENDBRANCH  47  61
BRANCH  48  72
ATOM     72  C   UNL     1      15.494   5.374   9.746  1.00  0.00     0.064 A 
ATOM     73  C   UNL     1      15.817   6.238  10.802  1.00  0.00     0.173 A 
ATOM     74  C   UNL     1      14.240   4.747   9.780  1.00  0.00     0.173 A 
ATOM     75  F   UNL     1      17.011   6.849  10.826  1.00  0.00    -0.203 F 
ATOM     76  C   UNL     1      14.942   6.431  11.869  1.00  0.00     0.198 A 
ATOM     77  C   UNL     1      13.350   4.970  10.829  1.00  0.00     0.198 A 
ATOM     78  F   UNL     1      13.876   3.917   8.792  1.00  0.00    -0.203 F 
ATOM     79  F   UNL     1      15.307   7.207  12.899  1.00  0.00    -0.200 F 
ATOM     80  C   UNL     1      13.708   5.800  11.880  1.00  0.00     0.200 A 
ATOM     81  F   UNL     1      12.152   4.370  10.826  1.00  0.00    -0.200 F 
ATOM     82  F   UNL     1      12.869   5.980  12.909  1.00  0.00    -0.200 F 
ENDBRANCH  48  72
BRANCH  60  83
ATOM     83  C   UNL     1      21.754   2.317   9.576  1.00  0.00     0.064 A 
ATOM     84  C   UNL     1      21.424   1.152  10.283  1.00  0.00     0.173 A 
ATOM     85  C   UNL     1      22.973   2.945   9.879  1.00  0.00     0.173 A 
ATOM     86  F   UNL     1      20.265   0.521  10.042  1.00  0.00    -0.203 F 
ATOM     87  C   UNL     1      22.264   0.656  11.277  1.00  0.00     0.198 A 
ATOM     88  C   UNL     1      23.828   2.425  10.846  1.00  0.00     0.198 A 
ATOM     89  F   UNL     1      23.342   4.057   9.225  1.00  0.00    -0.203 F 
ATOM     90  F   UNL     1      21.900  -0.426  11.980  1.00  0.00    -0.200 F 
ATOM     91  C   UNL     1      23.468   1.287  11.552  1.00  0.00     0.200 A 
ATOM     92  F   UNL     1      24.999   3.027  11.096  1.00  0.00    -0.200 F 
ATOM     93  F   UNL     1      24.278   0.803  12.502  1.00  0.00    -0.200 F 
ENDBRANCH  60  83
ENDBRANCH  34  35
ENDBRANCH  26  29
ENDBRANCH  24  25
ENDBRANCH  23  24
ENDBRANCH  22  23
ENDBRANCH   1  22
TORSDOF 15
