REMARK SMILES CC(C)(C)c1cc2c(cc1Cl)C=C(C(=O)NCCCCCCNC(=O)c1ccc(-c3c4nc(c(-c5c(F)c(F)c(F)c(F)c5F)c5ccc([nH]5)c(-c5c(F)c(F)c(F)c(F)c5F)c5nc(c(-c6c(F)c(F)c(F)c(F)c6F)c6ccc3[nH]6)C=C5)C=C4)cc1)[C@@H](C(F)(F)F)O2
REMARK SMILES IDX 20 1 19 2 18 3 17 4 16 5 14 6 15 7 13 9 5 10 6 11 10 12 7 13
REMARK SMILES IDX 9 14 11 15 8 16 94 17 12 18 89 19 2 20 1 21 3 22 4 23 90 24
REMARK SMILES IDX 91 25 92 26 93 27 21 28 22 29 23 30 24 31 25 33 26 34 27 35
REMARK SMILES IDX 88 36 28 37 87 38 29 39 30 40 31 41 81 42 32 43 86 44 80 45
REMARK SMILES IDX 82 46 33 47 85 48 79 49 78 50 34 52 66 53 46 54 65 55 47 56
REMARK SMILES IDX 50 57 64 58 83 59 48 60 49 61 63 63 84 64 51 65 35 66 36 67
REMARK SMILES IDX 44 68 37 69 38 70 42 71 45 72 39 73 40 74 43 75 41 76 67 77
REMARK SMILES IDX 68 78 76 79 69 80 70 81 74 82 77 83 71 84 72 85 75 86 73 87
REMARK SMILES IDX 52 88 53 89 61 90 54 91 55 92 59 93 62 94 56 95 57 96 60 97
REMARK SMILES IDX 58 98
REMARK H PARENT 16 8 23 32 82 51 50 62
REMARK Flexibility Score: inf
ROOT
ATOM      1  C   UNL     1       0.995  12.058   5.626  1.00  0.00     0.002 C 
ENDROOT
BRANCH   1   2
ATOM      2  C   UNL     1       0.115  10.888   6.085  1.00  0.00     0.002 C 
BRANCH   2   3
ATOM      3  C   UNL     1      -0.123   9.787   5.046  1.00  0.00     0.021 C 
BRANCH   3   4
ATOM      4  C   UNL     1       1.155   9.171   4.481  1.00  0.00     0.116 C 
BRANCH   4   5
ATOM      5  N   UNL     1       1.692   8.140   5.350  1.00  0.00    -0.352 N 
ATOM      6  C   UNL     1       1.974   6.818   5.273  1.00  0.00     0.251 C 
ATOM      7  O   UNL     1       2.479   6.332   6.290  1.00  0.00    -0.270 OA
ATOM      8  H   UNL     1       1.912   8.501   6.240  1.00  0.00     0.163 HD
BRANCH   6   9
ATOM      9  C   UNL     1       1.718   5.942   4.090  1.00  0.00     0.067 C 
ATOM     10  C   UNL     1       1.042   1.900   1.048  1.00  0.00    -0.020 A 
ATOM     11  C   UNL     1       0.744   3.285   1.001  1.00  0.00     0.053 A 
ATOM     12  C   UNL     1       1.683   1.454   2.224  1.00  0.00     0.045 A 
ATOM     13  C   UNL     1       1.062   4.163   2.036  1.00  0.00     0.128 A 
ATOM     14  C   UNL     1       1.988   2.348   3.274  1.00  0.00     0.032 A 
ATOM     15  Cl  UNL     1       2.142  -0.179   2.553  1.00  0.00    -0.084 Cl
ATOM     16  C   UNL     1       1.674   3.702   3.187  1.00  0.00     0.019 A 
ATOM     17  O   UNL     1       0.684   5.460   1.861  1.00  0.00    -0.475 OA
ATOM     18  C   UNL     1       1.913   4.625   4.289  1.00  0.00     0.025 C 
ATOM     19  C   UNL     1       1.296   6.444   2.736  1.00  0.00     0.314 C 
BRANCH  10  20
ATOM     20  C   UNL     1       0.585   1.065  -0.174  1.00  0.00    -0.012 C 
ATOM     21  C   UNL     1       0.986  -0.422  -0.222  1.00  0.00     0.016 C 
ATOM     22  C   UNL     1       1.154   1.687  -1.478  1.00  0.00     0.016 C 
ATOM     23  C   UNL     1      -0.962   1.101  -0.237  1.00  0.00     0.016 C 
ENDBRANCH  10  20
BRANCH  19  24
ATOM     24  C   UNL     1       2.443   7.139   1.980  1.00  0.00     0.429 C 
ATOM     25  F   UNL     1       1.959   7.830   0.917  1.00  0.00    -0.167 F 
ATOM     26  F   UNL     1       3.102   8.038   2.747  1.00  0.00    -0.167 F 
ATOM     27  F   UNL     1       3.362   6.265   1.513  1.00  0.00    -0.167 F 
ENDBRANCH  19  24
ENDBRANCH   6   9
ENDBRANCH   4   5
ENDBRANCH   3   4
ENDBRANCH   2   3
ENDBRANCH   1   2
BRANCH   1  28
ATOM     28  C   UNL     1       0.638  12.667   4.268  1.00  0.00     0.021 C 
BRANCH  28  29
ATOM     29  C   UNL     1      -0.789  13.187   4.149  1.00  0.00     0.116 C 
BRANCH  29  30
ATOM     30  N   UNL     1      -1.053  14.310   5.033  1.00  0.00    -0.352 N 
ATOM     31  C   UNL     1      -1.589  15.539   4.736  1.00  0.00     0.251 C 
ATOM     32  H   UNL     1      -0.813  14.170   5.978  1.00  0.00     0.163 HD
ATOM     33  O   UNL     1      -1.613  16.430   5.580  1.00  0.00    -0.269 OA
BRANCH  31  34
ATOM     34  C   UNL     1      -2.107  15.797   3.376  1.00  0.00     0.039 A 
ATOM     35  C   UNL     1      -2.955  14.879   2.752  1.00  0.00     0.014 A 
ATOM     36  C   UNL     1      -1.711  16.959   2.708  1.00  0.00     0.014 A 
ATOM     37  C   UNL     1      -3.277  15.043   1.409  1.00  0.00     0.010 A 
ATOM     38  C   UNL     1      -2.098  17.159   1.380  1.00  0.00     0.010 A 
ATOM     39  C   UNL     1      -2.844  16.179   0.706  1.00  0.00    -0.014 A 
BRANCH  39  40
ATOM     40  C   UNL     1      -3.166  16.313  -0.737  1.00  0.00     0.031 A 
ATOM     41  C   UNL     1      -2.076  16.263  -1.773  1.00  0.00     0.074 A 
ATOM     42  C   UNL     1      -4.453  16.420  -1.117  1.00  0.00     0.049 A 
ATOM     43  N   UNL     1      -2.172  16.351  -3.077  1.00  0.00    -0.248 NA
ATOM     44  C   UNL     1      -0.699  16.094  -1.285  1.00  0.00     0.031 C 
ATOM     45  C   UNL     1      -5.597  16.461  -0.206  1.00  0.00     0.029 A 
ATOM     46  N   UNL     1      -5.018  16.487  -2.365  1.00  0.00    -0.354 N 
ATOM     47  C   UNL     1      -0.873  16.264  -3.560  1.00  0.00     0.074 A 
ATOM     48  C   UNL     1      -0.001  16.143  -2.412  1.00  0.00     0.031 C 
ATOM     49  C   UNL     1      -6.729  16.492  -0.924  1.00  0.00     0.029 A 
ATOM     50  C   UNL     1      -6.390  16.532  -2.344  1.00  0.00     0.049 A 
ATOM     51  H   UNL     1      -4.491  16.501  -3.196  1.00  0.00     0.167 HD
ATOM     52  C   UNL     1      -0.449  16.272  -4.847  1.00  0.00     0.037 A 
ATOM     53  C   UNL     1      -7.277  16.609  -3.353  1.00  0.00     0.037 A 
ATOM     54  C   UNL     1      -1.319  16.368  -5.989  1.00  0.00     0.049 A 
ATOM     55  C   UNL     1      -6.776  16.658  -4.768  1.00  0.00     0.074 A 
ATOM     56  C   UNL     1      -0.983  16.367  -7.332  1.00  0.00     0.029 A 
ATOM     57  N   UNL     1      -2.700  16.475  -5.923  1.00  0.00    -0.354 N 
ATOM     58  N   UNL     1      -5.545  16.583  -5.211  1.00  0.00    -0.248 NA
ATOM     59  C   UNL     1      -7.786  16.817  -5.823  1.00  0.00     0.031 C 
ATOM     60  C   UNL     1      -2.157  16.510  -8.078  1.00  0.00     0.029 A 
ATOM     61  C   UNL     1      -3.229  16.559  -7.201  1.00  0.00     0.049 A 
ATOM     62  H   UNL     1      -3.227  16.489  -5.092  1.00  0.00     0.167 HD
ATOM     63  C   UNL     1      -5.630  16.679  -6.592  1.00  0.00     0.074 A 
ATOM     64  C   UNL     1      -7.037  16.795  -6.917  1.00  0.00     0.031 C 
ATOM     65  C   UNL     1      -4.631  16.679  -7.507  1.00  0.00     0.037 A 
BRANCH  52  66
ATOM     66  C   UNL     1       1.027  16.179  -5.098  1.00  0.00     0.064 A 
ATOM     67  C   UNL     1       1.724  14.973  -4.934  1.00  0.00     0.173 A 
ATOM     68  C   UNL     1       1.740  17.291  -5.574  1.00  0.00     0.173 A 
ATOM     69  F   UNL     1       1.090  13.885  -4.471  1.00  0.00    -0.203 F 
ATOM     70  C   UNL     1       3.083  14.886  -5.227  1.00  0.00     0.198 A 
ATOM     71  C   UNL     1       3.093  17.194  -5.887  1.00  0.00     0.198 A 
ATOM     72  F   UNL     1       1.118  18.466  -5.752  1.00  0.00    -0.203 F 
ATOM     73  F   UNL     1       3.735  13.731  -5.036  1.00  0.00    -0.200 F 
ATOM     74  C   UNL     1       3.764  15.993  -5.711  1.00  0.00     0.200 A 
ATOM     75  F   UNL     1       3.747  18.262  -6.365  1.00  0.00    -0.200 F 
ATOM     76  F   UNL     1       5.068  15.904  -6.004  1.00  0.00    -0.200 F 
ENDBRANCH  52  66
BRANCH  53  77
ATOM     77  C   UNL     1      -8.730  16.635  -3.051  1.00  0.00     0.064 A 
ATOM     78  C   UNL     1      -9.544  15.535  -3.348  1.00  0.00     0.173 A 
ATOM     79  C   UNL     1      -9.325  17.742  -2.429  1.00  0.00     0.173 A 
ATOM     80  F   UNL     1      -9.023  14.462  -3.961  1.00  0.00    -0.203 F 
ATOM     81  C   UNL     1     -10.902  15.541  -3.034  1.00  0.00     0.198 A 
ATOM     82  C   UNL     1     -10.676  17.737  -2.092  1.00  0.00     0.198 A 
ATOM     83  F   UNL     1      -8.585  18.818  -2.123  1.00  0.00    -0.203 F 
ATOM     84  F   UNL     1     -11.665  14.486  -3.351  1.00  0.00    -0.200 F 
ATOM     85  C   UNL     1     -11.464  16.638  -2.399  1.00  0.00     0.200 A 
ATOM     86  F   UNL     1     -11.212  18.793  -1.465  1.00  0.00    -0.200 F 
ATOM     87  F   UNL     1     -12.766  16.637  -2.083  1.00  0.00    -0.200 F 
ENDBRANCH  53  77
BRANCH  65  88
ATOM     88  C   UNL     1      -5.019  16.802  -8.949  1.00  0.00     0.064 A 
ATOM     89  C   UNL     1      -5.434  18.028  -9.489  1.00  0.00     0.173 A 
ATOM     90  C   UNL     1      -4.918  15.701  -9.812  1.00  0.00     0.173 A 
ATOM     91  F   UNL     1      -5.560  19.105  -8.698  1.00  0.00    -0.203 F 
ATOM     92  C   UNL     1      -5.748  18.144 -10.840  1.00  0.00     0.198 A 
ATOM     93  C   UNL     1      -5.209  15.827 -11.168  1.00  0.00     0.198 A 
ATOM     94  F   UNL     1      -4.520  14.509  -9.344  1.00  0.00    -0.203 F 
ATOM     95  F   UNL     1      -6.173  19.317 -11.329  1.00  0.00    -0.200 F 
ATOM     96  C   UNL     1      -5.627  17.047 -11.679  1.00  0.00     0.200 A 
ATOM     97  F   UNL     1      -5.082  14.768 -11.980  1.00  0.00    -0.200 F 
ATOM     98  F   UNL     1      -5.918  17.163 -12.982  1.00  0.00    -0.200 F 
ENDBRANCH  65  88
ENDBRANCH  39  40
ENDBRANCH  31  34
ENDBRANCH  29  30
ENDBRANCH  28  29
ENDBRANCH   1  28
TORSDOF 15
