REMARK SMILES O=C(NCCCCCCNC(=O)c1cc(=O)[nH]c2c(Br)cccc12)c1ccc(-c2c3nc(c(-c4c(F)c(F)c(F)c(F)c4F)c4ccc([nH]4)c(-c4c(F)c(F)c(F)c(F)c4F)c4nc(c(-c5c(F)c(F)c(F)c(F)c5F)c5ccc2[nH]5)C=C4)C=C3)cc1
REMARK SMILES IDX 5 1 4 2 3 3 1 4 2 5 25 7 26 8 87 9 27 10 86 11 28 12 29 13
REMARK SMILES IDX 30 14 80 15 31 16 85 17 79 18 81 19 32 20 84 21 78 22 77 23
REMARK SMILES IDX 33 25 65 26 45 27 64 28 46 29 49 30 63 31 82 32 47 33 48 34
REMARK SMILES IDX 62 36 83 37 50 38 34 39 35 40 43 41 36 42 37 43 41 44 44 45
REMARK SMILES IDX 38 46 39 47 42 48 40 49 66 50 67 51 75 52 68 53 69 54 73 55
REMARK SMILES IDX 76 56 70 57 71 58 74 59 72 60 51 61 52 62 60 63 53 64 54 65
REMARK SMILES IDX 58 66 61 67 55 68 56 69 59 70 57 71 6 72 7 73 8 74 9 75
REMARK SMILES IDX 10 76 11 77 12 79 13 80 14 81 24 82 15 83 18 84 23 85 16 86
REMARK SMILES IDX 17 87 19 88 22 89 20 91 21 92
REMARK H PARENT 3 6 81 24 49 35 10 78 17 90
REMARK Flexibility Score: inf
ROOT
ATOM      1  C   UNL     1       4.731  -2.381  -1.255  1.00  0.00     0.021 C 
ENDROOT
BRANCH   1   2
ATOM      2  C   UNL     1       4.485  -0.909  -0.961  1.00  0.00     0.116 C 
BRANCH   2   3
ATOM      3  N   UNL     1       3.072  -0.580  -0.935  1.00  0.00    -0.352 N 
ATOM      4  O   UNL     1       1.097   0.008  -0.035  1.00  0.00    -0.269 OA
ATOM      5  C   UNL     1       2.320  -0.021   0.065  1.00  0.00     0.251 C 
ATOM      6  H   UNL     1       2.579  -0.789  -1.762  1.00  0.00     0.163 HD
BRANCH   5   7
ATOM      7  C   UNL     1       2.970   0.544   1.268  1.00  0.00     0.039 A 
ATOM      8  C   UNL     1       2.338   0.394   2.505  1.00  0.00     0.014 A 
ATOM      9  C   UNL     1       4.161   1.272   1.180  1.00  0.00     0.014 A 
ATOM     10  C   UNL     1       2.897   0.973   3.645  1.00  0.00     0.010 A 
ATOM     11  C   UNL     1       4.774   1.752   2.332  1.00  0.00     0.010 A 
ATOM     12  C   UNL     1       4.120   1.659   3.567  1.00  0.00    -0.014 A 
BRANCH  12  13
ATOM     13  C   UNL     1       4.658   2.387   4.744  1.00  0.00     0.031 A 
ATOM     14  C   UNL     1       4.777   3.888   4.696  1.00  0.00     0.074 A 
ATOM     15  C   UNL     1       5.027   1.714   5.849  1.00  0.00     0.049 A 
ATOM     16  N   UNL     1       5.198   4.716   5.619  1.00  0.00    -0.248 NA
ATOM     17  C   UNL     1       4.401   4.548   3.435  1.00  0.00     0.031 C 
ATOM     18  C   UNL     1       4.993   0.261   6.002  1.00  0.00     0.029 A 
ATOM     19  N   UNL     1       5.491   2.167   7.059  1.00  0.00    -0.354 N 
ATOM     20  C   UNL     1       5.144   5.979   5.044  1.00  0.00     0.074 A 
ATOM     21  C   UNL     1       4.734   5.806   3.671  1.00  0.00     0.031 C 
ATOM     22  C   UNL     1       5.369  -0.057   7.252  1.00  0.00     0.029 A 
ATOM     23  C   UNL     1       5.704   1.167   7.976  1.00  0.00     0.049 A 
ATOM     24  H   UNL     1       5.656   3.119   7.251  1.00  0.00     0.167 HD
ATOM     25  C   UNL     1       5.368   7.182   5.621  1.00  0.00     0.037 A 
ATOM     26  C   UNL     1       6.112   1.233   9.258  1.00  0.00     0.037 A 
ATOM     27  C   UNL     1       5.731   7.352   7.000  1.00  0.00     0.049 A 
ATOM     28  C   UNL     1       6.388   2.579   9.874  1.00  0.00     0.074 A 
ATOM     29  C   UNL     1       5.912   8.529   7.702  1.00  0.00     0.029 A 
ATOM     30  N   UNL     1       5.967   6.312   7.887  1.00  0.00    -0.354 N 
ATOM     31  N   UNL     1       6.254   3.771   9.345  1.00  0.00    -0.248 NA
ATOM     32  C   UNL     1       6.873   2.591  11.262  1.00  0.00     0.031 C 
ATOM     33  C   UNL     1       6.316   8.202   8.999  1.00  0.00     0.029 A 
ATOM     34  C   UNL     1       6.335   6.821   9.120  1.00  0.00     0.049 A 
ATOM     35  H   UNL     1       5.885   5.355   7.671  1.00  0.00     0.167 HD
ATOM     36  C   UNL     1       6.625   4.673  10.334  1.00  0.00     0.074 A 
ATOM     37  C   UNL     1       6.972   3.892  11.503  1.00  0.00     0.031 C 
ATOM     38  C   UNL     1       6.678   6.026  10.273  1.00  0.00     0.037 A 
BRANCH  25  39
ATOM     39  C   UNL     1       5.210   8.406   4.766  1.00  0.00     0.064 A 
ATOM     40  C   UNL     1       3.954   8.813   4.289  1.00  0.00     0.173 A 
ATOM     41  C   UNL     1       6.320   9.201   4.447  1.00  0.00     0.173 A 
ATOM     42  F   UNL     1       2.861   8.082   4.555  1.00  0.00    -0.203 F 
ATOM     43  C   UNL     1       3.821   9.949   3.496  1.00  0.00     0.198 A 
ATOM     44  C   UNL     1       6.179  10.357   3.684  1.00  0.00     0.198 A 
ATOM     45  F   UNL     1       7.543   8.863   4.883  1.00  0.00    -0.203 F 
ATOM     46  F   UNL     1       2.621  10.284   3.004  1.00  0.00    -0.200 F 
ATOM     47  C   UNL     1       4.932  10.725   3.201  1.00  0.00     0.200 A 
ATOM     48  F   UNL     1       7.251  11.114   3.412  1.00  0.00    -0.200 F 
ATOM     49  F   UNL     1       4.802  11.823   2.444  1.00  0.00    -0.200 F 
ENDBRANCH  25  39
BRANCH  26  50
ATOM     50  C   UNL     1       6.235  -0.020  10.048  1.00  0.00     0.064 A 
ATOM     51  C   UNL     1       5.328  -0.312  11.075  1.00  0.00     0.173 A 
ATOM     52  C   UNL     1       7.224  -0.973   9.760  1.00  0.00     0.173 A 
ATOM     53  F   UNL     1       4.377   0.576  11.401  1.00  0.00    -0.203 F 
ATOM     54  C   UNL     1       5.401  -1.511  11.781  1.00  0.00     0.198 A 
ATOM     55  C   UNL     1       7.280  -2.183  10.449  1.00  0.00     0.198 A 
ATOM     56  F   UNL     1       8.114  -0.743   8.784  1.00  0.00    -0.203 F 
ATOM     57  F   UNL     1       4.533  -1.758  12.772  1.00  0.00    -0.200 F 
ATOM     58  C   UNL     1       6.370  -2.450  11.460  1.00  0.00     0.200 A 
ATOM     59  F   UNL     1       8.207  -3.094  10.124  1.00  0.00    -0.200 F 
ATOM     60  F   UNL     1       6.426  -3.613  12.125  1.00  0.00    -0.200 F 
ENDBRANCH  26  50
BRANCH  38  61
ATOM     61  C   UNL     1       7.141   6.770  11.491  1.00  0.00     0.064 A 
ATOM     62  C   UNL     1       8.495   6.793  11.853  1.00  0.00     0.173 A 
ATOM     63  C   UNL     1       6.251   7.577  12.216  1.00  0.00     0.173 A 
ATOM     64  F   UNL     1       9.383   6.031  11.196  1.00  0.00    -0.203 F 
ATOM     65  C   UNL     1       8.943   7.603  12.893  1.00  0.00     0.198 A 
ATOM     66  C   UNL     1       6.706   8.407  13.236  1.00  0.00     0.198 A 
ATOM     67  F   UNL     1       4.947   7.598  11.900  1.00  0.00    -0.203 F 
ATOM     68  F   UNL     1      10.240   7.602  13.229  1.00  0.00    -0.200 F 
ATOM     69  C   UNL     1       8.052   8.421  13.572  1.00  0.00     0.200 A 
ATOM     70  F   UNL     1       5.848   9.213  13.877  1.00  0.00    -0.200 F 
ATOM     71  F   UNL     1       8.491   9.227  14.548  1.00  0.00    -0.200 F 
ENDBRANCH  38  61
ENDBRANCH  12  13
ENDBRANCH   5   7
ENDBRANCH   2   3
ENDBRANCH   1   2
BRANCH   1  72
ATOM     72  C   UNL     1       4.248  -2.847  -2.628  1.00  0.00     0.002 C 
BRANCH  72  73
ATOM     73  C   UNL     1       4.793  -2.051  -3.817  1.00  0.00     0.002 C 
BRANCH  73  74
ATOM     74  C   UNL     1       6.319  -1.923  -3.880  1.00  0.00     0.021 C 
BRANCH  74  75
ATOM     75  C   UNL     1       7.078  -3.245  -3.823  1.00  0.00     0.116 C 
BRANCH  75  76
ATOM     76  N   UNL     1       6.735  -4.119  -4.931  1.00  0.00    -0.352 N 
ATOM     77  C   UNL     1       7.549  -4.714  -5.849  1.00  0.00     0.252 C 
ATOM     78  H   UNL     1       5.774  -4.309  -5.035  1.00  0.00     0.163 HD
ATOM     79  O   UNL     1       7.066  -5.341  -6.787  1.00  0.00    -0.269 OA
BRANCH  77  80
ATOM     80  C   UNL     1       9.017  -4.561  -5.698  1.00  0.00     0.054 A 
ATOM     81  C   UNL     1       9.556  -5.080  -4.583  1.00  0.00     0.086 A 
ATOM     82  C   UNL     1       9.874  -3.948  -6.726  1.00  0.00     0.012 A 
ATOM     83  C   UNL     1      10.996  -4.947  -4.303  1.00  0.00     0.249 A 
ATOM     84  C   UNL     1      11.255  -3.867  -6.482  1.00  0.00     0.063 A 
ATOM     85  C   UNL     1       9.369  -3.439  -7.931  1.00  0.00     0.011 A 
ATOM     86  O   UNL     1      11.460  -5.339  -3.236  1.00  0.00    -0.270 OA
ATOM     87  N   UNL     1      11.760  -4.360  -5.266  1.00  0.00    -0.321 N 
ATOM     88  C   UNL     1      12.111  -3.298  -7.435  1.00  0.00     0.042 A 
ATOM     89  C   UNL     1      10.225  -2.873  -8.879  1.00  0.00     0.002 A 
ATOM     90  H   UNL     1      12.727  -4.276  -5.100  1.00  0.00     0.170 HD
ATOM     91  Br  UNL     1      13.983  -3.184  -7.144  1.00  0.00    -0.049 Br
ATOM     92  C   UNL     1      11.596  -2.804  -8.633  1.00  0.00     0.018 A 
ENDBRANCH  77  80
ENDBRANCH  75  76
ENDBRANCH  74  75
ENDBRANCH  73  74
ENDBRANCH  72  73
ENDBRANCH   1  72
TORSDOF 13
