REMARK SMILES NC(=S)S/C=C/C(=O)NCCCCCCNC(=O)c1ccc(-c2c3nc(c(-c4c(F)c(F)c(F)c(F)c4F)c4ccc([nH]4)c(-c4c(F)c(F)c(F)c(F)c4F)c4nc(c(-c5c(F)c(F)c(F)c(F)c5F)c5ccc2[nH]5)C=C4)C=C3)cc1
REMARK SMILES IDX 12 1 11 2 10 3 9 4 7 5 8 6 6 8 5 9 4 10 2 11 3 12 1 13 13 16
REMARK SMILES IDX 14 17 15 18 16 19 17 20 18 22 19 23 20 24 81 25 21 26 80 27
REMARK SMILES IDX 22 28 23 29 24 30 74 31 25 32 79 33 73 34 75 35 26 36 78 37
REMARK SMILES IDX 72 38 71 39 27 41 59 42 39 43 58 44 40 45 43 46 57 47 76 48
REMARK SMILES IDX 41 49 42 50 56 52 77 53 44 54 28 55 29 56 37 57 30 58 31 59
REMARK SMILES IDX 35 60 38 61 32 62 33 63 36 64 34 65 60 66 61 67 69 68 62 69
REMARK SMILES IDX 63 70 67 71 70 72 64 73 65 74 68 75 66 76 45 77 46 78 54 79
REMARK SMILES IDX 47 80 48 81 52 82 55 83 49 84 50 85 53 86 51 87
REMARK H PARENT 9 7 1 14 1 15 16 21 75 40 43 51
REMARK Flexibility Score: inf
ROOT
ATOM      1  C   UNL     1      -0.938   8.316   3.504  1.00  0.00     0.002 C 
ENDROOT
BRANCH   1   2
ATOM      2  C   UNL     1      -0.146   7.147   2.899  1.00  0.00     0.021 C 
BRANCH   2   3
ATOM      3  C   UNL     1      -0.420   5.801   3.571  1.00  0.00     0.116 C 
BRANCH   3   4
ATOM      4  N   UNL     1      -1.742   5.329   3.207  1.00  0.00    -0.353 N 
ATOM      5  C   UNL     1      -2.173   4.202   2.587  1.00  0.00     0.244 C 
ATOM      6  O   UNL     1      -3.378   4.048   2.403  1.00  0.00    -0.270 OA
ATOM      7  H   UNL     1      -2.467   5.946   3.457  1.00  0.00     0.163 HD
BRANCH   5   8
ATOM      8  C   UNL     1      -1.244   3.103   2.255  1.00  0.00     0.078 C 
ATOM      9  C   UNL     1      -0.098   3.226   1.574  1.00  0.00     0.054 C 
BRANCH   9  10
ATOM     10  S   UNL     1       1.001   1.914   1.308  1.00  0.00    -0.069 SA
BRANCH  10  11
ATOM     11  C   UNL     1       0.199   0.701   0.343  1.00  0.00     0.135 C 
ATOM     12  S   UNL     1      -1.394   0.523  -0.082  1.00  0.00    -0.053 S 
BRANCH  11  13
ATOM     13  N   UNL     1       1.109  -0.222  -0.075  1.00  0.00    -0.384 N 
ATOM     14  H   UNL     1       0.821  -0.980  -0.634  1.00  0.00     0.158 HD
ATOM     15  H   UNL     1       2.055  -0.132   0.181  1.00  0.00     0.158 HD
ENDBRANCH  11  13
ENDBRANCH  10  11
ENDBRANCH   9  10
ENDBRANCH   5   8
ENDBRANCH   3   4
ENDBRANCH   2   3
ENDBRANCH   1   2
BRANCH   1  16
ATOM     16  C   UNL     1      -0.663   8.589   4.988  1.00  0.00     0.002 C 
BRANCH  16  17
ATOM     17  C   UNL     1       0.813   8.779   5.345  1.00  0.00     0.021 C 
BRANCH  17  18
ATOM     18  C   UNL     1       1.493   9.931   4.614  1.00  0.00     0.116 C 
BRANCH  18  19
ATOM     19  N   UNL     1       0.927  11.218   4.984  1.00  0.00    -0.352 N 
ATOM     20  C   UNL     1       1.552  12.330   5.489  1.00  0.00     0.251 C 
ATOM     21  H   UNL     1      -0.045  11.304   4.854  1.00  0.00     0.163 HD
ATOM     22  O   UNL     1       0.896  13.255   5.952  1.00  0.00    -0.269 OA
BRANCH  20  23
ATOM     23  C   UNL     1       3.029  12.403   5.488  1.00  0.00     0.039 A 
ATOM     24  C   UNL     1       3.684  12.873   6.628  1.00  0.00     0.014 A 
ATOM     25  C   UNL     1       3.763  12.023   4.361  1.00  0.00     0.014 A 
ATOM     26  C   UNL     1       5.079  12.908   6.658  1.00  0.00     0.010 A 
ATOM     27  C   UNL     1       5.152  11.986   4.419  1.00  0.00     0.010 A 
ATOM     28  C   UNL     1       5.825  12.435   5.566  1.00  0.00    -0.014 A 
BRANCH  28  29
ATOM     29  C   UNL     1       7.309  12.405   5.603  1.00  0.00     0.031 A 
ATOM     30  C   UNL     1       8.106  13.245   4.644  1.00  0.00     0.074 A 
ATOM     31  C   UNL     1       7.936  11.577   6.461  1.00  0.00     0.049 A 
ATOM     32  N   UNL     1       9.404  13.311   4.482  1.00  0.00    -0.248 NA
ATOM     33  C   UNL     1       7.343  14.107   3.727  1.00  0.00     0.031 C 
ATOM     34  C   UNL     1       7.271  10.682   7.410  1.00  0.00     0.029 A 
ATOM     35  N   UNL     1       9.273  11.347   6.668  1.00  0.00    -0.354 N 
ATOM     36  C   UNL     1       9.609  14.205   3.439  1.00  0.00     0.074 A 
ATOM     37  C   UNL     1       8.304  14.615   2.970  1.00  0.00     0.031 C 
ATOM     38  C   UNL     1       8.202  10.021   8.116  1.00  0.00     0.029 A 
ATOM     39  C   UNL     1       9.526  10.411   7.641  1.00  0.00     0.049 A 
ATOM     40  H   UNL     1       9.983  11.808   6.167  1.00  0.00     0.167 HD
ATOM     41  C   UNL     1      10.781  14.659   2.935  1.00  0.00     0.037 A 
ATOM     42  C   UNL     1      10.694   9.918   8.094  1.00  0.00     0.037 A 
ATOM     43  C   UNL     1      12.077  14.265   3.422  1.00  0.00     0.049 A 
ATOM     44  C   UNL     1      11.982  10.428   7.503  1.00  0.00     0.074 A 
ATOM     45  C   UNL     1      13.323  14.716   3.023  1.00  0.00     0.029 A 
ATOM     46  N   UNL     1      12.294  13.319   4.415  1.00  0.00    -0.354 N 
ATOM     47  N   UNL     1      12.165  11.329   6.569  1.00  0.00    -0.248 NA
ATOM     48  C   UNL     1      13.226   9.855   8.035  1.00  0.00     0.031 C 
ATOM     49  C   UNL     1      14.294  14.002   3.732  1.00  0.00     0.029 A 
ATOM     50  C   UNL     1      13.654  13.152   4.619  1.00  0.00     0.049 A 
ATOM     51  H   UNL     1      11.586  12.839   4.902  1.00  0.00     0.167 HD
ATOM     52  C   UNL     1      13.540  11.456   6.425  1.00  0.00     0.074 A 
ATOM     53  C   UNL     1      14.144  10.550   7.380  1.00  0.00     0.031 C 
ATOM     54  C   UNL     1      14.240  12.252   5.580  1.00  0.00     0.037 A 
BRANCH  41  55
ATOM     55  C   UNL     1      10.719  15.633   1.792  1.00  0.00     0.064 A 
ATOM     56  C   UNL     1      10.245  16.943   1.963  1.00  0.00     0.173 A 
ATOM     57  C   UNL     1      11.180  15.265   0.519  1.00  0.00     0.173 A 
ATOM     58  F   UNL     1       9.783  17.344   3.157  1.00  0.00    -0.203 F 
ATOM     59  C   UNL     1      10.207  17.837   0.896  1.00  0.00     0.198 A 
ATOM     60  C   UNL     1      11.172  16.172  -0.537  1.00  0.00     0.198 A 
ATOM     61  F   UNL     1      11.649  14.027   0.300  1.00  0.00    -0.203 F 
ATOM     62  F   UNL     1       9.703  19.066   1.072  1.00  0.00    -0.200 F 
ATOM     63  C   UNL     1      10.678  17.454  -0.351  1.00  0.00     0.200 A 
ATOM     64  F   UNL     1      11.642  15.804  -1.738  1.00  0.00    -0.200 F 
ATOM     65  F   UNL     1      10.651  18.319  -1.374  1.00  0.00    -0.200 F 
ENDBRANCH  41  55
BRANCH  42  66
ATOM     66  C   UNL     1      10.706   8.900   9.178  1.00  0.00     0.064 A 
ATOM     67  C   UNL     1      11.211   9.208  10.449  1.00  0.00     0.173 A 
ATOM     68  C   UNL     1      10.227   7.598   8.965  1.00  0.00     0.173 A 
ATOM     69  F   UNL     1      11.699  10.433  10.696  1.00  0.00    -0.203 F 
ATOM     70  C   UNL     1      11.263   8.247  11.457  1.00  0.00     0.198 A 
ATOM     71  C   UNL     1      10.249   6.648   9.983  1.00  0.00     0.198 A 
ATOM     72  F   UNL     1       9.728   7.253   7.770  1.00  0.00    -0.203 F 
ATOM     73  F   UNL     1      11.801   8.554  12.645  1.00  0.00    -0.200 F 
ATOM     74  C   UNL     1      10.777   6.970  11.225  1.00  0.00     0.200 A 
ATOM     75  F   UNL     1       9.764   5.419   9.760  1.00  0.00    -0.200 F 
ATOM     76  F   UNL     1      10.825   6.046  12.195  1.00  0.00    -0.200 F 
ENDBRANCH  42  66
BRANCH  54  77
ATOM     77  C   UNL     1      15.739  12.212   5.677  1.00  0.00     0.064 A 
ATOM     78  C   UNL     1      16.478  11.098   5.253  1.00  0.00     0.173 A 
ATOM     79  C   UNL     1      16.446  13.322   6.164  1.00  0.00     0.173 A 
ATOM     80  F   UNL     1      15.849  10.005   4.793  1.00  0.00    -0.203 F 
ATOM     81  C   UNL     1      17.868  11.085   5.342  1.00  0.00     0.198 A 
ATOM     82  C   UNL     1      17.837  13.320   6.218  1.00  0.00     0.198 A 
ATOM     83  F   UNL     1      15.788  14.417   6.575  1.00  0.00    -0.203 F 
ATOM     84  F   UNL     1      18.550   9.989   4.981  1.00  0.00    -0.200 F 
ATOM     85  C   UNL     1      18.546  12.198   5.816  1.00  0.00     0.200 A 
ATOM     86  F   UNL     1      18.491  14.403   6.661  1.00  0.00    -0.200 F 
ATOM     87  F   UNL     1      19.884  12.188   5.891  1.00  0.00    -0.200 F 
ENDBRANCH  54  77
ENDBRANCH  28  29
ENDBRANCH  20  23
ENDBRANCH  18  19
ENDBRANCH  17  18
ENDBRANCH  16  17
ENDBRANCH   1  16
TORSDOF 16
