REMARK SMILES CCNC(=O)NC(=O)[C@@H](C)[N@H+](C)CC(=O)NCCCCCCNC(=O)c1ccc(-c2c3nc(c(-c4c(F)c(F)c(F)c(F)c4F)c4ccc([nH]4)c(-c4c(F)c(F)c(F)c(F)c4F)c4nc(c(-c5c(F)c(F)c(F)c(F)c5F)c5ccc2[nH]5)C=C4)C=C3)cc1
REMARK SMILES IDX 18 1 17 2 16 3 14 4 15 5 13 7 11 8 12 9 9 11 10 12 7 13 3 14
REMARK SMILES IDX 4 15 5 17 6 18 8 20 2 21 1 22 19 23 20 24 21 25 22 26 23 27
REMARK SMILES IDX 24 28 25 30 26 31 27 32 88 33 28 34 87 35 29 36 30 37 31 38
REMARK SMILES IDX 81 39 32 40 86 41 80 42 82 43 33 44 85 45 79 46 78 47 34 49
REMARK SMILES IDX 66 50 46 51 65 52 47 53 50 54 64 55 83 56 48 57 49 58 63 60
REMARK SMILES IDX 84 61 51 62 35 63 36 64 44 65 37 66 38 67 42 68 45 69 39 70
REMARK SMILES IDX 40 71 43 72 41 73 67 74 68 75 76 76 69 77 70 78 74 79 77 80
REMARK SMILES IDX 71 81 72 82 75 83 73 84 52 85 53 86 61 87 54 88 55 89 59 90
REMARK SMILES IDX 62 91 56 92 57 93 60 94 58 95
REMARK H PARENT 16 6 11 10 3 16 6 19 23 29 82 48 50 59
REMARK Flexibility Score: inf
ROOT
ATOM      1  C   UNL     1       3.010  -0.882   1.702  1.00  0.00     0.021 C 
ENDROOT
BRANCH   1   2
ATOM      2  C   UNL     1       3.288   0.361   2.551  1.00  0.00     0.116 C 
BRANCH   2   3
ATOM      3  N   UNL     1       3.070   1.614   1.867  1.00  0.00    -0.351 N 
ATOM      4  C   UNL     1       2.025   2.492   1.924  1.00  0.00     0.275 C 
ATOM      5  O   UNL     1       2.229   3.611   1.441  1.00  0.00    -0.269 OA
ATOM      6  H   UNL     1       3.796   1.881   1.259  1.00  0.00     0.163 HD
BRANCH   4   7
ATOM      7  C   UNL     1       0.667   2.163   2.592  1.00  0.00     0.363 C 
BRANCH   7   8
ATOM      8  N   UNL     1       0.035   0.957   2.003  1.00  0.00    -0.320 N 
ATOM      9  C   UNL     1      -0.016  -0.126   3.014  1.00  0.00     0.333 C 
ATOM     10  H   UNL     1       0.630   0.739   1.204  1.00  0.00     0.348 HD
BRANCH   8  11
ATOM     11  C   UNL     1      -1.352   1.129   1.468  1.00  0.00     0.271 C 
ATOM     12  C   UNL     1      -1.811  -0.042   0.581  1.00  0.00     0.086 C 
BRANCH  11  13
ATOM     13  C   UNL     1      -1.786   2.451   0.834  1.00  0.00     0.285 C 
ATOM     14  N   UNL     1       0.916   2.551  -1.139  1.00  0.00    -0.338 N 
ATOM     15  C   UNL     1       0.000   3.464  -0.817  1.00  0.00     0.321 C 
ATOM     16  H   UNL     1       1.740   2.933  -1.518  1.00  0.00     0.165 HD
ATOM     17  O   UNL     1       0.182   4.625  -1.198  1.00  0.00    -0.248 OA
ATOM     18  N   UNL     1      -1.142   3.215  -0.112  1.00  0.00    -0.273 N 
ATOM     19  H   UNL     1      -1.799   3.881  -0.417  1.00  0.00     0.175 HD
ATOM     20  O   UNL     1      -2.894   2.905   1.180  1.00  0.00    -0.268 OA
BRANCH  14  21
ATOM     21  C   UNL     1       0.936   1.120  -1.040  1.00  0.00     0.114 C 
ATOM     22  C   UNL     1       1.635   0.469  -2.214  1.00  0.00     0.027 C 
ENDBRANCH  14  21
ENDBRANCH  11  13
ENDBRANCH   8  11
ENDBRANCH   7   8
ENDBRANCH   4   7
ENDBRANCH   2   3
ENDBRANCH   1   2
BRANCH   1  23
ATOM     23  C   UNL     1       4.023  -1.186   0.591  1.00  0.00     0.002 C 
BRANCH  23  24
ATOM     24  C   UNL     1       5.493  -1.268   1.011  1.00  0.00     0.002 C 
BRANCH  24  25
ATOM     25  C   UNL     1       5.790  -2.121   2.245  1.00  0.00     0.021 C 
BRANCH  25  26
ATOM     26  C   UNL     1       5.328  -3.570   2.157  1.00  0.00     0.116 C 
BRANCH  26  27
ATOM     27  N   UNL     1       6.090  -4.334   1.184  1.00  0.00    -0.352 N 
ATOM     28  C   UNL     1       6.906  -5.422   1.379  1.00  0.00     0.251 C 
ATOM     29  H   UNL     1       6.009  -4.029   0.251  1.00  0.00     0.163 HD
ATOM     30  O   UNL     1       7.629  -5.825   0.476  1.00  0.00    -0.269 OA
BRANCH  28  31
ATOM     31  C   UNL     1       6.928  -6.097   2.696  1.00  0.00     0.039 A 
ATOM     32  C   UNL     1       8.159  -6.420   3.271  1.00  0.00     0.014 A 
ATOM     33  C   UNL     1       5.739  -6.412   3.360  1.00  0.00     0.014 A 
ATOM     34  C   UNL     1       8.198  -7.004   4.540  1.00  0.00     0.010 A 
ATOM     35  C   UNL     1       5.781  -6.918   4.656  1.00  0.00     0.010 A 
ATOM     36  C   UNL     1       7.011  -7.226   5.258  1.00  0.00    -0.014 A 
BRANCH  36  37
ATOM     37  C   UNL     1       7.039  -7.785   6.634  1.00  0.00     0.031 A 
ATOM     38  C   UNL     1       6.402  -9.117   6.922  1.00  0.00     0.074 A 
ATOM     39  C   UNL     1       7.582  -7.066   7.636  1.00  0.00     0.049 A 
ATOM     40  N   UNL     1       6.272  -9.744   8.064  1.00  0.00    -0.248 NA
ATOM     41  C   UNL     1       5.804  -9.827   5.780  1.00  0.00     0.031 C 
ATOM     42  C   UNL     1       8.180  -5.738   7.495  1.00  0.00     0.029 A 
ATOM     43  N   UNL     1       7.708  -7.345   8.975  1.00  0.00    -0.354 N 
ATOM     44  C   UNL     1       5.565 -10.906   7.780  1.00  0.00     0.074 A 
ATOM     45  C   UNL     1       5.248 -10.875   6.370  1.00  0.00     0.031 C 
ATOM     46  C   UNL     1       8.625  -5.325   8.693  1.00  0.00     0.029 A 
ATOM     47  C   UNL     1       8.310  -6.340   9.694  1.00  0.00     0.049 A 
ATOM     48  H   UNL     1       7.396  -8.186   9.382  1.00  0.00     0.167 HD
ATOM     49  C   UNL     1       5.231 -11.917   8.618  1.00  0.00     0.037 A 
ATOM     50  C   UNL     1       8.569  -6.244  11.012  1.00  0.00     0.037 A 
ATOM     51  C   UNL     1       5.580 -11.959  10.014  1.00  0.00     0.049 A 
ATOM     52  C   UNL     1       8.196  -7.388  11.918  1.00  0.00     0.074 A 
ATOM     53  C   UNL     1       5.360 -12.975  10.926  1.00  0.00     0.029 A 
ATOM     54  N   UNL     1       6.217 -10.935  10.700  1.00  0.00    -0.354 N 
ATOM     55  N   UNL     1       7.607  -8.521  11.620  1.00  0.00    -0.248 NA
ATOM     56  C   UNL     1       8.533  -7.245  13.341  1.00  0.00     0.031 C 
ATOM     57  C   UNL     1       5.810 -12.544  12.178  1.00  0.00     0.029 A 
ATOM     58  C   UNL     1       6.370 -11.285  12.032  1.00  0.00     0.049 A 
ATOM     59  H   UNL     1       6.517 -10.087  10.300  1.00  0.00     0.167 HD
ATOM     60  C   UNL     1       7.531  -9.236  12.808  1.00  0.00     0.074 A 
ATOM     61  C   UNL     1       8.150  -8.416  13.828  1.00  0.00     0.031 C 
ATOM     62  C   UNL     1       6.997 -10.461  13.034  1.00  0.00     0.037 A 
BRANCH  49  63
ATOM     63  C   UNL     1       4.446 -13.066   8.053  1.00  0.00     0.064 A 
ATOM     64  C   UNL     1       5.013 -13.976   7.148  1.00  0.00     0.173 A 
ATOM     65  C   UNL     1       3.124 -13.292   8.467  1.00  0.00     0.173 A 
ATOM     66  F   UNL     1       6.269 -13.801   6.711  1.00  0.00    -0.203 F 
ATOM     67  C   UNL     1       4.278 -15.055   6.661  1.00  0.00     0.198 A 
ATOM     68  C   UNL     1       2.404 -14.390   8.004  1.00  0.00     0.198 A 
ATOM     69  F   UNL     1       2.534 -12.456   9.335  1.00  0.00    -0.203 F 
ATOM     70  F   UNL     1       4.826 -15.885   5.763  1.00  0.00    -0.200 F 
ATOM     71  C   UNL     1       2.979 -15.266   7.096  1.00  0.00     0.200 A 
ATOM     72  F   UNL     1       1.153 -14.600   8.437  1.00  0.00    -0.200 F 
ATOM     73  F   UNL     1       2.278 -16.313   6.637  1.00  0.00    -0.200 F 
ENDBRANCH  49  63
BRANCH  50  74
ATOM     74  C   UNL     1       9.223  -5.024  11.558  1.00  0.00     0.064 A 
ATOM     75  C   UNL     1      10.521  -5.072  12.085  1.00  0.00     0.173 A 
ATOM     76  C   UNL     1       8.557  -3.790  11.581  1.00  0.00     0.173 A 
ATOM     77  F   UNL     1      11.193  -6.232  12.104  1.00  0.00    -0.203 F 
ATOM     78  C   UNL     1      11.116  -3.941  12.642  1.00  0.00     0.198 A 
ATOM     79  C   UNL     1       9.165  -2.652  12.107  1.00  0.00     0.198 A 
ATOM     80  F   UNL     1       7.316  -3.686  11.083  1.00  0.00    -0.203 F 
ATOM     81  F   UNL     1      12.335  -4.029  13.191  1.00  0.00    -0.200 F 
ATOM     82  C   UNL     1      10.439  -2.731  12.647  1.00  0.00     0.200 A 
ATOM     83  F   UNL     1       8.514  -1.481  12.094  1.00  0.00    -0.200 F 
ATOM     84  F   UNL     1      11.011  -1.643  13.181  1.00  0.00    -0.200 F 
ENDBRANCH  50  74
BRANCH  62  85
ATOM     85  C   UNL     1       7.092 -11.011  14.429  1.00  0.00     0.064 A 
ATOM     86  C   UNL     1       6.338 -10.480  15.486  1.00  0.00     0.173 A 
ATOM     87  C   UNL     1       7.919 -12.112  14.700  1.00  0.00     0.173 A 
ATOM     88  F   UNL     1       5.543  -9.419  15.282  1.00  0.00    -0.203 F 
ATOM     89  C   UNL     1       6.429 -11.015  16.768  1.00  0.00     0.198 A 
ATOM     90  C   UNL     1       7.981 -12.665  15.976  1.00  0.00     0.198 A 
ATOM     91  F   UNL     1       8.655 -12.663  13.723  1.00  0.00    -0.203 F 
ATOM     92  F   UNL     1       5.739 -10.459  17.773  1.00  0.00    -0.200 F 
ATOM     93  C   UNL     1       7.243 -12.111  17.010  1.00  0.00     0.200 A 
ATOM     94  F   UNL     1       8.755 -13.736  16.203  1.00  0.00    -0.200 F 
ATOM     95  F   UNL     1       7.322 -12.630  18.243  1.00  0.00    -0.200 F 
ENDBRANCH  62  85
ENDBRANCH  36  37
ENDBRANCH  28  31
ENDBRANCH  26  27
ENDBRANCH  25  26
ENDBRANCH  24  25
ENDBRANCH  23  24
ENDBRANCH   1  23
TORSDOF 17
