REMARK SMILES O=C(NCCCCCCNC(=O)[C@H]1SC=C[C@@H]1S(=O)(=O)NCCC1=c2ccccc2=NC1)c1ccc(-c2c3nc(c(-c4c(F)c(F)c(F)c(F)c4F)c4ccc([nH]4)c(-c4c(F)c(F)c(F)c(F)c4F)c4nc(c(-c5c(F)c(F)c(F)c(F)c5F)c5ccc2[nH]5)C=C4)C=C3)cc1
REMARK SMILES IDX 8 1 7 2 6 3 5 4 4 5 3 6 1 7 2 8 33 10 34 11 95 12 35 13
REMARK SMILES IDX 94 14 36 15 37 16 38 17 88 18 39 19 93 20 87 21 89 22 40 23
REMARK SMILES IDX 92 24 86 25 85 26 41 28 73 29 53 30 72 31 54 32 57 33 71 34
REMARK SMILES IDX 90 35 55 36 56 37 70 39 91 40 58 41 42 42 43 43 51 44 44 45
REMARK SMILES IDX 45 46 49 47 52 48 46 49 47 50 50 51 48 52 74 53 75 54 83 55
REMARK SMILES IDX 76 56 77 57 81 58 84 59 78 60 79 61 82 62 80 63 59 64 60 65
REMARK SMILES IDX 68 66 61 67 62 68 66 69 69 70 63 71 64 72 67 73 65 74 9 75
REMARK SMILES IDX 10 76 11 77 12 79 13 80 14 81 17 82 15 83 16 84 18 85 19 86
REMARK SMILES IDX 20 87 21 88 22 90 23 91 24 92 25 93 32 94 26 95 30 96 31 97
REMARK SMILES IDX 27 98 29 99 28 100
REMARK H PARENT 3 9 89 27 57 38 10 78 21 89
REMARK Flexibility Score: inf
ROOT
ATOM      1  C   UNL     1       6.538  -1.404   4.093  1.00  0.00     0.021 C 
ENDROOT
BRANCH   1   2
ATOM      2  C   UNL     1       5.005  -1.334   4.048  1.00  0.00     0.002 C 
BRANCH   2   3
ATOM      3  C   UNL     1       4.426   0.053   3.755  1.00  0.00     0.002 C 
BRANCH   3   4
ATOM      4  C   UNL     1       4.890   0.677   2.438  1.00  0.00     0.021 C 
BRANCH   4   5
ATOM      5  C   UNL     1       4.597  -0.168   1.205  1.00  0.00     0.116 C 
BRANCH   5   6
ATOM      6  N   UNL     1       3.170  -0.361   1.008  1.00  0.00    -0.352 N 
ATOM      7  O   UNL     1       1.169  -0.082   0.015  1.00  0.00    -0.269 OA
ATOM      8  C   UNL     1       2.393  -0.056  -0.078  1.00  0.00     0.251 C 
ATOM      9  H   UNL     1       2.693  -0.770   1.765  1.00  0.00     0.163 HD
BRANCH   8  10
ATOM     10  C   UNL     1       3.021   0.300  -1.369  1.00  0.00     0.039 A 
ATOM     11  C   UNL     1       2.440   1.305  -2.146  1.00  0.00     0.014 A 
ATOM     12  C   UNL     1       4.133  -0.400  -1.847  1.00  0.00     0.014 A 
ATOM     13  C   UNL     1       2.973   1.608  -3.400  1.00  0.00     0.010 A 
ATOM     14  C   UNL     1       4.715  -0.041  -3.058  1.00  0.00     0.010 A 
ATOM     15  C   UNL     1       4.115   0.936  -3.865  1.00  0.00    -0.014 A 
BRANCH  15  16
ATOM     16  C   UNL     1       4.630   1.163  -5.238  1.00  0.00     0.031 A 
ATOM     17  C   UNL     1       4.569   0.044  -6.244  1.00  0.00     0.074 A 
ATOM     18  C   UNL     1       5.152   2.354  -5.582  1.00  0.00     0.049 A 
ATOM     19  N   UNL     1       5.008   0.010  -7.476  1.00  0.00    -0.248 NA
ATOM     20  C   UNL     1       3.948  -1.214  -5.796  1.00  0.00     0.031 C 
ATOM     21  C   UNL     1       5.265   3.513  -4.698  1.00  0.00     0.029 A 
ATOM     22  N   UNL     1       5.680   2.787  -6.772  1.00  0.00    -0.354 N 
ATOM     23  C   UNL     1       4.719  -1.266  -7.943  1.00  0.00     0.074 A 
ATOM     24  C   UNL     1       4.138  -2.001  -6.843  1.00  0.00     0.031 C 
ATOM     25  C   UNL     1       5.789   4.539  -5.388  1.00  0.00     0.029 A 
ATOM     26  C   UNL     1       6.092   4.096  -6.747  1.00  0.00     0.049 A 
ATOM     27  H   UNL     1       5.756   2.213  -7.569  1.00  0.00     0.167 HD
ATOM     28  C   UNL     1       4.887  -1.769  -9.189  1.00  0.00     0.037 A 
ATOM     29  C   UNL     1       6.650   4.852  -7.712  1.00  0.00     0.037 A 
ATOM     30  C   UNL     1       5.448  -1.029 -10.287  1.00  0.00     0.049 A 
ATOM     31  C   UNL     1       6.893   4.248  -9.070  1.00  0.00     0.074 A 
ATOM     32  C   UNL     1       5.649  -1.443 -11.592  1.00  0.00     0.029 A 
ATOM     33  N   UNL     1       5.894   0.283 -10.209  1.00  0.00    -0.354 N 
ATOM     34  N   UNL     1       6.595   3.049  -9.509  1.00  0.00    -0.248 NA
ATOM     35  C   UNL     1       7.550   5.105 -10.067  1.00  0.00     0.031 C 
ATOM     36  C   UNL     1       6.262  -0.399 -12.290  1.00  0.00     0.029 A 
ATOM     37  C   UNL     1       6.390   0.686 -11.438  1.00  0.00     0.049 A 
ATOM     38  H   UNL     1       5.862   0.844  -9.401  1.00  0.00     0.167 HD
ATOM     39  C   UNL     1       7.003   3.014 -10.836  1.00  0.00     0.074 A 
ATOM     40  C   UNL     1       7.554   4.320 -11.136  1.00  0.00     0.031 C 
ATOM     41  C   UNL     1       6.930   1.992 -11.724  1.00  0.00     0.037 A 
BRANCH  28  42
ATOM     42  C   UNL     1       4.444  -3.183  -9.432  1.00  0.00     0.064 A 
ATOM     43  C   UNL     1       3.086  -3.538  -9.420  1.00  0.00     0.173 A 
ATOM     44  C   UNL     1       5.380  -4.188  -9.721  1.00  0.00     0.173 A 
ATOM     45  F   UNL     1       2.150  -2.619  -9.136  1.00  0.00    -0.203 F 
ATOM     46  C   UNL     1       2.684  -4.849  -9.661  1.00  0.00     0.198 A 
ATOM     47  C   UNL     1       4.971  -5.491  -9.996  1.00  0.00     0.198 A 
ATOM     48  F   UNL     1       6.691  -3.905  -9.750  1.00  0.00    -0.203 F 
ATOM     49  F   UNL     1       1.385  -5.173  -9.593  1.00  0.00    -0.200 F 
ATOM     50  C   UNL     1       3.626  -5.822  -9.958  1.00  0.00     0.200 A 
ATOM     51  F   UNL     1       5.882  -6.427 -10.299  1.00  0.00    -0.200 F 
ATOM     52  F   UNL     1       3.236  -7.081 -10.203  1.00  0.00    -0.200 F 
ENDBRANCH  28  42
BRANCH  29  53
ATOM     53  C   UNL     1       6.975   6.276  -7.436  1.00  0.00     0.064 A 
ATOM     54  C   UNL     1       6.249   7.305  -8.051  1.00  0.00     0.173 A 
ATOM     55  C   UNL     1       7.989   6.639  -6.538  1.00  0.00     0.173 A 
ATOM     56  F   UNL     1       5.284   7.008  -8.934  1.00  0.00    -0.203 F 
ATOM     57  C   UNL     1       6.527   8.643  -7.782  1.00  0.00     0.198 A 
ATOM     58  C   UNL     1       8.247   7.977  -6.248  1.00  0.00     0.198 A 
ATOM     59  F   UNL     1       8.713   5.693  -5.923  1.00  0.00    -0.203 F 
ATOM     60  F   UNL     1       5.838   9.607  -8.407  1.00  0.00    -0.200 F 
ATOM     61  C   UNL     1       7.519   8.978  -6.873  1.00  0.00     0.200 A 
ATOM     62  F   UNL     1       9.196   8.296  -5.357  1.00  0.00    -0.200 F 
ATOM     63  F   UNL     1       7.775  10.265  -6.601  1.00  0.00    -0.200 F 
ENDBRANCH  29  53
BRANCH  41  64
ATOM     64  C   UNL     1       7.438   2.239 -13.116  1.00  0.00     0.064 A 
ATOM     65  C   UNL     1       8.807   2.368 -13.385  1.00  0.00     0.173 A 
ATOM     66  C   UNL     1       6.549   2.268 -14.202  1.00  0.00     0.173 A 
ATOM     67  F   UNL     1       9.697   2.358 -12.381  1.00  0.00    -0.203 F 
ATOM     68  C   UNL     1       9.268   2.534 -14.689  1.00  0.00     0.198 A 
ATOM     69  C   UNL     1       7.015   2.399 -15.507  1.00  0.00     0.198 A 
ATOM     70  F   UNL     1       5.229   2.139 -14.001  1.00  0.00    -0.203 F 
ATOM     71  F   UNL     1      10.579   2.693 -14.919  1.00  0.00    -0.200 F 
ATOM     72  C   UNL     1       8.373   2.537 -15.749  1.00  0.00     0.200 A 
ATOM     73  F   UNL     1       6.151   2.383 -16.531  1.00  0.00    -0.200 F 
ATOM     74  F   UNL     1       8.821   2.677 -17.004  1.00  0.00    -0.200 F 
ENDBRANCH  41  64
ENDBRANCH  15  16
ENDBRANCH   8  10
ENDBRANCH   5   6
ENDBRANCH   4   5
ENDBRANCH   3   4
ENDBRANCH   2   3
ENDBRANCH   1   2
BRANCH   1  75
ATOM     75  C   UNL     1       7.192  -0.435   5.079  1.00  0.00     0.116 C 
BRANCH  75  76
ATOM     76  N   UNL     1       6.675  -0.632   6.422  1.00  0.00    -0.355 N 
ATOM     77  C   UNL     1       7.318  -0.890   7.596  1.00  0.00     0.235 C 
ATOM     78  H   UNL     1       5.696  -0.569   6.498  1.00  0.00     0.163 HD
ATOM     79  O   UNL     1       6.619  -1.164   8.572  1.00  0.00    -0.274 OA
BRANCH  77  80
ATOM     80  C   UNL     1       8.836  -0.879   7.627  1.00  0.00     0.163 C 
ATOM     81  S   UNL     1       9.440  -0.259   9.258  1.00  0.00    -0.119 SA
ATOM     82  C   UNL     1       9.354  -2.312   7.499  1.00  0.00     0.170 C 
ATOM     83  C   UNL     1       9.886  -1.836   9.800  1.00  0.00     0.038 C 
ATOM     84  C   UNL     1       9.817  -2.776   8.856  1.00  0.00     0.002 C 
BRANCH  82  85
ATOM     85  S   UNL     1      10.706  -2.344   6.304  1.00  0.00     0.219 S 
ATOM     86  O   UNL     1      10.184  -2.854   5.058  1.00  0.00    -0.212 OA
ATOM     87  O   UNL     1      11.391  -1.066   6.340  1.00  0.00    -0.212 OA
BRANCH  85  88
ATOM     88  N   UNL     1      11.823  -3.417   6.902  1.00  0.00    -0.214 NA
ATOM     89  H   UNL     1      11.817  -3.278   7.913  1.00  0.00     0.141 HD
BRANCH  88  90
ATOM     90  C   UNL     1      11.790  -4.857   6.711  1.00  0.00     0.103 C 
BRANCH  90  91
ATOM     91  C   UNL     1      12.045  -5.324   5.274  1.00  0.00     0.050 C 
BRANCH  91  92
ATOM     92  C   UNL     1      13.365  -5.069   4.592  1.00  0.00    -0.038 C 
ATOM     93  C   UNL     1      14.191  -4.021   4.516  1.00  0.00     0.001 A 
ATOM     94  C   UNL     1      13.886  -6.189   3.726  1.00  0.00     0.174 C 
ATOM     95  C   UNL     1      14.240  -2.681   5.007  1.00  0.00     0.010 A 
ATOM     96  C   UNL     1      15.254  -4.506   3.609  1.00  0.00     0.065 A 
ATOM     97  N   UNL     1      15.151  -5.710   3.137  1.00  0.00    -0.280 NA
ATOM     98  C   UNL     1      15.269  -1.881   4.688  1.00  0.00     0.001 A 
ATOM     99  C   UNL     1      16.363  -3.573   3.307  1.00  0.00     0.028 A 
ATOM    100  C   UNL     1      16.347  -2.342   3.839  1.00  0.00     0.002 A 
ENDBRANCH  91  92
ENDBRANCH  90  91
ENDBRANCH  88  90
ENDBRANCH  85  88
ENDBRANCH  82  85
ENDBRANCH  77  80
ENDBRANCH  75  76
ENDBRANCH   1  75
TORSDOF 18
