REMARK SMILES O=C(NCc1ccsc1)NC[C@H]1CC[C@@H](C(=O)NCCCCCCNC(=O)c2ccc(-c3c4nc(c(-c5c(F)c(F)c(F)c(F)c5F)c5ccc([nH]5)c(-c5c(F)c(F)c(F)c(F)c5F)c5nc(c(-c6c(F)c(F)c(F)c(F)c6F)c6ccc3[nH]6)C=C5)C=C4)cc2)CC1
REMARK SMILES IDX 20 1 19 2 18 3 16 4 17 5 15 7 12 8 13 9 92 10 14 11 91 12
REMARK SMILES IDX 11 13 10 14 1 15 2 16 3 17 4 20 5 21 6 22 9 23 7 24 8 25
REMARK SMILES IDX 21 26 22 27 23 28 24 29 25 30 26 31 27 33 28 34 29 35 90 36
REMARK SMILES IDX 30 37 89 38 31 39 32 40 33 41 83 42 34 43 88 44 82 45 84 46
REMARK SMILES IDX 35 47 87 48 81 49 80 50 36 52 68 53 48 54 67 55 49 56 52 57
REMARK SMILES IDX 66 58 85 59 50 60 51 61 65 63 86 64 53 65 37 66 38 67 46 68
REMARK SMILES IDX 39 69 40 70 44 71 47 72 41 73 42 74 45 75 43 76 69 77 70 78
REMARK SMILES IDX 78 79 71 80 72 81 76 82 79 83 73 84 74 85 77 86 75 87 54 88
REMARK SMILES IDX 55 89 63 90 56 91 57 92 61 93 64 94 58 95 59 96 62 97 60 98
REMARK H PARENT 18 6 3 18 10 19 25 32 84 51 52 62
REMARK Flexibility Score: inf
ROOT
ATOM      1  C   UNL     1       1.950  -4.560   3.776  1.00  0.00     0.021 C 
ENDROOT
BRANCH   1   2
ATOM      2  C   UNL     1       3.206  -4.801   2.944  1.00  0.00     0.116 C 
BRANCH   2   3
ATOM      3  N   UNL     1       3.493  -6.194   2.722  1.00  0.00    -0.356 N 
ATOM      4  C   UNL     1       3.689  -6.907   1.585  1.00  0.00     0.223 C 
ATOM      5  O   UNL     1       4.057  -8.078   1.744  1.00  0.00    -0.275 OA
ATOM      6  H   UNL     1       3.560  -6.727   3.547  1.00  0.00     0.163 HD
BRANCH   4   7
ATOM      7  C   UNL     1       3.471  -6.378   0.156  1.00  0.00     0.078 C 
ATOM      8  C   UNL     1       2.518  -3.582  -0.509  1.00  0.00     0.008 C 
ATOM      9  C   UNL     1       4.007  -3.863  -0.233  1.00  0.00     0.006 C 
ATOM     10  C   UNL     1       1.541  -4.688  -0.062  1.00  0.00     0.006 C 
ATOM     11  C   UNL     1       4.444  -5.319  -0.356  1.00  0.00     0.014 C 
ATOM     12  C   UNL     1       2.023  -6.115  -0.242  1.00  0.00     0.014 C 
BRANCH   8  13
ATOM     13  C   UNL     1       2.057  -2.266   0.156  1.00  0.00     0.121 C 
BRANCH  13  14
ATOM     14  N   UNL     1       2.828  -1.098  -0.208  1.00  0.00    -0.338 N 
ATOM     15  O   UNL     1       1.035   0.309  -0.198  1.00  0.00    -0.249 OA
ATOM     16  C   UNL     1       2.244   0.126  -0.301  1.00  0.00     0.315 C 
ATOM     17  N   UNL     1       3.056   1.188  -0.497  1.00  0.00    -0.334 N 
ATOM     18  H   UNL     1       2.585   2.042  -0.633  1.00  0.00     0.165 HD
ATOM     19  H   UNL     1       3.791  -1.191  -0.390  1.00  0.00     0.165 HD
BRANCH  17  20
ATOM     20  C   UNL     1       4.495   1.284  -0.542  1.00  0.00     0.154 C 
BRANCH  20  21
ATOM     21  C   UNL     1       4.932   1.321  -1.969  1.00  0.00    -0.018 A 
ATOM     22  C   UNL     1       5.264   0.169  -2.759  1.00  0.00     0.017 A 
ATOM     23  C   UNL     1       5.079   2.478  -2.714  1.00  0.00     0.070 A 
ATOM     24  C   UNL     1       5.648   0.496  -4.040  1.00  0.00     0.065 A 
ATOM     25  S   UNL     1       5.612   2.182  -4.310  1.00  0.00    -0.152 S 
ENDBRANCH  20  21
ENDBRANCH  17  20
ENDBRANCH  13  14
ENDBRANCH   8  13
ENDBRANCH   4   7
ENDBRANCH   2   3
ENDBRANCH   1   2
BRANCH   1  26
ATOM     26  C   UNL     1       2.219  -4.227   5.244  1.00  0.00     0.002 C 
BRANCH  26  27
ATOM     27  C   UNL     1       3.086  -2.985   5.498  1.00  0.00     0.002 C 
BRANCH  27  28
ATOM     28  C   UNL     1       2.633  -1.690   4.815  1.00  0.00     0.021 C 
BRANCH  28  29
ATOM     29  C   UNL     1       1.208  -1.242   5.137  1.00  0.00     0.116 C 
BRANCH  29  30
ATOM     30  N   UNL     1       0.996  -1.063   6.565  1.00  0.00    -0.352 N 
ATOM     31  C   UNL     1       0.697   0.063   7.290  1.00  0.00     0.251 C 
ATOM     32  H   UNL     1       1.080  -1.885   7.100  1.00  0.00     0.163 HD
ATOM     33  O   UNL     1       0.757   0.035   8.515  1.00  0.00    -0.269 OA
BRANCH  31  34
ATOM     34  C   UNL     1       0.320   1.320   6.608  1.00  0.00     0.039 A 
ATOM     35  C   UNL     1       0.875   2.522   7.060  1.00  0.00     0.014 A 
ATOM     36  C   UNL     1      -0.600   1.326   5.556  1.00  0.00     0.014 A 
ATOM     37  C   UNL     1       0.568   3.719   6.409  1.00  0.00     0.010 A 
ATOM     38  C   UNL     1      -0.861   2.510   4.870  1.00  0.00     0.010 A 
ATOM     39  C   UNL     1      -0.271   3.715   5.283  1.00  0.00    -0.014 A 
BRANCH  39  40
ATOM     40  C   UNL     1      -0.508   4.950   4.494  1.00  0.00     0.031 A 
ATOM     41  C   UNL     1      -1.875   5.567   4.437  1.00  0.00     0.074 A 
ATOM     42  C   UNL     1       0.498   5.463   3.760  1.00  0.00     0.049 A 
ATOM     43  N   UNL     1      -2.297   6.580   3.722  1.00  0.00    -0.248 NA
ATOM     44  C   UNL     1      -2.912   4.954   5.282  1.00  0.00     0.031 C 
ATOM     45  C   UNL     1       1.861   4.933   3.710  1.00  0.00     0.029 A 
ATOM     46  N   UNL     1       0.526   6.533   2.900  1.00  0.00    -0.354 N 
ATOM     47  C   UNL     1      -3.646   6.717   4.019  1.00  0.00     0.074 A 
ATOM     48  C   UNL     1      -3.983   5.661   4.951  1.00  0.00     0.031 C 
ATOM     49  C   UNL     1       2.593   5.682   2.872  1.00  0.00     0.029 A 
ATOM     50  C   UNL     1       1.742   6.715   2.290  1.00  0.00     0.049 A 
ATOM     51  H   UNL     1      -0.252   7.114   2.737  1.00  0.00     0.167 HD
ATOM     52  C   UNL     1      -4.518   7.649   3.565  1.00  0.00     0.037 A 
ATOM     53  C   UNL     1       2.123   7.601   1.350  1.00  0.00     0.037 A 
ATOM     54  C   UNL     1      -4.172   8.706   2.651  1.00  0.00     0.049 A 
ATOM     55  C   UNL     1       1.123   8.599   0.834  1.00  0.00     0.074 A 
ATOM     56  C   UNL     1      -4.964   9.745   2.193  1.00  0.00     0.029 A 
ATOM     57  N   UNL     1      -2.933   8.852   2.045  1.00  0.00    -0.354 N 
ATOM     58  N   UNL     1      -0.130   8.767   1.177  1.00  0.00    -0.248 NA
ATOM     59  C   UNL     1       1.591   9.529  -0.204  1.00  0.00     0.031 C 
ATOM     60  C   UNL     1      -4.220  10.490   1.272  1.00  0.00     0.029 A 
ATOM     61  C   UNL     1      -2.950   9.942   1.189  1.00  0.00     0.049 A 
ATOM     62  H   UNL     1      -2.156   8.267   2.199  1.00  0.00     0.167 HD
ATOM     63  C   UNL     1      -0.598   9.826   0.412  1.00  0.00     0.074 A 
ATOM     64  C   UNL     1       0.513  10.277  -0.400  1.00  0.00     0.031 C 
ATOM     65  C   UNL     1      -1.837  10.373   0.382  1.00  0.00     0.037 A 
BRANCH  52  66
ATOM     66  C   UNL     1      -5.936   7.570   4.049  1.00  0.00     0.064 A 
ATOM     67  C   UNL     1      -6.280   7.894   5.370  1.00  0.00     0.173 A 
ATOM     68  C   UNL     1      -6.970   7.213   3.170  1.00  0.00     0.173 A 
ATOM     69  F   UNL     1      -5.329   8.234   6.252  1.00  0.00    -0.203 F 
ATOM     70  C   UNL     1      -7.604   7.840   5.799  1.00  0.00     0.198 A 
ATOM     71  C   UNL     1      -8.295   7.186   3.595  1.00  0.00     0.198 A 
ATOM     72  F   UNL     1      -6.696   6.902   1.894  1.00  0.00    -0.203 F 
ATOM     73  F   UNL     1      -7.905   8.114   7.076  1.00  0.00    -0.200 F 
ATOM     74  C   UNL     1      -8.611   7.493   4.910  1.00  0.00     0.200 A 
ATOM     75  F   UNL     1      -9.268   6.864   2.732  1.00  0.00    -0.200 F 
ATOM     76  F   UNL     1      -9.885   7.450   5.323  1.00  0.00    -0.200 F 
ENDBRANCH  52  66
BRANCH  53  77
ATOM     77  C   UNL     1       3.518   7.583   0.839  1.00  0.00     0.064 A 
ATOM     78  C   UNL     1       4.405   8.626   1.140  1.00  0.00     0.173 A 
ATOM     79  C   UNL     1       3.996   6.527   0.049  1.00  0.00     0.173 A 
ATOM     80  F   UNL     1       3.988   9.665   1.878  1.00  0.00    -0.203 F 
ATOM     81  C   UNL     1       5.712   8.621   0.658  1.00  0.00     0.198 A 
ATOM     82  C   UNL     1       5.312   6.510  -0.408  1.00  0.00     0.198 A 
ATOM     83  F   UNL     1       3.195   5.497  -0.261  1.00  0.00    -0.203 F 
ATOM     84  F   UNL     1       6.528   9.649   0.930  1.00  0.00    -0.200 F 
ATOM     85  C   UNL     1       6.167   7.561  -0.111  1.00  0.00     0.200 A 
ATOM     86  F   UNL     1       5.753   5.472  -1.131  1.00  0.00    -0.200 F 
ATOM     87  F   UNL     1       7.426   7.551  -0.566  1.00  0.00    -0.200 F 
ENDBRANCH  53  77
BRANCH  65  88
ATOM     88  C   UNL     1      -2.058  11.523  -0.556  1.00  0.00     0.064 A 
ATOM     89  C   UNL     1      -2.141  11.328  -1.943  1.00  0.00     0.173 A 
ATOM     90  C   UNL     1      -2.232  12.824  -0.062  1.00  0.00     0.173 A 
ATOM     91  F   UNL     1      -1.962  10.105  -2.464  1.00  0.00    -0.203 F 
ATOM     92  C   UNL     1      -2.374  12.398  -2.802  1.00  0.00     0.198 A 
ATOM     93  C   UNL     1      -2.492  13.887  -0.922  1.00  0.00     0.198 A 
ATOM     94  F   UNL     1      -2.164  13.062   1.256  1.00  0.00    -0.203 F 
ATOM     95  F   UNL     1      -2.410  12.196  -4.126  1.00  0.00    -0.200 F 
ATOM     96  C   UNL     1      -2.558  13.675  -2.291  1.00  0.00     0.200 A 
ATOM     97  F   UNL     1      -2.680  15.118  -0.426  1.00  0.00    -0.200 F 
ATOM     98  F   UNL     1      -2.792  14.702  -3.119  1.00  0.00    -0.200 F 
ENDBRANCH  65  88
ENDBRANCH  39  40
ENDBRANCH  31  34
ENDBRANCH  29  30
ENDBRANCH  28  29
ENDBRANCH  27  28
ENDBRANCH  26  27
ENDBRANCH   1  26
TORSDOF 17
