REMARK SMILES Cc1n[nH]c(C)c1C(=O)N1CC(n2cc(C(=O)NCCCCCCNC(=O)c3ccc(-c4c5nc(c(-c6c(F)c(F)c(F)c(F)c6F)c6ccc([nH]6)c(-c6c(F)c(F)c(F)c(F)c6F)c6nc(c(-c7c(F)c(F)c(F)c(F)c7F)c7ccc4[nH]7)C=C6)C=C5)cc3)nn2)C1
REMARK SMILES IDX 21 1 20 2 19 3 18 4 16 5 17 6 15 8 13 9 14 10 92 11 91 12
REMARK SMILES IDX 12 13 8 14 9 15 10 16 11 17 93 18 7 19 1 20 2 21 3 22 4 23
REMARK SMILES IDX 5 24 6 26 22 27 23 28 24 29 25 30 26 31 27 33 28 34 29 35
REMARK SMILES IDX 90 36 30 37 89 38 31 39 32 40 33 41 83 42 34 43 88 44 82 45
REMARK SMILES IDX 84 46 35 47 87 48 81 49 80 50 36 52 68 53 48 54 67 55 49 56
REMARK SMILES IDX 52 57 66 58 85 59 50 60 51 61 65 63 86 64 53 65 37 66 38 67
REMARK SMILES IDX 46 68 39 69 40 70 44 71 47 72 41 73 42 74 45 75 43 76 69 77
REMARK SMILES IDX 70 78 78 79 71 80 72 81 76 82 79 83 73 84 74 85 77 86 75 87
REMARK SMILES IDX 54 88 55 89 63 90 56 91 57 92 61 93 64 94 58 95 59 96 62 97
REMARK SMILES IDX 60 98
REMARK H PARENT 18 7 4 25 25 32 84 51 52 62
REMARK Flexibility Score: inf
ROOT
ATOM      1  C   UNL     1       7.147  -7.382   5.596  1.00  0.00     0.002 C 
ENDROOT
BRANCH   1   2
ATOM      2  C   UNL     1       6.046  -6.961   4.613  1.00  0.00     0.021 C 
BRANCH   2   3
ATOM      3  C   UNL     1       6.483  -5.895   3.608  1.00  0.00     0.116 C 
BRANCH   3   4
ATOM      4  N   UNL     1       7.260  -6.481   2.536  1.00  0.00    -0.351 N 
ATOM      5  C   UNL     1       7.048  -6.563   1.181  1.00  0.00     0.273 C 
ATOM      6  O   UNL     1       7.970  -7.028   0.509  1.00  0.00    -0.267 OA
ATOM      7  H   UNL     1       8.100  -6.899   2.835  1.00  0.00     0.163 HD
BRANCH   5   8
ATOM      8  C   UNL     1       5.815  -6.085   0.562  1.00  0.00     0.170 A 
ATOM      9  N   UNL     1       3.833  -5.367   0.030  1.00  0.00    -0.245 N 
ATOM     10  C   UNL     1       4.529  -5.952   1.053  1.00  0.00     0.145 A 
ATOM     11  N   UNL     1       4.601  -5.219  -1.055  1.00  0.00    -0.066 NA
ATOM     12  N   UNL     1       5.805  -5.684  -0.758  1.00  0.00    -0.125 NA
BRANCH   9  13
ATOM     13  C   UNL     1       2.491  -4.878   0.151  1.00  0.00     0.148 C 
ATOM     14  C   UNL     1       0.312  -2.563  -0.211  1.00  0.00     0.257 C 
ATOM     15  O   UNL     1      -0.688  -3.277  -0.240  1.00  0.00    -0.269 OA
ATOM     16  N   UNL     1       1.577  -3.085  -0.399  1.00  0.00    -0.334 N 
ATOM     17  C   UNL     1       1.864  -4.329  -1.129  1.00  0.00     0.149 C 
ATOM     18  C   UNL     1       2.490  -3.440   0.693  1.00  0.00     0.149 C 
BRANCH  14  19
ATOM     19  C   UNL     1       0.234  -1.113  -0.038  1.00  0.00     0.083 A 
ATOM     20  C   UNL     1      -2.375  -0.820   0.043  1.00  0.00     0.069 C 
ATOM     21  C   UNL     1      -0.968  -0.342   0.067  1.00  0.00     0.072 A 
ATOM     22  N   UNL     1      -0.721   0.968   0.180  1.00  0.00    -0.180 NA
ATOM     23  N   UNL     1       0.609   1.054   0.117  1.00  0.00    -0.282 N 
ATOM     24  C   UNL     1       1.242  -0.154   0.003  1.00  0.00     0.045 A 
ATOM     25  H   UNL     1       1.092   1.911   0.151  1.00  0.00     0.190 HD
ATOM     26  C   UNL     1       2.721  -0.212  -0.073  1.00  0.00     0.067 C 
ENDBRANCH  14  19
ENDBRANCH   9  13
ENDBRANCH   5   8
ENDBRANCH   3   4
ENDBRANCH   2   3
ENDBRANCH   1   2
BRANCH   1  27
ATOM     27  C   UNL     1       7.782  -6.250   6.421  1.00  0.00     0.002 C 
BRANCH  27  28
ATOM     28  C   UNL     1       6.814  -5.289   7.127  1.00  0.00     0.021 C 
BRANCH  28  29
ATOM     29  C   UNL     1       5.966  -5.947   8.205  1.00  0.00     0.116 C 
BRANCH  29  30
ATOM     30  N   UNL     1       6.764  -6.409   9.336  1.00  0.00    -0.352 N 
ATOM     31  C   UNL     1       6.356  -7.120  10.448  1.00  0.00     0.251 C 
ATOM     32  H   UNL     1       7.722  -6.184   9.303  1.00  0.00     0.163 HD
ATOM     33  O   UNL     1       7.016  -7.117  11.473  1.00  0.00    -0.269 OA
BRANCH  31  34
ATOM     34  C   UNL     1       5.096  -7.884  10.378  1.00  0.00     0.039 A 
ATOM     35  C   UNL     1       4.223  -7.924  11.467  1.00  0.00     0.014 A 
ATOM     36  C   UNL     1       4.790  -8.552   9.196  1.00  0.00     0.014 A 
ATOM     37  C   UNL     1       2.999  -8.572  11.321  1.00  0.00     0.010 A 
ATOM     38  C   UNL     1       3.527  -9.055   9.002  1.00  0.00     0.010 A 
ATOM     39  C   UNL     1       2.645  -9.114  10.074  1.00  0.00    -0.014 A 
BRANCH  39  40
ATOM     40  C   UNL     1       1.298  -9.633   9.852  1.00  0.00     0.031 A 
ATOM     41  C   UNL     1       0.209  -8.692  10.229  1.00  0.00     0.074 A 
ATOM     42  C   UNL     1       1.035 -10.774   9.179  1.00  0.00     0.049 A 
ATOM     43  N   UNL     1      -0.659  -8.840  11.174  1.00  0.00    -0.248 NA
ATOM     44  C   UNL     1       0.150  -7.378   9.568  1.00  0.00     0.031 C 
ATOM     45  C   UNL     1       1.972 -11.656   8.476  1.00  0.00     0.029 A 
ATOM     46  N   UNL     1      -0.172 -11.338   8.890  1.00  0.00    -0.354 N 
ATOM     47  C   UNL     1      -1.501  -7.735  11.102  1.00  0.00     0.074 A 
ATOM     48  C   UNL     1      -0.855  -6.794  10.224  1.00  0.00     0.031 C 
ATOM     49  C   UNL     1       1.288 -12.481   7.653  1.00  0.00     0.029 A 
ATOM     50  C   UNL     1      -0.132 -12.308   7.895  1.00  0.00     0.049 A 
ATOM     51  H   UNL     1      -1.004 -11.079   9.348  1.00  0.00     0.167 HD
ATOM     52  C   UNL     1      -2.779  -7.810  11.565  1.00  0.00     0.037 A 
ATOM     53  C   UNL     1      -1.193 -12.902   7.293  1.00  0.00     0.037 A 
ATOM     54  C   UNL     1      -2.939  -8.931  12.463  1.00  0.00     0.049 A 
ATOM     55  C   UNL     1      -2.366 -12.714   8.181  1.00  0.00     0.074 A 
ATOM     56  C   UNL     1      -2.312  -9.338  13.627  1.00  0.00     0.029 A 
ATOM     57  N   UNL     1      -3.603 -10.042  12.005  1.00  0.00    -0.354 N 
ATOM     58  N   UNL     1      -2.503 -13.301   9.335  1.00  0.00    -0.248 NA
ATOM     59  C   UNL     1      -3.173 -11.518   7.987  1.00  0.00     0.031 C 
ATOM     60  C   UNL     1      -2.202 -10.757  13.508  1.00  0.00     0.029 A 
ATOM     61  C   UNL     1      -2.838 -11.133  12.326  1.00  0.00     0.049 A 
ATOM     62  H   UNL     1      -4.467 -10.053  11.533  1.00  0.00     0.167 HD
ATOM     63  C   UNL     1      -3.028 -12.320  10.161  1.00  0.00     0.074 A 
ATOM     64  C   UNL     1      -3.511 -11.278   9.257  1.00  0.00     0.031 C 
ATOM     65  C   UNL     1      -2.756 -12.310  11.498  1.00  0.00     0.037 A 
BRANCH  52  66
ATOM     66  C   UNL     1      -3.964  -7.152  10.892  1.00  0.00     0.064 A 
ATOM     67  C   UNL     1      -5.232  -7.253  11.502  1.00  0.00     0.173 A 
ATOM     68  C   UNL     1      -3.974  -6.732   9.544  1.00  0.00     0.173 A 
ATOM     69  F   UNL     1      -5.345  -7.648  12.780  1.00  0.00    -0.203 F 
ATOM     70  C   UNL     1      -6.415  -7.065  10.783  1.00  0.00     0.198 A 
ATOM     71  C   UNL     1      -5.156  -6.492   8.846  1.00  0.00     0.198 A 
ATOM     72  F   UNL     1      -2.861  -6.649   8.808  1.00  0.00    -0.203 F 
ATOM     73  F   UNL     1      -7.594  -7.325  11.365  1.00  0.00    -0.200 F 
ATOM     74  C   UNL     1      -6.376  -6.698   9.452  1.00  0.00     0.200 A 
ATOM     75  F   UNL     1      -5.096  -6.152   7.551  1.00  0.00    -0.200 F 
ATOM     76  F   UNL     1      -7.505  -6.593   8.739  1.00  0.00    -0.200 F 
ENDBRANCH  52  66
BRANCH  53  77
ATOM     77  C   UNL     1      -1.335 -13.388   5.899  1.00  0.00     0.064 A 
ATOM     78  C   UNL     1      -2.416 -14.207   5.530  1.00  0.00     0.173 A 
ATOM     79  C   UNL     1      -0.594 -12.821   4.845  1.00  0.00     0.173 A 
ATOM     80  F   UNL     1      -3.196 -14.760   6.471  1.00  0.00    -0.203 F 
ATOM     81  C   UNL     1      -2.763 -14.408   4.190  1.00  0.00     0.198 A 
ATOM     82  C   UNL     1      -0.937 -13.029   3.507  1.00  0.00     0.198 A 
ATOM     83  F   UNL     1       0.414 -11.971   5.089  1.00  0.00    -0.203 F 
ATOM     84  F   UNL     1      -3.848 -15.132   3.882  1.00  0.00    -0.200 F 
ATOM     85  C   UNL     1      -2.032 -13.806   3.180  1.00  0.00     0.200 A 
ATOM     86  F   UNL     1      -0.241 -12.412   2.541  1.00  0.00    -0.200 F 
ATOM     87  F   UNL     1      -2.407 -13.937   1.901  1.00  0.00    -0.200 F 
ENDBRANCH  53  77
BRANCH  65  88
ATOM     88  C   UNL     1      -2.127 -13.536  12.099  1.00  0.00     0.064 A 
ATOM     89  C   UNL     1      -0.889 -14.074  11.705  1.00  0.00     0.173 A 
ATOM     90  C   UNL     1      -2.765 -14.131  13.196  1.00  0.00     0.173 A 
ATOM     91  F   UNL     1      -0.159 -13.501  10.740  1.00  0.00    -0.203 F 
ATOM     92  C   UNL     1      -0.353 -15.195  12.337  1.00  0.00     0.198 A 
ATOM     93  C   UNL     1      -2.208 -15.224  13.852  1.00  0.00     0.198 A 
ATOM     94  F   UNL     1      -3.922 -13.628  13.655  1.00  0.00    -0.203 F 
ATOM     95  F   UNL     1       0.814 -15.709  11.921  1.00  0.00    -0.200 F 
ATOM     96  C   UNL     1      -1.012 -15.767  13.412  1.00  0.00     0.200 A 
ATOM     97  F   UNL     1      -2.825 -15.742  14.923  1.00  0.00    -0.200 F 
ATOM     98  F   UNL     1      -0.484 -16.827  14.040  1.00  0.00    -0.200 F 
ENDBRANCH  65  88
ENDBRANCH  39  40
ENDBRANCH  31  34
ENDBRANCH  29  30
ENDBRANCH  28  29
ENDBRANCH  27  28
ENDBRANCH   1  27
TORSDOF 15
