REMARK SMILES C[C@@H](NC(=O)N[C@H]1CCCCC[C@@H]1C(=O)NCCCCCCNC(=O)c1ccc(-c2c3nc(c(-c4c(F)c(F)c(F)c(F)c4F)c4ccc([nH]4)c(-c4c(F)c(F)c(F)c(F)c4F)c4nc(c(-c5c(F)c(F)c(F)c(F)c5F)c5ccc2[nH]5)C=C4)C=C3)cc1)c1nccs1
REMARK SMILES IDX 18 1 17 2 16 3 14 4 15 5 13 7 7 8 6 9 3 10 4 11 5 13 2 15
REMARK SMILES IDX 1 16 89 17 90 18 93 19 91 20 92 21 8 22 9 23 10 24 11 25
REMARK SMILES IDX 12 27 19 29 20 30 21 31 22 32 23 33 24 34 25 36 26 37 27 38
REMARK SMILES IDX 88 39 28 40 87 41 29 42 30 43 31 44 81 45 32 46 86 47 80 48
REMARK SMILES IDX 82 49 33 50 85 51 79 52 78 53 34 55 66 56 46 57 65 58 47 59
REMARK SMILES IDX 50 60 64 61 83 62 48 63 49 64 63 66 84 67 51 68 35 69 36 70
REMARK SMILES IDX 44 71 37 72 38 73 42 74 45 75 39 76 40 77 43 78 41 79 67 80
REMARK SMILES IDX 68 81 76 82 69 83 70 84 74 85 77 86 71 87 72 88 75 89 73 90
REMARK SMILES IDX 52 91 53 92 61 93 54 94 55 95 59 96 62 97 56 98 57 99 60 100
REMARK SMILES IDX 58 101
REMARK H PARENT 16 6 3 12 6 14 23 35 82 54 50 65
REMARK Flexibility Score: 90.00
ROOT
ATOM      1  C   UNL     1       0.841  -2.775   2.717  1.00  0.00     0.021 C 
ENDROOT
BRANCH   1   2
ATOM      2  C   UNL     1       0.756  -1.493   1.904  1.00  0.00     0.116 C 
BRANCH   2   3
ATOM      3  N   UNL     1       0.464  -1.733   0.514  1.00  0.00    -0.356 N 
ATOM      4  C   UNL     1      -0.061  -0.876  -0.401  1.00  0.00     0.225 C 
ATOM      5  O   UNL     1       0.216  -1.111  -1.575  1.00  0.00    -0.275 OA
ATOM      6  H   UNL     1       0.671  -2.637   0.183  1.00  0.00     0.163 HD
BRANCH   4   7
ATOM      7  C   UNL     1      -0.850   0.342   0.071  1.00  0.00     0.101 C 
BRANCH   7   8
ATOM      8  C   UNL     1      -2.025   0.666  -0.882  1.00  0.00     0.096 C 
BRANCH   8   9
ATOM      9  N   UNL     1      -3.296   0.047  -0.460  1.00  0.00    -0.335 N 
ATOM     10  N   UNL     1      -3.997  -1.321  -2.278  1.00  0.00    -0.329 N 
ATOM     11  C   UNL     1      -4.244  -0.530  -1.224  1.00  0.00     0.315 C 
ATOM     12  H   UNL     1      -4.715  -1.295  -2.951  1.00  0.00     0.166 HD
ATOM     13  O   UNL     1      -5.424  -0.349  -0.914  1.00  0.00    -0.249 OA
ATOM     14  H   UNL     1      -3.475   0.057   0.508  1.00  0.00     0.165 HD
BRANCH  10  15
ATOM     15  C   UNL     1      -2.898  -2.218  -2.656  1.00  0.00     0.140 C 
ATOM     16  C   UNL     1      -2.270  -2.936  -1.464  1.00  0.00     0.039 C 
BRANCH  15  17
ATOM     17  C   UNL     1      -1.952  -1.626  -3.694  1.00  0.00     0.115 A 
ATOM     18  N   UNL     1      -1.487  -0.392  -3.734  1.00  0.00    -0.247 NA
ATOM     19  S   UNL     1      -1.446  -2.583  -5.051  1.00  0.00    -0.125 S 
ATOM     20  C   UNL     1      -0.533  -0.246  -4.711  1.00  0.00     0.123 A 
ATOM     21  C   UNL     1      -0.437  -1.301  -5.584  1.00  0.00     0.087 A 
ENDBRANCH  15  17
ENDBRANCH  10  15
ENDBRANCH   8   9
BRANCH   8  22
ATOM     22  C   UNL     1      -2.264   2.156  -1.220  1.00  0.00     0.026 C 
BRANCH  22  23
ATOM     23  C   UNL     1      -2.371   3.121  -0.037  1.00  0.00     0.002 C 
BRANCH  23  24
ATOM     24  C   UNL     1      -1.029   3.611   0.501  1.00  0.00     0.000 C 
BRANCH  24  25
ATOM     25  C   UNL     1      -0.189   2.533   1.161  1.00  0.00     0.001 CG0
ATOM     26  G   UNL     1       0.217   1.438   0.193  1.00  0.00     0.000 G0
ENDBRANCH  24  25
ENDBRANCH  23  24
ENDBRANCH  22  23
ENDBRANCH   8  22
ENDBRANCH   7   8
BRANCH   7  27
ATOM     27  C   UNL     1       0.217   1.438   0.193  1.00  0.00     0.015 CG0
ATOM     28  G   UNL     1      -0.189   2.533   1.161  1.00  0.00     0.000 G0
ENDBRANCH   7  27
ENDBRANCH   4   7
ENDBRANCH   2   3
ENDBRANCH   1   2
BRANCH   1  29
ATOM     29  C   UNL     1       1.602  -3.959   2.105  1.00  0.00     0.002 C 
BRANCH  29  30
ATOM     30  C   UNL     1       2.949  -3.716   1.412  1.00  0.00     0.002 C 
BRANCH  30  31
ATOM     31  C   UNL     1       3.965  -2.842   2.133  1.00  0.00     0.021 C 
BRANCH  31  32
ATOM     32  C   UNL     1       4.203  -3.192   3.588  1.00  0.00     0.116 C 
BRANCH  32  33
ATOM     33  N   UNL     1       4.806  -4.500   3.773  1.00  0.00    -0.352 N 
ATOM     34  C   UNL     1       5.800  -4.838   4.659  1.00  0.00     0.251 C 
ATOM     35  H   UNL     1       4.465  -5.225   3.200  1.00  0.00     0.163 HD
ATOM     36  O   UNL     1       6.306  -5.954   4.659  1.00  0.00    -0.269 OA
BRANCH  34  37
ATOM     37  C   UNL     1       6.277  -3.801   5.596  1.00  0.00     0.039 A 
ATOM     38  C   UNL     1       7.635  -3.477   5.618  1.00  0.00     0.014 A 
ATOM     39  C   UNL     1       5.359  -3.090   6.375  1.00  0.00     0.014 A 
ATOM     40  C   UNL     1       8.069  -2.396   6.387  1.00  0.00     0.010 A 
ATOM     41  C   UNL     1       5.781  -1.966   7.073  1.00  0.00     0.010 A 
ATOM     42  C   UNL     1       7.141  -1.616   7.096  1.00  0.00    -0.014 A 
BRANCH  42  43
ATOM     43  C   UNL     1       7.564  -0.456   7.919  1.00  0.00     0.031 A 
ATOM     44  C   UNL     1       7.344  -0.498   9.405  1.00  0.00     0.074 A 
ATOM     45  C   UNL     1       8.066   0.649   7.335  1.00  0.00     0.049 A 
ATOM     46  N   UNL     1       7.502   0.447  10.296  1.00  0.00    -0.248 NA
ATOM     47  C   UNL     1       6.842  -1.766   9.959  1.00  0.00     0.031 C 
ATOM     48  C   UNL     1       8.298   0.820   5.900  1.00  0.00     0.029 A 
ATOM     49  N   UNL     1       8.455   1.848   7.879  1.00  0.00    -0.354 N 
ATOM     50  C   UNL     1       7.094  -0.104  11.503  1.00  0.00     0.074 A 
ATOM     51  C   UNL     1       6.630  -1.445  11.225  1.00  0.00     0.031 C 
ATOM     52  C   UNL     1       8.803   2.045   5.680  1.00  0.00     0.029 A 
ATOM     53  C   UNL     1       8.889   2.761   6.949  1.00  0.00     0.049 A 
ATOM     54  H   UNL     1       8.425   2.035   8.845  1.00  0.00     0.167 HD
ATOM     55  C   UNL     1       7.130   0.449  12.738  1.00  0.00     0.037 A 
ATOM     56  C   UNL     1       9.298   4.035   7.107  1.00  0.00     0.037 A 
ATOM     57  C   UNL     1       7.631   1.768  13.012  1.00  0.00     0.049 A 
ATOM     58  C   UNL     1       9.321   4.631   8.491  1.00  0.00     0.074 A 
ATOM     59  C   UNL     1       7.760   2.405  14.233  1.00  0.00     0.029 A 
ATOM     60  N   UNL     1       8.093   2.651  12.047  1.00  0.00    -0.354 N 
ATOM     61  N   UNL     1       8.980   4.084   9.633  1.00  0.00    -0.248 NA
ATOM     62  C   UNL     1       9.787   6.020   8.609  1.00  0.00     0.031 C 
ATOM     63  C   UNL     1       8.263   3.689  14.003  1.00  0.00     0.029 A 
ATOM     64  C   UNL     1       8.495   3.833  12.645  1.00  0.00     0.049 A 
ATOM     65  H   UNL     1       8.130   2.464  11.081  1.00  0.00     0.167 HD
ATOM     66  C   UNL     1       9.227   5.044  10.605  1.00  0.00     0.074 A 
ATOM     67  C   UNL     1       9.749   6.208   9.921  1.00  0.00     0.031 C 
ATOM     68  C   UNL     1       9.040   4.968  11.946  1.00  0.00     0.037 A 
BRANCH  55  69
ATOM     69  C   UNL     1       6.618  -0.374  13.883  1.00  0.00     0.064 A 
ATOM     70  C   UNL     1       7.306  -1.510  14.338  1.00  0.00     0.173 A 
ATOM     71  C   UNL     1       5.441  -0.008  14.553  1.00  0.00     0.173 A 
ATOM     72  F   UNL     1       8.428  -1.911  13.723  1.00  0.00    -0.203 F 
ATOM     73  C   UNL     1       6.818  -2.264  15.402  1.00  0.00     0.198 A 
ATOM     74  C   UNL     1       4.974  -0.747  15.637  1.00  0.00     0.198 A 
ATOM     75  F   UNL     1       4.746   1.070  14.160  1.00  0.00    -0.203 F 
ATOM     76  F   UNL     1       7.464  -3.375  15.784  1.00  0.00    -0.200 F 
ATOM     77  C   UNL     1       5.658  -1.878  16.055  1.00  0.00     0.200 A 
ATOM     78  F   UNL     1       3.859  -0.365  16.275  1.00  0.00    -0.200 F 
ATOM     79  F   UNL     1       5.194  -2.602  17.083  1.00  0.00    -0.200 F 
ENDBRANCH  55  69
BRANCH  56  80
ATOM     80  C   UNL     1       9.737   4.831   5.930  1.00  0.00     0.064 A 
ATOM     81  C   UNL     1      11.081   5.198   5.772  1.00  0.00     0.173 A 
ATOM     82  C   UNL     1       8.827   5.253   4.950  1.00  0.00     0.173 A 
ATOM     83  F   UNL     1      11.986   4.836   6.694  1.00  0.00    -0.203 F 
ATOM     84  C   UNL     1      11.494   5.975   4.692  1.00  0.00     0.198 A 
ATOM     85  C   UNL     1       9.246   6.006   3.855  1.00  0.00     0.198 A 
ATOM     86  F   UNL     1       7.530   4.926   5.051  1.00  0.00    -0.203 F 
ATOM     87  F   UNL     1      12.776   6.353   4.593  1.00  0.00    -0.200 F 
ATOM     88  C   UNL     1      10.577   6.375   3.732  1.00  0.00     0.200 A 
ATOM     89  F   UNL     1       8.360   6.379   2.922  1.00  0.00    -0.200 F 
ATOM     90  F   UNL     1      10.975   7.122   2.693  1.00  0.00    -0.200 F 
ENDBRANCH  56  80
BRANCH  68  91
ATOM     91  C   UNL     1       9.456   6.147  12.774  1.00  0.00     0.064 A 
ATOM     92  C   UNL     1       8.711   7.335  12.793  1.00  0.00     0.173 A 
ATOM     93  C   UNL     1      10.573   6.055  13.619  1.00  0.00     0.173 A 
ATOM     94  F   UNL     1       7.643   7.475  11.993  1.00  0.00    -0.203 F 
ATOM     95  C   UNL     1       9.077   8.393  13.620  1.00  0.00     0.198 A 
ATOM     96  C   UNL     1      10.919   7.104  14.464  1.00  0.00     0.198 A 
ATOM     97  F   UNL     1      11.312   4.936  13.642  1.00  0.00    -0.203 F 
ATOM     98  F   UNL     1       8.371   9.532  13.599  1.00  0.00    -0.200 F 
ATOM     99  C   UNL     1      10.174   8.274  14.461  1.00  0.00     0.200 A 
ATOM    100  F   UNL     1      11.969   6.981  15.288  1.00  0.00    -0.200 F 
ATOM    101  F   UNL     1      10.513   9.287  15.270  1.00  0.00    -0.200 F 
ENDBRANCH  68  91
ENDBRANCH  42  43
ENDBRANCH  34  37
ENDBRANCH  32  33
ENDBRANCH  31  32
ENDBRANCH  30  31
ENDBRANCH  29  30
ENDBRANCH   1  29
TORSDOF 16
