REMARK SMILES CC(C)Cc1noc(C[NH+]2CCC(CC(=O)NCCCCCCNC(=O)c3ccc(-c4c5nc(c(-c6c(F)c(F)c(F)c(F)c6F)c6ccc([nH]6)c(-c6c(F)c(F)c(F)c(F)c6F)c6nc(c(-c7c(F)c(F)c(F)c(F)c7F)c7ccc4[nH]7)C=C6)C=C5)cc3)CC2)n1
REMARK SMILES IDX 19 1 18 2 17 3 15 4 16 5 14 7 13 8 10 9 11 10 91 11 12 13
REMARK SMILES IDX 90 14 9 15 8 16 5 17 6 18 92 19 7 20 4 21 2 22 1 23 3 24
REMARK SMILES IDX 20 25 21 26 22 27 23 28 24 29 25 30 26 32 27 33 28 34 89 35
REMARK SMILES IDX 29 36 88 37 30 38 31 39 32 40 82 41 33 42 87 43 81 44 83 45
REMARK SMILES IDX 34 46 86 47 80 48 79 49 35 51 67 52 47 53 66 54 48 55 51 56
REMARK SMILES IDX 65 57 84 58 49 59 50 60 64 62 85 63 52 64 36 65 37 66 45 67
REMARK SMILES IDX 38 68 39 69 43 70 46 71 40 72 41 73 44 74 42 75 68 76 69 77
REMARK SMILES IDX 77 78 70 79 71 80 75 81 78 82 72 83 73 84 76 85 74 86 53 87
REMARK SMILES IDX 54 88 62 89 55 90 56 91 60 92 63 93 57 94 58 95 61 96 59 97
REMARK H PARENT 17 6 10 12 24 31 83 50 51 61
REMARK Flexibility Score: inf
ROOT
ATOM      1  C   UNL     1       2.102  -0.190   5.823  1.00  0.00     0.021 C 
ENDROOT
BRANCH   1   2
ATOM      2  C   UNL     1       2.263   0.960   6.828  1.00  0.00     0.116 C 
BRANCH   2   3
ATOM      3  N   UNL     1       3.144   1.990   6.303  1.00  0.00    -0.356 N 
ATOM      4  C   UNL     1       2.884   3.254   5.861  1.00  0.00     0.220 C 
ATOM      5  O   UNL     1       3.814   3.896   5.369  1.00  0.00    -0.275 OA
ATOM      6  H   UNL     1       4.093   1.731   6.259  1.00  0.00     0.163 HD
BRANCH   4   7
ATOM      7  C   UNL     1       1.493   3.864   5.966  1.00  0.00     0.104 C 
BRANCH   7   8
ATOM      8  C   UNL     1       0.639   3.672   4.698  1.00  0.00     0.009 C 
ATOM      9  N   UNL     1      -1.977   2.841   3.633  1.00  0.00    -0.327 N 
ATOM     10  C   UNL     1      -0.811   1.972   3.464  1.00  0.00     0.262 C 
ATOM     11  C   UNL     1      -1.577   4.250   3.564  1.00  0.00     0.262 C 
ATOM     12  H   UNL     1      -2.373   2.691   4.561  1.00  0.00     0.348 HD
ATOM     13  C   UNL     1       0.201   2.217   4.563  1.00  0.00     0.066 C 
ATOM     14  C   UNL     1      -0.600   4.584   4.704  1.00  0.00     0.066 C 
BRANCH   9  15
ATOM     15  C   UNL     1      -3.050   2.489   2.672  1.00  0.00     0.364 C 
BRANCH  15  16
ATOM     16  C   UNL     1      -2.604   2.228   1.270  1.00  0.00     0.281 A 
ATOM     17  C   UNL     1      -1.746   1.517  -0.496  1.00  0.00     0.172 A 
ATOM     18  N   UNL     1      -1.923   2.821  -0.747  1.00  0.00    -0.062 NA
ATOM     19  N   UNL     1      -2.177   1.102   0.736  1.00  0.00    -0.191 NA
ATOM     20  O   UNL     1      -2.495   3.300   0.435  1.00  0.00    -0.333 OA
BRANCH  17  21
ATOM     21  C   UNL     1      -1.118   0.585  -1.468  1.00  0.00     0.084 C 
BRANCH  21  22
ATOM     22  C   UNL     1       0.422   0.581  -1.415  1.00  0.00    -0.010 C 
ATOM     23  C   UNL     1       0.959  -0.004  -0.105  1.00  0.00     0.008 C 
ATOM     24  C   UNL     1       0.979  -0.218  -2.596  1.00  0.00     0.008 C 
ENDBRANCH  21  22
ENDBRANCH  17  21
ENDBRANCH  15  16
ENDBRANCH   9  15
ENDBRANCH   7   8
ENDBRANCH   4   7
ENDBRANCH   2   3
ENDBRANCH   1   2
BRANCH   1  25
ATOM     25  C   UNL     1       3.014  -1.392   6.061  1.00  0.00     0.002 C 
BRANCH  25  26
ATOM     26  C   UNL     1       2.677  -2.231   7.294  1.00  0.00     0.002 C 
BRANCH  26  27
ATOM     27  C   UNL     1       1.240  -2.756   7.370  1.00  0.00     0.021 C 
BRANCH  27  28
ATOM     28  C   UNL     1       0.757  -3.532   6.145  1.00  0.00     0.116 C 
BRANCH  28  29
ATOM     29  N   UNL     1       1.563  -4.714   5.887  1.00  0.00    -0.352 N 
ATOM     30  C   UNL     1       1.212  -6.040   5.910  1.00  0.00     0.251 C 
ATOM     31  H   UNL     1       2.504  -4.535   5.662  1.00  0.00     0.163 HD
ATOM     32  O   UNL     1       2.079  -6.908   5.867  1.00  0.00    -0.269 OA
BRANCH  30  33
ATOM     33  C   UNL     1      -0.210  -6.434   6.000  1.00  0.00     0.039 A 
ATOM     34  C   UNL     1      -0.575  -7.447   6.891  1.00  0.00     0.014 A 
ATOM     35  C   UNL     1      -1.174  -5.834   5.186  1.00  0.00     0.014 A 
ATOM     36  C   UNL     1      -1.915  -7.820   7.006  1.00  0.00     0.010 A 
ATOM     37  C   UNL     1      -2.519  -6.162   5.347  1.00  0.00     0.010 A 
ATOM     38  C   UNL     1      -2.902  -7.161   6.255  1.00  0.00    -0.014 A 
BRANCH  38  39
ATOM     39  C   UNL     1      -4.339  -7.506   6.403  1.00  0.00     0.031 A 
ATOM     40  C   UNL     1      -5.091  -8.120   5.256  1.00  0.00     0.074 A 
ATOM     41  C   UNL     1      -4.980  -7.209   7.549  1.00  0.00     0.049 A 
ATOM     42  N   UNL     1      -6.362  -8.424   5.165  1.00  0.00    -0.248 NA
ATOM     43  C   UNL     1      -4.318  -8.406   4.037  1.00  0.00     0.031 C 
ATOM     44  C   UNL     1      -4.370  -6.573   8.718  1.00  0.00     0.029 A 
ATOM     45  N   UNL     1      -6.291  -7.389   7.915  1.00  0.00    -0.354 N 
ATOM     46  C   UNL     1      -6.541  -8.920   3.881  1.00  0.00     0.074 A 
ATOM     47  C   UNL     1      -5.261  -8.832   3.211  1.00  0.00     0.031 C 
ATOM     48  C   UNL     1      -5.300  -6.432   9.677  1.00  0.00     0.029 A 
ATOM     49  C   UNL     1      -6.577  -6.935   9.179  1.00  0.00     0.049 A 
ATOM     50  H   UNL     1      -6.962  -7.805   7.327  1.00  0.00     0.167 HD
ATOM     51  C   UNL     1      -7.666  -9.423   3.319  1.00  0.00     0.037 A 
ATOM     52  C   UNL     1      -7.741  -6.919   9.856  1.00  0.00     0.037 A 
ATOM     53  C   UNL     1      -8.931  -9.534   3.998  1.00  0.00     0.049 A 
ATOM     54  C   UNL     1      -8.976  -7.484   9.209  1.00  0.00     0.074 A 
ATOM     55  C   UNL     1     -10.114 -10.085   3.536  1.00  0.00     0.029 A 
ATOM     56  N   UNL     1      -9.177  -9.083   5.286  1.00  0.00    -0.354 N 
ATOM     57  N   UNL     1      -9.119  -8.011   8.018  1.00  0.00    -0.248 NA
ATOM     58  C   UNL     1     -10.211  -7.459  10.006  1.00  0.00     0.031 C 
ATOM     59  C   UNL     1     -11.086  -9.930   4.529  1.00  0.00     0.029 A 
ATOM     60  C   UNL     1     -10.498  -9.325   5.628  1.00  0.00     0.049 A 
ATOM     61  H   UNL     1      -8.511  -8.654   5.871  1.00  0.00     0.167 HD
ATOM     62  C   UNL     1     -10.447  -8.404   7.931  1.00  0.00     0.074 A 
ATOM     63  C   UNL     1     -11.066  -8.067   9.196  1.00  0.00     0.031 C 
ATOM     64  C   UNL     1     -11.096  -8.991   6.895  1.00  0.00     0.037 A 
BRANCH  51  65
ATOM     65  C   UNL     1      -7.580  -9.897   1.897  1.00  0.00     0.064 A 
ATOM     66  C   UNL     1      -6.870 -11.057   1.551  1.00  0.00     0.173 A 
ATOM     67  C   UNL     1      -8.244  -9.205   0.874  1.00  0.00     0.173 A 
ATOM     68  F   UNL     1      -6.208 -11.749   2.491  1.00  0.00    -0.203 F 
ATOM     69  C   UNL     1      -6.803 -11.489   0.229  1.00  0.00     0.198 A 
ATOM     70  C   UNL     1      -8.200  -9.657  -0.443  1.00  0.00     0.198 A 
ATOM     71  F   UNL     1      -8.943  -8.094   1.151  1.00  0.00    -0.203 F 
ATOM     72  F   UNL     1      -6.079 -12.572  -0.084  1.00  0.00    -0.200 F 
ATOM     73  C   UNL     1      -7.474 -10.794  -0.765  1.00  0.00     0.200 A 
ATOM     74  F   UNL     1      -8.860  -8.991  -1.401  1.00  0.00    -0.200 F 
ATOM     75  F   UNL     1      -7.415 -11.215  -2.036  1.00  0.00    -0.200 F 
ENDBRANCH  51  65
BRANCH  52  76
ATOM     76  C   UNL     1      -7.787  -6.371  11.236  1.00  0.00     0.064 A 
ATOM     77  C   UNL     1      -7.978  -7.216  12.339  1.00  0.00     0.173 A 
ATOM     78  C   UNL     1      -7.645  -4.998  11.483  1.00  0.00     0.173 A 
ATOM     79  F   UNL     1      -8.140  -8.534  12.151  1.00  0.00    -0.203 F 
ATOM     80  C   UNL     1      -8.043  -6.706  13.633  1.00  0.00     0.198 A 
ATOM     81  C   UNL     1      -7.683  -4.492  12.781  1.00  0.00     0.198 A 
ATOM     82  F   UNL     1      -7.456  -4.148  10.463  1.00  0.00    -0.203 F 
ATOM     83  F   UNL     1      -8.270  -7.531  14.665  1.00  0.00    -0.200 F 
ATOM     84  C   UNL     1      -7.890  -5.346  13.854  1.00  0.00     0.200 A 
ATOM     85  F   UNL     1      -7.521  -3.179  12.991  1.00  0.00    -0.200 F 
ATOM     86  F   UNL     1      -7.949  -4.856  15.100  1.00  0.00    -0.200 F 
ENDBRANCH  52  76
BRANCH  64  87
ATOM     87  C   UNL     1     -12.542  -9.338   7.098  1.00  0.00     0.064 A 
ATOM     88  C   UNL     1     -13.537  -8.351   7.133  1.00  0.00     0.173 A 
ATOM     89  C   UNL     1     -12.939 -10.678   7.220  1.00  0.00     0.173 A 
ATOM     90  F   UNL     1     -13.206  -7.054   7.037  1.00  0.00    -0.203 F 
ATOM     91  C   UNL     1     -14.876  -8.692   7.306  1.00  0.00     0.198 A 
ATOM     92  C   UNL     1     -14.281 -11.017   7.364  1.00  0.00     0.198 A 
ATOM     93  F   UNL     1     -12.025 -11.660   7.187  1.00  0.00    -0.203 F 
ATOM     94  F   UNL     1     -15.806  -7.729   7.382  1.00  0.00    -0.200 F 
ATOM     95  C   UNL     1     -15.247 -10.024   7.414  1.00  0.00     0.200 A 
ATOM     96  F   UNL     1     -14.639 -12.305   7.456  1.00  0.00    -0.200 F 
ATOM     97  F   UNL     1     -16.537 -10.350   7.573  1.00  0.00    -0.200 F 
ENDBRANCH  64  87
ENDBRANCH  38  39
ENDBRANCH  30  33
ENDBRANCH  28  29
ENDBRANCH  27  28
ENDBRANCH  26  27
ENDBRANCH  25  26
ENDBRANCH   1  25
TORSDOF 18
