REMARK SMILES CC(C)C[C@H](NC(=O)CNC(=O)[C@@H](NC(=O)OCc1ccccc1)C(C)C)C(=O)N[C@@H](C)C(=O)NCCCCCCNC(=O)c1ccc(-c2c3nc(c(-c4c(F)c(F)c(F)c(F)c4F)c4ccc([nH]4)c(-c4c(F)c(F)c(F)c(F)c4F)c4nc(c(-c5c(F)c(F)c(F)c(F)c5F)c5ccc2[nH]5)C=C4)C=C3)cc1
REMARK SMILES IDX 31 1 32 2 30 3 28 4 29 5 5 7 4 8 2 9 1 10 3 11 6 12 7 13
REMARK SMILES IDX 8 15 9 16 10 17 11 18 12 20 13 21 14 22 15 23 16 25 17 26
REMARK SMILES IDX 18 27 19 28 20 29 24 30 21 31 23 32 22 33 25 34 26 35 27 36
REMARK SMILES IDX 33 37 34 38 35 39 36 41 37 42 38 43 39 44 40 45 41 46 42 47
REMARK SMILES IDX 43 48 44 50 45 51 46 52 107 53 47 54 106 55 48 56 49 57
REMARK SMILES IDX 50 58 100 59 51 60 105 61 99 62 101 63 52 64 104 65 98 66
REMARK SMILES IDX 97 67 53 69 85 70 65 71 84 72 66 73 69 74 83 75 102 76 67 77
REMARK SMILES IDX 68 78 82 80 103 81 70 82 54 83 55 84 63 85 56 86 57 87 61 88
REMARK SMILES IDX 64 89 58 90 59 91 62 92 60 93 86 94 87 95 95 96 88 97 89 98
REMARK SMILES IDX 93 99 96 100 90 101 91 102 94 103 92 104 71 105 72 106
REMARK SMILES IDX 80 107 73 108 74 109 78 110 81 111 75 112 76 113 79 114
REMARK SMILES IDX 77 115
REMARK H PARENT 30 6 6 14 10 19 14 24 35 40 42 49 101 68 69 79
REMARK Flexibility Score: inf
ROOT
ATOM      1  C   UNL     1      -3.235  -0.328   3.822  1.00  0.00     0.168 C 
ATOM      2  C   UNL     1      -3.526   0.938   4.612  1.00  0.00     0.041 C 
ENDROOT
BRANCH   1   3
ATOM      3  N   UNL     1      -3.855  -0.261   2.493  1.00  0.00    -0.343 N 
ATOM      4  C   UNL     1      -3.378  -0.681   1.287  1.00  0.00     0.243 C 
ATOM      5  O   UNL     1      -4.168  -0.720   0.342  1.00  0.00    -0.273 OA
ATOM      6  H   UNL     1      -4.750   0.148   2.470  1.00  0.00     0.164 HD
BRANCH   4   7
ATOM      7  C   UNL     1      -1.926  -1.166   1.156  1.00  0.00     0.171 C 
BRANCH   7   8
ATOM      8  C   UNL     1      -1.762  -2.524   1.830  1.00  0.00     0.038 C 
BRANCH   8   9
ATOM      9  C   UNL     1      -2.819  -3.617   1.596  1.00  0.00    -0.015 C 
ATOM     10  C   UNL     1      -2.973  -3.985   0.119  1.00  0.00     0.007 C 
ATOM     11  C   UNL     1      -2.392  -4.867   2.378  1.00  0.00     0.007 C 
ENDBRANCH   8   9
ENDBRANCH   7   8
BRANCH   7  12
ATOM     12  N   UNL     1      -1.069  -0.081   1.683  1.00  0.00    -0.343 N 
ATOM     13  C   UNL     1       0.230   0.146   1.971  1.00  0.00     0.240 C 
ATOM     14  H   UNL     1      -1.609   0.717   1.884  1.00  0.00     0.164 HD
ATOM     15  O   UNL     1       0.490   1.315   2.296  1.00  0.00    -0.273 OA
BRANCH  13  16
ATOM     16  C   UNL     1       1.393  -0.841   1.812  1.00  0.00     0.216 C 
BRANCH  16  17
ATOM     17  N   UNL     1       1.258  -2.183   2.325  1.00  0.00    -0.345 N 
ATOM     18  C   UNL     1       1.329  -3.400   1.727  1.00  0.00     0.243 C 
ATOM     19  H   UNL     1       1.079  -2.224   3.292  1.00  0.00     0.164 HD
ATOM     20  O   UNL     1       1.351  -4.374   2.490  1.00  0.00    -0.273 OA
BRANCH  18  21
ATOM     21  C   UNL     1       1.408  -3.625   0.184  1.00  0.00     0.177 C 
BRANCH  21  22
ATOM     22  N   UNL     1       0.578  -2.697  -0.600  1.00  0.00    -0.309 N 
ATOM     23  C   UNL     1       0.847  -1.561  -1.292  1.00  0.00     0.408 C 
ATOM     24  H   UNL     1      -0.372  -2.955  -0.628  1.00  0.00     0.167 HD
ATOM     25  O   UNL     1      -0.053  -0.799  -1.602  1.00  0.00    -0.225 OA
BRANCH  23  26
ATOM     26  O   UNL     1       2.144  -1.422  -1.631  1.00  0.00    -0.445 OA
BRANCH  26  27
ATOM     27  C   UNL     1       2.428  -0.349  -2.538  1.00  0.00     0.270 C 
BRANCH  27  28
ATOM     28  C   UNL     1       1.914  -0.527  -3.956  1.00  0.00    -0.011 A 
ATOM     29  C   UNL     1       2.215   0.467  -4.899  1.00  0.00     0.007 A 
ATOM     30  C   UNL     1       1.103  -1.599  -4.363  1.00  0.00     0.007 A 
ATOM     31  C   UNL     1       1.694   0.406  -6.193  1.00  0.00     0.000 A 
ATOM     32  C   UNL     1       0.564  -1.649  -5.648  1.00  0.00     0.000 A 
ATOM     33  C   UNL     1       0.857  -0.644  -6.563  1.00  0.00     0.000 A 
ENDBRANCH  27  28
ENDBRANCH  26  27
ENDBRANCH  23  26
ENDBRANCH  21  22
BRANCH  21  34
ATOM     34  C   UNL     1       2.845  -3.878  -0.310  1.00  0.00     0.015 C 
ATOM     35  C   UNL     1       3.560  -4.939   0.539  1.00  0.00     0.010 C 
ATOM     36  C   UNL     1       2.855  -4.375  -1.762  1.00  0.00     0.010 C 
ENDBRANCH  21  34
ENDBRANCH  18  21
ENDBRANCH  16  17
ENDBRANCH  13  16
ENDBRANCH   7  12
ENDBRANCH   4   7
ENDBRANCH   1   3
BRANCH   1  37
ATOM     37  C   UNL     1      -3.590  -1.588   4.636  1.00  0.00     0.242 C 
ATOM     38  O   UNL     1      -2.709  -2.227   5.220  1.00  0.00    -0.273 OA
ATOM     39  N   UNL     1      -4.874  -1.972   4.842  1.00  0.00    -0.354 N 
ATOM     40  H   UNL     1      -4.979  -2.801   5.363  1.00  0.00     0.163 HD
BRANCH  39  41
ATOM     41  C   UNL     1      -6.111  -1.360   4.421  1.00  0.00     0.116 C 
BRANCH  41  42
ATOM     42  C   UNL     1      -6.969  -2.341   3.632  1.00  0.00     0.021 C 
BRANCH  42  43
ATOM     43  C   UNL     1      -7.568  -3.457   4.496  1.00  0.00     0.002 C 
BRANCH  43  44
ATOM     44  C   UNL     1      -8.323  -2.969   5.738  1.00  0.00     0.002 C 
BRANCH  44  45
ATOM     45  C   UNL     1      -9.383  -1.898   5.463  1.00  0.00     0.021 C 
BRANCH  45  46
ATOM     46  C   UNL     1     -10.462  -2.331   4.478  1.00  0.00     0.116 C 
BRANCH  46  47
ATOM     47  N   UNL     1     -11.223  -3.461   4.984  1.00  0.00    -0.352 N 
ATOM     48  C   UNL     1     -12.568  -3.561   5.226  1.00  0.00     0.251 C 
ATOM     49  H   UNL     1     -10.697  -4.270   5.180  1.00  0.00     0.163 HD
ATOM     50  O   UNL     1     -13.012  -4.497   5.882  1.00  0.00    -0.269 OA
BRANCH  48  51
ATOM     51  C   UNL     1     -13.480  -2.521   4.710  1.00  0.00     0.039 A 
ATOM     52  C   UNL     1     -14.472  -2.017   5.553  1.00  0.00     0.014 A 
ATOM     53  C   UNL     1     -13.355  -2.042   3.402  1.00  0.00     0.014 A 
ATOM     54  C   UNL     1     -15.297  -0.985   5.106  1.00  0.00     0.010 A 
ATOM     55  C   UNL     1     -14.128  -0.962   2.984  1.00  0.00     0.010 A 
ATOM     56  C   UNL     1     -15.103  -0.420   3.834  1.00  0.00    -0.014 A 
BRANCH  56  57
ATOM     57  C   UNL     1     -15.888   0.763   3.398  1.00  0.00     0.031 A 
ATOM     58  C   UNL     1     -16.816   0.671   2.220  1.00  0.00     0.074 A 
ATOM     59  C   UNL     1     -15.711   1.938   4.034  1.00  0.00     0.049 A 
ATOM     60  N   UNL     1     -17.538   1.612   1.664  1.00  0.00    -0.248 NA
ATOM     61  C   UNL     1     -16.935  -0.641   1.564  1.00  0.00     0.031 C 
ATOM     62  C   UNL     1     -14.797   2.162   5.156  1.00  0.00     0.029 A 
ATOM     63  N   UNL     1     -16.278   3.170   3.820  1.00  0.00    -0.354 N 
ATOM     64  C   UNL     1     -18.183   1.011   0.591  1.00  0.00     0.074 A 
ATOM     65  C   UNL     1     -17.737  -0.365   0.545  1.00  0.00     0.031 C 
ATOM     66  C   UNL     1     -14.877   3.445   5.542  1.00  0.00     0.029 A 
ATOM     67  C   UNL     1     -15.811   4.146   4.668  1.00  0.00     0.049 A 
ATOM     68  H   UNL     1     -16.956   3.338   3.126  1.00  0.00     0.167 HD
ATOM     69  C   UNL     1     -19.078   1.557  -0.265  1.00  0.00     0.037 A 
ATOM     70  C   UNL     1     -16.089   5.463   4.720  1.00  0.00     0.037 A 
ATOM     71  C   UNL     1     -19.539   2.919  -0.196  1.00  0.00     0.049 A 
ATOM     72  C   UNL     1     -17.082   6.040   3.745  1.00  0.00     0.074 A 
ATOM     73  C   UNL     1     -20.509   3.539  -0.965  1.00  0.00     0.029 A 
ATOM     74  N   UNL     1     -19.055   3.875   0.684  1.00  0.00    -0.354 N 
ATOM     75  N   UNL     1     -17.759   5.436   2.798  1.00  0.00    -0.248 NA
ATOM     76  C   UNL     1     -17.353   7.480   3.849  1.00  0.00     0.031 C 
ATOM     77  C   UNL     1     -20.563   4.886  -0.597  1.00  0.00     0.029 A 
ATOM     78  C   UNL     1     -19.677   5.091   0.447  1.00  0.00     0.049 A 
ATOM     79  H   UNL     1     -18.371   3.715   1.374  1.00  0.00     0.167 HD
ATOM     80  C   UNL     1     -18.551   6.415   2.213  1.00  0.00     0.074 A 
ATOM     81  C   UNL     1     -18.293   7.645   2.930  1.00  0.00     0.031 C 
ATOM     82  C   UNL     1     -19.411   6.307   1.171  1.00  0.00     0.037 A 
BRANCH  69  83
ATOM     83  C   UNL     1     -19.631   0.693  -1.361  1.00  0.00     0.064 A 
ATOM     84  C   UNL     1     -20.540  -0.342  -1.098  1.00  0.00     0.173 A 
ATOM     85  C   UNL     1     -19.320   0.968  -2.702  1.00  0.00     0.173 A 
ATOM     86  F   UNL     1     -20.864  -0.652   0.167  1.00  0.00    -0.203 F 
ATOM     87  C   UNL     1     -21.112  -1.074  -2.136  1.00  0.00     0.198 A 
ATOM     88  C   UNL     1     -19.916   0.254  -3.738  1.00  0.00     0.198 A 
ATOM     89  F   UNL     1     -18.460   1.951  -3.009  1.00  0.00    -0.203 F 
ATOM     90  F   UNL     1     -21.959  -2.075  -1.860  1.00  0.00    -0.200 F 
ATOM     91  C   UNL     1     -20.809  -0.767  -3.454  1.00  0.00     0.200 A 
ATOM     92  F   UNL     1     -19.635   0.564  -5.011  1.00  0.00    -0.200 F 
ATOM     93  F   UNL     1     -21.380  -1.456  -4.452  1.00  0.00    -0.200 F 
ENDBRANCH  69  83
BRANCH  70  94
ATOM     94  C   UNL     1     -15.409   6.337   5.714  1.00  0.00     0.064 A 
ATOM     95  C   UNL     1     -16.130   6.975   6.734  1.00  0.00     0.173 A 
ATOM     96  C   UNL     1     -14.031   6.590   5.638  1.00  0.00     0.173 A 
ATOM     97  F   UNL     1     -17.453   6.782   6.839  1.00  0.00    -0.203 F 
ATOM     98  C   UNL     1     -15.509   7.863   7.610  1.00  0.00     0.198 A 
ATOM     99  C   UNL     1     -13.403   7.447   6.539  1.00  0.00     0.198 A 
ATOM    100  F   UNL     1     -13.290   6.000   4.688  1.00  0.00    -0.203 F 
ATOM    101  F   UNL     1     -16.236   8.514   8.528  1.00  0.00    -0.200 F 
ATOM    102  C   UNL     1     -14.145   8.096   7.514  1.00  0.00     0.200 A 
ATOM    103  F   UNL     1     -12.082   7.654   6.453  1.00  0.00    -0.200 F 
ATOM    104  F   UNL     1     -13.549   8.954   8.352  1.00  0.00    -0.200 F 
ENDBRANCH  70  94
BRANCH  82 105
ATOM    105  C   UNL     1     -20.156   7.546   0.761  1.00  0.00     0.064 A 
ATOM    106  C   UNL     1     -19.506   8.625   0.144  1.00  0.00     0.173 A 
ATOM    107  C   UNL     1     -21.543   7.639   0.955  1.00  0.00     0.173 A 
ATOM    108  F   UNL     1     -18.178   8.593  -0.050  1.00  0.00    -0.203 F 
ATOM    109  C   UNL     1     -20.211   9.764  -0.234  1.00  0.00     0.198 A 
ATOM    110  C   UNL     1     -22.250   8.764   0.541  1.00  0.00     0.198 A 
ATOM    111  F   UNL     1     -22.215   6.632   1.533  1.00  0.00    -0.203 F 
ATOM    112  F   UNL     1     -19.560  10.806  -0.770  1.00  0.00    -0.200 F 
ATOM    113  C   UNL     1     -21.583   9.829  -0.044  1.00  0.00     0.200 A 
ATOM    114  F   UNL     1     -23.579   8.817   0.710  1.00  0.00    -0.200 F 
ATOM    115  F   UNL     1     -22.262  10.922  -0.417  1.00  0.00    -0.200 F 
ENDBRANCH  82 105
ENDBRANCH  56  57
ENDBRANCH  48  51
ENDBRANCH  46  47
ENDBRANCH  45  46
ENDBRANCH  44  45
ENDBRANCH  43  44
ENDBRANCH  42  43
ENDBRANCH  41  42
ENDBRANCH  39  41
ENDBRANCH   1  37
TORSDOF 26
