REMARK SMILES C[C@H]1CCN1c1cc(C(=O)NCCCCCCNC(=O)c2ccc(-c3c4nc(c(-c5c(F)c(F)c(F)c(F)c5F)c5ccc([nH]5)c(-c5c(F)c(F)c(F)c(F)c5F)c5nc(c(-c6c(F)c(F)c(F)c(F)c6F)c6ccc3[nH]6)C=C5)C=C4)cc2)ccc1Cl
REMARK SMILES IDX 15 1 14 2 13 3 12 4 11 5 9 6 10 7 8 9 6 10 7 11 86 12 85 13
REMARK SMILES IDX 87 14 84 15 5 16 1 17 2 18 3 19 4 20 16 21 17 22 18 23 19 24
REMARK SMILES IDX 20 26 21 27 22 28 83 29 23 30 82 31 24 32 25 33 26 34 76 35
REMARK SMILES IDX 27 36 81 37 75 38 77 39 28 40 80 41 74 42 73 43 29 45 61 46
REMARK SMILES IDX 41 47 60 48 42 49 45 50 59 51 78 52 43 53 44 54 58 56 79 57
REMARK SMILES IDX 46 58 30 59 31 60 39 61 32 62 33 63 37 64 40 65 34 66 35 67
REMARK SMILES IDX 38 68 36 69 62 70 63 71 71 72 64 73 65 74 69 75 72 76 66 77
REMARK SMILES IDX 67 78 70 79 68 80 47 81 48 82 56 83 49 84 50 85 54 86 57 87
REMARK SMILES IDX 51 88 52 89 55 90 53 91
REMARK H PARENT 11 8 18 25 77 44 45 55
REMARK Flexibility Score: inf
ROOT
ATOM      1  C   UNL     1      -2.997   0.384  10.350  1.00  0.00     0.002 C 
ENDROOT
BRANCH   1   2
ATOM      2  C   UNL     1      -2.359   1.598   9.661  1.00  0.00     0.002 C 
BRANCH   2   3
ATOM      3  C   UNL     1      -1.283   1.264   8.615  1.00  0.00     0.021 C 
BRANCH   3   4
ATOM      4  C   UNL     1      -1.816   0.450   7.433  1.00  0.00     0.116 C 
BRANCH   4   5
ATOM      5  N   UNL     1      -2.463   1.324   6.476  1.00  0.00    -0.352 N 
ATOM      6  C   UNL     1      -2.127   1.816   5.245  1.00  0.00     0.251 C 
ATOM      7  O   UNL     1      -2.950   2.568   4.718  1.00  0.00    -0.269 OA
ATOM      8  H   UNL     1      -3.347   1.634   6.781  1.00  0.00     0.163 HD
BRANCH   6   9
ATOM      9  C   UNL     1      -0.876   1.487   4.496  1.00  0.00     0.041 A 
ATOM     10  C   UNL     1       0.218   1.525   2.271  1.00  0.00     0.057 A 
ATOM     11  C   UNL     1      -0.885   1.770   3.117  1.00  0.00     0.041 A 
ATOM     12  C   UNL     1       1.357   0.945   2.845  1.00  0.00     0.064 A 
ATOM     13  C   UNL     1       1.391   0.681   4.221  1.00  0.00     0.023 A 
ATOM     14  Cl  UNL     1       2.819   0.639   1.979  1.00  0.00    -0.082 Cl
ATOM     15  C   UNL     1       0.299   0.982   5.045  1.00  0.00     0.015 A 
BRANCH  10  16
ATOM     16  N   UNL     1       0.085   1.961   0.937  1.00  0.00    -0.367 N 
ATOM     17  C   UNL     1      -0.496   0.887  -1.170  1.00  0.00     0.031 C 
ATOM     18  C   UNL     1       0.605   1.495  -0.314  1.00  0.00     0.081 C 
ATOM     19  C   UNL     1       0.967   2.949  -0.643  1.00  0.00     0.046 C 
ATOM     20  C   UNL     1       0.095   3.345   0.546  1.00  0.00     0.119 C 
ENDBRANCH  10  16
ENDBRANCH   6   9
ENDBRANCH   4   5
ENDBRANCH   3   4
ENDBRANCH   2   3
ENDBRANCH   1   2
BRANCH   1  21
ATOM     21  C   UNL     1      -2.008  -0.602  10.979  1.00  0.00     0.021 C 
BRANCH  21  22
ATOM     22  C   UNL     1      -1.131  -0.005  12.074  1.00  0.00     0.116 C 
BRANCH  22  23
ATOM     23  N   UNL     1      -1.911   0.409  13.229  1.00  0.00    -0.352 N 
ATOM     24  C   UNL     1      -1.791   0.039  14.545  1.00  0.00     0.251 C 
ATOM     25  H   UNL     1      -2.634   1.049  13.038  1.00  0.00     0.163 HD
ATOM     26  O   UNL     1      -2.675   0.322  15.347  1.00  0.00    -0.269 OA
BRANCH  24  27
ATOM     27  C   UNL     1      -0.602  -0.713  15.000  1.00  0.00     0.039 A 
ATOM     28  C   UNL     1      -0.779  -1.784  15.880  1.00  0.00     0.014 A 
ATOM     29  C   UNL     1       0.682  -0.347  14.588  1.00  0.00     0.014 A 
ATOM     30  C   UNL     1       0.328  -2.521  16.306  1.00  0.00     0.010 A 
ATOM     31  C   UNL     1       1.777  -1.124  14.959  1.00  0.00     0.010 A 
ATOM     32  C   UNL     1       1.611  -2.214  15.826  1.00  0.00    -0.014 A 
BRANCH  32  33
ATOM     33  C   UNL     1       2.788  -3.029  16.217  1.00  0.00     0.031 A 
ATOM     34  C   UNL     1       3.900  -2.422  17.024  1.00  0.00     0.074 A 
ATOM     35  C   UNL     1       2.889  -4.298  15.777  1.00  0.00     0.049 A 
ATOM     36  N   UNL     1       5.029  -2.958  17.413  1.00  0.00    -0.248 NA
ATOM     37  C   UNL     1       3.735  -1.016  17.420  1.00  0.00     0.031 C 
ATOM     38  C   UNL     1       1.909  -4.976  14.929  1.00  0.00     0.029 A 
ATOM     39  N   UNL     1       3.873  -5.236  15.966  1.00  0.00    -0.354 N 
ATOM     40  C   UNL     1       5.716  -1.952  18.080  1.00  0.00     0.074 A 
ATOM     41  C   UNL     1       4.899  -0.760  17.998  1.00  0.00     0.031 C 
ATOM     42  C   UNL     1       2.335  -6.223  14.678  1.00  0.00     0.029 A 
ATOM     43  C   UNL     1       3.630  -6.423  15.322  1.00  0.00     0.049 A 
ATOM     44  H   UNL     1       4.676  -5.072  16.512  1.00  0.00     0.167 HD
ATOM     45  C   UNL     1       6.909  -2.022  18.718  1.00  0.00     0.037 A 
ATOM     46  C   UNL     1       4.372  -7.544  15.249  1.00  0.00     0.037 A 
ATOM     47  C   UNL     1       7.703  -3.219  18.818  1.00  0.00     0.049 A 
ATOM     48  C   UNL     1       5.678  -7.611  15.991  1.00  0.00     0.074 A 
ATOM     49  C   UNL     1       8.877  -3.421  19.523  1.00  0.00     0.029 A 
ATOM     50  N   UNL     1       7.407  -4.418  18.185  1.00  0.00    -0.354 N 
ATOM     51  N   UNL     1       6.272  -6.683  16.700  1.00  0.00    -0.248 NA
ATOM     52  C   UNL     1       6.409  -8.883  15.932  1.00  0.00     0.031 C 
ATOM     53  C   UNL     1       9.319  -4.725  19.273  1.00  0.00     0.029 A 
ATOM     54  C   UNL     1       8.393  -5.354  18.455  1.00  0.00     0.049 A 
ATOM     55  H   UNL     1       6.613  -4.580  17.625  1.00  0.00     0.167 HD
ATOM     56  C   UNL     1       7.438  -7.260  17.185  1.00  0.00     0.074 A 
ATOM     57  C   UNL     1       7.456  -8.627  16.704  1.00  0.00     0.031 C 
ATOM     58  C   UNL     1       8.405  -6.707  17.958  1.00  0.00     0.037 A 
BRANCH  45  59
ATOM     59  C   UNL     1       7.430  -0.762  19.349  1.00  0.00     0.064 A 
ATOM     60  C   UNL     1       6.813  -0.186  20.471  1.00  0.00     0.173 A 
ATOM     61  C   UNL     1       8.571  -0.129  18.832  1.00  0.00     0.173 A 
ATOM     62  F   UNL     1       5.714  -0.746  20.999  1.00  0.00    -0.203 F 
ATOM     63  C   UNL     1       7.293   0.999  21.024  1.00  0.00     0.198 A 
ATOM     64  C   UNL     1       9.067   1.038  19.409  1.00  0.00     0.198 A 
ATOM     65  F   UNL     1       9.205  -0.640  17.767  1.00  0.00    -0.203 F 
ATOM     66  F   UNL     1       6.649   1.563  22.055  1.00  0.00    -0.200 F 
ATOM     67  C   UNL     1       8.422   1.607  20.496  1.00  0.00     0.200 A 
ATOM     68  F   UNL     1      10.166   1.617  18.905  1.00  0.00    -0.200 F 
ATOM     69  F   UNL     1       8.881   2.747  21.029  1.00  0.00    -0.200 F 
ENDBRANCH  45  59
BRANCH  46  70
ATOM     70  C   UNL     1       3.873  -8.697  14.458  1.00  0.00     0.064 A 
ATOM     71  C   UNL     1       3.399  -9.855  15.088  1.00  0.00     0.173 A 
ATOM     72  C   UNL     1       3.825  -8.648  13.057  1.00  0.00     0.173 A 
ATOM     73  F   UNL     1       3.442  -9.954  16.425  1.00  0.00    -0.203 F 
ATOM     74  C   UNL     1       2.903 -10.925  14.347  1.00  0.00     0.198 A 
ATOM     75  C   UNL     1       3.304  -9.708  12.318  1.00  0.00     0.198 A 
ATOM     76  F   UNL     1       4.258  -7.558  12.407  1.00  0.00    -0.203 F 
ATOM     77  F   UNL     1       2.483 -12.033  14.972  1.00  0.00    -0.200 F 
ATOM     78  C   UNL     1       2.848 -10.848  12.963  1.00  0.00     0.200 A 
ATOM     79  F   UNL     1       3.237  -9.622  10.982  1.00  0.00    -0.200 F 
ATOM     80  F   UNL     1       2.356 -11.871  12.251  1.00  0.00    -0.200 F 
ENDBRANCH  46  70
BRANCH  58  81
ATOM     81  C   UNL     1       9.562  -7.585  18.340  1.00  0.00     0.064 A 
ATOM     82  C   UNL     1      10.534  -7.965  17.403  1.00  0.00     0.173 A 
ATOM     83  C   UNL     1       9.719  -8.020  19.664  1.00  0.00     0.173 A 
ATOM     84  F   UNL     1      10.421  -7.588  16.121  1.00  0.00    -0.203 F 
ATOM     85  C   UNL     1      11.608  -8.770  17.774  1.00  0.00     0.198 A 
ATOM     86  C   UNL     1      10.810  -8.800  20.038  1.00  0.00     0.198 A 
ATOM     87  F   UNL     1       8.820  -7.679  20.600  1.00  0.00    -0.203 F 
ATOM     88  F   UNL     1      12.500  -9.161  16.852  1.00  0.00    -0.200 F 
ATOM     89  C   UNL     1      11.749  -9.180  19.091  1.00  0.00     0.200 A 
ATOM     90  F   UNL     1      10.952  -9.184  21.314  1.00  0.00    -0.200 F 
ATOM     91  F   UNL     1      12.787  -9.950  19.447  1.00  0.00    -0.200 F 
ENDBRANCH  58  81
ENDBRANCH  32  33
ENDBRANCH  24  27
ENDBRANCH  22  23
ENDBRANCH  21  22
ENDBRANCH   1  21
TORSDOF 14
