REMARK SMILES Cc1noc(C)c1[C@@H](C)NC(=O)N[C@H](CO)C(=O)NCCCCCCNC(=O)c1ccc(-c2c3nc(c(-c4c(F)c(F)c(F)c(F)c4F)c4ccc([nH]4)c(-c4c(F)c(F)c(F)c(F)c4F)c4nc(c(-c5c(F)c(F)c(F)c(F)c5F)c5ccc2[nH]5)C=C4)C=C3)cc1
REMARK SMILES IDX 22 1 21 2 20 3 19 4 17 5 18 6 14 8 13 9 10 10 11 11 12 13
REMARK SMILES IDX 8 15 9 16 7 17 1 18 2 19 3 20 4 21 5 22 6 23 15 24 16 25
REMARK SMILES IDX 23 27 24 28 25 29 26 30 27 31 28 33 29 34 30 35 91 36 31 37
REMARK SMILES IDX 90 38 32 39 33 40 34 41 84 42 35 43 89 44 83 45 85 46 36 47
REMARK SMILES IDX 88 48 82 49 81 50 37 52 69 53 49 54 68 55 50 56 53 57 67 58
REMARK SMILES IDX 86 59 51 60 52 61 66 63 87 64 54 65 38 66 39 67 47 68 40 69
REMARK SMILES IDX 41 70 45 71 48 72 42 73 43 74 46 75 44 76 70 77 71 78 79 79
REMARK SMILES IDX 72 80 73 81 77 82 80 83 74 84 75 85 78 86 76 87 55 88 56 89
REMARK SMILES IDX 64 90 57 91 58 92 62 93 65 94 59 95 60 96 63 97 61 98
REMARK H PARENT 19 7 10 12 13 14 16 26 26 32 85 51 53 62
REMARK Flexibility Score: inf
ROOT
ATOM      1  C   UNL     1       6.786   4.588   3.205  1.00  0.00     0.002 C 
ENDROOT
BRANCH   1   2
ATOM      2  C   UNL     1       5.676   5.219   2.356  1.00  0.00     0.021 C 
BRANCH   2   3
ATOM      3  C   UNL     1       5.427   4.585   0.985  1.00  0.00     0.116 C 
BRANCH   3   4
ATOM      4  N   UNL     1       4.649   3.357   1.049  1.00  0.00    -0.354 N 
ATOM      5  C   UNL     1       3.341   3.066   0.798  1.00  0.00     0.245 C 
ATOM      6  O   UNL     1       3.053   1.861   0.783  1.00  0.00    -0.273 OA
ATOM      7  H   UNL     1       5.176   2.575   1.331  1.00  0.00     0.163 HD
BRANCH   5   8
ATOM      8  C   UNL     1       2.268   4.103   0.383  1.00  0.00     0.198 C 
BRANCH   8   9
ATOM      9  N   UNL     1       2.488   5.525   0.633  1.00  0.00    -0.324 N 
ATOM     10  N   UNL     1       2.558   5.922   2.967  1.00  0.00    -0.331 N 
ATOM     11  C   UNL     1       2.653   6.303   1.698  1.00  0.00     0.315 C 
ATOM     12  H   UNL     1       3.009   6.552   3.575  1.00  0.00     0.165 HD
ATOM     13  O   UNL     1       2.988   7.470   1.479  1.00  0.00    -0.249 OA
ATOM     14  H   UNL     1       2.523   6.041  -0.205  1.00  0.00     0.166 HD
BRANCH  10  15
ATOM     15  C   UNL     1       1.957   4.807   3.688  1.00  0.00     0.116 C 
ATOM     16  C   UNL     1       0.719   5.334   4.412  1.00  0.00     0.036 C 
BRANCH  15  17
ATOM     17  C   UNL     1       2.953   4.187   4.631  1.00  0.00     0.040 A 
ATOM     18  C   UNL     1       3.600   6.142   6.281  1.00  0.00     0.071 C 
ATOM     19  C   UNL     1       3.644   4.763   5.744  1.00  0.00     0.086 A 
ATOM     20  N   UNL     1       4.447   3.876   6.342  1.00  0.00    -0.085 NA
ATOM     21  O   UNL     1       4.298   2.702   5.648  1.00  0.00    -0.361 OA
ATOM     22  C   UNL     1       3.406   2.875   4.641  1.00  0.00     0.139 A 
ATOM     23  C   UNL     1       3.164   1.662   3.836  1.00  0.00     0.091 C 
ENDBRANCH  15  17
ENDBRANCH  10  15
ENDBRANCH   8   9
BRANCH   8  24
ATOM     24  C   UNL     1       0.828   3.613   0.691  1.00  0.00     0.191 C 
BRANCH  24  25
ATOM     25  O   UNL     1      -0.030   4.644   1.187  1.00  0.00    -0.394 OA
ATOM     26  H   UNL     1       0.321   4.981   2.026  1.00  0.00     0.210 HD
ENDBRANCH  24  25
ENDBRANCH   8  24
ENDBRANCH   5   8
ENDBRANCH   3   4
ENDBRANCH   2   3
ENDBRANCH   1   2
BRANCH   1  27
ATOM     27  C   UNL     1       8.019   5.484   3.385  1.00  0.00     0.002 C 
BRANCH  27  28
ATOM     28  C   UNL     1       7.782   6.836   4.077  1.00  0.00     0.021 C 
BRANCH  28  29
ATOM     29  C   UNL     1       7.296   6.760   5.523  1.00  0.00     0.116 C 
BRANCH  29  30
ATOM     30  N   UNL     1       8.329   6.295   6.435  1.00  0.00    -0.352 N 
ATOM     31  C   UNL     1       9.067   6.984   7.363  1.00  0.00     0.251 C 
ATOM     32  H   UNL     1       8.531   5.333   6.377  1.00  0.00     0.163 HD
ATOM     33  O   UNL     1      10.041   6.450   7.896  1.00  0.00    -0.269 OA
BRANCH  31  34
ATOM     34  C   UNL     1       8.725   8.377   7.722  1.00  0.00     0.039 A 
ATOM     35  C   UNL     1       9.753   9.321   7.799  1.00  0.00     0.014 A 
ATOM     36  C   UNL     1       7.413   8.752   8.027  1.00  0.00     0.014 A 
ATOM     37  C   UNL     1       9.457  10.648   8.117  1.00  0.00     0.010 A 
ATOM     38  C   UNL     1       7.109  10.092   8.275  1.00  0.00     0.010 A 
ATOM     39  C   UNL     1       8.128  11.056   8.322  1.00  0.00    -0.014 A 
BRANCH  39  40
ATOM     40  C   UNL     1       7.813  12.491   8.559  1.00  0.00     0.031 A 
ATOM     41  C   UNL     1       7.239  12.953   9.869  1.00  0.00     0.074 A 
ATOM     42  C   UNL     1       8.034  13.384   7.574  1.00  0.00     0.049 A 
ATOM     43  N   UNL     1       6.949  14.170  10.262  1.00  0.00    -0.248 NA
ATOM     44  C   UNL     1       6.927  11.914  10.861  1.00  0.00     0.031 C 
ATOM     45  C   UNL     1       8.533  13.056   6.239  1.00  0.00     0.029 A 
ATOM     46  N   UNL     1       7.874  14.748   7.543  1.00  0.00    -0.354 N 
ATOM     47  C   UNL     1       6.425  14.041  11.542  1.00  0.00     0.074 A 
ATOM     48  C   UNL     1       6.377  12.625  11.835  1.00  0.00     0.031 C 
ATOM     49  C   UNL     1       8.677  14.188   5.532  1.00  0.00     0.029 A 
ATOM     50  C   UNL     1       8.246  15.318   6.350  1.00  0.00     0.049 A 
ATOM     51  H   UNL     1       7.526  15.267   8.304  1.00  0.00     0.167 HD
ATOM     52  C   UNL     1       6.041  15.016  12.403  1.00  0.00     0.037 A 
ATOM     53  C   UNL     1       8.244  16.606   5.957  1.00  0.00     0.037 A 
ATOM     54  C   UNL     1       6.094  16.426  12.108  1.00  0.00     0.049 A 
ATOM     55  C   UNL     1       7.805  17.669   6.927  1.00  0.00     0.074 A 
ATOM     56  C   UNL     1       5.782  17.493  12.934  1.00  0.00     0.029 A 
ATOM     57  N   UNL     1       6.471  16.966  10.887  1.00  0.00    -0.354 N 
ATOM     58  N   UNL     1       7.394  17.542   8.165  1.00  0.00    -0.248 NA
ATOM     59  C   UNL     1       7.842  19.057   6.448  1.00  0.00     0.031 C 
ATOM     60  C   UNL     1       5.909  18.673  12.193  1.00  0.00     0.029 A 
ATOM     61  C   UNL     1       6.368  18.349  10.926  1.00  0.00     0.049 A 
ATOM     62  H   UNL     1       6.769  16.444  10.107  1.00  0.00     0.167 HD
ATOM     63  C   UNL     1       7.148  18.830   8.621  1.00  0.00     0.074 A 
ATOM     64  C   UNL     1       7.476  19.726   7.532  1.00  0.00     0.031 C 
ATOM     65  C   UNL     1       6.692  19.233   9.834  1.00  0.00     0.037 A 
BRANCH  52  66
ATOM     66  C   UNL     1       5.519  14.588  13.747  1.00  0.00     0.064 A 
ATOM     67  C   UNL     1       6.350  13.986  14.706  1.00  0.00     0.173 A 
ATOM     68  C   UNL     1       4.177  14.807  14.094  1.00  0.00     0.173 A 
ATOM     69  F   UNL     1       7.641  13.747  14.427  1.00  0.00    -0.203 F 
ATOM     70  C   UNL     1       5.848  13.584  15.942  1.00  0.00     0.198 A 
ATOM     71  C   UNL     1       3.687  14.436  15.344  1.00  0.00     0.198 A 
ATOM     72  F   UNL     1       3.338  15.387  13.222  1.00  0.00    -0.203 F 
ATOM     73  F   UNL     1       6.648  12.957  16.816  1.00  0.00    -0.200 F 
ATOM     74  C   UNL     1       4.520  13.815  16.262  1.00  0.00     0.200 A 
ATOM     75  F   UNL     1       2.407  14.676  15.658  1.00  0.00    -0.200 F 
ATOM     76  F   UNL     1       4.039  13.432  17.453  1.00  0.00    -0.200 F 
ENDBRANCH  52  66
BRANCH  53  77
ATOM     77  C   UNL     1       8.703  16.961   4.588  1.00  0.00     0.064 A 
ATOM     78  C   UNL     1       9.896  17.667   4.384  1.00  0.00     0.173 A 
ATOM     79  C   UNL     1       7.963  16.591   3.455  1.00  0.00     0.173 A 
ATOM     80  F   UNL     1      10.629  18.061   5.436  1.00  0.00    -0.203 F 
ATOM     81  C   UNL     1      10.323  18.005   3.102  1.00  0.00     0.198 A 
ATOM     82  C   UNL     1       8.408  16.901   2.171  1.00  0.00     0.198 A 
ATOM     83  F   UNL     1       6.817  15.909   3.594  1.00  0.00    -0.203 F 
ATOM     84  F   UNL     1      11.445  18.719   2.938  1.00  0.00    -0.200 F 
ATOM     85  C   UNL     1       9.583  17.615   1.996  1.00  0.00     0.200 A 
ATOM     86  F   UNL     1       7.698  16.507   1.106  1.00  0.00    -0.200 F 
ATOM     87  F   UNL     1       9.999  17.931   0.762  1.00  0.00    -0.200 F 
ENDBRANCH  53  77
BRANCH  65  88
ATOM     88  C   UNL     1       6.549  20.713  10.058  1.00  0.00     0.064 A 
ATOM     89  C   UNL     1       5.568  21.471   9.400  1.00  0.00     0.173 A 
ATOM     90  C   UNL     1       7.392  21.378  10.963  1.00  0.00     0.173 A 
ATOM     91  F   UNL     1       4.746  20.888   8.515  1.00  0.00    -0.203 F 
ATOM     92  C   UNL     1       5.460  22.843   9.612  1.00  0.00     0.198 A 
ATOM     93  C   UNL     1       7.257  22.743  11.200  1.00  0.00     0.198 A 
ATOM     94  F   UNL     1       8.342  20.701  11.625  1.00  0.00    -0.203 F 
ATOM     95  F   UNL     1       4.556  23.556   8.927  1.00  0.00    -0.200 F 
ATOM     96  C   UNL     1       6.299  23.477  10.517  1.00  0.00     0.200 A 
ATOM     97  F   UNL     1       8.058  23.350  12.087  1.00  0.00    -0.200 F 
ATOM     98  F   UNL     1       6.191  24.796  10.723  1.00  0.00    -0.200 F 
ENDBRANCH  65  88
ENDBRANCH  39  40
ENDBRANCH  31  34
ENDBRANCH  29  30
ENDBRANCH  28  29
ENDBRANCH  27  28
ENDBRANCH   1  27
TORSDOF 18
