REMARK SMILES Cc1ccc(-c2cc(C(=O)NCCCCCCNC(=O)c3ccc(-c4c5nc(c(-c6c(F)c(F)c(F)c(F)c6F)c6ccc([nH]6)c(-c6c(F)c(F)c(F)c(F)c6F)c6nc(c(-c7c(F)c(F)c(F)c(F)c7F)c7ccc4[nH]7)C=C6)C=C5)cc3)c3c(-c4cccc([N+](=O)[O-])c4)[nH]nc3n2)cc1
REMARK SMILES IDX 14 1 13 2 12 3 11 4 9 5 10 6 8 8 6 9 7 10 98 11 97 12 84 13
REMARK SMILES IDX 96 14 85 15 95 16 5 18 1 19 2 20 3 21 100 22 4 23 99 24
REMARK SMILES IDX 86 25 87 26 94 27 88 28 90 29 89 30 91 31 92 32 93 33 15 34
REMARK SMILES IDX 16 35 17 36 18 37 19 38 20 40 21 41 22 42 83 43 23 44 82 45
REMARK SMILES IDX 24 46 25 47 26 48 76 49 27 50 81 51 75 52 77 53 28 54 80 55
REMARK SMILES IDX 74 56 73 57 29 59 61 60 41 61 60 62 42 63 45 64 59 65 78 66
REMARK SMILES IDX 43 67 44 68 58 70 79 71 46 72 30 73 31 74 39 75 32 76 33 77
REMARK SMILES IDX 37 78 40 79 34 80 35 81 38 82 36 83 62 84 63 85 71 86 64 87
REMARK SMILES IDX 65 88 69 89 72 90 66 91 67 92 70 93 68 94 47 95 48 96 56 97
REMARK SMILES IDX 49 98 50 99 54 100 57 101 51 102 52 103 55 104 53 105
REMARK H PARENT 11 7 95 17 18 39 77 58 45 69
REMARK Flexibility Score: inf
ROOT
ATOM      1  C   UNL     1      -3.721   2.156  -5.927  1.00  0.00     0.002 C 
ENDROOT
BRANCH   1   2
ATOM      2  C   UNL     1      -3.235   1.620  -4.569  1.00  0.00     0.021 C 
BRANCH   2   3
ATOM      3  C   UNL     1      -3.750   2.407  -3.364  1.00  0.00     0.116 C 
BRANCH   3   4
ATOM      4  N   UNL     1      -5.152   2.152  -3.132  1.00  0.00    -0.352 N 
ATOM      5  C   UNL     1      -5.893   1.469  -2.210  1.00  0.00     0.252 C 
ATOM      6  O   UNL     1      -7.094   1.703  -2.300  1.00  0.00    -0.269 OA
ATOM      7  H   UNL     1      -5.719   2.580  -3.813  1.00  0.00     0.163 HD
BRANCH   5   8
ATOM      8  C   UNL     1      -5.347   0.587  -1.146  1.00  0.00     0.055 A 
ATOM      9  C   UNL     1      -3.426  -0.315   0.154  1.00  0.00     0.074 A 
ATOM     10  C   UNL     1      -3.989   0.279  -1.005  1.00  0.00     0.043 A 
ATOM     11  N   UNL     1      -4.123  -0.810   1.206  1.00  0.00    -0.226 NA
ATOM     12  C   UNL     1      -5.464  -0.677   1.051  1.00  0.00     0.182 A 
ATOM     13  C   UNL     1      -6.062  -0.005  -0.081  1.00  0.00     0.059 A 
ATOM     14  N   UNL     1      -6.382  -1.119   1.909  1.00  0.00    -0.154 NA
ATOM     15  C   UNL     1      -7.429  -0.131   0.129  1.00  0.00     0.076 A 
ATOM     16  N   UNL     1      -7.544  -0.778   1.337  1.00  0.00    -0.275 N 
ATOM     17  H   UNL     1      -8.415  -0.976   1.750  1.00  0.00     0.190 HD
BRANCH   9  18
ATOM     18  C   UNL     1      -1.959  -0.300   0.279  1.00  0.00     0.000 A 
ATOM     19  C   UNL     1       2.361  -0.136   0.086  1.00  0.00     0.044 C 
ATOM     20  C   UNL     1       0.866  -0.185   0.199  1.00  0.00    -0.051 A 
ATOM     21  C   UNL     1       0.199  -1.417   0.245  1.00  0.00     0.004 A 
ATOM     22  C   UNL     1       0.117   0.992   0.244  1.00  0.00     0.004 A 
ATOM     23  C   UNL     1      -1.200  -1.475   0.291  1.00  0.00     0.010 A 
ATOM     24  C   UNL     1      -1.276   0.933   0.288  1.00  0.00     0.010 A 
ENDBRANCH   9  18
BRANCH  15  25
ATOM     25  C   UNL     1      -8.614   0.203  -0.650  1.00  0.00     0.007 A 
ATOM     26  C   UNL     1      -9.463   1.239  -0.235  1.00  0.00     0.011 A 
ATOM     27  C   UNL     1      -8.839  -0.427  -1.882  1.00  0.00     0.096 A 
ATOM     28  C   UNL     1     -10.492   1.687  -1.068  1.00  0.00     0.008 A 
ATOM     29  C   UNL     1      -9.843   0.058  -2.730  1.00  0.00     0.270 A 
ATOM     30  C   UNL     1     -10.676   1.110  -2.326  1.00  0.00     0.085 A 
BRANCH  29  31
ATOM     31  N   UNL     1      -9.968  -0.488  -4.086  1.00  0.00     0.062 N 
ATOM     32  O   UNL     1     -10.843  -0.011  -4.823  1.00  0.00    -0.258 OA
ATOM     33  O   UNL     1      -9.195  -1.399  -4.417  1.00  0.00    -0.258 OA
ENDBRANCH  29  31
ENDBRANCH  15  25
ENDBRANCH   5   8
ENDBRANCH   3   4
ENDBRANCH   2   3
ENDBRANCH   1   2
BRANCH   1  34
ATOM     34  C   UNL     1      -3.566   3.669  -6.157  1.00  0.00     0.002 C 
BRANCH  34  35
ATOM     35  C   UNL     1      -2.223   4.277  -5.745  1.00  0.00     0.021 C 
BRANCH  35  36
ATOM     36  C   UNL     1      -1.064   3.886  -6.646  1.00  0.00     0.116 C 
BRANCH  36  37
ATOM     37  N   UNL     1      -0.706   4.915  -7.610  1.00  0.00    -0.352 N 
ATOM     38  C   UNL     1       0.268   4.911  -8.598  1.00  0.00     0.251 C 
ATOM     39  H   UNL     1      -1.237   5.742  -7.552  1.00  0.00     0.163 HD
ATOM     40  O   UNL     1       0.472   5.902  -9.262  1.00  0.00    -0.269 OA
BRANCH  38  41
ATOM     41  C   UNL     1       0.939   3.629  -8.936  1.00  0.00     0.039 A 
ATOM     42  C   UNL     1       0.993   3.276 -10.290  1.00  0.00     0.014 A 
ATOM     43  C   UNL     1       1.268   2.702  -7.954  1.00  0.00     0.014 A 
ATOM     44  C   UNL     1       1.102   1.934 -10.639  1.00  0.00     0.010 A 
ATOM     45  C   UNL     1       1.258   1.365  -8.287  1.00  0.00     0.010 A 
ATOM     46  C   UNL     1       1.097   0.982  -9.623  1.00  0.00    -0.014 A 
BRANCH  46  47
ATOM     47  C   UNL     1       0.815  -0.429  -9.843  1.00  0.00     0.031 A 
ATOM     48  C   UNL     1       1.892  -1.429  -9.708  1.00  0.00     0.074 A 
ATOM     49  C   UNL     1      -0.469  -0.815 -10.013  1.00  0.00     0.049 A 
ATOM     50  N   UNL     1       1.817  -2.643 -10.132  1.00  0.00    -0.248 NA
ATOM     51  C   UNL     1       3.182  -1.110  -9.111  1.00  0.00     0.031 C 
ATOM     52  C   UNL     1      -1.018  -2.163  -9.883  1.00  0.00     0.029 A 
ATOM     53  N   UNL     1      -1.528  -0.058 -10.543  1.00  0.00    -0.354 N 
ATOM     54  C   UNL     1       2.902  -3.333  -9.639  1.00  0.00     0.074 A 
ATOM     55  C   UNL     1       3.752  -2.317  -9.065  1.00  0.00     0.031 C 
ATOM     56  C   UNL     1      -2.172  -2.229 -10.566  1.00  0.00     0.029 A 
ATOM     57  C   UNL     1      -2.305  -0.976 -11.288  1.00  0.00     0.049 A 
ATOM     58  H   UNL     1      -1.693   0.905 -10.422  1.00  0.00     0.167 HD
ATOM     59  C   UNL     1       2.879  -4.698  -9.670  1.00  0.00     0.037 A 
ATOM     60  C   UNL     1      -2.425  -0.876 -12.644  1.00  0.00     0.037 A 
ATOM     61  C   UNL     1       1.710  -5.180 -10.405  1.00  0.00     0.049 A 
ATOM     62  C   UNL     1      -1.974  -2.110 -13.389  1.00  0.00     0.074 A 
ATOM     63  C   UNL     1       0.468  -5.645 -10.001  1.00  0.00     0.029 A 
ATOM     64  N   UNL     1       1.608  -4.922 -11.768  1.00  0.00    -0.354 N 
ATOM     65  N   UNL     1      -1.124  -2.977 -12.912  1.00  0.00    -0.248 NA
ATOM     66  C   UNL     1      -2.427  -2.448 -14.734  1.00  0.00     0.031 C 
ATOM     67  C   UNL     1      -0.396  -5.627 -11.124  1.00  0.00     0.029 A 
ATOM     68  C   UNL     1       0.325  -5.169 -12.214  1.00  0.00     0.049 A 
ATOM     69  H   UNL     1       2.348  -4.606 -12.336  1.00  0.00     0.167 HD
ATOM     70  C   UNL     1      -0.905  -3.959 -13.844  1.00  0.00     0.074 A 
ATOM     71  C   UNL     1      -1.755  -3.590 -14.961  1.00  0.00     0.031 C 
ATOM     72  C   UNL     1      -0.034  -4.986 -13.612  1.00  0.00     0.037 A 
BRANCH  59  73
ATOM     73  C   UNL     1       3.741  -5.593  -8.799  1.00  0.00     0.064 A 
ATOM     74  C   UNL     1       3.287  -6.876  -8.413  1.00  0.00     0.173 A 
ATOM     75  C   UNL     1       4.984  -5.231  -8.249  1.00  0.00     0.173 A 
ATOM     76  F   UNL     1       2.181  -7.417  -8.939  1.00  0.00    -0.203 F 
ATOM     77  C   UNL     1       3.952  -7.660  -7.465  1.00  0.00     0.198 A 
ATOM     78  C   UNL     1       5.624  -5.990  -7.261  1.00  0.00     0.198 A 
ATOM     79  F   UNL     1       5.662  -4.168  -8.691  1.00  0.00    -0.203 F 
ATOM     80  F   UNL     1       3.460  -8.862  -7.133  1.00  0.00    -0.200 F 
ATOM     81  C   UNL     1       5.100  -7.199  -6.859  1.00  0.00     0.200 A 
ATOM     82  F   UNL     1       6.758  -5.535  -6.707  1.00  0.00    -0.200 F 
ATOM     83  F   UNL     1       5.715  -7.927  -5.917  1.00  0.00    -0.200 F 
ENDBRANCH  59  73
BRANCH  60  84
ATOM     84  C   UNL     1      -2.279   0.516 -13.147  1.00  0.00     0.064 A 
ATOM     85  C   UNL     1      -3.210   1.484 -12.720  1.00  0.00     0.173 A 
ATOM     86  C   UNL     1      -1.075   0.973 -13.694  1.00  0.00     0.173 A 
ATOM     87  F   UNL     1      -4.381   1.098 -12.188  1.00  0.00    -0.203 F 
ATOM     88  C   UNL     1      -2.896   2.841 -12.721  1.00  0.00     0.198 A 
ATOM     89  C   UNL     1      -0.771   2.336 -13.709  1.00  0.00     0.198 A 
ATOM     90  F   UNL     1      -0.142   0.103 -14.104  1.00  0.00    -0.203 F 
ATOM     91  F   UNL     1      -3.754   3.727 -12.196  1.00  0.00    -0.200 F 
ATOM     92  C   UNL     1      -1.664   3.263 -13.190  1.00  0.00     0.200 A 
ATOM     93  F   UNL     1       0.434   2.744 -14.134  1.00  0.00    -0.200 F 
ATOM     94  F   UNL     1      -1.317   4.555 -13.101  1.00  0.00    -0.200 F 
ENDBRANCH  60  84
BRANCH  72  95
ATOM     95  C   UNL     1       0.496  -5.973 -14.631  1.00  0.00     0.064 A 
ATOM     96  C   UNL     1       0.567  -5.723 -16.012  1.00  0.00     0.173 A 
ATOM     97  C   UNL     1       1.106  -7.181 -14.207  1.00  0.00     0.173 A 
ATOM     98  F   UNL     1       0.145  -4.566 -16.536  1.00  0.00    -0.203 F 
ATOM     99  C   UNL     1       1.142  -6.635 -16.903  1.00  0.00     0.198 A 
ATOM    100  C   UNL     1       1.734  -8.058 -15.091  1.00  0.00     0.198 A 
ATOM    101  F   UNL     1       1.143  -7.537 -12.914  1.00  0.00    -0.203 F 
ATOM    102  F   UNL     1       1.145  -6.364 -18.216  1.00  0.00    -0.200 F 
ATOM    103  C   UNL     1       1.737  -7.793 -16.443  1.00  0.00     0.200 A 
ATOM    104  F   UNL     1       2.357  -9.148 -14.618  1.00  0.00    -0.200 F 
ATOM    105  F   UNL     1       2.333  -8.637 -17.295  1.00  0.00    -0.200 F 
ENDBRANCH  72  95
ENDBRANCH  46  47
ENDBRANCH  38  41
ENDBRANCH  36  37
ENDBRANCH  35  36
ENDBRANCH  34  35
ENDBRANCH   1  34
TORSDOF 16
