REMARK SMILES C[C@H](C(=O)NCCCCCCNC(=O)c1ccc(-c2c3nc(c(-c4c(F)c(F)c(F)c(F)c4F)c4ccc([nH]4)c(-c4c(F)c(F)c(F)c(F)c4F)c4nc(c(-c5c(F)c(F)c(F)c(F)c5F)c5ccc2[nH]5)C=C4)C=C3)cc1)c1ccc(C[C@H]2CCC[C@@H]2O)cc1
REMARK SMILES IDX 7 1 6 2 5 3 3 4 4 5 2 7 1 8 78 9 79 10 90 11 80 12 89 13
REMARK SMILES IDX 81 14 82 15 83 16 84 17 87 18 85 19 86 20 88 21 8 23 9 24
REMARK SMILES IDX 10 25 11 26 12 27 13 28 14 30 15 31 16 32 77 33 17 34 76 35
REMARK SMILES IDX 18 36 19 37 20 38 70 39 21 40 75 41 69 42 71 43 22 44 74 45
REMARK SMILES IDX 68 46 67 47 23 49 55 50 35 51 54 52 36 53 39 54 53 55 72 56
REMARK SMILES IDX 37 57 38 58 52 60 73 61 40 62 24 63 25 64 33 65 26 66 27 67
REMARK SMILES IDX 31 68 34 69 28 70 29 71 32 72 30 73 56 74 57 75 65 76 58 77
REMARK SMILES IDX 59 78 63 79 66 80 60 81 61 82 64 83 62 84 41 85 42 86 50 87
REMARK SMILES IDX 43 88 44 89 48 90 51 91 45 92 46 93 49 94 47 95
REMARK H PARENT 5 6 88 22 12 29 71 48 39 59
REMARK Flexibility Score: inf
ROOT
ATOM      1  C   UNL     1       1.606   0.594   3.278  1.00  0.00     0.021 C 
ENDROOT
BRANCH   1   2
ATOM      2  C   UNL     1       0.597   0.786   2.146  1.00  0.00     0.116 C 
BRANCH   2   3
ATOM      3  N   UNL     1       1.236   0.746   0.845  1.00  0.00    -0.356 N 
ATOM      4  C   UNL     1       1.263  -0.230  -0.105  1.00  0.00     0.227 C 
ATOM      5  O   UNL     1       1.887   0.016  -1.142  1.00  0.00    -0.274 OA
ATOM      6  H   UNL     1       1.736   1.561   0.609  1.00  0.00     0.163 HD
BRANCH   4   7
ATOM      7  C   UNL     1       0.550  -1.573   0.079  1.00  0.00     0.105 C 
ATOM      8  C   UNL     1       1.113  -2.326   1.293  1.00  0.00     0.023 C 
BRANCH   7   9
ATOM      9  C   UNL     1      -0.975  -1.522   0.045  1.00  0.00    -0.036 A 
ATOM     10  C   UNL     1      -1.683  -0.357  -0.286  1.00  0.00     0.005 A 
ATOM     11  C   UNL     1      -1.718  -2.682   0.317  1.00  0.00     0.005 A 
ATOM     12  C   UNL     1      -3.079  -0.325  -0.233  1.00  0.00     0.004 A 
ATOM     13  C   UNL     1      -3.113  -2.648   0.372  1.00  0.00     0.004 A 
ATOM     14  C   UNL     1      -3.806  -1.455   0.147  1.00  0.00    -0.048 A 
BRANCH  14  15
ATOM     15  C   UNL     1      -5.302  -1.390   0.341  1.00  0.00     0.041 C 
BRANCH  15  16
ATOM     16  C   UNL     1      -5.774  -0.823   1.693  1.00  0.00     0.022 C 
ATOM     17  C   UNL     1      -5.212  -1.504   2.953  1.00  0.00     0.007 C 
ATOM     18  C   UNL     1      -5.507   0.668   1.912  1.00  0.00     0.117 C 
ATOM     19  C   UNL     1      -5.003  -0.388   3.982  1.00  0.00     0.003 C 
ATOM     20  C   UNL     1      -5.710   0.830   3.411  1.00  0.00     0.032 C 
BRANCH  18  21
ATOM     21  O   UNL     1      -6.415   1.462   1.172  1.00  0.00    -0.393 OA
ATOM     22  H   UNL     1      -7.324   1.228   1.419  1.00  0.00     0.210 HD
ENDBRANCH  18  21
ENDBRANCH  15  16
ENDBRANCH  14  15
ENDBRANCH   7   9
ENDBRANCH   4   7
ENDBRANCH   2   3
ENDBRANCH   1   2
BRANCH   1  23
ATOM     23  C   UNL     1       2.716   1.652   3.330  1.00  0.00     0.002 C 
BRANCH  23  24
ATOM     24  C   UNL     1       2.240   3.095   3.520  1.00  0.00     0.002 C 
BRANCH  24  25
ATOM     25  C   UNL     1       1.365   3.336   4.750  1.00  0.00     0.021 C 
BRANCH  25  26
ATOM     26  C   UNL     1       1.990   2.914   6.076  1.00  0.00     0.116 C 
BRANCH  26  27
ATOM     27  N   UNL     1       3.179   3.686   6.404  1.00  0.00    -0.352 N 
ATOM     28  C   UNL     1       3.478   4.366   7.559  1.00  0.00     0.251 C 
ATOM     29  H   UNL     1       3.865   3.726   5.700  1.00  0.00     0.163 HD
ATOM     30  O   UNL     1       4.458   5.102   7.615  1.00  0.00    -0.269 OA
BRANCH  28  31
ATOM     31  C   UNL     1       2.594   4.230   8.736  1.00  0.00     0.039 A 
ATOM     32  C   UNL     1       2.181   5.382   9.411  1.00  0.00     0.014 A 
ATOM     33  C   UNL     1       2.163   2.971   9.160  1.00  0.00     0.014 A 
ATOM     34  C   UNL     1       1.277   5.276  10.470  1.00  0.00     0.010 A 
ATOM     35  C   UNL     1       1.208   2.873  10.167  1.00  0.00     0.010 A 
ATOM     36  C   UNL     1       0.754   4.024  10.831  1.00  0.00    -0.014 A 
BRANCH  36  37
ATOM     37  C   UNL     1      -0.270   3.888  11.897  1.00  0.00     0.031 A 
ATOM     38  C   UNL     1       0.040   3.107  13.142  1.00  0.00     0.074 A 
ATOM     39  C   UNL     1      -1.508   4.380  11.701  1.00  0.00     0.049 A 
ATOM     40  N   UNL     1      -0.751   2.770  14.129  1.00  0.00    -0.248 NA
ATOM     41  C   UNL     1       1.418   2.611  13.278  1.00  0.00     0.031 C 
ATOM     42  C   UNL     1      -1.948   5.111  10.512  1.00  0.00     0.029 A 
ATOM     43  N   UNL     1      -2.632   4.316  12.487  1.00  0.00    -0.354 N 
ATOM     44  C   UNL     1       0.026   2.004  14.989  1.00  0.00     0.074 A 
ATOM     45  C   UNL     1       1.334   1.884  14.382  1.00  0.00     0.031 C 
ATOM     46  C   UNL     1      -3.245   5.428  10.647  1.00  0.00     0.029 A 
ATOM     47  C   UNL     1      -3.739   4.890  11.911  1.00  0.00     0.049 A 
ATOM     48  H   UNL     1      -2.644   3.899  13.379  1.00  0.00     0.167 HD
ATOM     49  C   UNL     1      -0.317   1.467  16.184  1.00  0.00     0.037 A 
ATOM     50  C   UNL     1      -5.014   4.955  12.341  1.00  0.00     0.037 A 
ATOM     51  C   UNL     1      -1.613   1.612  16.793  1.00  0.00     0.049 A 
ATOM     52  C   UNL     1      -5.373   4.356  13.673  1.00  0.00     0.074 A 
ATOM     53  C   UNL     1      -2.037   1.176  18.035  1.00  0.00     0.029 A 
ATOM     54  N   UNL     1      -2.700   2.235  16.195  1.00  0.00    -0.354 N 
ATOM     55  N   UNL     1      -4.611   3.703  14.517  1.00  0.00    -0.248 NA
ATOM     56  C   UNL     1      -6.766   4.507  14.117  1.00  0.00     0.031 C 
ATOM     57  C   UNL     1      -3.395   1.484  18.167  1.00  0.00     0.029 A 
ATOM     58  C   UNL     1      -3.803   2.166  17.031  1.00  0.00     0.049 A 
ATOM     59  H   UNL     1      -2.689   2.662  15.309  1.00  0.00     0.167 HD
ATOM     60  C   UNL     1      -5.421   3.387  15.599  1.00  0.00     0.074 A 
ATOM     61  C   UNL     1      -6.733   3.929  15.310  1.00  0.00     0.031 C 
ATOM     62  C   UNL     1      -5.104   2.712  16.731  1.00  0.00     0.037 A 
BRANCH  49  63
ATOM     63  C   UNL     1       0.727   0.662  16.905  1.00  0.00     0.064 A 
ATOM     64  C   UNL     1       1.882   1.256  17.439  1.00  0.00     0.173 A 
ATOM     65  C   UNL     1       0.566  -0.721  17.073  1.00  0.00     0.173 A 
ATOM     66  F   UNL     1       2.090   2.574  17.300  1.00  0.00    -0.203 F 
ATOM     67  C   UNL     1       2.856   0.488  18.073  1.00  0.00     0.198 A 
ATOM     68  C   UNL     1       1.525  -1.480  17.739  1.00  0.00     0.198 A 
ATOM     69  F   UNL     1      -0.522  -1.340  16.590  1.00  0.00    -0.203 F 
ATOM     70  F   UNL     1       3.980   1.068  18.516  1.00  0.00    -0.200 F 
ATOM     71  C   UNL     1       2.674  -0.878  18.227  1.00  0.00     0.200 A 
ATOM     72  F   UNL     1       1.341  -2.798  17.899  1.00  0.00    -0.200 F 
ATOM     73  F   UNL     1       3.613  -1.615  18.837  1.00  0.00    -0.200 F 
ENDBRANCH  49  63
BRANCH  50  74
ATOM     74  C   UNL     1      -6.036   5.625  11.497  1.00  0.00     0.064 A 
ATOM     75  C   UNL     1      -6.579   6.864  11.864  1.00  0.00     0.173 A 
ATOM     76  C   UNL     1      -6.468   5.056  10.289  1.00  0.00     0.173 A 
ATOM     77  F   UNL     1      -6.212   7.439  13.018  1.00  0.00    -0.203 F 
ATOM     78  C   UNL     1      -7.522   7.503  11.061  1.00  0.00     0.198 A 
ATOM     79  C   UNL     1      -7.389   5.708   9.474  1.00  0.00     0.198 A 
ATOM     80  F   UNL     1      -5.972   3.875   9.889  1.00  0.00    -0.203 F 
ATOM     81  F   UNL     1      -8.049   8.671  11.451  1.00  0.00    -0.200 F 
ATOM     82  C   UNL     1      -7.920   6.929   9.863  1.00  0.00     0.200 A 
ATOM     83  F   UNL     1      -7.756   5.159   8.308  1.00  0.00    -0.200 F 
ATOM     84  F   UNL     1      -8.815   7.551   9.084  1.00  0.00    -0.200 F 
ENDBRANCH  50  74
BRANCH  62  85
ATOM     85  C   UNL     1      -6.181   2.541  17.762  1.00  0.00     0.064 A 
ATOM     86  C   UNL     1      -7.250   1.653  17.571  1.00  0.00     0.173 A 
ATOM     87  C   UNL     1      -6.105   3.225  18.986  1.00  0.00     0.173 A 
ATOM     88  F   UNL     1      -7.376   0.988  16.413  1.00  0.00    -0.203 F 
ATOM     89  C   UNL     1      -8.211   1.467  18.562  1.00  0.00     0.198 A 
ATOM     90  C   UNL     1      -7.051   3.014  19.985  1.00  0.00     0.198 A 
ATOM     91  F   UNL     1      -5.100   4.081  19.220  1.00  0.00    -0.203 F 
ATOM     92  F   UNL     1      -9.243   0.641  18.345  1.00  0.00    -0.200 F 
ATOM     93  C   UNL     1      -8.105   2.139  19.771  1.00  0.00     0.200 A 
ATOM     94  F   UNL     1      -6.938   3.654  21.157  1.00  0.00    -0.200 F 
ATOM     95  F   UNL     1      -9.022   1.946  20.729  1.00  0.00    -0.200 F 
ENDBRANCH  62  85
ENDBRANCH  36  37
ENDBRANCH  28  31
ENDBRANCH  26  27
ENDBRANCH  25  26
ENDBRANCH  24  25
ENDBRANCH  23  24
ENDBRANCH   1  23
TORSDOF 17
