REMARK SMILES CCC[C@H](Nc1cc(C)c(N)c(C(=O)NCCCCCCNC(=O)c2ccc(-c3c4nc(c(-c5c(F)c(F)c(F)c(F)c5F)c5ccc([nH]5)c(-c5c(F)c(F)c(F)c(F)c5F)c5nc(c(-c6c(F)c(F)c(F)c(F)c6F)c6ccc3[nH]6)C=C5)C=C4)cc2)c1)c1cccs1
REMARK SMILES IDX 17 1 16 2 15 3 13 4 14 5 12 7 6 8 7 9 88 10 8 11 9 12 10 13
REMARK SMILES IDX 5 14 4 16 3 17 2 18 1 19 89 20 90 21 93 22 91 23 92 24 11 25
REMARK SMILES IDX 18 28 19 29 20 30 21 31 22 32 23 33 24 35 25 36 26 37 87 38
REMARK SMILES IDX 27 39 86 40 28 41 29 42 30 43 80 44 31 45 85 46 79 47 81 48
REMARK SMILES IDX 32 49 84 50 78 51 77 52 33 54 65 55 45 56 64 57 46 58 49 59
REMARK SMILES IDX 63 60 82 61 47 62 48 63 62 65 83 66 50 67 34 68 35 69 43 70
REMARK SMILES IDX 36 71 37 72 41 73 44 74 38 75 39 76 42 77 40 78 66 79 67 80
REMARK SMILES IDX 75 81 68 82 69 83 73 84 76 85 70 86 71 87 74 88 72 89 51 90
REMARK SMILES IDX 52 91 60 92 53 93 54 94 58 95 61 96 55 97 56 98 59 99 57 100
REMARK H PARENT 15 6 5 15 11 26 11 27 22 34 81 53 49 64
REMARK Flexibility Score: inf
ROOT
ATOM      1  C   UNL     1      -1.887  -1.030  -4.720  1.00  0.00     0.021 C 
ENDROOT
BRANCH   1   2
ATOM      2  C   UNL     1      -0.456  -0.513  -4.901  1.00  0.00     0.116 C 
BRANCH   2   3
ATOM      3  N   UNL     1      -0.401   0.896  -4.568  1.00  0.00    -0.352 N 
ATOM      4  C   UNL     1      -0.055   1.609  -3.448  1.00  0.00     0.253 C 
ATOM      5  O   UNL     1      -0.253   2.827  -3.519  1.00  0.00    -0.269 OA
ATOM      6  H   UNL     1      -0.675   1.474  -5.317  1.00  0.00     0.163 HD
BRANCH   4   7
ATOM      7  C   UNL     1       0.563   1.024  -2.208  1.00  0.00     0.065 A 
ATOM      8  C   UNL     1       1.129  -0.910  -0.810  1.00  0.00     0.036 A 
ATOM      9  C   UNL     1       1.800  -0.070   0.070  1.00  0.00     0.031 A 
ATOM     10  C   UNL     1       0.446  -0.332  -1.883  1.00  0.00     0.041 A 
ATOM     11  C   UNL     1       1.883   1.315  -0.169  1.00  0.00    -0.025 A 
ATOM     12  C   UNL     1       2.661   2.175   0.792  1.00  0.00     0.046 C 
ATOM     13  C   UNL     1       1.268   1.873  -1.314  1.00  0.00     0.047 A 
BRANCH   8  14
ATOM     14  N   UNL     1       1.104  -2.282  -0.674  1.00  0.00    -0.377 N 
ATOM     15  H   UNL     1       1.423  -2.819  -1.435  1.00  0.00     0.161 HD
BRANCH  14  16
ATOM     16  C   UNL     1       0.641  -3.003   0.510  1.00  0.00     0.119 C 
BRANCH  16  17
ATOM     17  C   UNL     1      -0.909  -2.963   0.509  1.00  0.00     0.030 C 
BRANCH  17  18
ATOM     18  C   UNL     1      -1.684  -3.951   1.388  1.00  0.00    -0.001 C 
ATOM     19  C   UNL     1      -1.247  -4.012   2.839  1.00  0.00     0.004 C 
ENDBRANCH  17  18
ENDBRANCH  16  17
BRANCH  16  20
ATOM     20  C   UNL     1       1.235  -4.403   0.536  1.00  0.00     0.027 A 
ATOM     21  C   UNL     1       2.247  -4.865   1.360  1.00  0.00     0.017 A 
ATOM     22  S   UNL     1       0.750  -5.621  -0.576  1.00  0.00    -0.147 S 
ATOM     23  C   UNL     1       2.529  -6.247   1.161  1.00  0.00     0.012 A 
ATOM     24  C   UNL     1       1.753  -6.790   0.164  1.00  0.00     0.065 A 
ENDBRANCH  16  20
ENDBRANCH  14  16
ENDBRANCH   8  14
BRANCH  13  25
ATOM     25  N   UNL     1       1.498   3.220  -1.623  1.00  0.00    -0.398 N 
ATOM     26  H   UNL     1       1.989   3.794  -0.990  1.00  0.00     0.156 HD
ATOM     27  H   UNL     1       1.169   3.594  -2.472  1.00  0.00     0.156 HD
ENDBRANCH  13  25
ENDBRANCH   4   7
ENDBRANCH   2   3
ENDBRANCH   1   2
BRANCH   1  28
ATOM     28  C   UNL     1      -2.798  -0.696  -5.912  1.00  0.00     0.002 C 
BRANCH  28  29
ATOM     29  C   UNL     1      -2.386  -1.352  -7.237  1.00  0.00     0.002 C 
BRANCH  29  30
ATOM     30  C   UNL     1      -2.241  -2.875  -7.184  1.00  0.00     0.021 C 
BRANCH  30  31
ATOM     31  C   UNL     1      -3.528  -3.613  -6.829  1.00  0.00     0.116 C 
BRANCH  31  32
ATOM     32  N   UNL     1      -4.538  -3.453  -7.864  1.00  0.00    -0.352 N 
ATOM     33  C   UNL     1      -5.198  -4.412  -8.589  1.00  0.00     0.251 C 
ATOM     34  H   UNL     1      -4.783  -2.523  -8.073  1.00  0.00     0.163 HD
ATOM     35  O   UNL     1      -5.844  -4.101  -9.583  1.00  0.00    -0.269 OA
BRANCH  33  36
ATOM     36  C   UNL     1      -5.122  -5.828  -8.175  1.00  0.00     0.039 A 
ATOM     37  C   UNL     1      -4.919  -6.808  -9.149  1.00  0.00     0.014 A 
ATOM     38  C   UNL     1      -5.280  -6.190  -6.834  1.00  0.00     0.014 A 
ATOM     39  C   UNL     1      -4.825  -8.149  -8.772  1.00  0.00     0.010 A 
ATOM     40  C   UNL     1      -5.121  -7.519  -6.451  1.00  0.00     0.010 A 
ATOM     41  C   UNL     1      -4.899  -8.512  -7.418  1.00  0.00    -0.014 A 
BRANCH  41  42
ATOM     42  C   UNL     1      -4.759  -9.927  -6.993  1.00  0.00     0.031 A 
ATOM     43  C   UNL     1      -5.921 -10.642  -6.363  1.00  0.00     0.074 A 
ATOM     44  C   UNL     1      -3.570 -10.546  -7.122  1.00  0.00     0.049 A 
ATOM     45  N   UNL     1      -5.976 -11.849  -5.858  1.00  0.00    -0.248 NA
ATOM     46  C   UNL     1      -7.185  -9.894  -6.266  1.00  0.00     0.031 C 
ATOM     47  C   UNL     1      -2.359  -9.943  -7.681  1.00  0.00     0.029 A 
ATOM     48  N   UNL     1      -3.181 -11.817  -6.781  1.00  0.00    -0.354 N 
ATOM     49  C   UNL     1      -7.270 -11.999  -5.377  1.00  0.00     0.074 A 
ATOM     50  C   UNL     1      -7.954 -10.744  -5.602  1.00  0.00     0.031 C 
ATOM     51  C   UNL     1      -1.368 -10.850  -7.663  1.00  0.00     0.029 A 
ATOM     52  C   UNL     1      -1.862 -12.082  -7.057  1.00  0.00     0.049 A 
ATOM     53  H   UNL     1      -3.790 -12.477  -6.377  1.00  0.00     0.167 HD
ATOM     54  C   UNL     1      -7.843 -13.093  -4.821  1.00  0.00     0.037 A 
ATOM     55  C   UNL     1      -1.133 -13.193  -6.838  1.00  0.00     0.037 A 
ATOM     56  C   UNL     1      -7.167 -14.348  -4.622  1.00  0.00     0.049 A 
ATOM     57  C   UNL     1      -1.794 -14.390  -6.207  1.00  0.00     0.074 A 
ATOM     58  C   UNL     1      -7.672 -15.529  -4.107  1.00  0.00     0.029 A 
ATOM     59  N   UNL     1      -5.835 -14.584  -4.932  1.00  0.00    -0.354 N 
ATOM     60  N   UNL     1      -3.033 -14.538  -5.808  1.00  0.00    -0.248 NA
ATOM     61  C   UNL     1      -0.952 -15.577  -6.001  1.00  0.00     0.031 C 
ATOM     62  C   UNL     1      -6.637 -16.468  -4.071  1.00  0.00     0.029 A 
ATOM     63  C   UNL     1      -5.499 -15.887  -4.605  1.00  0.00     0.049 A 
ATOM     64  H   UNL     1      -5.221 -13.923  -5.326  1.00  0.00     0.167 HD
ATOM     65  C   UNL     1      -3.129 -15.839  -5.335  1.00  0.00     0.074 A 
ATOM     66  C   UNL     1      -1.825 -16.444  -5.510  1.00  0.00     0.031 C 
ATOM     67  C   UNL     1      -4.199 -16.476  -4.801  1.00  0.00     0.037 A 
BRANCH  54  68
ATOM     68  C   UNL     1      -9.279 -12.988  -4.397  1.00  0.00     0.064 A 
ATOM     69  C   UNL     1     -10.316 -12.918  -5.339  1.00  0.00     0.173 A 
ATOM     70  C   UNL     1      -9.626 -13.011  -3.038  1.00  0.00     0.173 A 
ATOM     71  F   UNL     1     -10.036 -12.881  -6.651  1.00  0.00    -0.203 F 
ATOM     72  C   UNL     1     -11.647 -12.852  -4.936  1.00  0.00     0.198 A 
ATOM     73  C   UNL     1     -10.960 -12.973  -2.639  1.00  0.00     0.198 A 
ATOM     74  F   UNL     1      -8.673 -13.082  -2.097  1.00  0.00    -0.203 F 
ATOM     75  F   UNL     1     -12.619 -12.744  -5.853  1.00  0.00    -0.200 F 
ATOM     76  C   UNL     1     -11.969 -12.888  -3.587  1.00  0.00     0.200 A 
ATOM     77  F   UNL     1     -11.270 -13.022  -1.336  1.00  0.00    -0.200 F 
ATOM     78  F   UNL     1     -13.251 -12.837  -3.201  1.00  0.00    -0.200 F 
ENDBRANCH  54  68
BRANCH  55  79
ATOM     79  C   UNL     1       0.298 -13.239  -7.233  1.00  0.00     0.064 A 
ATOM     80  C   UNL     1       0.729 -14.063  -8.283  1.00  0.00     0.173 A 
ATOM     81  C   UNL     1       1.268 -12.482  -6.559  1.00  0.00     0.173 A 
ATOM     82  F   UNL     1      -0.158 -14.822  -8.944  1.00  0.00    -0.203 F 
ATOM     83  C   UNL     1       2.077 -14.150  -8.624  1.00  0.00     0.198 A 
ATOM     84  C   UNL     1       2.612 -12.548  -6.920  1.00  0.00     0.198 A 
ATOM     85  F   UNL     1       0.908 -11.674  -5.550  1.00  0.00    -0.203 F 
ATOM     86  F   UNL     1       2.467 -14.988  -9.594  1.00  0.00    -0.200 F 
ATOM     87  C   UNL     1       3.017 -13.390  -7.945  1.00  0.00     0.200 A 
ATOM     88  F   UNL     1       3.515 -11.802  -6.270  1.00  0.00    -0.200 F 
ATOM     89  F   UNL     1       4.313 -13.476  -8.271  1.00  0.00    -0.200 F 
ENDBRANCH  55  79
BRANCH  67  90
ATOM     90  C   UNL     1      -4.017 -17.912  -4.406  1.00  0.00     0.064 A 
ATOM     91  C   UNL     1      -3.263 -18.276  -3.281  1.00  0.00     0.173 A 
ATOM     92  C   UNL     1      -4.638 -18.934  -5.141  1.00  0.00     0.173 A 
ATOM     93  F   UNL     1      -2.637 -17.337  -2.555  1.00  0.00    -0.203 F 
ATOM     94  C   UNL     1      -3.114 -19.613  -2.922  1.00  0.00     0.198 A 
ATOM     95  C   UNL     1      -4.512 -20.267  -4.762  1.00  0.00     0.198 A 
ATOM     96  F   UNL     1      -5.376 -18.637  -6.221  1.00  0.00    -0.203 F 
ATOM     97  F   UNL     1      -2.349 -19.941  -1.872  1.00  0.00    -0.200 F 
ATOM     98  C   UNL     1      -3.744 -20.606  -3.658  1.00  0.00     0.200 A 
ATOM     99  F   UNL     1      -5.132 -21.224  -5.466  1.00  0.00    -0.200 F 
ATOM    100  F   UNL     1      -3.606 -21.891  -3.306  1.00  0.00    -0.200 F 
ENDBRANCH  67  90
ENDBRANCH  41  42
ENDBRANCH  33  36
ENDBRANCH  31  32
ENDBRANCH  30  31
ENDBRANCH  29  30
ENDBRANCH  28  29
ENDBRANCH   1  28
TORSDOF 19
