REMARK SMILES NC(=O)c1cc(NC(=O)/C=C\C(=O)NCCCCCCNC(=O)c2ccc(-c3c4nc(c(-c5c(F)c(F)c(F)c(F)c5F)c5ccc([nH]5)c(-c5c(F)c(F)c(F)c(F)c5F)c5nc(c(-c6c(F)c(F)c(F)c(F)c6F)c6ccc3[nH]6)C=C5)C=C4)cc2)ccc1N1CCOCC1
REMARK SMILES IDX 17 1 16 2 15 3 14 4 12 5 13 6 11 8 10 9 8 10 7 11 9 13 6 14
REMARK SMILES IDX 4 15 5 16 89 17 88 18 87 19 2 20 1 21 3 24 90 25 91 26 95 27
REMARK SMILES IDX 92 28 94 29 93 30 18 31 19 32 20 33 21 34 22 35 23 37 24 38
REMARK SMILES IDX 25 39 86 40 26 41 85 42 27 43 28 44 29 45 79 46 30 47 84 48
REMARK SMILES IDX 78 49 80 50 31 51 83 52 77 53 76 54 32 56 64 57 44 58 63 59
REMARK SMILES IDX 45 60 48 61 62 62 81 63 46 64 47 65 61 67 82 68 49 69 33 70
REMARK SMILES IDX 34 71 42 72 35 73 36 74 40 75 43 76 37 77 38 78 41 79 39 80
REMARK SMILES IDX 65 81 66 82 74 83 67 84 68 85 72 86 75 87 69 88 70 89 73 90
REMARK SMILES IDX 71 91 50 92 51 93 59 94 52 95 53 96 57 97 60 98 54 99 55 100
REMARK SMILES IDX 58 101 56 102
REMARK H PARENT 14 7 7 12 1 22 1 23 21 36 80 55 48 66
REMARK Flexibility Score: inf
ROOT
ATOM      1  C   UNL     1       2.401   4.122  -6.352  1.00  0.00     0.002 C 
ENDROOT
BRANCH   1   2
ATOM      2  C   UNL     1       1.025   4.760  -6.150  1.00  0.00     0.021 C 
BRANCH   2   3
ATOM      3  C   UNL     1      -0.150   3.792  -6.080  1.00  0.00     0.116 C 
BRANCH   3   4
ATOM      4  N   UNL     1       0.024   2.679  -5.174  1.00  0.00    -0.353 N 
ATOM      5  C   UNL     1      -0.655   2.421  -4.030  1.00  0.00     0.244 C 
ATOM      6  O   UNL     1      -0.880   1.259  -3.704  1.00  0.00    -0.270 OA
ATOM      7  H   UNL     1       0.722   2.029  -5.418  1.00  0.00     0.163 HD
BRANCH   5   8
ATOM      8  C   UNL     1      -1.165   3.513  -3.181  1.00  0.00     0.077 C 
ATOM      9  C   UNL     1      -0.481   4.510  -2.600  1.00  0.00     0.077 C 
BRANCH   9  10
ATOM     10  C   UNL     1       0.930   4.945  -2.736  1.00  0.00     0.248 C 
ATOM     11  N   UNL     1       1.979   4.094  -2.879  1.00  0.00    -0.322 N 
ATOM     12  H   UNL     1       2.787   4.515  -3.252  1.00  0.00     0.170 HD
ATOM     13  O   UNL     1       1.142   6.160  -2.782  1.00  0.00    -0.270 OA
BRANCH  11  14
ATOM     14  C   UNL     1       2.127   2.732  -2.598  1.00  0.00     0.042 A 
ATOM     15  C   UNL     1       1.499   0.677  -1.476  1.00  0.00     0.064 A 
ATOM     16  C   UNL     1       1.350   2.062  -1.666  1.00  0.00     0.042 A 
ATOM     17  C   UNL     1       2.465  -0.062  -2.181  1.00  0.00     0.050 A 
ATOM     18  C   UNL     1       3.248   0.654  -3.105  1.00  0.00     0.029 A 
ATOM     19  C   UNL     1       3.114   2.030  -3.283  1.00  0.00     0.028 A 
BRANCH  15  20
ATOM     20  C   UNL     1       0.622   0.118  -0.432  1.00  0.00     0.250 C 
ATOM     21  N   UNL     1       0.927   0.502   0.844  1.00  0.00    -0.366 N 
ATOM     22  H   UNL     1       0.388   0.171   1.599  1.00  0.00     0.159 HD
ATOM     23  H   UNL     1       1.685   1.108   1.008  1.00  0.00     0.159 HD
ATOM     24  O   UNL     1      -0.336  -0.603  -0.675  1.00  0.00    -0.269 OA
ENDBRANCH  15  20
BRANCH  17  25
ATOM     25  N   UNL     1       2.809  -1.389  -1.987  1.00  0.00    -0.366 N 
ATOM     26  C   UNL     1       1.842  -2.478  -1.783  1.00  0.00     0.145 C 
ATOM     27  C   UNL     1       4.124  -1.635  -1.375  1.00  0.00     0.145 C 
ATOM     28  C   UNL     1       1.807  -2.945  -0.313  1.00  0.00     0.181 C 
ATOM     29  C   UNL     1       3.920  -1.964   0.108  1.00  0.00     0.181 C 
ATOM     30  O   UNL     1       3.121  -3.150   0.245  1.00  0.00    -0.378 OA
ENDBRANCH  17  25
ENDBRANCH  11  14
ENDBRANCH   9  10
ENDBRANCH   5   8
ENDBRANCH   3   4
ENDBRANCH   2   3
ENDBRANCH   1   2
BRANCH   1  31
ATOM     31  C   UNL     1       2.597   3.339  -7.648  1.00  0.00     0.002 C 
BRANCH  31  32
ATOM     32  C   UNL     1       2.248   4.117  -8.911  1.00  0.00     0.021 C 
BRANCH  32  33
ATOM     33  C   UNL     1       3.011   5.425  -9.057  1.00  0.00     0.116 C 
BRANCH  33  34
ATOM     34  N   UNL     1       4.405   5.207  -9.418  1.00  0.00    -0.352 N 
ATOM     35  C   UNL     1       5.078   5.739 -10.492  1.00  0.00     0.251 C 
ATOM     36  H   UNL     1       4.922   4.613  -8.827  1.00  0.00     0.163 HD
ATOM     37  O   UNL     1       6.190   5.345 -10.818  1.00  0.00    -0.269 OA
BRANCH  35  38
ATOM     38  C   UNL     1       4.396   6.794 -11.264  1.00  0.00     0.039 A 
ATOM     39  C   UNL     1       4.106   6.576 -12.611  1.00  0.00     0.014 A 
ATOM     40  C   UNL     1       3.925   7.929 -10.597  1.00  0.00     0.014 A 
ATOM     41  C   UNL     1       3.276   7.476 -13.281  1.00  0.00     0.010 A 
ATOM     42  C   UNL     1       3.041   8.781 -11.247  1.00  0.00     0.010 A 
ATOM     43  C   UNL     1       2.704   8.559 -12.592  1.00  0.00    -0.014 A 
BRANCH  43  44
ATOM     44  C   UNL     1       1.734   9.467 -13.254  1.00  0.00     0.031 A 
ATOM     45  C   UNL     1       2.076  10.918 -13.437  1.00  0.00     0.074 A 
ATOM     46  C   UNL     1       0.523   9.002 -13.617  1.00  0.00     0.049 A 
ATOM     47  N   UNL     1       1.338  11.889 -13.910  1.00  0.00    -0.248 NA
ATOM     48  C   UNL     1       3.419  11.338 -13.008  1.00  0.00     0.031 C 
ATOM     49  C   UNL     1       0.060   7.624 -13.450  1.00  0.00     0.029 A 
ATOM     50  N   UNL     1      -0.548   9.644 -14.189  1.00  0.00    -0.354 N 
ATOM     51  C   UNL     1       2.121  13.032 -13.825  1.00  0.00     0.074 A 
ATOM     52  C   UNL     1       3.370  12.646 -13.205  1.00  0.00     0.031 C 
ATOM     53  C   UNL     1      -1.192   7.519 -13.923  1.00  0.00     0.029 A 
ATOM     54  C   UNL     1      -1.639   8.831 -14.383  1.00  0.00     0.049 A 
ATOM     55  H   UNL     1      -0.536  10.597 -14.436  1.00  0.00     0.167 HD
ATOM     56  C   UNL     1       1.831  14.285 -14.246  1.00  0.00     0.037 A 
ATOM     57  C   UNL     1      -2.866   9.116 -14.860  1.00  0.00     0.037 A 
ATOM     58  C   UNL     1       0.591  14.658 -14.874  1.00  0.00     0.049 A 
ATOM     59  C   UNL     1      -3.173  10.527 -15.290  1.00  0.00     0.074 A 
ATOM     60  C   UNL     1       0.224  15.886 -15.394  1.00  0.00     0.029 A 
ATOM     61  N   UNL     1      -0.490  13.807 -15.057  1.00  0.00    -0.354 N 
ATOM     62  N   UNL     1      -2.397  11.584 -15.279  1.00  0.00    -0.248 NA
ATOM     63  C   UNL     1      -4.526  10.784 -15.801  1.00  0.00     0.031 C 
ATOM     64  C   UNL     1      -1.101  15.797 -15.833  1.00  0.00     0.029 A 
ATOM     65  C   UNL     1      -1.538  14.495 -15.647  1.00  0.00     0.049 A 
ATOM     66  H   UNL     1      -0.509  12.856 -14.805  1.00  0.00     0.167 HD
ATOM     67  C   UNL     1      -3.157  12.622 -15.801  1.00  0.00     0.074 A 
ATOM     68  C   UNL     1      -4.449  12.062 -16.141  1.00  0.00     0.031 C 
ATOM     69  C   UNL     1      -2.818  13.922 -15.979  1.00  0.00     0.037 A 
BRANCH  56  70
ATOM     70  C   UNL     1       2.869  15.349 -14.036  1.00  0.00     0.064 A 
ATOM     71  C   UNL     1       4.079  15.351 -14.746  1.00  0.00     0.173 A 
ATOM     72  C   UNL     1       2.633  16.405 -13.143  1.00  0.00     0.173 A 
ATOM     73  F   UNL     1       4.361  14.359 -15.604  1.00  0.00    -0.203 F 
ATOM     74  C   UNL     1       5.024  16.355 -14.550  1.00  0.00     0.198 A 
ATOM     75  C   UNL     1       3.565  17.425 -12.974  1.00  0.00     0.198 A 
ATOM     76  F   UNL     1       1.491  16.455 -12.440  1.00  0.00    -0.203 F 
ATOM     77  F   UNL     1       6.194  16.309 -15.203  1.00  0.00    -0.200 F 
ATOM     78  C   UNL     1       4.763  17.396 -13.672  1.00  0.00     0.200 A 
ATOM     79  F   UNL     1       3.304  18.438 -12.136  1.00  0.00    -0.200 F 
ATOM     80  F   UNL     1       5.668  18.367 -13.493  1.00  0.00    -0.200 F 
ENDBRANCH  56  70
BRANCH  57  81
ATOM     81  C   UNL     1      -3.898   8.049 -14.955  1.00  0.00     0.064 A 
ATOM     82  C   UNL     1      -4.369   7.606 -16.199  1.00  0.00     0.173 A 
ATOM     83  C   UNL     1      -4.450   7.463 -13.806  1.00  0.00     0.173 A 
ATOM     84  F   UNL     1      -3.889   8.149 -17.328  1.00  0.00    -0.203 F 
ATOM     85  C   UNL     1      -5.368   6.639 -16.290  1.00  0.00     0.198 A 
ATOM     86  C   UNL     1      -5.426   6.473 -13.898  1.00  0.00     0.198 A 
ATOM     87  F   UNL     1      -4.034   7.846 -12.589  1.00  0.00    -0.203 F 
ATOM     88  F   UNL     1      -5.838   6.276 -17.491  1.00  0.00    -0.200 F 
ATOM     89  C   UNL     1      -5.892   6.069 -15.140  1.00  0.00     0.200 A 
ATOM     90  F   UNL     1      -5.916   5.912 -12.784  1.00  0.00    -0.200 F 
ATOM     91  F   UNL     1      -6.851   5.138 -15.227  1.00  0.00    -0.200 F 
ENDBRANCH  57  81
BRANCH  69  92
ATOM     92  C   UNL     1      -3.851  14.827 -16.590  1.00  0.00     0.064 A 
ATOM     93  C   UNL     1      -5.005  15.208 -15.889  1.00  0.00     0.173 A 
ATOM     94  C   UNL     1      -3.661  15.354 -17.877  1.00  0.00     0.173 A 
ATOM     95  F   UNL     1      -5.241  14.720 -14.662  1.00  0.00    -0.203 F 
ATOM     96  C   UNL     1      -5.943  16.061 -16.464  1.00  0.00     0.198 A 
ATOM     97  C   UNL     1      -4.583  16.235 -18.435  1.00  0.00     0.198 A 
ATOM     98  F   UNL     1      -2.571  15.028 -18.588  1.00  0.00    -0.203 F 
ATOM     99  F   UNL     1      -7.062  16.370 -15.796  1.00  0.00    -0.200 F 
ATOM    100  C   UNL     1      -5.727  16.581 -17.732  1.00  0.00     0.200 A 
ATOM    101  F   UNL     1      -4.364  16.751 -19.652  1.00  0.00    -0.200 F 
ATOM    102  F   UNL     1      -6.625  17.412 -18.279  1.00  0.00    -0.200 F 
ENDBRANCH  69  92
ENDBRANCH  43  44
ENDBRANCH  35  38
ENDBRANCH  33  34
ENDBRANCH  32  33
ENDBRANCH  31  32
ENDBRANCH   1  31
TORSDOF 17
