REMARK SMILES CS(=O)(=O)Nc1ccc(-c2cc(Cl)cc3c2O[C@H](C(F)(F)F)C(C(=O)NCCCCCCNC(=O)c2ccc(-c4c5nc(c(-c6c(F)c(F)c(F)c(F)c6F)c6ccc([nH]6)c(-c6c(F)c(F)c(F)c(F)c6F)c6nc(c(-c7c(F)c(F)c(F)c(F)c7F)c7ccc4[nH]7)C=C6)C=C5)cc2)=C3)cc1
REMARK SMILES IDX 29 1 28 2 27 3 26 4 24 5 25 6 23 8 10 9 11 10 16 11 12 12
REMARK SMILES IDX 15 13 17 14 13 15 14 16 99 17 18 18 9 19 6 20 7 21 101 22
REMARK SMILES IDX 8 23 100 24 5 25 2 27 1 28 3 29 4 30 19 31 20 32 21 33 22 34
REMARK SMILES IDX 30 35 31 36 32 37 33 38 34 39 35 41 36 42 37 43 98 44 38 45
REMARK SMILES IDX 97 46 39 47 40 48 41 49 91 50 42 51 96 52 90 53 92 54 43 55
REMARK SMILES IDX 95 56 89 57 88 58 44 60 76 61 56 62 75 63 57 64 60 65 74 66
REMARK SMILES IDX 93 67 58 68 59 69 73 71 94 72 61 73 45 74 46 75 54 76 47 77
REMARK SMILES IDX 48 78 52 79 55 80 49 81 50 82 53 83 51 84 77 85 78 86 86 87
REMARK SMILES IDX 79 88 80 89 84 90 87 91 81 92 82 93 85 94 83 95 62 96 63 97
REMARK SMILES IDX 71 98 64 99 65 100 69 101 72 102 66 103 67 104 70 105 68 106
REMARK H PARENT 26 7 5 26 33 40 92 59 60 70
REMARK Flexibility Score: inf
ROOT
ATOM      1  C   UNL     1      10.383  -4.239  11.615  1.00  0.00     0.002 C 
ENDROOT
BRANCH   1   2
ATOM      2  C   UNL     1      10.707  -3.103  10.629  1.00  0.00     0.021 C 
BRANCH   2   3
ATOM      3  C   UNL     1      10.449  -3.439   9.152  1.00  0.00     0.116 C 
BRANCH   3   4
ATOM      4  N   UNL     1       9.056  -3.790   8.964  1.00  0.00    -0.352 N 
ATOM      5  C   UNL     1       8.175  -3.105   8.194  1.00  0.00     0.251 C 
ATOM      6  O   UNL     1       7.087  -2.776   8.650  1.00  0.00    -0.270 OA
ATOM      7  H   UNL     1       8.723  -4.589   9.433  1.00  0.00     0.163 HD
BRANCH   5   8
ATOM      8  C   UNL     1       8.541  -2.943   6.756  1.00  0.00     0.067 C 
ATOM      9  C   UNL     1       5.059  -1.344   5.408  1.00  0.00     0.026 A 
ATOM     10  C   UNL     1       4.019  -2.133   5.977  1.00  0.00     0.033 A 
ATOM     11  C   UNL     1       6.355  -1.885   5.491  1.00  0.00     0.135 A 
ATOM     12  C   UNL     1       4.215  -3.430   6.443  1.00  0.00     0.042 A 
ATOM     13  C   UNL     1       6.509  -3.252   5.850  1.00  0.00     0.019 A 
ATOM     14  O   UNL     1       7.515  -1.139   5.312  1.00  0.00    -0.475 OA
ATOM     15  Cl  UNL     1       2.913  -4.287   7.164  1.00  0.00    -0.084 Cl
ATOM     16  C   UNL     1       5.449  -4.028   6.309  1.00  0.00     0.032 A 
ATOM     17  C   UNL     1       7.881  -3.794   5.948  1.00  0.00     0.025 C 
ATOM     18  C   UNL     1       8.615  -1.507   6.261  1.00  0.00     0.314 C 
BRANCH   9  19
ATOM     19  C   UNL     1       4.571  -0.160   4.640  1.00  0.00    -0.014 A 
ATOM     20  C   UNL     1       2.611   1.123   3.006  1.00  0.00     0.048 A 
ATOM     21  C   UNL     1       2.592   1.265   4.396  1.00  0.00     0.027 A 
ATOM     22  C   UNL     1       3.705   0.481   2.429  1.00  0.00     0.027 A 
ATOM     23  C   UNL     1       3.579   0.669   5.199  1.00  0.00     0.011 A 
ATOM     24  C   UNL     1       4.681  -0.146   3.237  1.00  0.00     0.011 A 
BRANCH  20  25
ATOM     25  N   UNL     1       1.388   1.414   2.328  1.00  0.00    -0.284 N 
ATOM     26  H   UNL     1       0.598   1.562   2.897  1.00  0.00     0.180 HD
BRANCH  25  27
ATOM     27  S   UNL     1       1.145   1.532   0.687  1.00  0.00     0.229 S 
ATOM     28  C   UNL     1       1.105  -0.165   0.137  1.00  0.00     0.183 C 
ATOM     29  O   UNL     1       2.266   2.208   0.072  1.00  0.00    -0.207 OA
ATOM     30  O   UNL     1      -0.202   2.047   0.551  1.00  0.00    -0.207 OA
ENDBRANCH  25  27
ENDBRANCH  20  25
ENDBRANCH   9  19
BRANCH  18  31
ATOM     31  C   UNL     1      10.020  -1.305   5.645  1.00  0.00     0.429 C 
ATOM     32  F   UNL     1       9.992  -1.197   4.299  1.00  0.00    -0.167 F 
ATOM     33  F   UNL     1      10.619  -0.196   6.140  1.00  0.00    -0.167 F 
ATOM     34  F   UNL     1      10.861  -2.338   5.929  1.00  0.00    -0.167 F 
ENDBRANCH  18  31
ENDBRANCH   5   8
ENDBRANCH   3   4
ENDBRANCH   2   3
ENDBRANCH   1   2
BRANCH   1  35
ATOM     35  C   UNL     1      11.090  -5.565  11.325  1.00  0.00     0.002 C 
BRANCH  35  36
ATOM     36  C   UNL     1      12.615  -5.481  11.318  1.00  0.00     0.021 C 
BRANCH  36  37
ATOM     37  C   UNL     1      13.222  -4.915  12.595  1.00  0.00     0.116 C 
BRANCH  37  38
ATOM     38  N   UNL     1      12.920  -5.727  13.763  1.00  0.00    -0.352 N 
ATOM     39  C   UNL     1      13.772  -6.191  14.735  1.00  0.00     0.251 C 
ATOM     40  H   UNL     1      11.975  -5.979  13.872  1.00  0.00     0.163 HD
ATOM     41  O   UNL     1      13.386  -7.007  15.565  1.00  0.00    -0.269 OA
BRANCH  39  42
ATOM     42  C   UNL     1      15.171  -5.719  14.756  1.00  0.00     0.039 A 
ATOM     43  C   UNL     1      16.197  -6.653  14.913  1.00  0.00     0.014 A 
ATOM     44  C   UNL     1      15.468  -4.362  14.603  1.00  0.00     0.014 A 
ATOM     45  C   UNL     1      17.526  -6.232  14.854  1.00  0.00     0.010 A 
ATOM     46  C   UNL     1      16.791  -3.956  14.463  1.00  0.00     0.010 A 
ATOM     47  C   UNL     1      17.833  -4.886  14.594  1.00  0.00    -0.014 A 
BRANCH  47  48
ATOM     48  C   UNL     1      19.240  -4.433  14.455  1.00  0.00     0.031 A 
ATOM     49  C   UNL     1      19.814  -3.444  15.430  1.00  0.00     0.074 A 
ATOM     50  C   UNL     1      19.979  -4.864  13.416  1.00  0.00     0.049 A 
ATOM     51  N   UNL     1      21.002  -2.894  15.451  1.00  0.00    -0.248 NA
ATOM     52  C   UNL     1      18.924  -2.989  16.510  1.00  0.00     0.031 C 
ATOM     53  C   UNL     1      19.520  -5.790  12.379  1.00  0.00     0.029 A 
ATOM     54  N   UNL     1      21.272  -4.578  13.057  1.00  0.00    -0.354 N 
ATOM     55  C   UNL     1      20.995  -2.020  16.530  1.00  0.00     0.074 A 
ATOM     56  C   UNL     1      19.668  -2.068  17.103  1.00  0.00     0.031 C 
ATOM     57  C   UNL     1      20.526  -6.025  11.523  1.00  0.00     0.029 A 
ATOM     58  C   UNL     1      21.686  -5.233  11.923  1.00  0.00     0.049 A 
ATOM     59  H   UNL     1      21.849  -3.962  13.564  1.00  0.00     0.167 HD
ATOM     60  C   UNL     1      22.010  -1.262  17.011  1.00  0.00     0.037 A 
ATOM     61  C   UNL     1      22.867  -5.197  11.278  1.00  0.00     0.037 A 
ATOM     62  C   UNL     1      23.334  -1.236  16.445  1.00  0.00     0.049 A 
ATOM     63  C   UNL     1      23.972  -4.330  11.819  1.00  0.00     0.074 A 
ATOM     64  C   UNL     1      24.453  -0.561  16.901  1.00  0.00     0.029 A 
ATOM     65  N   UNL     1      23.714  -1.906  15.291  1.00  0.00    -0.354 N 
ATOM     66  N   UNL     1      23.981  -3.570  12.887  1.00  0.00    -0.248 NA
ATOM     67  C   UNL     1      25.232  -4.319  11.064  1.00  0.00     0.031 C 
ATOM     68  C   UNL     1      25.490  -0.768  15.986  1.00  0.00     0.029 A 
ATOM     69  C   UNL     1      25.040  -1.629  14.997  1.00  0.00     0.049 A 
ATOM     70  H   UNL     1      23.128  -2.492  14.759  1.00  0.00     0.167 HD
ATOM     71  C   UNL     1      25.254  -3.018  12.952  1.00  0.00     0.074 A 
ATOM     72  C   UNL     1      25.992  -3.541  11.821  1.00  0.00     0.031 C 
ATOM     73  C   UNL     1      25.765  -2.159  13.868  1.00  0.00     0.037 A 
BRANCH  60  74
ATOM     74  C   UNL     1      21.720  -0.387  18.198  1.00  0.00     0.064 A 
ATOM     75  C   UNL     1      21.435  -0.921  19.464  1.00  0.00     0.173 A 
ATOM     76  C   UNL     1      21.741   1.011  18.070  1.00  0.00     0.173 A 
ATOM     77  F   UNL     1      21.392  -2.251  19.642  1.00  0.00    -0.203 F 
ATOM     78  C   UNL     1      21.139  -0.093  20.544  1.00  0.00     0.198 A 
ATOM     79  C   UNL     1      21.482   1.837  19.160  1.00  0.00     0.198 A 
ATOM     80  F   UNL     1      22.014   1.578  16.885  1.00  0.00    -0.203 F 
ATOM     81  F   UNL     1      20.804  -0.629  21.726  1.00  0.00    -0.200 F 
ATOM     82  C   UNL     1      21.169   1.285  20.393  1.00  0.00     0.200 A 
ATOM     83  F   UNL     1      21.527   3.168  19.016  1.00  0.00    -0.200 F 
ATOM     84  F   UNL     1      20.886   2.081  21.433  1.00  0.00    -0.200 F 
ENDBRANCH  60  74
BRANCH  61  85
ATOM     85  C   UNL     1      23.078  -6.038  10.070  1.00  0.00     0.064 A 
ATOM     86  C   UNL     1      23.957  -7.130  10.104  1.00  0.00     0.173 A 
ATOM     87  C   UNL     1      22.408  -5.777   8.866  1.00  0.00     0.173 A 
ATOM     88  F   UNL     1      24.636  -7.408  11.226  1.00  0.00    -0.203 F 
ATOM     89  C   UNL     1      24.169  -7.919   8.975  1.00  0.00     0.198 A 
ATOM     90  C   UNL     1      22.599  -6.584   7.747  1.00  0.00     0.198 A 
ATOM     91  F   UNL     1      21.553  -4.747   8.782  1.00  0.00    -0.203 F 
ATOM     92  F   UNL     1      25.046  -8.931   9.024  1.00  0.00    -0.200 F 
ATOM     93  C   UNL     1      23.485  -7.650   7.800  1.00  0.00     0.200 A 
ATOM     94  F   UNL     1      21.923  -6.331   6.618  1.00  0.00    -0.200 F 
ATOM     95  F   UNL     1      23.683  -8.414   6.717  1.00  0.00    -0.200 F 
ENDBRANCH  61  85
BRANCH  73  96
ATOM     96  C   UNL     1      27.204  -1.757  13.710  1.00  0.00     0.064 A 
ATOM     97  C   UNL     1      27.631  -0.923  12.667  1.00  0.00     0.173 A 
ATOM     98  C   UNL     1      28.165  -2.184  14.641  1.00  0.00     0.173 A 
ATOM     99  F   UNL     1      26.757  -0.499  11.741  1.00  0.00    -0.203 F 
ATOM    100  C   UNL     1      28.968  -0.555  12.544  1.00  0.00     0.198 A 
ATOM    101  C   UNL     1      29.494  -1.786  14.537  1.00  0.00     0.198 A 
ATOM    102  F   UNL     1      27.810  -2.978  15.663  1.00  0.00    -0.203 F 
ATOM    103  F   UNL     1      29.362   0.198  11.508  1.00  0.00    -0.200 F 
ATOM    104  C   UNL     1      29.897  -0.979  13.484  1.00  0.00     0.200 A 
ATOM    105  F   UNL     1      30.385  -2.182  15.456  1.00  0.00    -0.200 F 
ATOM    106  F   UNL     1      31.181  -0.616  13.370  1.00  0.00    -0.200 F 
ENDBRANCH  73  96
ENDBRANCH  47  48
ENDBRANCH  39  42
ENDBRANCH  37  38
ENDBRANCH  36  37
ENDBRANCH  35  36
ENDBRANCH   1  35
TORSDOF 17
