REMARK SMILES O=C(NCCCCCCNC(=O)[C@@]1([C@@H]2CCO[C@@]3(CCOC3)C2)CCOC1)c1ccc(-c2c3nc(c(-c4c(F)c(F)c(F)c(F)c4F)c4ccc([nH]4)c(-c4c(F)c(F)c(F)c(F)c4F)c4nc(c(-c5c(F)c(F)c(F)c(F)c5F)c5ccc2[nH]5)C=C4)C=C3)cc1
REMARK SMILES IDX 6 1 5 2 4 3 3 4 1 5 2 6 28 8 29 9 90 10 30 11 89 12 31 13
REMARK SMILES IDX 32 14 33 15 83 16 34 17 88 18 82 19 84 20 35 21 87 22 81 23
REMARK SMILES IDX 80 24 36 26 68 27 48 28 67 29 49 30 52 31 66 32 85 33 50 34
REMARK SMILES IDX 51 35 65 37 86 38 53 39 37 40 38 41 46 42 39 43 40 44 44 45
REMARK SMILES IDX 47 46 41 47 42 48 45 49 43 50 69 51 70 52 78 53 71 54 72 55
REMARK SMILES IDX 76 56 79 57 73 58 74 59 77 60 75 61 54 62 55 63 63 64 56 65
REMARK SMILES IDX 57 66 61 67 64 68 58 69 59 70 62 71 60 72 7 73 8 74 9 75
REMARK SMILES IDX 10 76 11 77 12 79 13 80 24 81 27 82 25 83 26 84 14 85 15 86
REMARK SMILES IDX 23 87 16 88 18 89 17 90 19 91 22 92 20 93 21 94
REMARK H PARENT 3 7 84 25 52 36 10 78
REMARK Flexibility Score: inf
ROOT
ATOM      1  C   UNL     1      13.122   5.193  -8.172  1.00  0.00     0.002 C 
ENDROOT
BRANCH   1   2
ATOM      2  C   UNL     1      13.610   5.773  -6.845  1.00  0.00     0.021 C 
BRANCH   2   3
ATOM      3  C   UNL     1      15.055   5.431  -6.506  1.00  0.00     0.116 C 
BRANCH   3   4
ATOM      4  N   UNL     1      16.003   6.101  -7.385  1.00  0.00    -0.352 N 
ATOM      5  O   UNL     1      17.587   7.605  -7.965  1.00  0.00    -0.269 OA
ATOM      6  C   UNL     1      17.001   6.994  -7.074  1.00  0.00     0.251 C 
ATOM      7  H   UNL     1      15.918   5.883  -8.341  1.00  0.00     0.163 HD
BRANCH   6   8
ATOM      8  C   UNL     1      17.358   7.234  -5.660  1.00  0.00     0.039 A 
ATOM      9  C   UNL     1      17.464   6.166  -4.769  1.00  0.00     0.014 A 
ATOM     10  C   UNL     1      17.593   8.540  -5.217  1.00  0.00     0.014 A 
ATOM     11  C   UNL     1      17.637   6.412  -3.415  1.00  0.00     0.010 A 
ATOM     12  C   UNL     1      17.877   8.776  -3.868  1.00  0.00     0.010 A 
ATOM     13  C   UNL     1      17.872   7.716  -2.949  1.00  0.00    -0.014 A 
BRANCH  13  14
ATOM     14  C   UNL     1      18.182   7.915  -1.509  1.00  0.00     0.031 A 
ATOM     15  C   UNL     1      17.287   8.725  -0.615  1.00  0.00     0.074 A 
ATOM     16  C   UNL     1      19.270   7.301  -1.002  1.00  0.00     0.049 A 
ATOM     17  N   UNL     1      17.397   8.954   0.671  1.00  0.00    -0.248 NA
ATOM     18  C   UNL     1      16.122   9.370  -1.238  1.00  0.00     0.031 C 
ATOM     19  C   UNL     1      20.222   6.503  -1.779  1.00  0.00     0.029 A 
ATOM     20  N   UNL     1      19.749   7.228   0.281  1.00  0.00    -0.354 N 
ATOM     21  C   UNL     1      16.322   9.765   1.010  1.00  0.00     0.074 A 
ATOM     22  C   UNL     1      15.593  10.026  -0.214  1.00  0.00     0.031 C 
ATOM     23  C   UNL     1      21.138   5.980  -0.953  1.00  0.00     0.029 A 
ATOM     24  C   UNL     1      20.884   6.464   0.398  1.00  0.00     0.049 A 
ATOM     25  H   UNL     1      19.320   7.679   1.044  1.00  0.00     0.167 HD
ATOM     26  C   UNL     1      15.969  10.233   2.232  1.00  0.00     0.037 A 
ATOM     27  C   UNL     1      21.654   6.201   1.469  1.00  0.00     0.037 A 
ATOM     28  C   UNL     1      16.705   9.973   3.445  1.00  0.00     0.049 A 
ATOM     29  C   UNL     1      21.261   6.772   2.801  1.00  0.00     0.074 A 
ATOM     30  C   UNL     1      16.428  10.401   4.733  1.00  0.00     0.029 A 
ATOM     31  N   UNL     1      17.869   9.221   3.519  1.00  0.00    -0.354 N 
ATOM     32  N   UNL     1      20.223   7.511   3.111  1.00  0.00    -0.248 NA
ATOM     33  C   UNL     1      22.145   6.471   3.933  1.00  0.00     0.031 C 
ATOM     34  C   UNL     1      17.449   9.950   5.576  1.00  0.00     0.029 A 
ATOM     35  C   UNL     1      18.331   9.188   4.827  1.00  0.00     0.049 A 
ATOM     36  H   UNL     1      18.303   8.776   2.756  1.00  0.00     0.167 HD
ATOM     37  C   UNL     1      20.317   7.745   4.475  1.00  0.00     0.074 A 
ATOM     38  C   UNL     1      21.497   7.044   4.937  1.00  0.00     0.031 C 
ATOM     39  C   UNL     1      19.505   8.482   5.272  1.00  0.00     0.037 A 
BRANCH  26  40
ATOM     40  C   UNL     1      14.732  11.082   2.326  1.00  0.00     0.064 A 
ATOM     41  C   UNL     1      13.451  10.536   2.149  1.00  0.00     0.173 A 
ATOM     42  C   UNL     1      14.820  12.443   2.659  1.00  0.00     0.173 A 
ATOM     43  F   UNL     1      13.307   9.243   1.821  1.00  0.00    -0.203 F 
ATOM     44  C   UNL     1      12.309  11.325   2.278  1.00  0.00     0.198 A 
ATOM     45  C   UNL     1      13.676  13.221   2.817  1.00  0.00     0.198 A 
ATOM     46  F   UNL     1      16.018  13.016   2.848  1.00  0.00    -0.203 F 
ATOM     47  F   UNL     1      11.100  10.789   2.062  1.00  0.00    -0.200 F 
ATOM     48  C   UNL     1      12.422  12.663   2.621  1.00  0.00     0.200 A 
ATOM     49  F   UNL     1      13.786  14.511   3.165  1.00  0.00    -0.200 F 
ATOM     50  F   UNL     1      11.322  13.417   2.757  1.00  0.00    -0.200 F 
ENDBRANCH  26  40
BRANCH  27  51
ATOM     51  C   UNL     1      22.884   5.379   1.317  1.00  0.00     0.064 A 
ATOM     52  C   UNL     1      23.005   4.128   1.936  1.00  0.00     0.173 A 
ATOM     53  C   UNL     1      23.972   5.839   0.560  1.00  0.00     0.173 A 
ATOM     54  F   UNL     1      21.998   3.650   2.683  1.00  0.00    -0.203 F 
ATOM     55  C   UNL     1      24.178   3.384   1.831  1.00  0.00     0.198 A 
ATOM     56  C   UNL     1      25.129   5.077   0.423  1.00  0.00     0.198 A 
ATOM     57  F   UNL     1      23.906   7.026  -0.061  1.00  0.00    -0.203 F 
ATOM     58  F   UNL     1      24.290   2.219   2.484  1.00  0.00    -0.200 F 
ATOM     59  C   UNL     1      25.237   3.856   1.070  1.00  0.00     0.200 A 
ATOM     60  F   UNL     1      26.140   5.528  -0.332  1.00  0.00    -0.200 F 
ATOM     61  F   UNL     1      26.364   3.139   0.968  1.00  0.00    -0.200 F 
ENDBRANCH  27  51
BRANCH  39  62
ATOM     62  C   UNL     1      19.849   8.530   6.734  1.00  0.00     0.064 A 
ATOM     63  C   UNL     1      20.986   9.205   7.204  1.00  0.00     0.173 A 
ATOM     64  C   UNL     1      19.026   7.896   7.678  1.00  0.00     0.173 A 
ATOM     65  F   UNL     1      21.816   9.812   6.342  1.00  0.00    -0.203 F 
ATOM     66  C   UNL     1      21.308   9.209   8.559  1.00  0.00     0.198 A 
ATOM     67  C   UNL     1      19.331   7.934   9.035  1.00  0.00     0.198 A 
ATOM     68  F   UNL     1      17.924   7.241   7.283  1.00  0.00    -0.203 F 
ATOM     69  F   UNL     1      22.434   9.803   8.976  1.00  0.00    -0.200 F 
ATOM     70  C   UNL     1      20.477   8.579   9.473  1.00  0.00     0.200 A 
ATOM     71  F   UNL     1      18.519   7.337   9.919  1.00  0.00    -0.200 F 
ATOM     72  F   UNL     1      20.788   8.585  10.777  1.00  0.00    -0.200 F 
ENDBRANCH  39  62
ENDBRANCH  13  14
ENDBRANCH   6   8
ENDBRANCH   3   4
ENDBRANCH   2   3
ENDBRANCH   1   2
BRANCH   1  73
ATOM     73  C   UNL     1      13.116   3.659  -8.254  1.00  0.00     0.002 C 
BRANCH  73  74
ATOM     74  C   UNL     1      12.382   2.938  -7.110  1.00  0.00     0.021 C 
BRANCH  74  75
ATOM     75  C   UNL     1      10.895   3.300  -6.992  1.00  0.00     0.116 C 
BRANCH  75  76
ATOM     76  N   UNL     1      10.094   2.529  -7.931  1.00  0.00    -0.356 N 
ATOM     77  C   UNL     1       9.204   1.513  -7.861  1.00  0.00     0.228 C 
ATOM     78  H   UNL     1      10.238   2.823  -8.860  1.00  0.00     0.163 HD
ATOM     79  O   UNL     1       8.858   1.069  -8.966  1.00  0.00    -0.274 OA
BRANCH  77  80
ATOM     80  C   UNL     1       8.588   0.894  -6.586  1.00  0.00     0.078 C 
ATOM     81  C   UNL     1       8.865  -0.616  -6.645  1.00  0.00     0.048 C 
ATOM     82  C   UNL     1       9.310   1.208  -5.279  1.00  0.00     0.177 C 
ATOM     83  C   UNL     1       8.976  -1.074  -5.203  1.00  0.00     0.161 C 
ATOM     84  O   UNL     1       9.125   0.094  -4.396  1.00  0.00    -0.380 OA
BRANCH  80  85
ATOM     85  C   UNL     1       7.046   1.267  -6.498  1.00  0.00     0.012 C 
ATOM     86  C   UNL     1       6.289   0.700  -5.286  1.00  0.00     0.033 C 
ATOM     87  C   UNL     1       6.176   0.932  -7.753  1.00  0.00     0.043 C 
ATOM     88  C   UNL     1       4.939   1.391  -5.127  1.00  0.00     0.161 C 
ATOM     89  C   UNL     1       4.641   1.056  -7.495  1.00  0.00     0.094 C 
ATOM     90  O   UNL     1       4.421   1.896  -6.353  1.00  0.00    -0.372 OA
ATOM     91  C   UNL     1       3.899   1.717  -8.657  1.00  0.00     0.066 C 
ATOM     92  C   UNL     1       3.914  -0.302  -7.370  1.00  0.00     0.195 C 
ATOM     93  C   UNL     1       3.255   0.577  -9.404  1.00  0.00     0.163 C 
ATOM     94  O   UNL     1       2.946  -0.412  -8.426  1.00  0.00    -0.378 OA
ENDBRANCH  80  85
ENDBRANCH  77  80
ENDBRANCH  75  76
ENDBRANCH  74  75
ENDBRANCH  73  74
ENDBRANCH   1  73
TORSDOF 14
