REMARK SMILES O=C(CC1(CC(=O)Nc2ccc3ccccc3n2)CCCCC1)NCCCCCCNC(=O)c1ccc(-c2c3nc(c(-c4c(F)c(F)c(F)c(F)c4F)c4ccc([nH]4)c(-c4c(F)c(F)c(F)c(F)c4F)c4nc(c(-c5c(F)c(F)c(F)c(F)c5F)c5ccc2[nH]5)C=C4)C=C3)cc1
REMARK SMILES IDX 26 1 25 2 24 3 1 4 2 5 3 7 4 8 19 9 23 10 20 11 22 12 21 13
REMARK SMILES IDX 5 14 6 15 7 16 8 17 9 19 10 20 18 21 11 22 17 23 12 24 16 25
REMARK SMILES IDX 13 26 15 27 14 28 27 29 28 30 29 31 30 32 31 33 32 34 33 36
REMARK SMILES IDX 34 37 35 38 96 39 36 40 95 41 37 42 38 43 39 44 89 45 40 46
REMARK SMILES IDX 94 47 88 48 90 49 41 50 93 51 87 52 86 53 42 55 74 56 54 57
REMARK SMILES IDX 73 58 55 59 58 60 72 61 91 62 56 63 57 64 71 66 92 67 59 68
REMARK SMILES IDX 43 69 44 70 52 71 45 72 46 73 50 74 53 75 47 76 48 77 51 78
REMARK SMILES IDX 49 79 75 80 76 81 84 82 77 83 78 84 82 85 85 86 79 87 80 88
REMARK SMILES IDX 83 89 81 90 60 91 61 92 69 93 62 94 63 95 67 96 70 97 64 98
REMARK SMILES IDX 65 99 68 100 66 101
REMARK H PARENT 24 6 8 18 31 35 90 54 58 65
REMARK Flexibility Score: inf
ROOT
ATOM      1  C   UNL     1       2.629   3.608  -0.454  1.00  0.00     0.021 C 
ENDROOT
BRANCH   1   2
ATOM      2  C   UNL     1       2.007   2.325  -1.006  1.00  0.00     0.116 C 
BRANCH   2   3
ATOM      3  N   UNL     1       2.732   1.168  -0.540  1.00  0.00    -0.356 N 
ATOM      4  O   UNL     1       1.135   0.311   0.841  1.00  0.00    -0.275 OA
ATOM      5  C   UNL     1       2.244   0.226   0.320  1.00  0.00     0.220 C 
ATOM      6  H   UNL     1       3.652   1.048  -0.868  1.00  0.00     0.163 HD
BRANCH   5   7
ATOM      7  C   UNL     1       3.228  -0.878   0.708  1.00  0.00     0.107 C 
BRANCH   7   8
ATOM      8  C   UNL     1       4.118  -1.569  -0.379  1.00  0.00    -0.012 C 
ATOM      9  C   UNL     1       5.364  -0.690  -0.755  1.00  0.00     0.008 C 
ATOM     10  C   UNL     1       4.780  -2.789   0.285  1.00  0.00     0.008 C 
ATOM     11  C   UNL     1       6.440  -1.378  -1.605  1.00  0.00     0.001 C 
ATOM     12  C   UNL     1       5.664  -3.581  -0.684  1.00  0.00     0.001 C 
ATOM     13  C   UNL     1       6.856  -2.748  -1.102  1.00  0.00     0.000 C 
BRANCH   8  14
ATOM     14  C   UNL     1       3.267  -1.980  -1.621  1.00  0.00     0.108 C 
BRANCH  14  15
ATOM     15  C   UNL     1       1.868  -2.627  -1.494  1.00  0.00     0.226 C 
ATOM     16  O   UNL     1       0.874  -1.904  -1.653  1.00  0.00    -0.275 OA
ATOM     17  N   UNL     1       1.631  -3.972  -1.470  1.00  0.00    -0.311 N 
ATOM     18  H   UNL     1       0.724  -4.224  -1.756  1.00  0.00     0.171 HD
BRANCH  17  19
ATOM     19  C   UNL     1       2.433  -5.053  -1.115  1.00  0.00     0.133 A 
ATOM     20  C   UNL     1       2.593  -6.086  -2.020  1.00  0.00     0.048 A 
ATOM     21  N   UNL     1       2.966  -5.108   0.113  1.00  0.00    -0.231 NA
ATOM     22  C   UNL     1       3.545  -7.068  -1.740  1.00  0.00     0.014 A 
ATOM     23  C   UNL     1       3.906  -6.034   0.388  1.00  0.00     0.073 A 
ATOM     24  C   UNL     1       4.291  -6.997  -0.557  1.00  0.00     0.000 A 
ATOM     25  C   UNL     1       4.639  -5.936   1.569  1.00  0.00     0.029 A 
ATOM     26  C   UNL     1       5.443  -7.776  -0.337  1.00  0.00     0.010 A 
ATOM     27  C   UNL     1       5.824  -6.652   1.758  1.00  0.00     0.002 A 
ATOM     28  C   UNL     1       6.234  -7.564   0.793  1.00  0.00     0.001 A 
ENDBRANCH  17  19
ENDBRANCH  14  15
ENDBRANCH   8  14
ENDBRANCH   7   8
ENDBRANCH   5   7
ENDBRANCH   2   3
ENDBRANCH   1   2
BRANCH   1  29
ATOM     29  C   UNL     1       4.144   3.748  -0.686  1.00  0.00     0.002 C 
BRANCH  29  30
ATOM     30  C   UNL     1       4.602   3.686  -2.147  1.00  0.00     0.002 C 
BRANCH  30  31
ATOM     31  C   UNL     1       3.963   4.723  -3.070  1.00  0.00     0.021 C 
BRANCH  31  32
ATOM     32  C   UNL     1       4.116   6.169  -2.611  1.00  0.00     0.116 C 
BRANCH  32  33
ATOM     33  N   UNL     1       5.505   6.602  -2.575  1.00  0.00    -0.352 N 
ATOM     34  C   UNL     1       6.076   7.724  -3.121  1.00  0.00     0.251 C 
ATOM     35  H   UNL     1       6.121   6.006  -2.092  1.00  0.00     0.163 HD
ATOM     36  O   UNL     1       7.299   7.856  -3.135  1.00  0.00    -0.269 OA
BRANCH  34  37
ATOM     37  C   UNL     1       5.218   8.762  -3.729  1.00  0.00     0.039 A 
ATOM     38  C   UNL     1       5.559   9.268  -4.986  1.00  0.00     0.014 A 
ATOM     39  C   UNL     1       4.069   9.215  -3.076  1.00  0.00     0.014 A 
ATOM     40  C   UNL     1       4.702  10.167  -5.624  1.00  0.00     0.010 A 
ATOM     41  C   UNL     1       3.179  10.051  -3.744  1.00  0.00     0.010 A 
ATOM     42  C   UNL     1       3.482  10.527  -5.029  1.00  0.00    -0.014 A 
BRANCH  42  43
ATOM     43  C   UNL     1       2.493  11.364  -5.757  1.00  0.00     0.031 A 
ATOM     44  C   UNL     1       2.100  12.714  -5.232  1.00  0.00     0.074 A 
ATOM     45  C   UNL     1       1.893  10.868  -6.856  1.00  0.00     0.049 A 
ATOM     46  N   UNL     1       1.210  13.556  -5.695  1.00  0.00    -0.248 NA
ATOM     47  C   UNL     1       2.777  13.168  -4.009  1.00  0.00     0.031 C 
ATOM     48  C   UNL     1       2.148   9.546  -7.431  1.00  0.00     0.029 A 
ATOM     49  N   UNL     1       0.934  11.409  -7.676  1.00  0.00    -0.354 N 
ATOM     50  C   UNL     1       1.220  14.634  -4.822  1.00  0.00     0.074 A 
ATOM     51  C   UNL     1       2.156  14.312  -3.766  1.00  0.00     0.031 C 
ATOM     52  C   UNL     1       1.377   9.384  -8.517  1.00  0.00     0.029 A 
ATOM     53  C   UNL     1       0.542  10.569  -8.689  1.00  0.00     0.049 A 
ATOM     54  H   UNL     1       0.564  12.312  -7.550  1.00  0.00     0.167 HD
ATOM     55  C   UNL     1       0.530  15.798  -4.907  1.00  0.00     0.037 A 
ATOM     56  C   UNL     1      -0.399  10.725  -9.640  1.00  0.00     0.037 A 
ATOM     57  C   UNL     1      -0.404  16.109  -5.958  1.00  0.00     0.049 A 
ATOM     58  C   UNL     1      -1.177  12.011  -9.698  1.00  0.00     0.074 A 
ATOM     59  C   UNL     1      -1.114  17.279  -6.165  1.00  0.00     0.029 A 
ATOM     60  N   UNL     1      -0.773  15.236  -6.973  1.00  0.00    -0.354 N 
ATOM     61  N   UNL     1      -1.101  13.059  -8.915  1.00  0.00    -0.248 NA
ATOM     62  C   UNL     1      -2.168  12.137 -10.775  1.00  0.00     0.031 C 
ATOM     63  C   UNL     1      -1.957  17.092  -7.265  1.00  0.00     0.029 A 
ATOM     64  C   UNL     1      -1.728  15.828  -7.786  1.00  0.00     0.049 A 
ATOM     65  H   UNL     1      -0.410  14.329  -7.097  1.00  0.00     0.167 HD
ATOM     66  C   UNL     1      -2.020  13.974  -9.409  1.00  0.00     0.074 A 
ATOM     67  C   UNL     1      -2.626  13.366 -10.576  1.00  0.00     0.031 C 
ATOM     68  C   UNL     1      -2.335  15.206  -8.937  1.00  0.00     0.037 A 
BRANCH  55  69
ATOM     69  C   UNL     1       0.759  16.815  -3.823  1.00  0.00     0.064 A 
ATOM     70  C   UNL     1       1.994  17.467  -3.673  1.00  0.00     0.173 A 
ATOM     71  C   UNL     1      -0.268  17.150  -2.929  1.00  0.00     0.173 A 
ATOM     72  F   UNL     1       3.014  17.180  -4.496  1.00  0.00    -0.203 F 
ATOM     73  C   UNL     1       2.204  18.379  -2.642  1.00  0.00     0.198 A 
ATOM     74  C   UNL     1      -0.066  18.090  -1.921  1.00  0.00     0.198 A 
ATOM     75  F   UNL     1      -1.472  16.566  -3.030  1.00  0.00    -0.203 F 
ATOM     76  F   UNL     1       3.412  18.936  -2.479  1.00  0.00    -0.200 F 
ATOM     77  C   UNL     1       1.173  18.694  -1.770  1.00  0.00     0.200 A 
ATOM     78  F   UNL     1      -1.069  18.406  -1.090  1.00  0.00    -0.200 F 
ATOM     79  F   UNL     1       1.377  19.571  -0.778  1.00  0.00    -0.200 F 
ENDBRANCH  55  69
BRANCH  56  80
ATOM     80  C   UNL     1      -0.647   9.628 -10.611  1.00  0.00     0.064 A 
ATOM     81  C   UNL     1      -0.290   9.760 -11.960  1.00  0.00     0.173 A 
ATOM     82  C   UNL     1      -1.220   8.414 -10.204  1.00  0.00     0.173 A 
ATOM     83  F   UNL     1       0.242  10.908 -12.402  1.00  0.00    -0.203 F 
ATOM     84  C   UNL     1      -0.506   8.723 -12.866  1.00  0.00     0.198 A 
ATOM     85  C   UNL     1      -1.406   7.367 -11.103  1.00  0.00     0.198 A 
ATOM     86  F   UNL     1      -1.573   8.235  -8.922  1.00  0.00    -0.203 F 
ATOM     87  F   UNL     1      -0.188   8.888 -14.157  1.00  0.00    -0.200 F 
ATOM     88  C   UNL     1      -1.055   7.524 -12.435  1.00  0.00     0.200 A 
ATOM     89  F   UNL     1      -1.919   6.204 -10.678  1.00  0.00    -0.200 F 
ATOM     90  F   UNL     1      -1.247   6.522 -13.303  1.00  0.00    -0.200 F 
ENDBRANCH  56  80
BRANCH  68  91
ATOM     91  C   UNL     1      -3.378  15.985  -9.688  1.00  0.00     0.064 A 
ATOM     92  C   UNL     1      -4.731  15.613  -9.666  1.00  0.00     0.173 A 
ATOM     93  C   UNL     1      -3.027  17.139 -10.405  1.00  0.00     0.173 A 
ATOM     94  F   UNL     1      -5.118  14.509  -9.010  1.00  0.00    -0.203 F 
ATOM     95  C   UNL     1      -5.689  16.354 -10.354  1.00  0.00     0.198 A 
ATOM     96  C   UNL     1      -3.992  17.896 -11.064  1.00  0.00     0.198 A 
ATOM     97  F   UNL     1      -1.749  17.542 -10.455  1.00  0.00    -0.203 F 
ATOM     98  F   UNL     1      -6.967  15.952 -10.360  1.00  0.00    -0.200 F 
ATOM     99  C   UNL     1      -5.320  17.499 -11.044  1.00  0.00     0.200 A 
ATOM    100  F   UNL     1      -3.636  19.011 -11.717  1.00  0.00    -0.200 F 
ATOM    101  F   UNL     1      -6.245  18.217 -11.697  1.00  0.00    -0.200 F 
ENDBRANCH  68  91
ENDBRANCH  42  43
ENDBRANCH  34  37
ENDBRANCH  32  33
ENDBRANCH  31  32
ENDBRANCH  30  31
ENDBRANCH  29  30
ENDBRANCH   1  29
TORSDOF 17
