REMARK SMILES CCN(CCC#N)C(=O)c1ccncc1/C=C/C(=O)NCCCCCCNC(=O)c1ccc(-c2c3nc(c(-c4c(F)c(F)c(F)c(F)c4F)c4ccc([nH]4)c(-c4c(F)c(F)c(F)c(F)c4F)c4nc(c(-c5c(F)c(F)c(F)c(F)c5F)c5ccc2[nH]5)C=C4)C=C3)cc1
REMARK SMILES IDX 21 1 20 2 18 3 19 4 17 6 16 7 15 8 10 9 11 10 12 11 14 12
REMARK SMILES IDX 13 13 8 14 9 15 3 16 2 17 1 18 4 19 5 20 6 21 7 22 22 23
REMARK SMILES IDX 23 24 24 25 25 26 26 27 27 28 28 29 29 31 30 32 31 33 92 34
REMARK SMILES IDX 32 35 91 36 33 37 34 38 35 39 85 40 36 41 90 42 84 43 86 44
REMARK SMILES IDX 37 45 89 46 83 47 82 48 38 50 70 51 50 52 69 53 51 54 54 55
REMARK SMILES IDX 68 56 87 57 52 58 53 59 67 61 88 62 55 63 39 64 40 65 48 66
REMARK SMILES IDX 41 67 42 68 46 69 49 70 43 71 44 72 47 73 45 74 71 75 72 76
REMARK SMILES IDX 80 77 73 78 74 79 78 80 81 81 75 82 76 83 79 84 77 85 56 86
REMARK SMILES IDX 57 87 65 88 58 89 59 90 63 91 66 92 60 93 61 94 64 95 62 96
REMARK H PARENT 20 5 27 30 86 49 54 60
REMARK Flexibility Score: inf
ROOT
ATOM      1  C   UNL     1       5.195  -1.698   0.211  1.00  0.00     0.116 C 
ENDROOT
BRANCH   1   2
ATOM      2  N   UNL     1       6.228  -2.635  -0.174  1.00  0.00    -0.353 N 
ATOM      3  C   UNL     1       6.540  -3.143  -1.392  1.00  0.00     0.244 C 
ATOM      4  O   UNL     1       7.467  -3.942  -1.498  1.00  0.00    -0.270 OA
ATOM      5  H   UNL     1       6.794  -2.955   0.566  1.00  0.00     0.163 HD
BRANCH   3   6
ATOM      6  C   UNL     1       5.860  -2.657  -2.616  1.00  0.00     0.072 C 
ATOM      7  C   UNL     1       4.545  -2.435  -2.789  1.00  0.00     0.016 C 
BRANCH   7   8
ATOM      8  C   UNL     1       4.020  -1.866  -4.041  1.00  0.00     0.006 A 
ATOM      9  C   UNL     1       3.138  -0.773  -4.112  1.00  0.00     0.050 A 
ATOM     10  C   UNL     1       2.873  -0.198  -5.354  1.00  0.00     0.034 A 
ATOM     11  C   UNL     1       3.322  -0.823  -6.499  1.00  0.00     0.112 A 
ATOM     12  C   UNL     1       4.426  -2.410  -5.262  1.00  0.00     0.119 A 
ATOM     13  N   UNL     1       4.070  -1.938  -6.480  1.00  0.00    -0.264 NA
BRANCH   9  14
ATOM     14  C   UNL     1       2.569  -0.092  -2.917  1.00  0.00     0.254 C 
ATOM     15  O   UNL     1       3.358   0.280  -2.050  1.00  0.00    -0.269 OA
BRANCH  14  16
ATOM     16  N   UNL     1       1.178   0.130  -2.806  1.00  0.00    -0.338 N 
BRANCH  16  17
ATOM     17  C   UNL     1       0.711   0.822  -1.593  1.00  0.00     0.116 C 
ATOM     18  C   UNL     1       0.855  -0.004  -0.320  1.00  0.00     0.027 C 
ENDBRANCH  16  17
BRANCH  16  19
ATOM     19  C   UNL     1       0.130  -0.390  -3.715  1.00  0.00     0.135 C 
BRANCH  19  20
ATOM     20  C   UNL     1      -0.740   0.680  -4.405  1.00  0.00     0.141 C 
BRANCH  20  21
ATOM     21  C   UNL     1      -0.146   1.229  -5.630  1.00  0.00     0.064 C 
ATOM     22  N   UNL     1       0.307   1.660  -6.604  1.00  0.00    -0.198 NA
ENDBRANCH  20  21
ENDBRANCH  19  20
ENDBRANCH  16  19
ENDBRANCH  14  16
ENDBRANCH   9  14
ENDBRANCH   7   8
ENDBRANCH   3   6
ENDBRANCH   1   2
BRANCH   1  23
ATOM     23  C   UNL     1       4.074  -2.443   0.934  1.00  0.00     0.021 C 
BRANCH  23  24
ATOM     24  C   UNL     1       4.429  -2.772   2.388  1.00  0.00     0.002 C 
BRANCH  24  25
ATOM     25  C   UNL     1       4.735  -1.542   3.252  1.00  0.00     0.002 C 
BRANCH  25  26
ATOM     26  C   UNL     1       3.628  -0.485   3.259  1.00  0.00     0.021 C 
BRANCH  26  27
ATOM     27  C   UNL     1       2.301  -0.999   3.804  1.00  0.00     0.116 C 
BRANCH  27  28
ATOM     28  N   UNL     1       2.434  -1.428   5.189  1.00  0.00    -0.352 N 
ATOM     29  C   UNL     1       1.801  -0.953   6.306  1.00  0.00     0.251 C 
ATOM     30  H   UNL     1       3.068  -2.165   5.344  1.00  0.00     0.163 HD
ATOM     31  O   UNL     1       2.231  -1.214   7.425  1.00  0.00    -0.269 OA
BRANCH  29  32
ATOM     32  C   UNL     1       0.594  -0.119   6.155  1.00  0.00     0.039 A 
ATOM     33  C   UNL     1       0.440   1.008   6.963  1.00  0.00     0.014 A 
ATOM     34  C   UNL     1      -0.390  -0.462   5.222  1.00  0.00     0.014 A 
ATOM     35  C   UNL     1      -0.681   1.820   6.802  1.00  0.00     0.010 A 
ATOM     36  C   UNL     1      -1.462   0.394   5.004  1.00  0.00     0.010 A 
ATOM     37  C   UNL     1      -1.624   1.538   5.798  1.00  0.00    -0.014 A 
BRANCH  37  38
ATOM     38  C   UNL     1      -2.782   2.434   5.565  1.00  0.00     0.031 A 
ATOM     39  C   UNL     1      -4.183   1.926   5.758  1.00  0.00     0.074 A 
ATOM     40  C   UNL     1      -2.569   3.688   5.124  1.00  0.00     0.049 A 
ATOM     41  N   UNL     1      -5.321   2.540   5.554  1.00  0.00    -0.248 NA
ATOM     42  C   UNL     1      -4.327   0.534   6.212  1.00  0.00     0.031 C 
ATOM     43  C   UNL     1      -1.256   4.276   4.854  1.00  0.00     0.029 A 
ATOM     44  N   UNL     1      -3.452   4.692   4.816  1.00  0.00    -0.354 N 
ATOM     45  C   UNL     1      -6.310   1.610   5.844  1.00  0.00     0.074 A 
ATOM     46  C   UNL     1      -5.641   0.372   6.178  1.00  0.00     0.031 C 
ATOM     47  C   UNL     1      -1.417   5.544   4.449  1.00  0.00     0.029 A 
ATOM     48  C   UNL     1      -2.844   5.844   4.382  1.00  0.00     0.049 A 
ATOM     49  H   UNL     1      -4.428   4.596   4.899  1.00  0.00     0.167 HD
ATOM     50  C   UNL     1      -7.653   1.782   5.853  1.00  0.00     0.037 A 
ATOM     51  C   UNL     1      -3.377   7.007   3.963  1.00  0.00     0.037 A 
ATOM     52  C   UNL     1      -8.309   3.023   5.532  1.00  0.00     0.049 A 
ATOM     53  C   UNL     1      -4.874   7.165   3.962  1.00  0.00     0.074 A 
ATOM     54  C   UNL     1      -9.659   3.320   5.571  1.00  0.00     0.029 A 
ATOM     55  N   UNL     1      -7.660   4.172   5.101  1.00  0.00    -0.354 N 
ATOM     56  N   UNL     1      -5.798   6.303   4.311  1.00  0.00    -0.248 NA
ATOM     57  C   UNL     1      -5.402   8.460   3.514  1.00  0.00     0.031 C 
ATOM     58  C   UNL     1      -9.835   4.622   5.093  1.00  0.00     0.029 A 
ATOM     59  C   UNL     1      -8.588   5.166   4.831  1.00  0.00     0.049 A 
ATOM     60  H   UNL     1      -6.685   4.267   5.001  1.00  0.00     0.167 HD
ATOM     61  C   UNL     1      -7.012   6.959   4.155  1.00  0.00     0.074 A 
ATOM     62  C   UNL     1      -6.704   8.297   3.696  1.00  0.00     0.031 C 
ATOM     63  C   UNL     1      -8.267   6.495   4.374  1.00  0.00     0.037 A 
BRANCH  50  64
ATOM     64  C   UNL     1      -8.507   0.596   6.205  1.00  0.00     0.064 A 
ATOM     65  C   UNL     1      -8.512   0.040   7.495  1.00  0.00     0.173 A 
ATOM     66  C   UNL     1      -9.360   0.027   5.247  1.00  0.00     0.173 A 
ATOM     67  F   UNL     1      -7.709   0.537   8.448  1.00  0.00    -0.203 F 
ATOM     68  C   UNL     1      -9.310  -1.060   7.800  1.00  0.00     0.198 A 
ATOM     69  C   UNL     1     -10.185  -1.048   5.566  1.00  0.00     0.198 A 
ATOM     70  F   UNL     1      -9.401   0.519   4.000  1.00  0.00    -0.203 F 
ATOM     71  F   UNL     1      -9.252  -1.609   9.021  1.00  0.00    -0.200 F 
ATOM     72  C   UNL     1     -10.152  -1.597   6.839  1.00  0.00     0.200 A 
ATOM     73  F   UNL     1     -11.010  -1.556   4.640  1.00  0.00    -0.200 F 
ATOM     74  F   UNL     1     -10.926  -2.650   7.137  1.00  0.00    -0.200 F 
ENDBRANCH  50  64
BRANCH  51  75
ATOM     75  C   UNL     1      -2.488   8.113   3.517  1.00  0.00     0.064 A 
ATOM     76  C   UNL     1      -2.394   9.306   4.246  1.00  0.00     0.173 A 
ATOM     77  C   UNL     1      -1.718   8.000   2.350  1.00  0.00     0.173 A 
ATOM     78  F   UNL     1      -3.124   9.471   5.359  1.00  0.00    -0.203 F 
ATOM     79  C   UNL     1      -1.584  10.354   3.811  1.00  0.00     0.198 A 
ATOM     80  C   UNL     1      -0.881   9.034   1.936  1.00  0.00     0.198 A 
ATOM     81  F   UNL     1      -1.765   6.877   1.618  1.00  0.00    -0.203 F 
ATOM     82  F   UNL     1      -1.554  11.504   4.498  1.00  0.00    -0.200 F 
ATOM     83  C   UNL     1      -0.823  10.214   2.660  1.00  0.00     0.200 A 
ATOM     84  F   UNL     1      -0.133   8.886   0.833  1.00  0.00    -0.200 F 
ATOM     85  F   UNL     1      -0.040  11.219   2.246  1.00  0.00    -0.200 F 
ENDBRANCH  51  75
BRANCH  63  86
ATOM     86  C   UNL     1      -9.405   7.453   4.155  1.00  0.00     0.064 A 
ATOM     87  C   UNL     1      -9.760   7.903   2.874  1.00  0.00     0.173 A 
ATOM     88  C   UNL     1     -10.176   7.897   5.241  1.00  0.00     0.173 A 
ATOM     89  F   UNL     1      -9.050   7.520   1.802  1.00  0.00    -0.203 F 
ATOM     90  C   UNL     1     -10.822   8.785   2.694  1.00  0.00     0.198 A 
ATOM     91  C   UNL     1     -11.261   8.748   5.053  1.00  0.00     0.198 A 
ATOM     92  F   UNL     1      -9.886   7.492   6.487  1.00  0.00    -0.203 F 
ATOM     93  F   UNL     1     -11.106   9.247   1.468  1.00  0.00    -0.200 F 
ATOM     94  C   UNL     1     -11.577   9.200   3.781  1.00  0.00     0.200 A 
ATOM     95  F   UNL     1     -12.001   9.130   6.103  1.00  0.00    -0.200 F 
ATOM     96  F   UNL     1     -12.605  10.041   3.604  1.00  0.00    -0.200 F 
ENDBRANCH  63  86
ENDBRANCH  37  38
ENDBRANCH  29  32
ENDBRANCH  27  28
ENDBRANCH  26  27
ENDBRANCH  25  26
ENDBRANCH  24  25
ENDBRANCH  23  24
ENDBRANCH   1  23
TORSDOF 20
