REMARK SMILES O=C(Cn1cnc(-c2ccccc2)c1-c1ccccc1)NCCCCCCNC(=O)c1ccc(-c2c3nc(c(-c4c(F)c(F)c(F)c(F)c4F)c4ccc([nH]4)c(-c4c(F)c(F)c(F)c(F)c4F)c4nc(c(-c5c(F)c(F)c(F)c(F)c5F)c5ccc2[nH]5)C=C4)C=C3)cc1
REMARK SMILES IDX 24 1 23 2 22 3 21 4 1 5 2 6 3 8 4 9 5 10 14 11 6 12 7 13
REMARK SMILES IDX 15 14 16 15 20 16 17 17 19 18 18 19 8 20 9 21 13 22 10 23
REMARK SMILES IDX 12 24 11 25 25 26 26 27 27 28 28 29 29 30 30 32 31 33 32 34
REMARK SMILES IDX 93 35 33 36 92 37 34 38 35 39 36 40 86 41 37 42 91 43 85 44
REMARK SMILES IDX 87 45 38 46 90 47 84 48 83 49 39 51 71 52 51 53 70 54 52 55
REMARK SMILES IDX 55 56 69 57 88 58 53 59 54 60 68 62 89 63 56 64 40 65 41 66
REMARK SMILES IDX 49 67 42 68 43 69 47 70 50 71 44 72 45 73 48 74 46 75 72 76
REMARK SMILES IDX 73 77 81 78 74 79 75 80 79 81 82 82 76 83 77 84 80 85 78 86
REMARK SMILES IDX 57 87 58 88 66 89 59 90 60 91 64 92 67 93 61 94 62 95 65 96
REMARK SMILES IDX 63 97
REMARK H PARENT 21 7 28 31 87 50 55 61
REMARK Flexibility Score: inf
ROOT
ATOM      1  C   UNL     1       4.155   1.327  -3.398  1.00  0.00     0.002 C 
ENDROOT
BRANCH   1   2
ATOM      2  C   UNL     1       2.660   1.413  -3.067  1.00  0.00     0.021 C 
BRANCH   2   3
ATOM      3  C   UNL     1       2.103   0.208  -2.314  1.00  0.00     0.116 C 
BRANCH   3   4
ATOM      4  N   UNL     1       2.765  -0.006  -1.042  1.00  0.00    -0.355 N 
ATOM      5  O   UNL     1       1.042   0.792   0.234  1.00  0.00    -0.273 OA
ATOM      6  C   UNL     1       2.143   0.248   0.163  1.00  0.00     0.239 C 
ATOM      7  H   UNL     1       3.690  -0.344  -1.038  1.00  0.00     0.163 HD
BRANCH   6   8
ATOM      8  C   UNL     1       2.925  -0.101   1.413  1.00  0.00     0.223 C 
BRANCH   8   9
ATOM      9  N   UNL     1       3.689  -1.336   1.327  1.00  0.00    -0.321 N 
ATOM     10  C   UNL     1       5.057  -1.391   1.385  1.00  0.00     0.201 A 
ATOM     11  C   UNL     1       3.214  -2.631   1.277  1.00  0.00     0.076 A 
ATOM     12  N   UNL     1       5.496  -2.627   1.368  1.00  0.00    -0.236 NA
ATOM     13  C   UNL     1       4.368  -3.406   1.298  1.00  0.00     0.096 A 
BRANCH  11  14
ATOM     14  C   UNL     1       1.811  -3.043   1.275  1.00  0.00     0.000 A 
ATOM     15  C   UNL     1       1.299  -3.781   2.350  1.00  0.00     0.010 A 
ATOM     16  C   UNL     1       0.992  -2.809   0.166  1.00  0.00     0.010 A 
ATOM     17  C   UNL     1      -0.011  -4.265   2.318  1.00  0.00     0.001 A 
ATOM     18  C   UNL     1      -0.324  -3.274   0.143  1.00  0.00     0.001 A 
ATOM     19  C   UNL     1      -0.824  -4.005   1.217  1.00  0.00     0.000 A 
ENDBRANCH  11  14
BRANCH  13  20
ATOM     20  C   UNL     1       4.400  -4.856   1.288  1.00  0.00     0.002 A 
ATOM     21  C   UNL     1       5.011  -5.549   2.338  1.00  0.00     0.010 A 
ATOM     22  C   UNL     1       3.777  -5.575   0.260  1.00  0.00     0.010 A 
ATOM     23  C   UNL     1       4.968  -6.945   2.376  1.00  0.00     0.001 A 
ATOM     24  C   UNL     1       3.740  -6.969   0.296  1.00  0.00     0.001 A 
ATOM     25  C   UNL     1       4.329  -7.653   1.358  1.00  0.00     0.000 A 
ENDBRANCH  13  20
ENDBRANCH   8   9
ENDBRANCH   6   8
ENDBRANCH   3   4
ENDBRANCH   2   3
ENDBRANCH   1   2
BRANCH   1  26
ATOM     26  C   UNL     1       4.613   0.080  -4.171  1.00  0.00     0.002 C 
BRANCH  26  27
ATOM     27  C   UNL     1       3.907  -0.208  -5.503  1.00  0.00     0.021 C 
BRANCH  27  28
ATOM     28  C   UNL     1       4.086   0.874  -6.556  1.00  0.00     0.116 C 
BRANCH  28  29
ATOM     29  N   UNL     1       5.466   0.997  -7.032  1.00  0.00    -0.352 N 
ATOM     30  C   UNL     1       5.972   1.889  -7.965  1.00  0.00     0.251 C 
ATOM     31  H   UNL     1       6.114   0.369  -6.640  1.00  0.00     0.163 HD
ATOM     32  O   UNL     1       7.014   1.669  -8.557  1.00  0.00    -0.269 OA
BRANCH  30  33
ATOM     33  C   UNL     1       5.220   3.132  -8.217  1.00  0.00     0.039 A 
ATOM     34  C   UNL     1       5.081   3.672  -9.499  1.00  0.00     0.014 A 
ATOM     35  C   UNL     1       4.621   3.740  -7.121  1.00  0.00     0.014 A 
ATOM     36  C   UNL     1       4.266   4.790  -9.668  1.00  0.00     0.010 A 
ATOM     37  C   UNL     1       3.669   4.701  -7.316  1.00  0.00     0.010 A 
ATOM     38  C   UNL     1       3.550   5.287  -8.568  1.00  0.00    -0.014 A 
BRANCH  38  39
ATOM     39  C   UNL     1       2.579   6.365  -8.703  1.00  0.00     0.031 A 
ATOM     40  C   UNL     1       1.492   6.085  -9.677  1.00  0.00     0.074 A 
ATOM     41  C   UNL     1       2.537   7.404  -7.838  1.00  0.00     0.049 A 
ATOM     42  N   UNL     1       1.247   6.701 -10.785  1.00  0.00    -0.248 NA
ATOM     43  C   UNL     1       0.659   4.887  -9.468  1.00  0.00     0.031 C 
ATOM     44  C   UNL     1       3.352   7.620  -6.634  1.00  0.00     0.029 A 
ATOM     45  N   UNL     1       1.667   8.449  -7.789  1.00  0.00    -0.354 N 
ATOM     46  C   UNL     1       0.105   6.103 -11.313  1.00  0.00     0.074 A 
ATOM     47  C   UNL     1      -0.091   4.886 -10.573  1.00  0.00     0.031 C 
ATOM     48  C   UNL     1       2.786   8.574  -5.862  1.00  0.00     0.029 A 
ATOM     49  C   UNL     1       1.680   9.160  -6.593  1.00  0.00     0.049 A 
ATOM     50  H   UNL     1       1.076   8.683  -8.540  1.00  0.00     0.167 HD
ATOM     51  C   UNL     1      -0.726   6.803 -12.136  1.00  0.00     0.037 A 
ATOM     52  C   UNL     1       0.823  10.146  -6.226  1.00  0.00     0.037 A 
ATOM     53  C   UNL     1      -0.062   7.978 -12.648  1.00  0.00     0.049 A 
ATOM     54  C   UNL     1       0.177  10.643  -7.465  1.00  0.00     0.074 A 
ATOM     55  C   UNL     1       1.063   8.204 -13.416  1.00  0.00     0.029 A 
ATOM     56  N   UNL     1      -0.347   9.178 -12.045  1.00  0.00    -0.354 N 
ATOM     57  N   UNL     1       0.814  11.283  -8.406  1.00  0.00    -0.248 NA
ATOM     58  C   UNL     1      -1.068  10.009  -7.870  1.00  0.00     0.031 C 
ATOM     59  C   UNL     1       1.665   9.370 -12.855  1.00  0.00     0.029 A 
ATOM     60  C   UNL     1       0.836   9.836 -11.834  1.00  0.00     0.049 A 
ATOM     61  H   UNL     1      -1.243   9.508 -11.806  1.00  0.00     0.167 HD
ATOM     62  C   UNL     1       0.301  10.769  -9.588  1.00  0.00     0.074 A 
ATOM     63  C   UNL     1      -0.911  10.053  -9.196  1.00  0.00     0.031 C 
ATOM     64  C   UNL     1       1.067  10.722 -10.717  1.00  0.00     0.037 A 
BRANCH  51  65
ATOM     65  C   UNL     1      -2.233   6.673 -12.151  1.00  0.00     0.064 A 
ATOM     66  C   UNL     1      -2.968   7.423 -13.093  1.00  0.00     0.173 A 
ATOM     67  C   UNL     1      -2.995   6.111 -11.103  1.00  0.00     0.173 A 
ATOM     68  F   UNL     1      -2.352   8.010 -14.131  1.00  0.00    -0.203 F 
ATOM     69  C   UNL     1      -4.333   7.678 -12.936  1.00  0.00     0.198 A 
ATOM     70  C   UNL     1      -4.368   6.324 -10.979  1.00  0.00     0.198 A 
ATOM     71  F   UNL     1      -2.441   5.432 -10.094  1.00  0.00    -0.203 F 
ATOM     72  F   UNL     1      -4.954   8.515 -13.778  1.00  0.00    -0.200 F 
ATOM     73  C   UNL     1      -5.030   7.137 -11.873  1.00  0.00     0.200 A 
ATOM     74  F   UNL     1      -5.021   5.802  -9.932  1.00  0.00    -0.200 F 
ATOM     75  F   UNL     1      -6.320   7.436 -11.679  1.00  0.00    -0.200 F 
ENDBRANCH  51  65
BRANCH  52  76
ATOM     76  C   UNL     1       0.293  10.464  -4.878  1.00  0.00     0.064 A 
ATOM     77  C   UNL     1      -0.334  11.695  -4.617  1.00  0.00     0.173 A 
ATOM     78  C   UNL     1       0.126   9.460  -3.905  1.00  0.00     0.173 A 
ATOM     79  F   UNL     1      -0.264  12.690  -5.513  1.00  0.00    -0.203 F 
ATOM     80  C   UNL     1      -1.106  11.897  -3.467  1.00  0.00     0.198 A 
ATOM     81  C   UNL     1      -0.641   9.664  -2.756  1.00  0.00     0.198 A 
ATOM     82  F   UNL     1       0.622   8.229  -4.098  1.00  0.00    -0.203 F 
ATOM     83  F   UNL     1      -1.742  13.063  -3.285  1.00  0.00    -0.200 F 
ATOM     84  C   UNL     1      -1.269  10.878  -2.544  1.00  0.00     0.200 A 
ATOM     85  F   UNL     1      -0.823   8.657  -1.891  1.00  0.00    -0.200 F 
ATOM     86  F   UNL     1      -2.062  11.049  -1.477  1.00  0.00    -0.200 F 
ENDBRANCH  52  76
BRANCH  64  87
ATOM     87  C   UNL     1       2.361  11.490 -10.720  1.00  0.00     0.064 A 
ATOM     88  C   UNL     1       3.451  11.216  -9.874  1.00  0.00     0.173 A 
ATOM     89  C   UNL     1       2.551  12.452 -11.719  1.00  0.00     0.173 A 
ATOM     90  F   UNL     1       3.386  10.246  -8.954  1.00  0.00    -0.203 F 
ATOM     91  C   UNL     1       4.658  11.903 -10.002  1.00  0.00     0.198 A 
ATOM     92  C   UNL     1       3.768  13.110 -11.870  1.00  0.00     0.198 A 
ATOM     93  F   UNL     1       1.564  12.720 -12.589  1.00  0.00    -0.203 F 
ATOM     94  F   UNL     1       5.679  11.631  -9.176  1.00  0.00    -0.200 F 
ATOM     95  C   UNL     1       4.817  12.844 -11.005  1.00  0.00     0.200 A 
ATOM     96  F   UNL     1       3.932  13.984 -12.872  1.00  0.00    -0.200 F 
ATOM     97  F   UNL     1       5.990  13.476 -11.157  1.00  0.00    -0.200 F 
ENDBRANCH  64  87
ENDBRANCH  38  39
ENDBRANCH  30  33
ENDBRANCH  28  29
ENDBRANCH  27  28
ENDBRANCH  26  27
ENDBRANCH   1  26
TORSDOF 16
