REMARK SMILES O=C(NCCCCCCNC(=O)[C@H](Cc1ccc([N+](=O)[O-])cc1)c1ccccc1Br)c1ccc(-c2c3nc(c(-c4c(F)c(F)c(F)c(F)c4F)c4ccc([nH]4)c(-c4c(F)c(F)c(F)c(F)c4F)c4nc(c(-c5c(F)c(F)c(F)c(F)c5F)c5ccc2[nH]5)C=C4)C=C3)cc1
REMARK SMILES IDX 7 1 6 2 5 3 4 4 3 5 1 6 2 7 31 9 32 10 93 11 33 12 92 13
REMARK SMILES IDX 34 14 35 15 36 16 86 17 37 18 91 19 85 20 87 21 38 22 90 23
REMARK SMILES IDX 84 24 83 25 39 27 71 28 51 29 70 30 52 31 55 32 69 33 88 34
REMARK SMILES IDX 53 35 54 36 68 38 89 39 56 40 40 41 41 42 49 43 42 44 43 45
REMARK SMILES IDX 47 46 50 47 44 48 45 49 48 50 46 51 72 52 73 53 81 54 74 55
REMARK SMILES IDX 75 56 79 57 82 58 76 59 77 60 80 61 78 62 57 63 58 64 66 65
REMARK SMILES IDX 59 66 60 67 64 68 67 69 61 70 62 71 65 72 63 73 8 74 9 75
REMARK SMILES IDX 10 76 11 77 12 79 13 80 24 81 25 82 29 83 26 84 28 85 30 86
REMARK SMILES IDX 27 87 14 88 15 89 16 90 23 91 17 92 22 93 18 94 19 95 20 96
REMARK SMILES IDX 21 97
REMARK H PARENT 3 8 87 26 55 37 10 78
REMARK Flexibility Score: inf
ROOT
ATOM      1  C   UNL     1      13.507  -3.358  -4.672  1.00  0.00     0.002 C 
ENDROOT
BRANCH   1   2
ATOM      2  C   UNL     1      13.787  -2.661  -3.338  1.00  0.00     0.002 C 
BRANCH   2   3
ATOM      3  C   UNL     1      14.789  -3.360  -2.421  1.00  0.00     0.021 C 
BRANCH   3   4
ATOM      4  C   UNL     1      16.119  -3.733  -3.062  1.00  0.00     0.116 C 
BRANCH   4   5
ATOM      5  N   UNL     1      16.882  -2.588  -3.530  1.00  0.00    -0.352 N 
ATOM      6  O   UNL     1      18.681  -1.239  -3.736  1.00  0.00    -0.269 OA
ATOM      7  C   UNL     1      18.217  -2.297  -3.349  1.00  0.00     0.251 C 
ATOM      8  H   UNL     1      16.372  -1.927  -4.052  1.00  0.00     0.163 HD
BRANCH   7   9
ATOM      9  C   UNL     1      19.080  -3.268  -2.636  1.00  0.00     0.039 A 
ATOM     10  C   UNL     1      19.033  -4.629  -2.939  1.00  0.00     0.014 A 
ATOM     11  C   UNL     1      19.927  -2.804  -1.625  1.00  0.00     0.014 A 
ATOM     12  C   UNL     1      19.694  -5.540  -2.123  1.00  0.00     0.010 A 
ATOM     13  C   UNL     1      20.664  -3.716  -0.863  1.00  0.00     0.010 A 
ATOM     14  C   UNL     1      20.516  -5.095  -1.073  1.00  0.00    -0.014 A 
BRANCH  14  15
ATOM     15  C   UNL     1      21.217  -6.096  -0.227  1.00  0.00     0.031 A 
ATOM     16  C   UNL     1      20.902  -6.234   1.238  1.00  0.00     0.074 A 
ATOM     17  C   UNL     1      22.115  -6.919  -0.802  1.00  0.00     0.049 A 
ATOM     18  N   UNL     1      21.381  -7.089   2.109  1.00  0.00    -0.248 NA
ATOM     19  C   UNL     1      19.930  -5.287   1.806  1.00  0.00     0.031 C 
ATOM     20  C   UNL     1      22.515  -6.873  -2.210  1.00  0.00     0.029 A 
ATOM     21  N   UNL     1      22.832  -7.968  -0.287  1.00  0.00    -0.354 N 
ATOM     22  C   UNL     1      20.792  -6.767   3.326  1.00  0.00     0.074 A 
ATOM     23  C   UNL     1      19.936  -5.623   3.088  1.00  0.00     0.031 C 
ATOM     24  C   UNL     1      23.362  -7.882  -2.459  1.00  0.00     0.029 A 
ATOM     25  C   UNL     1      23.609  -8.610  -1.220  1.00  0.00     0.049 A 
ATOM     26  H   UNL     1      22.795  -8.235   0.660  1.00  0.00     0.167 HD
ATOM     27  C   UNL     1      20.945  -7.375   4.527  1.00  0.00     0.037 A 
ATOM     28  C   UNL     1      24.433  -9.666  -1.092  1.00  0.00     0.037 A 
ATOM     29  C   UNL     1      21.776  -8.530   4.754  1.00  0.00     0.049 A 
ATOM     30  C   UNL     1      24.581 -10.320   0.252  1.00  0.00     0.074 A 
ATOM     31  C   UNL     1      21.962  -9.244   5.926  1.00  0.00     0.029 A 
ATOM     32  N   UNL     1      22.564  -9.139   3.788  1.00  0.00    -0.354 N 
ATOM     33  N   UNL     1      23.985 -10.032   1.383  1.00  0.00    -0.248 NA
ATOM     34  C   UNL     1      25.517 -11.448   0.335  1.00  0.00     0.031 C 
ATOM     35  C   UNL     1      22.895 -10.258   5.680  1.00  0.00     0.029 A 
ATOM     36  C   UNL     1      23.252 -10.208   4.342  1.00  0.00     0.049 A 
ATOM     37  H   UNL     1      22.626  -8.854   2.848  1.00  0.00     0.167 HD
ATOM     38  C   UNL     1      24.454 -10.956   2.306  1.00  0.00     0.074 A 
ATOM     39  C   UNL     1      25.370 -11.826   1.597  1.00  0.00     0.031 C 
ATOM     40  C   UNL     1      24.153 -11.072   3.622  1.00  0.00     0.037 A 
BRANCH  27  41
ATOM     41  C   UNL     1      20.211  -6.794   5.703  1.00  0.00     0.064 A 
ATOM     42  C   UNL     1      18.820  -6.910   5.838  1.00  0.00     0.173 A 
ATOM     43  C   UNL     1      20.918  -6.155   6.734  1.00  0.00     0.173 A 
ATOM     44  F   UNL     1      18.095  -7.503   4.878  1.00  0.00    -0.203 F 
ATOM     45  C   UNL     1      18.161  -6.385   6.949  1.00  0.00     0.198 A 
ATOM     46  C   UNL     1      20.260  -5.656   7.855  1.00  0.00     0.198 A 
ATOM     47  F   UNL     1      22.251  -6.024   6.659  1.00  0.00    -0.203 F 
ATOM     48  F   UNL     1      16.826  -6.470   7.035  1.00  0.00    -0.200 F 
ATOM     49  C   UNL     1      18.882  -5.766   7.959  1.00  0.00     0.200 A 
ATOM     50  F   UNL     1      20.960  -5.070   8.836  1.00  0.00    -0.200 F 
ATOM     51  F   UNL     1      18.247  -5.269   9.029  1.00  0.00    -0.200 F 
ENDBRANCH  27  41
BRANCH  28  52
ATOM     52  C   UNL     1      25.166 -10.177  -2.278  1.00  0.00     0.064 A 
ATOM     53  C   UNL     1      24.850 -11.422  -2.837  1.00  0.00     0.173 A 
ATOM     54  C   UNL     1      26.187  -9.429  -2.882  1.00  0.00     0.173 A 
ATOM     55  F   UNL     1      23.893 -12.182  -2.284  1.00  0.00    -0.203 F 
ATOM     56  C   UNL     1      25.540 -11.908  -3.946  1.00  0.00     0.198 A 
ATOM     57  C   UNL     1      26.855  -9.901  -4.009  1.00  0.00     0.198 A 
ATOM     58  F   UNL     1      26.522  -8.228  -2.388  1.00  0.00    -0.203 F 
ATOM     59  F   UNL     1      25.246 -13.120  -4.437  1.00  0.00    -0.200 F 
ATOM     60  C   UNL     1      26.536 -11.144  -4.535  1.00  0.00     0.200 A 
ATOM     61  F   UNL     1      27.804  -9.152  -4.585  1.00  0.00    -0.200 F 
ATOM     62  F   UNL     1      27.193 -11.607  -5.607  1.00  0.00    -0.200 F 
ENDBRANCH  28  52
BRANCH  40  63
ATOM     63  C   UNL     1      24.788 -12.207   4.369  1.00  0.00     0.064 A 
ATOM     64  C   UNL     1      26.155 -12.211   4.685  1.00  0.00     0.173 A 
ATOM     65  C   UNL     1      24.014 -13.301   4.787  1.00  0.00     0.173 A 
ATOM     66  F   UNL     1      26.941 -11.196   4.292  1.00  0.00    -0.203 F 
ATOM     67  C   UNL     1      26.730 -13.283   5.362  1.00  0.00     0.198 A 
ATOM     68  C   UNL     1      24.586 -14.357   5.490  1.00  0.00     0.198 A 
ATOM     69  F   UNL     1      22.701 -13.343   4.515  1.00  0.00    -0.203 F 
ATOM     70  F   UNL     1      28.048 -13.291   5.604  1.00  0.00    -0.200 F 
ATOM     71  C   UNL     1      25.945 -14.351   5.769  1.00  0.00     0.200 A 
ATOM     72  F   UNL     1      23.824 -15.383   5.892  1.00  0.00    -0.200 F 
ATOM     73  F   UNL     1      26.500 -15.382   6.421  1.00  0.00    -0.200 F 
ENDBRANCH  40  63
ENDBRANCH  14  15
ENDBRANCH   7   9
ENDBRANCH   4   5
ENDBRANCH   3   4
ENDBRANCH   2   3
ENDBRANCH   1   2
BRANCH   1  74
ATOM     74  C   UNL     1      13.094  -4.832  -4.587  1.00  0.00     0.021 C 
BRANCH  74  75
ATOM     75  C   UNL     1      11.841  -5.117  -3.762  1.00  0.00     0.116 C 
BRANCH  75  76
ATOM     76  N   UNL     1      10.659  -4.524  -4.347  1.00  0.00    -0.356 N 
ATOM     77  C   UNL     1       9.358  -4.919  -4.255  1.00  0.00     0.227 C 
ATOM     78  H   UNL     1      10.817  -3.718  -4.889  1.00  0.00     0.163 HD
ATOM     79  O   UNL     1       8.534  -4.255  -4.888  1.00  0.00    -0.274 OA
BRANCH  77  80
ATOM     80  C   UNL     1       8.970  -6.180  -3.460  1.00  0.00     0.114 C 
BRANCH  80  81
ATOM     81  C   UNL     1       9.398  -6.143  -1.988  1.00  0.00    -0.021 A 
ATOM     82  C   UNL     1      10.231  -7.194  -1.532  1.00  0.00     0.006 A 
ATOM     83  C   UNL     1       8.996  -5.183  -1.046  1.00  0.00     0.021 A 
ATOM     84  C   UNL     1      10.600  -7.316  -0.193  1.00  0.00     0.000 A 
ATOM     85  C   UNL     1       9.383  -5.301   0.298  1.00  0.00     0.016 A 
ATOM     86  Br  UNL     1       7.930  -3.674  -1.474  1.00  0.00    -0.051 Br
ATOM     87  C   UNL     1      10.170  -6.370   0.726  1.00  0.00     0.001 A 
ENDBRANCH  80  81
BRANCH  80  88
ATOM     88  C   UNL     1       7.455  -6.473  -3.691  1.00  0.00     0.053 C 
BRANCH  88  89
ATOM     89  C   UNL     1       6.751  -7.516  -2.845  1.00  0.00    -0.046 A 
ATOM     90  C   UNL     1       5.385  -7.332  -2.563  1.00  0.00     0.011 A 
ATOM     91  C   UNL     1       7.391  -8.650  -2.331  1.00  0.00     0.011 A 
ATOM     92  C   UNL     1       4.709  -8.184  -1.688  1.00  0.00     0.086 A 
ATOM     93  C   UNL     1       6.741  -9.484  -1.418  1.00  0.00     0.086 A 
ATOM     94  C   UNL     1       5.409  -9.230  -1.083  1.00  0.00     0.269 A 
BRANCH  94  95
ATOM     95  N   UNL     1       4.749 -10.050  -0.067  1.00  0.00     0.062 N 
ATOM     96  O   UNL     1       3.510 -10.065  -0.052  1.00  0.00    -0.258 OA
ATOM     97  O   UNL     1       5.473 -10.672   0.725  1.00  0.00    -0.258 OA
ENDBRANCH  94  95
ENDBRANCH  88  89
ENDBRANCH  80  88
ENDBRANCH  77  80
ENDBRANCH  75  76
ENDBRANCH  74  75
ENDBRANCH   1  74
TORSDOF 17
