REMARK SMILES O=C(NCCCCCCNC(=O)c1cc2c(c(S(=O)(=O)Nc3cc(C(F)(F)F)ccc3-n3cccn3)c1)CCC2)c1ccc(-c2c3nc(c(-c4c(F)c(F)c(F)c(F)c4F)c4ccc([nH]4)c(-c4c(F)c(F)c(F)c(F)c4F)c4nc(c(-c5c(F)c(F)c(F)c(F)c5F)c5ccc2[nH]5)C=C4)C=C3)cc1
REMARK SMILES IDX 7 1 6 2 5 3 4 4 3 5 1 6 2 7 41 9 42 10 103 11 43 12 102 13
REMARK SMILES IDX 44 14 45 15 46 16 96 17 47 18 101 19 95 20 97 21 48 22
REMARK SMILES IDX 100 23 94 24 93 25 49 27 81 28 61 29 80 30 62 31 65 32 79 33
REMARK SMILES IDX 98 34 63 35 64 36 78 38 99 39 66 40 50 41 51 42 59 43 52 44
REMARK SMILES IDX 53 45 57 46 60 47 54 48 55 49 58 50 56 51 82 52 83 53 91 54
REMARK SMILES IDX 84 55 85 56 89 57 92 58 86 59 87 60 90 61 88 62 67 63 68 64
REMARK SMILES IDX 76 65 69 66 70 67 74 68 77 69 71 70 72 71 75 72 73 73 8 74
REMARK SMILES IDX 9 75 10 76 11 77 12 79 13 80 14 81 37 82 15 83 17 84 16 85
REMARK SMILES IDX 40 86 38 87 39 88 18 89 19 90 20 91 21 92 22 94 23 95 31 96
REMARK SMILES IDX 24 97 30 98 29 99 32 100 33 101 36 102 34 103 35 104 25 105
REMARK SMILES IDX 26 106 27 107 28 108
REMARK H PARENT 3 8 97 26 65 37 10 78 21 93
REMARK Flexibility Score: inf
ROOT
ATOM      1  C   UNL     1       4.599   0.940   4.010  1.00  0.00     0.002 C 
ENDROOT
BRANCH   1   2
ATOM      2  C   UNL     1       4.133   1.943   2.947  1.00  0.00     0.002 C 
BRANCH   2   3
ATOM      3  C   UNL     1       4.699   1.762   1.531  1.00  0.00     0.021 C 
BRANCH   3   4
ATOM      4  C   UNL     1       4.477   0.386   0.906  1.00  0.00     0.116 C 
BRANCH   4   5
ATOM      5  N   UNL     1       3.086  -0.006   0.810  1.00  0.00    -0.352 N 
ATOM      6  O   UNL     1       1.034  -0.443   0.139  1.00  0.00    -0.269 OA
ATOM      7  C   UNL     1       2.072   0.187  -0.085  1.00  0.00     0.251 C 
ATOM      8  H   UNL     1       2.800  -0.547   1.582  1.00  0.00     0.163 HD
BRANCH   7   9
ATOM      9  C   UNL     1       2.095   1.113  -1.254  1.00  0.00     0.039 A 
ATOM     10  C   UNL     1       3.219   1.739  -1.791  1.00  0.00     0.014 A 
ATOM     11  C   UNL     1       0.844   1.362  -1.858  1.00  0.00     0.014 A 
ATOM     12  C   UNL     1       3.086   2.622  -2.867  1.00  0.00     0.010 A 
ATOM     13  C   UNL     1       0.705   2.241  -2.930  1.00  0.00     0.010 A 
ATOM     14  C   UNL     1       1.827   2.890  -3.427  1.00  0.00    -0.014 A 
BRANCH  14  15
ATOM     15  C   UNL     1       1.765   3.680  -4.661  1.00  0.00     0.031 A 
ATOM     16  C   UNL     1       2.433   3.027  -5.823  1.00  0.00     0.074 A 
ATOM     17  C   UNL     1       1.069   4.824  -4.839  1.00  0.00     0.049 A 
ATOM     18  N   UNL     1       3.471   3.440  -6.474  1.00  0.00    -0.248 NA
ATOM     19  C   UNL     1       1.953   1.702  -6.245  1.00  0.00     0.031 C 
ATOM     20  C   UNL     1       0.112   5.446  -3.925  1.00  0.00     0.029 A 
ATOM     21  N   UNL     1       1.016   5.640  -5.939  1.00  0.00    -0.354 N 
ATOM     22  C   UNL     1       3.682   2.517  -7.497  1.00  0.00     0.074 A 
ATOM     23  C   UNL     1       2.812   1.405  -7.222  1.00  0.00     0.031 C 
ATOM     24  C   UNL     1      -0.571   6.415  -4.581  1.00  0.00     0.029 A 
ATOM     25  C   UNL     1      -0.014   6.576  -5.914  1.00  0.00     0.049 A 
ATOM     26  H   UNL     1       1.655   5.569  -6.685  1.00  0.00     0.167 HD
ATOM     27  C   UNL     1       4.402   2.853  -8.604  1.00  0.00     0.037 A 
ATOM     28  C   UNL     1      -0.405   7.395  -6.926  1.00  0.00     0.037 A 
ATOM     29  C   UNL     1       5.218   4.014  -8.352  1.00  0.00     0.049 A 
ATOM     30  C   UNL     1       0.715   7.491  -7.890  1.00  0.00     0.074 A 
ATOM     31  C   UNL     1       6.235   4.327  -7.471  1.00  0.00     0.029 A 
ATOM     32  N   UNL     1       4.793   5.212  -8.866  1.00  0.00    -0.354 N 
ATOM     33  N   UNL     1       1.829   8.123  -7.660  1.00  0.00    -0.248 NA
ATOM     34  C   UNL     1       0.746   6.548  -8.996  1.00  0.00     0.031 C 
ATOM     35  C   UNL     1       6.036   5.703  -7.149  1.00  0.00     0.029 A 
ATOM     36  C   UNL     1       4.952   6.162  -7.897  1.00  0.00     0.049 A 
ATOM     37  H   UNL     1       4.438   5.360  -9.772  1.00  0.00     0.167 HD
ATOM     38  C   UNL     1       2.797   7.336  -8.257  1.00  0.00     0.074 A 
ATOM     39  C   UNL     1       2.067   6.455  -9.163  1.00  0.00     0.031 C 
ATOM     40  C   UNL     1       4.059   7.283  -7.741  1.00  0.00     0.037 A 
BRANCH  27  41
ATOM     41  C   UNL     1       4.067   2.410 -10.016  1.00  0.00     0.064 A 
ATOM     42  C   UNL     1       4.892   2.850 -11.076  1.00  0.00     0.173 A 
ATOM     43  C   UNL     1       2.817   1.884 -10.407  1.00  0.00     0.173 A 
ATOM     44  F   UNL     1       6.107   3.364 -10.831  1.00  0.00    -0.203 F 
ATOM     45  C   UNL     1       4.445   2.884 -12.399  1.00  0.00     0.198 A 
ATOM     46  C   UNL     1       2.396   1.871 -11.737  1.00  0.00     0.198 A 
ATOM     47  F   UNL     1       1.907   1.464  -9.523  1.00  0.00    -0.203 F 
ATOM     48  F   UNL     1       5.204   3.458 -13.342  1.00  0.00    -0.200 F 
ATOM     49  C   UNL     1       3.190   2.409 -12.726  1.00  0.00     0.200 A 
ATOM     50  F   UNL     1       1.171   1.415 -12.033  1.00  0.00    -0.200 F 
ATOM     51  F   UNL     1       2.727   2.512 -13.979  1.00  0.00    -0.200 F 
ENDBRANCH  27  41
BRANCH  28  52
ATOM     52  C   UNL     1      -1.749   7.921  -7.275  1.00  0.00     0.064 A 
ATOM     53  C   UNL     1      -1.902   8.988  -8.181  1.00  0.00     0.173 A 
ATOM     54  C   UNL     1      -2.912   7.188  -6.975  1.00  0.00     0.173 A 
ATOM     55  F   UNL     1      -0.840   9.715  -8.557  1.00  0.00    -0.203 F 
ATOM     56  C   UNL     1      -3.133   9.274  -8.782  1.00  0.00     0.198 A 
ATOM     57  C   UNL     1      -4.141   7.479  -7.571  1.00  0.00     0.198 A 
ATOM     58  F   UNL     1      -2.855   6.111  -6.180  1.00  0.00    -0.203 F 
ATOM     59  F   UNL     1      -3.221  10.249  -9.698  1.00  0.00    -0.200 F 
ATOM     60  C   UNL     1      -4.249   8.510  -8.487  1.00  0.00     0.200 A 
ATOM     61  F   UNL     1      -5.206   6.709  -7.306  1.00  0.00    -0.200 F 
ATOM     62  F   UNL     1      -5.411   8.736  -9.114  1.00  0.00    -0.200 F 
ENDBRANCH  28  52
BRANCH  40  63
ATOM     63  C   UNL     1       4.468   8.355  -6.773  1.00  0.00     0.064 A 
ATOM     64  C   UNL     1       3.839   8.605  -5.541  1.00  0.00     0.173 A 
ATOM     65  C   UNL     1       5.623   9.092  -7.070  1.00  0.00     0.173 A 
ATOM     66  F   UNL     1       2.791   7.875  -5.135  1.00  0.00    -0.203 F 
ATOM     67  C   UNL     1       4.319   9.588  -4.676  1.00  0.00     0.198 A 
ATOM     68  C   UNL     1       6.125  10.040  -6.185  1.00  0.00     0.198 A 
ATOM     69  F   UNL     1       6.294   8.860  -8.210  1.00  0.00    -0.203 F 
ATOM     70  F   UNL     1       3.689   9.828  -3.516  1.00  0.00    -0.200 F 
ATOM     71  C   UNL     1       5.464  10.298  -4.996  1.00  0.00     0.200 A 
ATOM     72  F   UNL     1       7.261  10.686  -6.477  1.00  0.00    -0.200 F 
ATOM     73  F   UNL     1       5.949  11.214  -4.146  1.00  0.00    -0.200 F 
ENDBRANCH  40  63
ENDBRANCH  14  15
ENDBRANCH   7   9
ENDBRANCH   4   5
ENDBRANCH   3   4
ENDBRANCH   2   3
ENDBRANCH   1   2
BRANCH   1  74
ATOM     74  C   UNL     1       6.111   0.821   4.205  1.00  0.00     0.021 C 
BRANCH  74  75
ATOM     75  C   UNL     1       6.821   2.100   4.642  1.00  0.00     0.116 C 
BRANCH  75  76
ATOM     76  N   UNL     1       6.528   2.494   6.018  1.00  0.00    -0.352 N 
ATOM     77  C   UNL     1       7.407   2.864   7.022  1.00  0.00     0.251 C 
ATOM     78  H   UNL     1       5.575   2.498   6.265  1.00  0.00     0.163 HD
ATOM     79  O   UNL     1       7.014   3.062   8.166  1.00  0.00    -0.269 OA
BRANCH  77  80
ATOM     80  C   UNL     1       8.847   2.990   6.700  1.00  0.00     0.041 A 
ATOM     81  C   UNL     1       9.212   3.738   5.586  1.00  0.00     0.018 A 
ATOM     82  C   UNL     1       9.804   2.238   7.413  1.00  0.00     0.036 A 
ATOM     83  C   UNL     1      10.453   3.493   5.047  1.00  0.00    -0.043 A 
ATOM     84  C   UNL     1      11.113   2.063   6.906  1.00  0.00     0.092 A 
ATOM     85  C   UNL     1      11.365   2.593   5.644  1.00  0.00    -0.024 A 
ATOM     86  C   UNL     1      10.934   3.980   3.713  1.00  0.00     0.036 C 
ATOM     87  C   UNL     1      12.399   2.280   4.611  1.00  0.00     0.037 C 
ATOM     88  C   UNL     1      12.402   3.582   3.801  1.00  0.00     0.010 C 
BRANCH  84  89
ATOM     89  S   UNL     1      12.194   0.964   7.801  1.00  0.00     0.262 S 
ATOM     90  O   UNL     1      11.628   0.820   9.134  1.00  0.00    -0.201 OA
ATOM     91  O   UNL     1      12.373  -0.211   6.978  1.00  0.00    -0.201 OA
BRANCH  89  92
ATOM     92  N   UNL     1      13.768   1.552   8.116  1.00  0.00    -0.277 N 
ATOM     93  H   UNL     1      14.209   1.270   8.949  1.00  0.00     0.180 HD
BRANCH  92  94
ATOM     94  C   UNL     1      14.484   2.431   7.240  1.00  0.00     0.075 A 
ATOM     95  C   UNL     1      15.369   1.873   6.300  1.00  0.00     0.042 A 
ATOM     96  C   UNL     1      14.239   3.811   7.213  1.00  0.00     0.089 A 
ATOM     97  C   UNL     1      15.932   2.667   5.277  1.00  0.00     0.058 A 
ATOM     98  C   UNL     1      14.840   4.616   6.232  1.00  0.00     0.031 A 
ATOM     99  C   UNL     1      15.683   4.048   5.274  1.00  0.00     0.015 A 
BRANCH  96 100
ATOM    100  N   UNL     1      13.335   4.412   8.115  1.00  0.00    -0.239 N 
ATOM    101  C   UNL     1      13.134   4.109   9.441  1.00  0.00     0.115 A 
ATOM    102  N   UNL     1      12.437   5.327   7.672  1.00  0.00    -0.177 NA
ATOM    103  C   UNL     1      11.957   4.710   9.812  1.00  0.00     0.042 A 
ATOM    104  C   UNL     1      11.545   5.405   8.664  1.00  0.00     0.135 A 
ENDBRANCH  96 100
BRANCH  97 105
ATOM    105  C   UNL     1      16.691   2.020   4.140  1.00  0.00     0.416 C 
ATOM    106  F   UNL     1      17.961   1.677   4.477  1.00  0.00    -0.166 F 
ATOM    107  F   UNL     1      16.090   0.875   3.708  1.00  0.00    -0.166 F 
ATOM    108  F   UNL     1      16.790   2.816   3.038  1.00  0.00    -0.166 F 
ENDBRANCH  97 105
ENDBRANCH  92  94
ENDBRANCH  89  92
ENDBRANCH  84  89
ENDBRANCH  77  80
ENDBRANCH  75  76
ENDBRANCH  74  75
ENDBRANCH   1  74
TORSDOF 18
