REMARK SMILES CCOC(=O)c1cccc(Nc2c(-c3ccc(C(=O)NCCCCCCNC(=O)c4ccc(-c5c6nc(c(-c7c(F)c(F)c(F)c(F)c7F)c7ccc([nH]7)c(-c7c(F)c(F)c(F)c(F)c7F)c7nc(c(-c8c(F)c(F)c(F)c(F)c8F)c8ccc5[nH]8)C=C7)C=C6)cc4)cc3)nc3cnccn23)c1
REMARK SMILES IDX 21 1 20 2 18 3 19 4 17 6 14 7 15 8 94 9 16 10 93 11 13 12
REMARK SMILES IDX 12 13 101 14 95 15 96 16 100 17 97 18 99 19 98 20 11 21
REMARK SMILES IDX 10 23 6 24 7 25 102 26 8 27 9 28 4 29 5 30 3 31 2 32 1 33
REMARK SMILES IDX 22 34 23 35 24 36 25 37 26 38 27 39 28 40 29 42 30 43 31 44
REMARK SMILES IDX 92 45 32 46 91 47 33 48 34 49 35 50 85 51 36 52 90 53 84 54
REMARK SMILES IDX 86 55 37 56 89 57 83 58 82 59 38 61 70 62 50 63 69 64 51 65
REMARK SMILES IDX 54 66 68 67 87 68 52 69 53 70 67 72 88 73 55 74 39 75 40 76
REMARK SMILES IDX 48 77 41 78 42 79 46 80 49 81 43 82 44 83 47 84 45 85 71 86
REMARK SMILES IDX 72 87 80 88 73 89 74 90 78 91 81 92 75 93 76 94 79 95 77 96
REMARK SMILES IDX 56 97 57 98 65 99 58 100 59 101 63 102 66 103 60 104 61 105
REMARK SMILES IDX 64 106 62 107
REMARK H PARENT 20 5 11 22 27 41 86 60 54 71
REMARK Flexibility Score: inf
ROOT
ATOM      1  C   UNL     1       2.062  12.823  -1.543  1.00  0.00     0.116 C 
ENDROOT
BRANCH   1   2
ATOM      2  N   UNL     1       2.754  11.871  -0.696  1.00  0.00    -0.352 N 
ATOM      3  C   UNL     1       3.196  10.595  -0.920  1.00  0.00     0.251 C 
ATOM      4  O   UNL     1       3.775  10.017   0.001  1.00  0.00    -0.269 OA
ATOM      5  H   UNL     1       2.942  12.206   0.210  1.00  0.00     0.163 HD
BRANCH   3   6
ATOM      6  C   UNL     1       3.050   9.899  -2.227  1.00  0.00     0.039 A 
ATOM      7  C   UNL     1       2.919   8.465  -4.641  1.00  0.00     0.004 A 
ATOM      8  C   UNL     1       3.984   8.256  -3.761  1.00  0.00     0.011 A 
ATOM      9  C   UNL     1       1.915   9.377  -4.310  1.00  0.00     0.011 A 
ATOM     10  C   UNL     1       4.051   8.974  -2.565  1.00  0.00     0.014 A 
ATOM     11  C   UNL     1       1.964  10.064  -3.092  1.00  0.00     0.014 A 
BRANCH   7  12
ATOM     12  C   UNL     1       2.796   7.672  -5.841  1.00  0.00     0.114 A 
ATOM     13  C   UNL     1       2.413   6.338  -5.845  1.00  0.00     0.143 A 
ATOM     14  N   UNL     1       2.367   6.005  -7.182  1.00  0.00    -0.283 N 
ATOM     15  N   UNL     1       3.026   8.152  -7.107  1.00  0.00    -0.225 NA
ATOM     16  C   UNL     1       2.770   7.119  -7.880  1.00  0.00     0.157 A 
ATOM     17  C   UNL     1       1.978   4.868  -7.869  1.00  0.00     0.115 A 
ATOM     18  C   UNL     1       2.820   7.046  -9.314  1.00  0.00     0.158 A 
ATOM     19  C   UNL     1       2.039   4.882  -9.213  1.00  0.00     0.129 A 
ATOM     20  N   UNL     1       2.471   5.965  -9.962  1.00  0.00    -0.259 NA
BRANCH  13  21
ATOM     21  N   UNL     1       2.027   5.524  -4.826  1.00  0.00    -0.339 N 
ATOM     22  H   UNL     1       1.201   5.768  -4.349  1.00  0.00     0.168 HD
BRANCH  21  23
ATOM     23  C   UNL     1       2.702   4.360  -4.384  1.00  0.00     0.040 A 
ATOM     24  C   UNL     1       2.897   2.601  -2.708  1.00  0.00     0.062 A 
ATOM     25  C   UNL     1       4.002   2.069  -3.375  1.00  0.00     0.016 A 
ATOM     26  C   UNL     1       2.238   3.726  -3.220  1.00  0.00     0.041 A 
ATOM     27  C   UNL     1       4.437   2.656  -4.560  1.00  0.00     0.003 A 
ATOM     28  C   UNL     1       3.793   3.793  -5.058  1.00  0.00     0.026 A 
BRANCH  24  29
ATOM     29  C   UNL     1       2.497   2.002  -1.419  1.00  0.00     0.338 C 
ATOM     30  O   UNL     1       3.296   1.597  -0.593  1.00  0.00    -0.246 OA
BRANCH  29  31
ATOM     31  O   UNL     1       1.145   1.940  -1.343  1.00  0.00    -0.462 OA
BRANCH  31  32
ATOM     32  C   UNL     1       0.621   1.378  -0.130  1.00  0.00     0.230 C 
ATOM     33  C   UNL     1       0.774  -0.133  -0.096  1.00  0.00     0.049 C 
ENDBRANCH  31  32
ENDBRANCH  29  31
ENDBRANCH  24  29
ENDBRANCH  21  23
ENDBRANCH  13  21
ENDBRANCH   7  12
ENDBRANCH   3   6
ENDBRANCH   1   2
BRANCH   1  34
ATOM     34  C   UNL     1       0.583  12.891  -1.155  1.00  0.00     0.021 C 
BRANCH  34  35
ATOM     35  C   UNL     1       0.325  13.712   0.116  1.00  0.00     0.002 C 
BRANCH  35  36
ATOM     36  C   UNL     1       0.659  15.204  -0.001  1.00  0.00     0.002 C 
BRANCH  36  37
ATOM     37  C   UNL     1      -0.037  15.936  -1.151  1.00  0.00     0.021 C 
BRANCH  37  38
ATOM     38  C   UNL     1      -1.561  15.922  -1.077  1.00  0.00     0.116 C 
BRANCH  38  39
ATOM     39  N   UNL     1      -2.054  16.679   0.062  1.00  0.00    -0.352 N 
ATOM     40  C   UNL     1      -2.950  17.718   0.091  1.00  0.00     0.251 C 
ATOM     41  H   UNL     1      -1.693  16.409   0.938  1.00  0.00     0.163 HD
ATOM     42  O   UNL     1      -3.096  18.386   1.109  1.00  0.00    -0.269 OA
BRANCH  40  43
ATOM     43  C   UNL     1      -3.737  18.040  -1.118  1.00  0.00     0.039 A 
ATOM     44  C   UNL     1      -3.849  19.374  -1.518  1.00  0.00     0.014 A 
ATOM     45  C   UNL     1      -4.377  17.030  -1.842  1.00  0.00     0.014 A 
ATOM     46  C   UNL     1      -4.558  19.691  -2.678  1.00  0.00     0.010 A 
ATOM     47  C   UNL     1      -5.034  17.340  -3.029  1.00  0.00     0.010 A 
ATOM     48  C   UNL     1      -5.133  18.673  -3.456  1.00  0.00    -0.014 A 
BRANCH  48  49
ATOM     49  C   UNL     1      -5.846  18.980  -4.720  1.00  0.00     0.031 A 
ATOM     50  C   UNL     1      -7.324  18.732  -4.830  1.00  0.00     0.074 A 
ATOM     51  C   UNL     1      -5.149  19.409  -5.789  1.00  0.00     0.049 A 
ATOM     52  N   UNL     1      -8.107  18.846  -5.873  1.00  0.00    -0.248 NA
ATOM     53  C   UNL     1      -8.006  18.267  -3.613  1.00  0.00     0.031 C 
ATOM     54  C   UNL     1      -3.705  19.643  -5.818  1.00  0.00     0.029 A 
ATOM     55  N   UNL     1      -5.561  19.706  -7.064  1.00  0.00    -0.354 N 
ATOM     56  C   UNL     1      -9.366  18.450  -5.443  1.00  0.00     0.074 A 
ATOM     57  C   UNL     1      -9.235  18.051  -4.058  1.00  0.00     0.031 C 
ATOM     58  C   UNL     1      -3.353  20.060  -7.045  1.00  0.00     0.029 A 
ATOM     59  C   UNL     1      -4.538  20.089  -7.896  1.00  0.00     0.049 A 
ATOM     60  H   UNL     1      -6.500  19.650  -7.354  1.00  0.00     0.167 HD
ATOM     61  C   UNL     1     -10.529  18.437  -6.137  1.00  0.00     0.037 A 
ATOM     62  C   UNL     1      -4.554  20.416  -9.202  1.00  0.00     0.037 A 
ATOM     63  C   UNL     1     -10.661  18.866  -7.504  1.00  0.00     0.049 A 
ATOM     64  C   UNL     1      -5.861  20.403  -9.948  1.00  0.00     0.074 A 
ATOM     65  C   UNL     1     -11.808  18.959  -8.273  1.00  0.00     0.029 A 
ATOM     66  N   UNL     1      -9.607  19.273  -8.308  1.00  0.00    -0.354 N 
ATOM     67  N   UNL     1      -7.056  20.088  -9.514  1.00  0.00    -0.248 NA
ATOM     68  C   UNL     1      -5.819  20.795 -11.363  1.00  0.00     0.031 C 
ATOM     69  C   UNL     1     -11.443  19.386  -9.554  1.00  0.00     0.029 A 
ATOM     70  C   UNL     1     -10.073  19.599  -9.571  1.00  0.00     0.049 A 
ATOM     71  H   UNL     1      -8.666  19.323  -8.023  1.00  0.00     0.167 HD
ATOM     72  C   UNL     1      -7.912  20.266 -10.591  1.00  0.00     0.074 A 
ATOM     73  C   UNL     1      -7.101  20.729 -11.698  1.00  0.00     0.031 C 
ATOM     74  C   UNL     1      -9.251  20.063 -10.659  1.00  0.00     0.037 A 
BRANCH  61  75
ATOM     75  C   UNL     1     -11.756  17.947  -5.425  1.00  0.00     0.064 A 
ATOM     76  C   UNL     1     -12.366  18.698  -4.409  1.00  0.00     0.173 A 
ATOM     77  C   UNL     1     -12.347  16.727  -5.785  1.00  0.00     0.173 A 
ATOM     78  F   UNL     1     -11.833  19.866  -4.020  1.00  0.00    -0.203 F 
ATOM     79  C   UNL     1     -13.507  18.233  -3.761  1.00  0.00     0.198 A 
ATOM     80  C   UNL     1     -13.504  16.277  -5.154  1.00  0.00     0.198 A 
ATOM     81  F   UNL     1     -11.806  15.972  -6.753  1.00  0.00    -0.203 F 
ATOM     82  F   UNL     1     -14.046  18.945  -2.762  1.00  0.00    -0.200 F 
ATOM     83  C   UNL     1     -14.079  17.026  -4.138  1.00  0.00     0.200 A 
ATOM     84  F   UNL     1     -14.061  15.117  -5.526  1.00  0.00    -0.200 F 
ATOM     85  F   UNL     1     -15.180  16.582  -3.516  1.00  0.00    -0.200 F 
ENDBRANCH  61  75
BRANCH  62  86
ATOM     86  C   UNL     1      -3.293  20.807  -9.881  1.00  0.00     0.064 A 
ATOM     87  C   UNL     1      -3.063  22.138 -10.257  1.00  0.00     0.173 A 
ATOM     88  C   UNL     1      -2.291  19.866 -10.159  1.00  0.00     0.173 A 
ATOM     89  F   UNL     1      -4.002  23.068 -10.029  1.00  0.00    -0.203 F 
ATOM     90  C   UNL     1      -1.885  22.510 -10.900  1.00  0.00     0.198 A 
ATOM     91  C   UNL     1      -1.103  20.245 -10.780  1.00  0.00     0.198 A 
ATOM     92  F   UNL     1      -2.462  18.582  -9.814  1.00  0.00    -0.203 F 
ATOM     93  F   UNL     1      -1.706  23.782 -11.282  1.00  0.00    -0.200 F 
ATOM     94  C   UNL     1      -0.903  21.565 -11.155  1.00  0.00     0.200 A 
ATOM     95  F   UNL     1      -0.151  19.331 -11.014  1.00  0.00    -0.200 F 
ATOM     96  F   UNL     1       0.233  21.925 -11.768  1.00  0.00    -0.200 F 
ENDBRANCH  62  86
BRANCH  74  97
ATOM     97  C   UNL     1      -9.926  20.366 -11.963  1.00  0.00     0.064 A 
ATOM     98  C   UNL     1      -9.787  19.522 -13.073  1.00  0.00     0.173 A 
ATOM     99  C   UNL     1     -10.758  21.489 -12.088  1.00  0.00     0.173 A 
ATOM    100  F   UNL     1      -8.990  18.445 -13.007  1.00  0.00    -0.203 F 
ATOM    101  C   UNL     1     -10.441  19.802 -14.270  1.00  0.00     0.198 A 
ATOM    102  C   UNL     1     -11.430  21.752 -13.278  1.00  0.00     0.198 A 
ATOM    103  F   UNL     1     -10.927  22.324 -11.052  1.00  0.00    -0.203 F 
ATOM    104  F   UNL     1     -10.262  19.004 -15.332  1.00  0.00    -0.200 F 
ATOM    105  C   UNL     1     -11.267  20.912 -14.369  1.00  0.00     0.200 A 
ATOM    106  F   UNL     1     -12.237  22.818 -13.368  1.00  0.00    -0.200 F 
ATOM    107  F   UNL     1     -11.902  21.175 -15.519  1.00  0.00    -0.200 F 
ENDBRANCH  74  97
ENDBRANCH  48  49
ENDBRANCH  40  43
ENDBRANCH  38  39
ENDBRANCH  37  38
ENDBRANCH  36  37
ENDBRANCH  35  36
ENDBRANCH  34  35
ENDBRANCH   1  34
TORSDOF 19
