REMARK SMILES CCC(CC)(NC(=O)c1cc([N+](=O)[O-])c[nH]1)C(=O)NCCCCCCNC(=O)c1ccc(-c2c3nc(c(-c4c(F)c(F)c(F)c(F)c4F)c4ccc([nH]4)c(-c4c(F)c(F)c(F)c(F)c4F)c4nc(c(-c5c(F)c(F)c(F)c(F)c5F)c5ccc2[nH]5)C=C4)C=C3)cc1
REMARK SMILES IDX 22 1 21 2 20 3 19 4 17 5 18 6 3 8 2 9 1 10 4 11 5 12 6 13
REMARK SMILES IDX 7 14 8 16 9 17 10 18 16 19 11 20 15 21 12 23 13 24 14 25
REMARK SMILES IDX 23 26 24 27 25 28 26 29 27 30 28 32 29 33 30 34 91 35 31 36
REMARK SMILES IDX 90 37 32 38 33 39 34 40 84 41 35 42 89 43 83 44 85 45 36 46
REMARK SMILES IDX 88 47 82 48 81 49 37 51 69 52 49 53 68 54 50 55 53 56 67 57
REMARK SMILES IDX 86 58 51 59 52 60 66 62 87 63 54 64 38 65 39 66 47 67 40 68
REMARK SMILES IDX 41 69 45 70 48 71 42 72 43 73 46 74 44 75 70 76 71 77 79 78
REMARK SMILES IDX 72 79 73 80 77 81 80 82 74 83 75 84 78 85 76 86 55 87 56 88
REMARK SMILES IDX 64 89 57 90 58 91 62 92 65 93 59 94 60 95 63 96 61 97
REMARK H PARENT 19 7 6 15 16 22 26 31 85 50 53 61
REMARK Flexibility Score: inf
ROOT
ATOM      1  C   UNL     1       4.197   1.397   6.147  1.00  0.00     0.002 C 
ENDROOT
BRANCH   1   2
ATOM      2  C   UNL     1       2.694   1.266   5.912  1.00  0.00     0.021 C 
BRANCH   2   3
ATOM      3  C   UNL     1       2.069   2.094   4.784  1.00  0.00     0.116 C 
BRANCH   3   4
ATOM      4  N   UNL     1       2.647   1.945   3.453  1.00  0.00    -0.354 N 
ATOM      5  C   UNL     1       2.261   1.217   2.346  1.00  0.00     0.245 C 
ATOM      6  O   UNL     1       2.915   1.386   1.314  1.00  0.00    -0.272 OA
ATOM      7  H   UNL     1       3.472   2.465   3.318  1.00  0.00     0.163 HD
BRANCH   5   8
ATOM      8  C   UNL     1       0.984   0.342   2.372  1.00  0.00     0.118 C 
BRANCH   8   9
ATOM      9  C   UNL     1       0.796  -0.641   1.180  1.00  0.00     0.035 C 
ATOM     10  C   UNL     1       0.849  -0.086  -0.236  1.00  0.00     0.007 C 
ENDBRANCH   8   9
BRANCH   8  11
ATOM     11  C   UNL     1      -0.129   1.454   2.333  1.00  0.00     0.035 C 
ATOM     12  C   UNL     1      -1.587   1.041   2.368  1.00  0.00     0.007 C 
ENDBRANCH   8  11
BRANCH   8  13
ATOM     13  N   UNL     1       0.955  -0.496   3.606  1.00  0.00    -0.336 N 
ATOM     14  C   UNL     1       1.757  -1.565   3.991  1.00  0.00     0.268 C 
ATOM     15  H   UNL     1       0.253  -0.254   4.253  1.00  0.00     0.165 HD
ATOM     16  O   UNL     1       1.184  -2.439   4.648  1.00  0.00    -0.268 OA
BRANCH  14  17
ATOM     17  C   UNL     1       3.199  -1.674   3.755  1.00  0.00     0.111 A 
ATOM     18  C   UNL     1       4.198  -0.791   3.387  1.00  0.00     0.119 A 
ATOM     19  N   UNL     1       3.893  -2.845   4.062  1.00  0.00    -0.351 N 
ATOM     20  C   UNL     1       5.477  -1.372   3.555  1.00  0.00     0.287 A 
ATOM     21  C   UNL     1       5.256  -2.670   3.950  1.00  0.00     0.169 A 
ATOM     22  H   UNL     1       3.463  -3.691   4.326  1.00  0.00     0.166 HD
BRANCH  20  23
ATOM     23  N   UNL     1       6.738  -0.682   3.408  1.00  0.00     0.064 N 
ATOM     24  O   UNL     1       7.771  -1.349   3.529  1.00  0.00    -0.258 OA
ATOM     25  O   UNL     1       6.681   0.540   3.205  1.00  0.00    -0.258 OA
ENDBRANCH  20  23
ENDBRANCH  14  17
ENDBRANCH   8  13
ENDBRANCH   5   8
ENDBRANCH   3   4
ENDBRANCH   2   3
ENDBRANCH   1   2
BRANCH   1  26
ATOM     26  C   UNL     1       4.735   2.821   6.224  1.00  0.00     0.002 C 
BRANCH  26  27
ATOM     27  C   UNL     1       4.085   3.695   7.301  1.00  0.00     0.021 C 
BRANCH  27  28
ATOM     28  C   UNL     1       4.284   3.175   8.724  1.00  0.00     0.116 C 
BRANCH  28  29
ATOM     29  N   UNL     1       5.690   3.211   9.094  1.00  0.00    -0.352 N 
ATOM     30  C   UNL     1       6.263   2.990  10.309  1.00  0.00     0.251 C 
ATOM     31  H   UNL     1       6.314   3.424   8.363  1.00  0.00     0.163 HD
ATOM     32  O   UNL     1       7.364   3.509  10.559  1.00  0.00    -0.269 OA
BRANCH  30  33
ATOM     33  C   UNL     1       5.633   2.136  11.327  1.00  0.00     0.039 A 
ATOM     34  C   UNL     1       5.820   2.466  12.677  1.00  0.00     0.014 A 
ATOM     35  C   UNL     1       4.981   0.947  10.973  1.00  0.00     0.014 A 
ATOM     36  C   UNL     1       5.330   1.628  13.669  1.00  0.00     0.010 A 
ATOM     37  C   UNL     1       4.473   0.114  11.962  1.00  0.00     0.010 A 
ATOM     38  C   UNL     1       4.642   0.463  13.307  1.00  0.00    -0.014 A 
BRANCH  38  39
ATOM     39  C   UNL     1       3.887  -0.264  14.350  1.00  0.00     0.031 A 
ATOM     40  C   UNL     1       2.571   0.530  14.680  1.00  0.00     0.074 A 
ATOM     41  C   UNL     1       4.462  -1.429  14.802  1.00  0.00     0.049 A 
ATOM     42  N   UNL     1       1.864   0.604  15.769  1.00  0.00    -0.248 NA
ATOM     43  C   UNL     1       1.992   1.438  13.639  1.00  0.00     0.031 C 
ATOM     44  C   UNL     1       5.721  -2.028  14.283  1.00  0.00     0.029 A 
ATOM     45  N   UNL     1       4.135  -2.356  15.773  1.00  0.00    -0.354 N 
ATOM     46  C   UNL     1       0.696   1.370  15.493  1.00  0.00     0.074 A 
ATOM     47  C   UNL     1       0.895   1.950  14.204  1.00  0.00     0.031 C 
ATOM     48  C   UNL     1       6.085  -3.123  14.994  1.00  0.00     0.029 A 
ATOM     49  C   UNL     1       5.118  -3.361  16.044  1.00  0.00     0.049 A 
ATOM     50  H   UNL     1       3.275  -2.327  16.251  1.00  0.00     0.167 HD
ATOM     51  C   UNL     1      -0.420   1.346  16.288  1.00  0.00     0.037 A 
ATOM     52  C   UNL     1       5.167  -4.253  17.092  1.00  0.00     0.037 A 
ATOM     53  C   UNL     1      -0.168   0.515  17.410  1.00  0.00     0.049 A 
ATOM     54  C   UNL     1       3.909  -4.003  17.804  1.00  0.00     0.074 A 
ATOM     55  C   UNL     1       0.553   0.707  18.555  1.00  0.00     0.029 A 
ATOM     56  N   UNL     1      -0.405  -0.823  17.235  1.00  0.00    -0.354 N 
ATOM     57  N   UNL     1       2.731  -4.336  17.374  1.00  0.00    -0.248 NA
ATOM     58  C   UNL     1       3.968  -3.158  19.000  1.00  0.00     0.031 C 
ATOM     59  C   UNL     1       1.187  -0.541  18.723  1.00  0.00     0.029 A 
ATOM     60  C   UNL     1       0.605  -1.491  17.875  1.00  0.00     0.049 A 
ATOM     61  H   UNL     1      -1.156  -1.227  16.743  1.00  0.00     0.167 HD
ATOM     62  C   UNL     1       1.918  -3.469  18.061  1.00  0.00     0.074 A 
ATOM     63  C   UNL     1       2.666  -3.009  19.212  1.00  0.00     0.031 C 
ATOM     64  C   UNL     1       0.916  -2.821  17.420  1.00  0.00     0.037 A 
BRANCH  51  65
ATOM     65  C   UNL     1      -1.867   1.746  16.104  1.00  0.00     0.064 A 
ATOM     66  C   UNL     1      -2.696   1.760  17.262  1.00  0.00     0.173 A 
ATOM     67  C   UNL     1      -2.533   1.663  14.878  1.00  0.00     0.173 A 
ATOM     68  F   UNL     1      -2.166   1.920  18.486  1.00  0.00    -0.203 F 
ATOM     69  C   UNL     1      -4.061   1.490  17.201  1.00  0.00     0.198 A 
ATOM     70  C   UNL     1      -3.918   1.458  14.819  1.00  0.00     0.198 A 
ATOM     71  F   UNL     1      -1.856   1.668  13.723  1.00  0.00    -0.203 F 
ATOM     72  F   UNL     1      -4.761   1.317  18.332  1.00  0.00    -0.200 F 
ATOM     73  C   UNL     1      -4.668   1.314  15.977  1.00  0.00     0.200 A 
ATOM     74  F   UNL     1      -4.514   1.308  13.628  1.00  0.00    -0.200 F 
ATOM     75  F   UNL     1      -5.962   0.971  15.910  1.00  0.00    -0.200 F 
ENDBRANCH  51  65
BRANCH  52  76
ATOM     76  C   UNL     1       6.147  -5.196  17.780  1.00  0.00     0.064 A 
ATOM     77  C   UNL     1       7.369  -5.647  17.272  1.00  0.00     0.173 A 
ATOM     78  C   UNL     1       5.899  -5.618  19.125  1.00  0.00     0.173 A 
ATOM     79  F   UNL     1       7.675  -5.477  15.980  1.00  0.00    -0.203 F 
ATOM     80  C   UNL     1       8.318  -6.312  18.084  1.00  0.00     0.198 A 
ATOM     81  C   UNL     1       6.860  -6.206  19.949  1.00  0.00     0.198 A 
ATOM     82  F   UNL     1       4.698  -5.468  19.701  1.00  0.00    -0.203 F 
ATOM     83  F   UNL     1       9.479  -6.721  17.555  1.00  0.00    -0.200 F 
ATOM     84  C   UNL     1       8.086  -6.534  19.433  1.00  0.00     0.200 A 
ATOM     85  F   UNL     1       6.586  -6.422  21.245  1.00  0.00    -0.200 F 
ATOM     86  F   UNL     1       9.026  -7.076  20.221  1.00  0.00    -0.200 F 
ENDBRANCH  52  76
BRANCH  64  87
ATOM     87  C   UNL     1       0.484  -3.450  16.102  1.00  0.00     0.064 A 
ATOM     88  C   UNL     1      -0.107  -4.720  16.099  1.00  0.00     0.173 A 
ATOM     89  C   UNL     1       0.714  -2.885  14.834  1.00  0.00     0.173 A 
ATOM     90  F   UNL     1      -0.383  -5.328  17.262  1.00  0.00    -0.203 F 
ATOM     91  C   UNL     1      -0.436  -5.380  14.909  1.00  0.00     0.198 A 
ATOM     92  C   UNL     1       0.388  -3.538  13.642  1.00  0.00     0.198 A 
ATOM     93  F   UNL     1       1.252  -1.675  14.717  1.00  0.00    -0.203 F 
ATOM     94  F   UNL     1      -1.009  -6.590  14.956  1.00  0.00    -0.200 F 
ATOM     95  C   UNL     1      -0.187  -4.790  13.680  1.00  0.00     0.200 A 
ATOM     96  F   UNL     1       0.622  -2.942  12.461  1.00  0.00    -0.200 F 
ATOM     97  F   UNL     1      -0.519  -5.417  12.542  1.00  0.00    -0.200 F 
ENDBRANCH  64  87
ENDBRANCH  38  39
ENDBRANCH  30  33
ENDBRANCH  28  29
ENDBRANCH  27  28
ENDBRANCH  26  27
ENDBRANCH   1  26
TORSDOF 18
