REMARK SMILES CC(C)(C)c1cc2c(cc1Cl)C=C(C(=O)NCCCCCCNC(=O)c1ccc(-c3c4nc(c(-c5c(F)c(F)c(F)c(F)c5F)c5ccc([nH]5)c(-c5c(F)c(F)c(F)c(F)c5F)c5nc(c(-c6c(F)c(F)c(F)c(F)c6F)c6ccc3[nH]6)C=C5)C=C4)cc1)[C@@H](C(F)(F)F)O2
REMARK SMILES IDX 20 1 19 2 18 3 17 4 16 5 14 6 15 7 13 9 5 10 6 11 10 12 7 13
REMARK SMILES IDX 9 14 11 15 8 16 94 17 12 18 89 19 2 20 1 21 3 22 4 23 90 24
REMARK SMILES IDX 91 25 92 26 93 27 21 28 22 29 23 30 24 31 25 33 26 34 27 35
REMARK SMILES IDX 88 36 28 37 87 38 29 39 30 40 31 41 81 42 32 43 86 44 80 45
REMARK SMILES IDX 82 46 33 47 85 48 79 49 78 50 34 52 66 53 46 54 65 55 47 56
REMARK SMILES IDX 50 57 64 58 83 59 48 60 49 61 63 63 84 64 51 65 35 66 36 67
REMARK SMILES IDX 44 68 37 69 38 70 42 71 45 72 39 73 40 74 43 75 41 76 67 77
REMARK SMILES IDX 68 78 76 79 69 80 70 81 74 82 77 83 71 84 72 85 75 86 73 87
REMARK SMILES IDX 52 88 53 89 61 90 54 91 55 92 59 93 62 94 56 95 57 96 60 97
REMARK SMILES IDX 58 98
REMARK H PARENT 16 8 23 32 82 51 50 62
REMARK Flexibility Score: inf
ROOT
ATOM      1  C   UNL     1       0.193  13.252   1.397  1.00  0.00     0.002 C 
ENDROOT
BRANCH   1   2
ATOM      2  C   UNL     1      -0.460  12.223   2.330  1.00  0.00     0.002 C 
BRANCH   2   3
ATOM      3  C   UNL     1      -0.672  10.828   1.734  1.00  0.00     0.021 C 
BRANCH   3   4
ATOM      4  C   UNL     1       0.599  10.180   1.190  1.00  0.00     0.116 C 
BRANCH   4   5
ATOM      5  N   UNL     1       1.371   9.534   2.235  1.00  0.00    -0.352 N 
ATOM      6  C   UNL     1       1.822   8.289   2.514  1.00  0.00     0.251 C 
ATOM      7  O   UNL     1       2.505   8.198   3.540  1.00  0.00    -0.270 OA
ATOM      8  H   UNL     1       1.641  10.177   2.930  1.00  0.00     0.163 HD
BRANCH   6   9
ATOM      9  C   UNL     1       1.552   7.064   1.700  1.00  0.00     0.067 C 
ATOM     10  C   UNL     1       1.065   2.226   0.154  1.00  0.00    -0.020 A 
ATOM     11  C   UNL     1       0.611   3.497  -0.280  1.00  0.00     0.053 A 
ATOM     12  C   UNL     1       1.882   2.231   1.304  1.00  0.00     0.045 A 
ATOM     13  C   UNL     1       0.920   4.680   0.389  1.00  0.00     0.128 A 
ATOM     14  C   UNL     1       2.182   3.434   1.982  1.00  0.00     0.032 A 
ATOM     15  Cl  UNL     1       2.603   0.835   2.022  1.00  0.00    -0.084 Cl
ATOM     16  C   UNL     1       1.695   4.659   1.534  1.00  0.00     0.019 A 
ATOM     17  O   UNL     1       0.373   5.816  -0.123  1.00  0.00    -0.475 OA
ATOM     18  C   UNL     1       1.932   5.900   2.260  1.00  0.00     0.025 C 
ATOM     19  C   UNL     1       0.929   7.077   0.333  1.00  0.00     0.314 C 
BRANCH  10  20
ATOM     20  C   UNL     1       0.590   1.015  -0.687  1.00  0.00    -0.012 C 
ATOM     21  C   UNL     1       0.998  -0.394  -0.217  1.00  0.00     0.016 C 
ATOM     22  C   UNL     1       1.130   1.161  -2.132  1.00  0.00     0.016 C 
ATOM     23  C   UNL     1      -0.962   1.006  -0.730  1.00  0.00     0.016 C 
ENDBRANCH  10  20
BRANCH  19  24
ATOM     24  C   UNL     1       1.881   7.616  -0.749  1.00  0.00     0.429 C 
ATOM     25  F   UNL     1       1.195   7.901  -1.885  1.00  0.00    -0.167 F 
ATOM     26  F   UNL     1       2.494   8.765  -0.380  1.00  0.00    -0.167 F 
ATOM     27  F   UNL     1       2.853   6.735  -1.072  1.00  0.00    -0.167 F 
ENDBRANCH  19  24
ENDBRANCH   6   9
ENDBRANCH   4   5
ENDBRANCH   3   4
ENDBRANCH   2   3
ENDBRANCH   1   2
BRANCH   1  28
ATOM     28  C   UNL     1      -0.409  13.354  -0.007  1.00  0.00     0.021 C 
BRANCH  28  29
ATOM     29  C   UNL     1      -1.896  13.682  -0.048  1.00  0.00     0.116 C 
BRANCH  29  30
ATOM     30  N   UNL     1      -2.195  14.994   0.500  1.00  0.00    -0.352 N 
ATOM     31  C   UNL     1      -2.926  16.018  -0.051  1.00  0.00     0.251 C 
ATOM     32  H   UNL     1      -1.821  15.175   1.393  1.00  0.00     0.163 HD
ATOM     33  O   UNL     1      -2.958  17.120   0.487  1.00  0.00    -0.269 OA
BRANCH  31  34
ATOM     34  C   UNL     1      -3.647  15.796  -1.322  1.00  0.00     0.039 A 
ATOM     35  C   UNL     1      -4.436  14.658  -1.504  1.00  0.00     0.014 A 
ATOM     36  C   UNL     1      -3.509  16.731  -2.351  1.00  0.00     0.014 A 
ATOM     37  C   UNL     1      -4.961  14.378  -2.762  1.00  0.00     0.010 A 
ATOM     38  C   UNL     1      -4.098  16.484  -3.593  1.00  0.00     0.010 A 
ATOM     39  C   UNL     1      -4.790  15.284  -3.821  1.00  0.00    -0.014 A 
BRANCH  39  40
ATOM     40  C   UNL     1      -5.328  14.956  -5.165  1.00  0.00     0.031 A 
ATOM     41  C   UNL     1      -4.397  14.706  -6.320  1.00  0.00     0.074 A 
ATOM     42  C   UNL     1      -6.659  14.839  -5.334  1.00  0.00     0.049 A 
ATOM     43  N   UNL     1      -4.683  14.434  -7.569  1.00  0.00    -0.248 NA
ATOM     44  C   UNL     1      -2.954  14.770  -6.038  1.00  0.00     0.031 C 
ATOM     45  C   UNL     1      -7.659  15.033  -4.284  1.00  0.00     0.029 A 
ATOM     46  N   UNL     1      -7.397  14.510  -6.442  1.00  0.00    -0.354 N 
ATOM     47  C   UNL     1      -3.463  14.314  -8.221  1.00  0.00     0.074 A 
ATOM     48  C   UNL     1      -2.432  14.565  -7.239  1.00  0.00     0.031 C 
ATOM     49  C   UNL     1      -8.876  14.776  -4.786  1.00  0.00     0.029 A 
ATOM     50  C   UNL     1      -8.748  14.461  -6.206  1.00  0.00     0.049 A 
ATOM     51  H   UNL     1      -6.996  14.327  -7.323  1.00  0.00     0.167 HD
ATOM     52  C   UNL     1      -3.228  14.010  -9.520  1.00  0.00     0.037 A 
ATOM     53  C   UNL     1      -9.771  14.207  -7.042  1.00  0.00     0.037 A 
ATOM     54  C   UNL     1      -4.257  13.739 -10.491  1.00  0.00     0.049 A 
ATOM     55  C   UNL     1      -9.483  13.923  -8.488  1.00  0.00     0.074 A 
ATOM     56  C   UNL     1      -4.116  13.413 -11.829  1.00  0.00     0.029 A 
ATOM     57  N   UNL     1      -5.618  13.757 -10.225  1.00  0.00    -0.354 N 
ATOM     58  N   UNL     1      -8.327  13.830  -9.097  1.00  0.00    -0.248 NA
ATOM     59  C   UNL     1     -10.644  13.723  -9.367  1.00  0.00     0.031 C 
ATOM     60  C   UNL     1      -5.393  13.268 -12.381  1.00  0.00     0.029 A 
ATOM     61  C   UNL     1      -6.328  13.463 -11.378  1.00  0.00     0.049 A 
ATOM     62  H   UNL     1      -6.020  13.950  -9.347  1.00  0.00     0.167 HD
ATOM     63  C   UNL     1      -8.617  13.554 -10.425  1.00  0.00     0.074 A 
ATOM     64  C   UNL     1     -10.059  13.472 -10.530  1.00  0.00     0.031 C 
ATOM     65  C   UNL     1      -7.764  13.391 -11.466  1.00  0.00     0.037 A 
BRANCH  52  66
ATOM     66  C   UNL     1      -1.801  13.960  -9.979  1.00  0.00     0.064 A 
ATOM     67  C   UNL     1      -0.955  12.898  -9.630  1.00  0.00     0.173 A 
ATOM     68  C   UNL     1      -1.292  14.952 -10.832  1.00  0.00     0.173 A 
ATOM     69  F   UNL     1      -1.389  11.931  -8.808  1.00  0.00    -0.203 F 
ATOM     70  C   UNL     1       0.352  12.837 -10.108  1.00  0.00     0.198 A 
ATOM     71  C   UNL     1       0.007  14.876 -11.326  1.00  0.00     0.198 A 
ATOM     72  F   UNL     1      -2.062  15.987 -11.199  1.00  0.00    -0.203 F 
ATOM     73  F   UNL     1       1.153  11.828  -9.737  1.00  0.00    -0.200 F 
ATOM     74  C   UNL     1       0.829  13.820 -10.962  1.00  0.00     0.200 A 
ATOM     75  F   UNL     1       0.463  15.821 -12.160  1.00  0.00    -0.200 F 
ATOM     76  F   UNL     1       2.083  13.752 -11.430  1.00  0.00    -0.200 F 
ENDBRANCH  52  66
BRANCH  53  77
ATOM     77  C   UNL     1     -11.162  14.215  -6.522  1.00  0.00     0.064 A 
ATOM     78  C   UNL     1     -11.890  13.024  -6.404  1.00  0.00     0.173 A 
ATOM     79  C   UNL     1     -11.777  15.403  -6.103  1.00  0.00     0.173 A 
ATOM     80  F   UNL     1     -11.349  11.866  -6.811  1.00  0.00    -0.203 F 
ATOM     81  C   UNL     1     -13.184  13.022  -5.888  1.00  0.00     0.198 A 
ATOM     82  C   UNL     1     -13.061  15.396  -5.564  1.00  0.00     0.198 A 
ATOM     83  F   UNL     1     -11.120  16.569  -6.195  1.00  0.00    -0.203 F 
ATOM     84  F   UNL     1     -13.870  11.873  -5.811  1.00  0.00    -0.200 F 
ATOM     85  C   UNL     1     -13.765  14.206  -5.460  1.00  0.00     0.200 A 
ATOM     86  F   UNL     1     -13.613  16.541  -5.137  1.00  0.00    -0.200 F 
ATOM     87  F   UNL     1     -15.004  14.201  -4.950  1.00  0.00    -0.200 F 
ENDBRANCH  53  77
BRANCH  65  88
ATOM     88  C   UNL     1      -8.366  13.100 -12.807  1.00  0.00     0.064 A 
ATOM     89  C   UNL     1      -9.009  14.101 -13.550  1.00  0.00     0.173 A 
ATOM     90  C   UNL     1      -8.254  11.824 -13.378  1.00  0.00     0.173 A 
ATOM     91  F   UNL     1      -9.153  15.333 -13.040  1.00  0.00    -0.203 F 
ATOM     92  C   UNL     1      -9.534  13.828 -14.810  1.00  0.00     0.198 A 
ATOM     93  C   UNL     1      -8.758  11.562 -14.648  1.00  0.00     0.198 A 
ATOM     94  F   UNL     1      -7.643  10.835 -12.708  1.00  0.00    -0.203 F 
ATOM     95  F   UNL     1     -10.177  14.789 -15.488  1.00  0.00    -0.200 F 
ATOM     96  C   UNL     1      -9.401  12.562 -15.361  1.00  0.00     0.200 A 
ATOM     97  F   UNL     1      -8.619  10.341 -15.184  1.00  0.00    -0.200 F 
ATOM     98  F   UNL     1      -9.899  12.305 -16.578  1.00  0.00    -0.200 F 
ENDBRANCH  65  88
ENDBRANCH  39  40
ENDBRANCH  31  34
ENDBRANCH  29  30
ENDBRANCH  28  29
ENDBRANCH   1  28
TORSDOF 15
