REMARK SMILES CC(=O)[C@@H]1CCCC[N@H+]1CC(C)(C)C(=O)NCCCCCCNC(=O)c1ccc(-c2c3nc(c(-c4c(F)c(F)c(F)c(F)c4F)c4ccc([nH]4)c(-c4c(F)c(F)c(F)c(F)c4F)c4nc(c(-c5c(F)c(F)c(F)c(F)c5F)c5ccc2[nH]5)C=C4)C=C3)cc1
REMARK SMILES IDX 19 1 18 2 17 3 16 4 14 5 15 6 11 8 12 9 13 10 10 11 9 12
REMARK SMILES IDX 4 13 5 14 6 15 8 16 7 18 2 19 1 20 3 21 20 22 21 23 22 24
REMARK SMILES IDX 23 25 24 26 25 28 26 29 27 30 88 31 28 32 87 33 29 34 30 35
REMARK SMILES IDX 31 36 81 37 32 38 86 39 80 40 82 41 33 42 85 43 79 44 78 45
REMARK SMILES IDX 34 47 66 48 46 49 65 50 47 51 50 52 64 53 83 54 48 55 49 56
REMARK SMILES IDX 63 58 84 59 51 60 35 61 36 62 44 63 37 64 38 65 42 66 45 67
REMARK SMILES IDX 39 68 40 69 43 70 41 71 67 72 68 73 76 74 69 75 70 76 74 77
REMARK SMILES IDX 77 78 71 79 72 80 75 81 73 82 52 83 53 84 61 85 54 86 55 87
REMARK SMILES IDX 59 88 62 89 56 90 57 91 60 92 58 93
REMARK H PARENT 16 7 9 17 23 27 82 46 50 57
REMARK Flexibility Score: inf
ROOT
ATOM      1  C   UNL     1       5.571  -2.857   7.598  1.00  0.00     0.002 C 
ENDROOT
BRANCH   1   2
ATOM      2  C   UNL     1       4.949  -1.535   7.133  1.00  0.00     0.021 C 
BRANCH   2   3
ATOM      3  C   UNL     1       4.543  -1.521   5.662  1.00  0.00     0.116 C 
BRANCH   3   4
ATOM      4  N   UNL     1       3.465  -2.456   5.441  1.00  0.00    -0.355 N 
ATOM      5  C   UNL     1       2.143  -2.206   5.265  1.00  0.00     0.231 C 
ATOM      6  O   UNL     1       1.379  -3.024   5.785  1.00  0.00    -0.274 OA
ATOM      7  H   UNL     1       3.725  -3.405   5.414  1.00  0.00     0.163 HD
BRANCH   5   8
ATOM      8  C   UNL     1       1.635  -0.965   4.512  1.00  0.00     0.092 C 
ATOM      9  C   UNL     1       2.602  -0.407   3.455  1.00  0.00     0.027 C 
ATOM     10  C   UNL     1       1.402   0.124   5.583  1.00  0.00     0.027 C 
BRANCH   8  11
ATOM     11  C   UNL     1       0.240  -1.302   3.855  1.00  0.00     0.279 C 
BRANCH  11  12
ATOM     12  N   UNL     1       0.073  -2.268   2.736  1.00  0.00    -0.325 N 
ATOM     13  C   UNL     1       0.686  -1.930   1.433  1.00  0.00     0.251 C 
ATOM     14  C   UNL     1       0.370  -2.982   0.352  1.00  0.00     0.074 C 
ATOM     15  C   UNL     1       0.714  -4.390   0.808  1.00  0.00     0.012 C 
ATOM     16  C   UNL     1       0.337  -3.650   3.159  1.00  0.00     0.262 C 
ATOM     17  H   UNL     1      -0.918  -2.180   2.512  1.00  0.00     0.348 HD
ATOM     18  C   UNL     1      -0.022  -4.688   2.100  1.00  0.00     0.062 C 
BRANCH  13  19
ATOM     19  C   UNL     1       0.216  -0.563   0.879  1.00  0.00     0.186 C 
ATOM     20  C   UNL     1       1.027   0.003  -0.264  1.00  0.00     0.094 C 
ATOM     21  O   UNL     1      -0.773   0.053   1.280  1.00  0.00    -0.293 OA
ENDBRANCH  13  19
ENDBRANCH  11  12
ENDBRANCH   8  11
ENDBRANCH   5   8
ENDBRANCH   3   4
ENDBRANCH   2   3
ENDBRANCH   1   2
BRANCH   1  22
ATOM     22  C   UNL     1       6.766  -3.332   6.766  1.00  0.00     0.002 C 
BRANCH  22  23
ATOM     23  C   UNL     1       7.865  -2.286   6.572  1.00  0.00     0.021 C 
BRANCH  23  24
ATOM     24  C   UNL     1       8.398  -1.691   7.868  1.00  0.00     0.116 C 
BRANCH  24  25
ATOM     25  N   UNL     1       9.018  -2.697   8.712  1.00  0.00    -0.352 N 
ATOM     26  C   UNL     1      10.273  -2.700   9.265  1.00  0.00     0.251 C 
ATOM     27  H   UNL     1       8.462  -3.483   8.915  1.00  0.00     0.163 HD
ATOM     28  O   UNL     1      10.723  -3.715   9.783  1.00  0.00    -0.269 OA
BRANCH  26  29
ATOM     29  C   UNL     1      11.088  -1.470   9.212  1.00  0.00     0.039 A 
ATOM     30  C   UNL     1      12.429  -1.566   8.837  1.00  0.00     0.014 A 
ATOM     31  C   UNL     1      10.527  -0.228   9.523  1.00  0.00     0.014 A 
ATOM     32  C   UNL     1      13.196  -0.406   8.725  1.00  0.00     0.010 A 
ATOM     33  C   UNL     1      11.268   0.933   9.330  1.00  0.00     0.010 A 
ATOM     34  C   UNL     1      12.613   0.854   8.940  1.00  0.00    -0.014 A 
BRANCH  34  35
ATOM     35  C   UNL     1      13.400   2.101   8.771  1.00  0.00     0.031 A 
ATOM     36  C   UNL     1      13.646   3.002   9.948  1.00  0.00     0.074 A 
ATOM     37  C   UNL     1      13.844   2.447   7.548  1.00  0.00     0.049 A 
ATOM     38  N   UNL     1      14.265   4.155   9.994  1.00  0.00    -0.248 NA
ATOM     39  C   UNL     1      13.097   2.564  11.241  1.00  0.00     0.031 C 
ATOM     40  C   UNL     1      13.630   1.677   6.322  1.00  0.00     0.029 A 
ATOM     41  N   UNL     1      14.562   3.540   7.133  1.00  0.00    -0.354 N 
ATOM     42  C   UNL     1      14.169   4.582  11.312  1.00  0.00     0.074 A 
ATOM     43  C   UNL     1      13.379   3.598  12.019  1.00  0.00     0.031 C 
ATOM     44  C   UNL     1      14.230   2.304   5.299  1.00  0.00     0.029 A 
ATOM     45  C   UNL     1      14.832   3.541   5.787  1.00  0.00     0.049 A 
ATOM     46  H   UNL     1      14.856   4.255   7.742  1.00  0.00     0.167 HD
ATOM     47  C   UNL     1      14.712   5.682  11.886  1.00  0.00     0.037 A 
ATOM     48  C   UNL     1      15.487   4.442   5.031  1.00  0.00     0.037 A 
ATOM     49  C   UNL     1      15.510   6.649  11.178  1.00  0.00     0.049 A 
ATOM     50  C   UNL     1      16.061   5.669   5.686  1.00  0.00     0.074 A 
ATOM     51  C   UNL     1      16.157   7.766  11.677  1.00  0.00     0.029 A 
ATOM     52  N   UNL     1      15.762   6.618   9.813  1.00  0.00    -0.354 N 
ATOM     53  N   UNL     1      16.030   6.027   6.947  1.00  0.00    -0.248 NA
ATOM     54  C   UNL     1      16.768   6.615   4.813  1.00  0.00     0.031 C 
ATOM     55  C   UNL     1      16.747   8.444  10.605  1.00  0.00     0.029 A 
ATOM     56  C   UNL     1      16.527   7.715   9.448  1.00  0.00     0.049 A 
ATOM     57  H   UNL     1      15.445   5.920   9.196  1.00  0.00     0.167 HD
ATOM     58  C   UNL     1      16.735   7.220   7.025  1.00  0.00     0.074 A 
ATOM     59  C   UNL     1      17.196   7.518   5.684  1.00  0.00     0.031 C 
ATOM     60  C   UNL     1      16.980   7.998   8.108  1.00  0.00     0.037 A 
BRANCH  47  61
ATOM     61  C   UNL     1      14.450   5.902  13.349  1.00  0.00     0.064 A 
ATOM     62  C   UNL     1      14.979   5.051  14.333  1.00  0.00     0.173 A 
ATOM     63  C   UNL     1      13.672   6.989  13.777  1.00  0.00     0.173 A 
ATOM     64  F   UNL     1      15.721   3.990  13.980  1.00  0.00    -0.203 F 
ATOM     65  C   UNL     1      14.706   5.257  15.683  1.00  0.00     0.198 A 
ATOM     66  C   UNL     1      13.432   7.213  15.130  1.00  0.00     0.198 A 
ATOM     67  F   UNL     1      13.146   7.839  12.882  1.00  0.00    -0.203 F 
ATOM     68  F   UNL     1      15.170   4.393  16.597  1.00  0.00    -0.200 F 
ATOM     69  C   UNL     1      13.939   6.341  16.081  1.00  0.00     0.200 A 
ATOM     70  F   UNL     1      12.703   8.270  15.514  1.00  0.00    -0.200 F 
ATOM     71  F   UNL     1      13.680   6.539  17.381  1.00  0.00    -0.200 F 
ENDBRANCH  47  61
BRANCH  48  72
ATOM     72  C   UNL     1      15.658   4.202   3.574  1.00  0.00     0.064 A 
ATOM     73  C   UNL     1      16.922   3.924   3.034  1.00  0.00     0.173 A 
ATOM     74  C   UNL     1      14.567   4.237   2.693  1.00  0.00     0.173 A 
ATOM     75  F   UNL     1      17.999   3.898   3.832  1.00  0.00    -0.203 F 
ATOM     76  C   UNL     1      17.090   3.709   1.668  1.00  0.00     0.198 A 
ATOM     77  C   UNL     1      14.732   3.991   1.332  1.00  0.00     0.198 A 
ATOM     78  F   UNL     1      13.335   4.491   3.159  1.00  0.00    -0.203 F 
ATOM     79  F   UNL     1      18.316   3.489   1.173  1.00  0.00    -0.200 F 
ATOM     80  C   UNL     1      15.994   3.735   0.819  1.00  0.00     0.200 A 
ATOM     81  F   UNL     1      13.667   3.999   0.518  1.00  0.00    -0.200 F 
ATOM     82  F   UNL     1      16.155   3.519  -0.493  1.00  0.00    -0.200 F 
ENDBRANCH  48  72
BRANCH  60  83
ATOM     83  C   UNL     1      17.815   9.229   7.898  1.00  0.00     0.064 A 
ATOM     84  C   UNL     1      17.330  10.340   7.191  1.00  0.00     0.173 A 
ATOM     85  C   UNL     1      19.104   9.313   8.447  1.00  0.00     0.173 A 
ATOM     86  F   UNL     1      16.110  10.306   6.634  1.00  0.00    -0.203 F 
ATOM     87  C   UNL     1      18.116  11.476   7.017  1.00  0.00     0.198 A 
ATOM     88  C   UNL     1      19.873  10.465   8.301  1.00  0.00     0.198 A 
ATOM     89  F   UNL     1      19.614   8.283   9.139  1.00  0.00    -0.203 F 
ATOM     90  F   UNL     1      17.653  12.504   6.291  1.00  0.00    -0.200 F 
ATOM     91  C   UNL     1      19.383  11.541   7.579  1.00  0.00     0.200 A 
ATOM     92  F   UNL     1      21.090  10.531   8.860  1.00  0.00    -0.200 F 
ATOM     93  F   UNL     1      20.133  12.639   7.417  1.00  0.00    -0.200 F 
ENDBRANCH  60  83
ENDBRANCH  34  35
ENDBRANCH  26  29
ENDBRANCH  24  25
ENDBRANCH  23  24
ENDBRANCH  22  23
ENDBRANCH   1  22
TORSDOF 16
