REMARK SMILES C[C@]1(C(=O)NCCCCCCNC(=O)c2ccc(-c3c4nc(c(-c5c(F)c(F)c(F)c(F)c5F)c5ccc([nH]5)c(-c5c(F)c(F)c(F)c(F)c5F)c5nc(c(-c6c(F)c(F)c(F)c(F)c6F)c6ccc3[nH]6)C=C5)C=C4)cc2)[NH2+]C2(C(=O)c3ccccc3C2=O)[C@@H]2C(=O)N(c3ccccc3)C(=O)[C@H]21
REMARK SMILES IDX 9 1 8 2 7 3 6 4 5 5 3 6 4 7 2 9 1 10 78 11 102 12 79 13
REMARK SMILES IDX 90 16 100 17 80 18 88 19 91 20 93 21 101 22 81 23 82 24
REMARK SMILES IDX 87 25 89 26 92 27 83 28 86 29 84 30 85 31 94 32 95 33 99 34
REMARK SMILES IDX 96 35 98 36 97 37 10 38 11 39 12 40 13 41 14 43 15 44 16 45
REMARK SMILES IDX 77 46 17 47 76 48 18 49 19 50 20 51 70 52 21 53 75 54 69 55
REMARK SMILES IDX 71 56 22 57 74 58 68 59 67 60 23 62 55 63 35 64 54 65 36 66
REMARK SMILES IDX 39 67 53 68 72 69 37 70 38 71 52 73 73 74 40 75 24 76 25 77
REMARK SMILES IDX 33 78 26 79 27 80 31 81 34 82 28 83 29 84 32 85 30 86 56 87
REMARK SMILES IDX 57 88 65 89 58 90 59 91 63 92 66 93 60 94 61 95 64 96 62 97
REMARK SMILES IDX 41 98 42 99 50 100 43 101 44 102 48 103 51 104 45 105 46 106
REMARK SMILES IDX 49 107 47 108
REMARK H PARENT 5 8 78 14 78 15 12 42 71 61 39 72
REMARK Flexibility Score: inf
ROOT
ATOM      1  C   UNL     1      -3.605  -4.142  -4.495  1.00  0.00     0.002 C 
ENDROOT
BRANCH   1   2
ATOM      2  C   UNL     1      -4.288  -3.283  -3.422  1.00  0.00     0.002 C 
BRANCH   2   3
ATOM      3  C   UNL     1      -3.579  -3.145  -2.079  1.00  0.00     0.021 C 
BRANCH   3   4
ATOM      4  C   UNL     1      -2.121  -2.713  -2.120  1.00  0.00     0.116 C 
BRANCH   4   5
ATOM      5  N   UNL     1      -1.811  -1.329  -1.934  1.00  0.00    -0.351 N 
ATOM      6  C   UNL     1      -0.771  -0.742  -1.272  1.00  0.00     0.281 C 
ATOM      7  O   UNL     1      -0.853   0.496  -1.225  1.00  0.00    -0.268 OA
ATOM      8  H   UNL     1      -2.447  -0.702  -2.348  1.00  0.00     0.163 HD
BRANCH   6   9
ATOM      9  C   UNL     1       0.471  -1.485  -0.588  1.00  0.00     0.186 C 
ATOM     10  C   UNL     1       1.358  -0.344  -0.016  1.00  0.00     0.091 C 
ATOM     11  N   UNL     1       0.080  -2.404   0.561  1.00  0.00    -0.314 N 
ATOM     12  C   UNL     1       1.361  -2.385  -1.401  1.00  0.00     0.170 C 
ATOM     13  C   UNL     1       0.461  -3.841   0.209  1.00  0.00     0.236 C 
ATOM     14  H   UNL     1      -0.926  -2.346   0.717  1.00  0.00     0.348 HD
ATOM     15  H   UNL     1       0.570  -2.119   1.409  1.00  0.00     0.348 HD
ATOM     16  C   UNL     1       0.776  -3.772  -1.253  1.00  0.00     0.177 C 
ATOM     17  C   UNL     1       1.573  -2.322  -2.867  1.00  0.00     0.244 C 
ATOM     18  C   UNL     1       1.566  -4.415   1.100  1.00  0.00     0.232 C 
ATOM     19  C   UNL     1      -0.738  -4.746   0.568  1.00  0.00     0.232 C 
ATOM     20  C   UNL     1       1.684  -4.529  -2.163  1.00  0.00     0.245 C 
ATOM     21  N   UNL     1       1.929  -3.629  -3.206  1.00  0.00    -0.250 N 
ATOM     22  O   UNL     1       1.463  -1.330  -3.561  1.00  0.00    -0.273 OA
ATOM     23  O   UNL     1       2.703  -3.994   1.205  1.00  0.00    -0.286 OA
ATOM     24  C   UNL     1       1.018  -5.553   1.862  1.00  0.00     0.036 A 
ATOM     25  C   UNL     1      -0.328  -5.704   1.573  1.00  0.00     0.036 A 
ATOM     26  O   UNL     1      -1.876  -4.756   0.138  1.00  0.00    -0.286 OA
ATOM     27  O   UNL     1       1.930  -5.718  -2.066  1.00  0.00    -0.273 OA
ATOM     28  C   UNL     1       1.631  -6.405   2.761  1.00  0.00     0.013 A 
ATOM     29  C   UNL     1      -1.131  -6.662   2.170  1.00  0.00     0.013 A 
ATOM     30  C   UNL     1       0.845  -7.401   3.366  1.00  0.00     0.001 A 
ATOM     31  C   UNL     1      -0.529  -7.522   3.081  1.00  0.00     0.001 A 
BRANCH  21  32
ATOM     32  C   UNL     1       2.164  -3.976  -4.548  1.00  0.00     0.052 A 
ATOM     33  C   UNL     1       3.161  -3.316  -5.275  1.00  0.00     0.027 A 
ATOM     34  C   UNL     1       1.274  -4.829  -5.210  1.00  0.00     0.027 A 
ATOM     35  C   UNL     1       3.274  -3.513  -6.652  1.00  0.00     0.002 A 
ATOM     36  C   UNL     1       1.357  -4.981  -6.596  1.00  0.00     0.002 A 
ATOM     37  C   UNL     1       2.359  -4.329  -7.314  1.00  0.00     0.000 A 
ENDBRANCH  21  32
ENDBRANCH   6   9
ENDBRANCH   4   5
ENDBRANCH   3   4
ENDBRANCH   2   3
ENDBRANCH   1   2
BRANCH   1  38
ATOM     38  C   UNL     1      -3.120  -5.539  -4.097  1.00  0.00     0.021 C 
BRANCH  38  39
ATOM     39  C   UNL     1      -4.134  -6.461  -3.424  1.00  0.00     0.116 C 
BRANCH  39  40
ATOM     40  N   UNL     1      -5.370  -6.618  -4.175  1.00  0.00    -0.352 N 
ATOM     41  C   UNL     1      -6.003  -7.743  -4.643  1.00  0.00     0.251 C 
ATOM     42  H   UNL     1      -5.831  -5.774  -4.383  1.00  0.00     0.163 HD
ATOM     43  O   UNL     1      -7.008  -7.631  -5.340  1.00  0.00    -0.269 OA
BRANCH  41  44
ATOM     44  C   UNL     1      -5.466  -9.092  -4.355  1.00  0.00     0.039 A 
ATOM     45  C   UNL     1      -5.013  -9.442  -3.083  1.00  0.00     0.014 A 
ATOM     46  C   UNL     1      -5.429 -10.034  -5.390  1.00  0.00     0.014 A 
ATOM     47  C   UNL     1      -4.368 -10.661  -2.890  1.00  0.00     0.010 A 
ATOM     48  C   UNL     1      -4.854 -11.290  -5.173  1.00  0.00     0.010 A 
ATOM     49  C   UNL     1      -4.270 -11.595  -3.935  1.00  0.00    -0.014 A 
BRANCH  49  50
ATOM     50  C   UNL     1      -3.537 -12.870  -3.719  1.00  0.00     0.031 A 
ATOM     51  C   UNL     1      -2.265 -13.161  -4.470  1.00  0.00     0.074 A 
ATOM     52  C   UNL     1      -3.989 -13.747  -2.802  1.00  0.00     0.049 A 
ATOM     53  N   UNL     1      -1.480 -14.207  -4.394  1.00  0.00    -0.248 NA
ATOM     54  C   UNL     1      -1.814 -12.146  -5.434  1.00  0.00     0.031 C 
ATOM     55  C   UNL     1      -5.202 -13.574  -2.002  1.00  0.00     0.029 A 
ATOM     56  N   UNL     1      -3.472 -14.942  -2.369  1.00  0.00    -0.354 N 
ATOM     57  C   UNL     1      -0.455 -13.982  -5.304  1.00  0.00     0.074 A 
ATOM     58  C   UNL     1      -0.734 -12.717  -5.949  1.00  0.00     0.031 C 
ATOM     59  C   UNL     1      -5.307 -14.595  -1.138  1.00  0.00     0.029 A 
ATOM     60  C   UNL     1      -4.204 -15.524  -1.364  1.00  0.00     0.049 A 
ATOM     61  H   UNL     1      -2.655 -15.344  -2.743  1.00  0.00     0.167 HD
ATOM     62  C   UNL     1       0.630 -14.751  -5.564  1.00  0.00     0.037 A 
ATOM     63  C   UNL     1      -4.016 -16.682  -0.702  1.00  0.00     0.037 A 
ATOM     64  C   UNL     1       0.916 -16.000  -4.907  1.00  0.00     0.049 A 
ATOM     65  C   UNL     1      -2.834 -17.543  -1.048  1.00  0.00     0.074 A 
ATOM     66  C   UNL     1       1.999 -16.842  -5.092  1.00  0.00     0.029 A 
ATOM     67  N   UNL     1       0.115 -16.586  -3.938  1.00  0.00    -0.354 N 
ATOM     68  N   UNL     1      -1.869 -17.314  -1.904  1.00  0.00    -0.248 NA
ATOM     69  C   UNL     1      -2.721 -18.828  -0.344  1.00  0.00     0.031 C 
ATOM     70  C   UNL     1       1.831 -17.959  -4.268  1.00  0.00     0.029 A 
ATOM     71  C   UNL     1       0.669 -17.790  -3.532  1.00  0.00     0.049 A 
ATOM     72  H   UNL     1      -0.724 -16.204  -3.591  1.00  0.00     0.167 HD
ATOM     73  C   UNL     1      -1.027 -18.415  -1.833  1.00  0.00     0.074 A 
ATOM     74  C   UNL     1      -1.585 -19.305  -0.836  1.00  0.00     0.031 C 
ATOM     75  C   UNL     1       0.104 -18.666  -2.537  1.00  0.00     0.037 A 
BRANCH  62  76
ATOM     76  C   UNL     1       1.597 -14.269  -6.607  1.00  0.00     0.064 A 
ATOM     77  C   UNL     1       2.448 -13.178  -6.372  1.00  0.00     0.173 A 
ATOM     78  C   UNL     1       1.722 -14.945  -7.830  1.00  0.00     0.173 A 
ATOM     79  F   UNL     1       2.362 -12.491  -5.223  1.00  0.00    -0.203 F 
ATOM     80  C   UNL     1       3.374 -12.772  -7.329  1.00  0.00     0.198 A 
ATOM     81  C   UNL     1       2.668 -14.554  -8.774  1.00  0.00     0.198 A 
ATOM     82  F   UNL     1       0.939 -16.000  -8.103  1.00  0.00    -0.203 F 
ATOM     83  F   UNL     1       4.152 -11.705  -7.097  1.00  0.00    -0.200 F 
ATOM     84  C   UNL     1       3.490 -13.465  -8.525  1.00  0.00     0.200 A 
ATOM     85  F   UNL     1       2.789 -15.234  -9.922  1.00  0.00    -0.200 F 
ATOM     86  F   UNL     1       4.392 -13.082  -9.439  1.00  0.00    -0.200 F 
ENDBRANCH  62  76
BRANCH  63  87
ATOM     87  C   UNL     1      -4.969 -17.076   0.367  1.00  0.00     0.064 A 
ATOM     88  C   UNL     1      -4.582 -17.068   1.713  1.00  0.00     0.173 A 
ATOM     89  C   UNL     1      -6.294 -17.428   0.070  1.00  0.00     0.173 A 
ATOM     90  F   UNL     1      -3.320 -16.758   2.045  1.00  0.00    -0.203 F 
ATOM     91  C   UNL     1      -5.484 -17.395   2.723  1.00  0.00     0.198 A 
ATOM     92  C   UNL     1      -7.203 -17.728   1.082  1.00  0.00     0.198 A 
ATOM     93  F   UNL     1      -6.715 -17.448  -1.203  1.00  0.00    -0.203 F 
ATOM     94  F   UNL     1      -5.082 -17.403   4.001  1.00  0.00    -0.200 F 
ATOM     95  C   UNL     1      -6.796 -17.715   2.407  1.00  0.00     0.200 A 
ATOM     96  F   UNL     1      -8.474 -18.018   0.774  1.00  0.00    -0.200 F 
ATOM     97  F   UNL     1      -7.669 -18.010   3.381  1.00  0.00    -0.200 F 
ENDBRANCH  63  87
BRANCH  75  98
ATOM     98  C   UNL     1       0.831 -19.946  -2.249  1.00  0.00     0.064 A 
ATOM     99  C   UNL     1       0.333 -21.183  -2.683  1.00  0.00     0.173 A 
ATOM    100  C   UNL     1       2.073 -19.928  -1.596  1.00  0.00     0.173 A 
ATOM    101  F   UNL     1      -0.857 -21.253  -3.299  1.00  0.00    -0.203 F 
ATOM    102  C   UNL     1       1.048 -22.358  -2.464  1.00  0.00     0.198 A 
ATOM    103  C   UNL     1       2.797 -21.101  -1.403  1.00  0.00     0.198 A 
ATOM    104  F   UNL     1       2.595 -18.769  -1.167  1.00  0.00    -0.203 F 
ATOM    105  F   UNL     1       0.539 -23.533  -2.859  1.00  0.00    -0.200 F 
ATOM    106  C   UNL     1       2.283 -22.314  -1.834  1.00  0.00     0.200 A 
ATOM    107  F   UNL     1       3.997 -21.055  -0.807  1.00  0.00    -0.200 F 
ATOM    108  F   UNL     1       2.977 -23.444  -1.639  1.00  0.00    -0.200 F 
ENDBRANCH  75  98
ENDBRANCH  49  50
ENDBRANCH  41  44
ENDBRANCH  39  40
ENDBRANCH  38  39
ENDBRANCH   1  38
TORSDOF 14
