REMARK SMILES Cc1ccccc1C(=O)Nc1ccc(OCC(=O)NCCCCCCNC(=O)c2ccc(-c3c4nc(c(-c5c(F)c(F)c(F)c(F)c5F)c5ccc([nH]5)c(-c5c(F)c(F)c(F)c(F)c5F)c5nc(c(-c6c(F)c(F)c(F)c(F)c6F)c6ccc3[nH]6)C=C5)C=C4)cc2)c(-c2nc3ccccc3s2)c1
REMARK SMILES IDX 21 1 20 2 19 3 17 4 18 5 16 7 15 8 14 9 11 10 12 11 102 12
REMARK SMILES IDX 13 13 92 14 10 15 8 16 9 17 7 19 1 20 2 21 3 22 4 23 6 24
REMARK SMILES IDX 5 25 93 26 94 27 101 28 95 29 100 30 96 31 99 32 97 33 98 34
REMARK SMILES IDX 22 35 23 36 24 37 25 38 26 39 27 40 28 42 29 43 30 44 91 45
REMARK SMILES IDX 31 46 90 47 32 48 33 49 34 50 84 51 35 52 89 53 83 54 85 55
REMARK SMILES IDX 36 56 88 57 82 58 81 59 37 61 69 62 49 63 68 64 50 65 53 66
REMARK SMILES IDX 67 67 86 68 51 69 52 70 66 72 87 73 54 74 38 75 39 76 47 77
REMARK SMILES IDX 40 78 41 79 45 80 48 81 42 82 43 83 46 84 44 85 70 86 71 87
REMARK SMILES IDX 79 88 72 89 73 90 77 91 80 92 74 93 75 94 78 95 76 96 55 97
REMARK SMILES IDX 56 98 64 99 57 100 58 101 62 102 65 103 59 104 60 105 63 106
REMARK SMILES IDX 61 107
REMARK H PARENT 19 6 10 18 26 41 85 60 53 71
REMARK Flexibility Score: inf
ROOT
ATOM      1  C   UNL     1       3.996  -3.533   3.319  1.00  0.00     0.021 C 
ENDROOT
BRANCH   1   2
ATOM      2  C   UNL     1       4.608  -4.218   2.099  1.00  0.00     0.116 C 
BRANCH   2   3
ATOM      3  N   UNL     1       3.736  -4.123   0.954  1.00  0.00    -0.353 N 
ATOM      4  C   UNL     1       3.967  -3.681  -0.309  1.00  0.00     0.257 C 
ATOM      5  O   UNL     1       2.987  -3.668  -1.055  1.00  0.00    -0.271 OA
ATOM      6  H   UNL     1       2.815  -4.432   1.116  1.00  0.00     0.163 HD
BRANCH   4   7
ATOM      7  C   UNL     1       5.396  -3.284  -0.768  1.00  0.00     0.329 C 
BRANCH   7   8
ATOM      8  O   UNL     1       5.689  -2.142  -1.569  1.00  0.00    -0.483 OA
BRANCH   8   9
ATOM      9  C   UNL     1       4.920  -1.048  -1.286  1.00  0.00     0.130 A 
ATOM     10  C   UNL     1       3.389   1.149  -0.503  1.00  0.00     0.042 A 
ATOM     11  C   UNL     1       4.628   0.922   0.095  1.00  0.00     0.030 A 
ATOM     12  C   UNL     1       2.993   0.361  -1.587  1.00  0.00     0.041 A 
ATOM     13  C   UNL     1       5.373  -0.199  -0.267  1.00  0.00     0.049 A 
ATOM     14  C   UNL     1       3.774  -0.726  -2.040  1.00  0.00     0.055 A 
BRANCH  10  15
ATOM     15  N   UNL     1       2.580   2.148   0.054  1.00  0.00    -0.322 N 
ATOM     16  C   UNL     1       1.213   2.210   0.222  1.00  0.00     0.255 C 
ATOM     17  O   UNL     1       0.711   3.286   0.556  1.00  0.00    -0.269 OA
ATOM     18  H   UNL     1       3.070   2.938   0.380  1.00  0.00     0.170 HD
BRANCH  16  19
ATOM     19  C   UNL     1       0.321   1.017   0.113  1.00  0.00     0.043 A 
ATOM     20  C   UNL     1       1.782  -0.593   1.506  1.00  0.00     0.045 C 
ATOM     21  C   UNL     1       0.584  -0.254   0.667  1.00  0.00    -0.038 A 
ATOM     22  C   UNL     1      -0.349  -1.289   0.463  1.00  0.00     0.004 A 
ATOM     23  C   UNL     1      -1.569  -1.048  -0.166  1.00  0.00     0.000 A 
ATOM     24  C   UNL     1      -0.931   1.253  -0.486  1.00  0.00     0.014 A 
ATOM     25  C   UNL     1      -1.874   0.232  -0.613  1.00  0.00     0.001 A 
ENDBRANCH  16  19
ENDBRANCH  10  15
BRANCH  14  26
ATOM     26  C   UNL     1       3.276  -1.474  -3.221  1.00  0.00     0.128 A 
ATOM     27  N   UNL     1       2.192  -1.127  -3.895  1.00  0.00    -0.236 NA
ATOM     28  S   UNL     1       4.036  -2.887  -3.860  1.00  0.00    -0.114 S 
ATOM     29  C   UNL     1       1.753  -2.192  -4.660  1.00  0.00     0.082 A 
ATOM     30  C   UNL     1       2.575  -3.316  -4.639  1.00  0.00     0.055 A 
ATOM     31  C   UNL     1       0.553  -2.249  -5.391  1.00  0.00     0.030 A 
ATOM     32  C   UNL     1       2.192  -4.538  -5.209  1.00  0.00     0.021 A 
ATOM     33  C   UNL     1       0.165  -3.456  -5.984  1.00  0.00     0.002 A 
ATOM     34  C   UNL     1       0.960  -4.593  -5.862  1.00  0.00     0.002 A 
ENDBRANCH  14  26
ENDBRANCH   8   9
ENDBRANCH   7   8
ENDBRANCH   4   7
ENDBRANCH   2   3
ENDBRANCH   1   2
BRANCH   1  35
ATOM     35  C   UNL     1       2.602  -4.019   3.744  1.00  0.00     0.002 C 
BRANCH  35  36
ATOM     36  C   UNL     1       2.401  -5.531   3.926  1.00  0.00     0.002 C 
BRANCH  36  37
ATOM     37  C   UNL     1       3.474  -6.289   4.708  1.00  0.00     0.021 C 
BRANCH  37  38
ATOM     38  C   UNL     1       3.715  -5.781   6.120  1.00  0.00     0.116 C 
BRANCH  38  39
ATOM     39  N   UNL     1       3.103  -6.576   7.173  1.00  0.00    -0.352 N 
ATOM     40  C   UNL     1       3.056  -6.324   8.537  1.00  0.00     0.251 C 
ATOM     41  H   UNL     1       2.662  -7.405   6.878  1.00  0.00     0.163 HD
ATOM     42  O   UNL     1       2.558  -7.130   9.298  1.00  0.00    -0.269 OA
BRANCH  40  43
ATOM     43  C   UNL     1       3.497  -4.995   9.037  1.00  0.00     0.039 A 
ATOM     44  C   UNL     1       2.635  -4.304   9.898  1.00  0.00     0.014 A 
ATOM     45  C   UNL     1       4.612  -4.356   8.504  1.00  0.00     0.014 A 
ATOM     46  C   UNL     1       2.751  -2.921  10.013  1.00  0.00     0.010 A 
ATOM     47  C   UNL     1       4.664  -2.978   8.527  1.00  0.00     0.010 A 
ATOM     48  C   UNL     1       3.696  -2.257   9.230  1.00  0.00    -0.014 A 
BRANCH  48  49
ATOM     49  C   UNL     1       3.683  -0.818   9.012  1.00  0.00     0.031 A 
ATOM     50  C   UNL     1       4.657   0.051   9.699  1.00  0.00     0.074 A 
ATOM     51  C   UNL     1       2.817  -0.281   8.123  1.00  0.00     0.049 A 
ATOM     52  N   UNL     1       4.428   1.285   9.998  1.00  0.00    -0.248 NA
ATOM     53  C   UNL     1       5.973  -0.414  10.126  1.00  0.00     0.031 C 
ATOM     54  C   UNL     1       2.825   1.085   7.604  1.00  0.00     0.029 A 
ATOM     55  N   UNL     1       1.617  -0.830   7.643  1.00  0.00    -0.354 N 
ATOM     56  C   UNL     1       5.620   1.842  10.393  1.00  0.00     0.074 A 
ATOM     57  C   UNL     1       6.538   0.732  10.521  1.00  0.00     0.031 C 
ATOM     58  C   UNL     1       1.599   1.382   7.148  1.00  0.00     0.029 A 
ATOM     59  C   UNL     1       0.735   0.264   7.480  1.00  0.00     0.049 A 
ATOM     60  H   UNL     1       1.429  -1.779   7.458  1.00  0.00     0.167 HD
ATOM     61  C   UNL     1       5.753   3.197  10.434  1.00  0.00     0.037 A 
ATOM     62  C   UNL     1      -0.430   0.358   8.182  1.00  0.00     0.037 A 
ATOM     63  C   UNL     1       4.526   3.873  10.035  1.00  0.00     0.049 A 
ATOM     64  C   UNL     1      -0.533   1.596   9.037  1.00  0.00     0.074 A 
ATOM     65  C   UNL     1       4.110   4.405   8.825  1.00  0.00     0.029 A 
ATOM     66  N   UNL     1       3.391   3.776  10.833  1.00  0.00    -0.354 N 
ATOM     67  N   UNL     1       0.496   2.304   9.412  1.00  0.00    -0.248 NA
ATOM     68  C   UNL     1      -1.792   2.119   9.560  1.00  0.00     0.031 C 
ATOM     69  C   UNL     1       2.712   4.605   8.886  1.00  0.00     0.029 A 
ATOM     70  C   UNL     1       2.278   4.207  10.138  1.00  0.00     0.049 A 
ATOM     71  H   UNL     1       3.383   3.448  11.761  1.00  0.00     0.167 HD
ATOM     72  C   UNL     1       0.074   3.340  10.207  1.00  0.00     0.074 A 
ATOM     73  C   UNL     1      -1.367   3.188  10.257  1.00  0.00     0.031 C 
ATOM     74  C   UNL     1       0.960   4.226  10.753  1.00  0.00     0.037 A 
BRANCH  61  75
ATOM     75  C   UNL     1       7.099   3.865  10.536  1.00  0.00     0.064 A 
ATOM     76  C   UNL     1       7.416   5.003   9.764  1.00  0.00     0.173 A 
ATOM     77  C   UNL     1       8.139   3.382  11.349  1.00  0.00     0.173 A 
ATOM     78  F   UNL     1       6.498   5.616   9.007  1.00  0.00    -0.203 F 
ATOM     79  C   UNL     1       8.703   5.541   9.723  1.00  0.00     0.198 A 
ATOM     80  C   UNL     1       9.440   3.889  11.270  1.00  0.00     0.198 A 
ATOM     81  F   UNL     1       7.915   2.410  12.246  1.00  0.00    -0.203 F 
ATOM     82  F   UNL     1       8.952   6.611   8.955  1.00  0.00    -0.200 F 
ATOM     83  C   UNL     1       9.725   4.961  10.447  1.00  0.00     0.200 A 
ATOM     84  F   UNL     1      10.421   3.318  11.984  1.00  0.00    -0.200 F 
ATOM     85  F   UNL     1      10.973   5.440  10.360  1.00  0.00    -0.200 F 
ENDBRANCH  61  75
BRANCH  62  86
ATOM     86  C   UNL     1      -1.021  -0.965   8.505  1.00  0.00     0.064 A 
ATOM     87  C   UNL     1      -1.486  -1.756   7.438  1.00  0.00     0.173 A 
ATOM     88  C   UNL     1      -0.759  -1.604   9.722  1.00  0.00     0.173 A 
ATOM     89  F   UNL     1      -1.749  -1.189   6.250  1.00  0.00    -0.203 F 
ATOM     90  C   UNL     1      -1.560  -3.143   7.544  1.00  0.00     0.198 A 
ATOM     91  C   UNL     1      -0.849  -2.994   9.829  1.00  0.00     0.198 A 
ATOM     92  F   UNL     1      -0.297  -0.906  10.769  1.00  0.00    -0.203 F 
ATOM     93  F   UNL     1      -1.888  -3.879   6.472  1.00  0.00    -0.200 F 
ATOM     94  C   UNL     1      -1.210  -3.763   8.731  1.00  0.00     0.200 A 
ATOM     95  F   UNL     1      -0.492  -3.599  10.971  1.00  0.00    -0.200 F 
ATOM     96  F   UNL     1      -1.180  -5.101   8.804  1.00  0.00    -0.200 F 
ENDBRANCH  62  86
BRANCH  74  97
ATOM     97  C   UNL     1       0.675   5.266  11.814  1.00  0.00     0.064 A 
ATOM     98  C   UNL     1      -0.372   5.181  12.745  1.00  0.00     0.173 A 
ATOM     99  C   UNL     1       1.575   6.346  12.016  1.00  0.00     0.173 A 
ATOM    100  F   UNL     1      -1.223   4.148  12.747  1.00  0.00    -0.203 F 
ATOM    101  C   UNL     1      -0.543   6.132  13.757  1.00  0.00     0.198 A 
ATOM    102  C   UNL     1       1.436   7.256  13.062  1.00  0.00     0.198 A 
ATOM    103  F   UNL     1       2.638   6.537  11.221  1.00  0.00    -0.203 F 
ATOM    104  F   UNL     1      -1.585   6.026  14.595  1.00  0.00    -0.200 F 
ATOM    105  C   UNL     1       0.366   7.160  13.924  1.00  0.00     0.200 A 
ATOM    106  F   UNL     1       2.359   8.212  13.240  1.00  0.00    -0.200 F 
ATOM    107  F   UNL     1       0.225   8.037  14.926  1.00  0.00    -0.200 F 
ENDBRANCH  74  97
ENDBRANCH  48  49
ENDBRANCH  40  43
ENDBRANCH  38  39
ENDBRANCH  37  38
ENDBRANCH  36  37
ENDBRANCH  35  36
ENDBRANCH   1  35
TORSDOF 18
