REMARK SMILES COc1ccc(F)cc1[C@H](C)NC(=O)[C@H]1CC=CC[C@@H]1C(=O)NCCCCCCNC(=O)c1ccc(-c2c3nc(c(-c4c(F)c(F)c(F)c(F)c4F)c4ccc([nH]4)c(-c4c(F)c(F)c(F)c(F)c4F)c4nc(c(-c5c(F)c(F)c(F)c(F)c5F)c5ccc2[nH]5)C=C4)C=C3)cc1
REMARK SMILES IDX 25 1 24 2 23 3 21 4 22 5 20 7 15 8 16 9 17 10 19 11 18 12
REMARK SMILES IDX 13 13 12 14 14 16 10 17 11 18 9 19 3 20 4 21 5 22 8 23 6 24
REMARK SMILES IDX 7 25 2 26 1 27 26 28 27 29 28 30 29 31 30 32 31 33 32 35
REMARK SMILES IDX 33 36 34 37 95 38 35 39 94 40 36 41 37 42 38 43 88 44 39 45
REMARK SMILES IDX 93 46 87 47 89 48 40 49 92 50 86 51 85 52 41 54 73 55 53 56
REMARK SMILES IDX 72 57 54 58 57 59 71 60 90 61 55 62 56 63 70 65 91 66 58 67
REMARK SMILES IDX 42 68 43 69 51 70 44 71 45 72 49 73 52 74 46 75 47 76 50 77
REMARK SMILES IDX 48 78 74 79 75 80 83 81 76 82 77 83 81 84 84 85 78 86 79 87
REMARK SMILES IDX 82 88 80 89 59 90 60 91 68 92 61 93 62 94 66 95 69 96 63 97
REMARK SMILES IDX 64 98 67 99 65 100
REMARK H PARENT 23 6 12 15 30 34 89 53 57 64
REMARK Flexibility Score: inf
ROOT
ATOM      1  C   UNL     1      -0.043  -4.355   7.067  1.00  0.00     0.021 C 
ENDROOT
BRANCH   1   2
ATOM      2  C   UNL     1      -1.241  -4.423   6.129  1.00  0.00     0.116 C 
BRANCH   2   3
ATOM      3  N   UNL     1      -1.526  -3.130   5.549  1.00  0.00    -0.356 N 
ATOM      4  C   UNL     1      -1.941  -2.817   4.295  1.00  0.00     0.224 C 
ATOM      5  O   UNL     1      -1.979  -1.618   4.011  1.00  0.00    -0.275 OA
ATOM      6  H   UNL     1      -1.399  -2.363   6.153  1.00  0.00     0.163 HD
BRANCH   4   7
ATOM      7  C   UNL     1      -2.282  -3.927   3.300  1.00  0.00     0.095 C 
ATOM      8  C   UNL     1      -2.537  -3.305   1.907  1.00  0.00     0.095 C 
ATOM      9  C   UNL     1      -3.876  -2.541   1.875  1.00  0.00     0.041 C 
ATOM     10  C   UNL     1      -5.003  -3.238   2.580  1.00  0.00    -0.030 C 
ATOM     11  C   UNL     1      -3.465  -4.793   3.782  1.00  0.00     0.041 C 
ATOM     12  C   UNL     1      -4.818  -4.262   3.421  1.00  0.00    -0.030 C 
BRANCH   8  13
ATOM     13  C   UNL     1      -2.459  -4.373   0.815  1.00  0.00     0.224 C 
ATOM     14  N   UNL     1      -2.109  -4.037  -0.456  1.00  0.00    -0.349 N 
ATOM     15  H   UNL     1      -2.158  -4.777  -1.104  1.00  0.00     0.164 HD
ATOM     16  O   UNL     1      -2.697  -5.564   1.028  1.00  0.00    -0.275 OA
BRANCH  14  17
ATOM     17  C   UNL     1      -1.675  -2.764  -1.020  1.00  0.00     0.113 C 
ATOM     18  C   UNL     1      -0.172  -2.933  -1.310  1.00  0.00     0.036 C 
BRANCH  17  19
ATOM     19  C   UNL     1      -2.532  -2.333  -2.215  1.00  0.00     0.019 A 
ATOM     20  C   UNL     1      -3.926  -2.566  -2.277  1.00  0.00     0.124 A 
ATOM     21  C   UNL     1      -4.714  -2.040  -3.311  1.00  0.00     0.050 A 
ATOM     22  C   UNL     1      -4.131  -1.286  -4.321  1.00  0.00     0.043 A 
ATOM     23  C   UNL     1      -1.975  -1.556  -3.251  1.00  0.00     0.049 A 
ATOM     24  C   UNL     1      -2.767  -1.052  -4.282  1.00  0.00     0.123 A 
ATOM     25  F   UNL     1      -2.201  -0.297  -5.233  1.00  0.00    -0.207 F 
BRANCH  20  26
ATOM     26  O   UNL     1      -4.551  -3.195  -1.235  1.00  0.00    -0.496 OA
ATOM     27  C   UNL     1      -5.285  -4.356  -1.614  1.00  0.00     0.278 C 
ENDBRANCH  20  26
ENDBRANCH  17  19
ENDBRANCH  14  17
ENDBRANCH   8  13
ENDBRANCH   4   7
ENDBRANCH   2   3
ENDBRANCH   1   2
BRANCH   1  28
ATOM     28  C   UNL     1      -0.226  -3.416   8.267  1.00  0.00     0.002 C 
BRANCH  28  29
ATOM     29  C   UNL     1      -1.469  -3.678   9.122  1.00  0.00     0.002 C 
BRANCH  29  30
ATOM     30  C   UNL     1      -1.609  -5.109   9.642  1.00  0.00     0.021 C 
BRANCH  30  31
ATOM     31  C   UNL     1      -0.391  -5.637  10.389  1.00  0.00     0.116 C 
BRANCH  31  32
ATOM     32  N   UNL     1      -0.086  -4.856  11.576  1.00  0.00    -0.352 N 
ATOM     33  C   UNL     1       0.152  -5.287  12.856  1.00  0.00     0.251 C 
ATOM     34  H   UNL     1      -0.044  -3.882  11.443  1.00  0.00     0.163 HD
ATOM     35  O   UNL     1       0.234  -4.480  13.778  1.00  0.00    -0.269 OA
BRANCH  33  36
ATOM     36  C   UNL     1       0.283  -6.733  13.129  1.00  0.00     0.039 A 
ATOM     37  C   UNL     1      -0.399  -7.276  14.220  1.00  0.00     0.014 A 
ATOM     38  C   UNL     1       1.065  -7.553  12.309  1.00  0.00     0.014 A 
ATOM     39  C   UNL     1      -0.345  -8.650  14.454  1.00  0.00     0.010 A 
ATOM     40  C   UNL     1       1.055  -8.932  12.498  1.00  0.00     0.010 A 
ATOM     41  C   UNL     1       0.352  -9.495  13.573  1.00  0.00    -0.014 A 
BRANCH  41  42
ATOM     42  C   UNL     1       0.350 -10.969  13.760  1.00  0.00     0.031 A 
ATOM     43  C   UNL     1       1.635 -11.697  14.041  1.00  0.00     0.074 A 
ATOM     44  C   UNL     1      -0.802 -11.656  13.624  1.00  0.00     0.049 A 
ATOM     45  N   UNL     1       1.845 -12.984  14.161  1.00  0.00    -0.248 NA
ATOM     46  C   UNL     1       2.850 -10.878  14.186  1.00  0.00     0.031 C 
ATOM     47  C   UNL     1      -2.106 -11.066  13.313  1.00  0.00     0.029 A 
ATOM     48  N   UNL     1      -1.063 -13.001  13.720  1.00  0.00    -0.354 N 
ATOM     49  C   UNL     1       3.207 -13.126  14.384  1.00  0.00     0.074 A 
ATOM     50  C   UNL     1       3.788 -11.803  14.336  1.00  0.00     0.031 C 
ATOM     51  C   UNL     1      -3.029 -12.039  13.265  1.00  0.00     0.029 A 
ATOM     52  C   UNL     1      -2.380 -13.326  13.495  1.00  0.00     0.049 A 
ATOM     53  H   UNL     1      -0.372 -13.670  13.930  1.00  0.00     0.167 HD
ATOM     54  C   UNL     1       3.904 -14.259  14.631  1.00  0.00     0.037 A 
ATOM     55  C   UNL     1      -2.993 -14.526  13.462  1.00  0.00     0.037 A 
ATOM     56  C   UNL     1       3.316 -15.570  14.715  1.00  0.00     0.049 A 
ATOM     57  C   UNL     1      -2.187 -15.769  13.728  1.00  0.00     0.074 A 
ATOM     58  C   UNL     1       3.936 -16.768  15.024  1.00  0.00     0.029 A 
ATOM     59  N   UNL     1       1.978 -15.855  14.494  1.00  0.00    -0.354 N 
ATOM     60  N   UNL     1      -0.909 -15.882  14.000  1.00  0.00    -0.248 NA
ATOM     61  C   UNL     1      -2.904 -17.052  13.687  1.00  0.00     0.031 C 
ATOM     62  C   UNL     1       2.986 -17.786  14.933  1.00  0.00     0.029 A 
ATOM     63  C   UNL     1       1.760 -17.216  14.633  1.00  0.00     0.049 A 
ATOM     64  H   UNL     1       1.287 -15.190  14.271  1.00  0.00     0.167 HD
ATOM     65  C   UNL     1      -0.678 -17.238  14.191  1.00  0.00     0.074 A 
ATOM     66  C   UNL     1      -1.948 -17.909  14.020  1.00  0.00     0.031 C 
ATOM     67  C   UNL     1       0.486 -17.869  14.479  1.00  0.00     0.037 A 
BRANCH  54  68
ATOM     68  C   UNL     1       5.383 -14.155  14.857  1.00  0.00     0.064 A 
ATOM     69  C   UNL     1       6.282 -14.712  13.935  1.00  0.00     0.173 A 
ATOM     70  C   UNL     1       5.904 -13.628  16.048  1.00  0.00     0.173 A 
ATOM     71  F   UNL     1       5.833 -15.234  12.784  1.00  0.00    -0.203 F 
ATOM     72  C   UNL     1       7.645 -14.776  14.213  1.00  0.00     0.198 A 
ATOM     73  C   UNL     1       7.270 -13.669  16.311  1.00  0.00     0.198 A 
ATOM     74  F   UNL     1       5.086 -13.075  16.957  1.00  0.00    -0.203 F 
ATOM     75  F   UNL     1       8.478 -15.362  13.342  1.00  0.00    -0.200 F 
ATOM     76  C   UNL     1       8.137 -14.258  15.401  1.00  0.00     0.200 A 
ATOM     77  F   UNL     1       7.747 -13.151  17.451  1.00  0.00    -0.200 F 
ATOM     78  F   UNL     1       9.447 -14.330  15.673  1.00  0.00    -0.200 F 
ENDBRANCH  54  68
BRANCH  55  79
ATOM     79  C   UNL     1      -4.450 -14.609  13.173  1.00  0.00     0.064 A 
ATOM     80  C   UNL     1      -4.965 -14.271  11.912  1.00  0.00     0.173 A 
ATOM     81  C   UNL     1      -5.359 -15.036  14.151  1.00  0.00     0.173 A 
ATOM     82  F   UNL     1      -4.141 -13.852  10.940  1.00  0.00    -0.203 F 
ATOM     83  C   UNL     1      -6.330 -14.345  11.646  1.00  0.00     0.198 A 
ATOM     84  C   UNL     1      -6.721 -15.143  13.873  1.00  0.00     0.198 A 
ATOM     85  F   UNL     1      -4.917 -15.390  15.367  1.00  0.00    -0.203 F 
ATOM     86  F   UNL     1      -6.796 -13.986  10.441  1.00  0.00    -0.200 F 
ATOM     87  C   UNL     1      -7.206 -14.790  12.623  1.00  0.00     0.200 A 
ATOM     88  F   UNL     1      -7.560 -15.603  14.811  1.00  0.00    -0.200 F 
ATOM     89  F   UNL     1      -8.516 -14.887  12.358  1.00  0.00    -0.200 F 
ENDBRANCH  55  79
BRANCH  67  90
ATOM     90  C   UNL     1       0.452 -19.358  14.666  1.00  0.00     0.064 A 
ATOM     91  C   UNL     1       0.695 -19.918  15.930  1.00  0.00     0.173 A 
ATOM     92  C   UNL     1       0.281 -20.230  13.582  1.00  0.00     0.173 A 
ATOM     93  F   UNL     1       0.877 -19.126  16.998  1.00  0.00    -0.203 F 
ATOM     94  C   UNL     1       0.790 -21.297  16.097  1.00  0.00     0.198 A 
ATOM     95  C   UNL     1       0.344 -21.610  13.759  1.00  0.00     0.198 A 
ATOM     96  F   UNL     1       0.036 -19.744  12.356  1.00  0.00    -0.203 F 
ATOM     97  F   UNL     1       1.070 -21.806  17.304  1.00  0.00    -0.200 F 
ATOM     98  C   UNL     1       0.611 -22.141  15.012  1.00  0.00     0.200 A 
ATOM     99  F   UNL     1       0.147 -22.426  12.714  1.00  0.00    -0.200 F 
ATOM    100  F   UNL     1       0.698 -23.468  15.174  1.00  0.00    -0.200 F 
ENDBRANCH  67  90
ENDBRANCH  41  42
ENDBRANCH  33  36
ENDBRANCH  31  32
ENDBRANCH  30  31
ENDBRANCH  29  30
ENDBRANCH  28  29
ENDBRANCH   1  28
TORSDOF 17
