REMARK SMILES Cc1ccc(C[C@@H](Cc2cc(F)cc(Br)c2)C(=O)NCCCCCCNC(=O)c2ccc(-c3c4nc(c(-c5c(F)c(F)c(F)c(F)c5F)c5ccc([nH]5)c(-c5c(F)c(F)c(F)c(F)c5F)c5nc(c(-c6c(F)c(F)c(F)c(F)c6F)c6ccc3[nH]6)C=C5)C=C4)cc2)cc1
REMARK SMILES IDX 22 1 21 2 20 3 19 4 17 5 18 6 7 8 6 9 5 10 1 11 2 12 3 13
REMARK SMILES IDX 93 14 4 15 92 16 8 17 9 18 10 19 16 20 11 21 14 22 12 23
REMARK SMILES IDX 13 24 15 25 23 26 24 27 25 28 26 29 27 30 28 32 29 33 30 34
REMARK SMILES IDX 91 35 31 36 90 37 32 38 33 39 34 40 84 41 35 42 89 43 83 44
REMARK SMILES IDX 85 45 36 46 88 47 82 48 81 49 37 51 69 52 49 53 68 54 50 55
REMARK SMILES IDX 53 56 67 57 86 58 51 59 52 60 66 62 87 63 54 64 38 65 39 66
REMARK SMILES IDX 47 67 40 68 41 69 45 70 48 71 42 72 43 73 46 74 44 75 70 76
REMARK SMILES IDX 71 77 79 78 72 79 73 80 77 81 80 82 74 83 75 84 78 85 76 86
REMARK SMILES IDX 55 87 56 88 64 89 57 90 58 91 62 92 65 93 59 94 60 95 63 96
REMARK SMILES IDX 61 97
REMARK H PARENT 19 7 26 31 85 50 53 61
REMARK Flexibility Score: inf
ROOT
ATOM      1  C   UNL     1      -7.717  -1.501   2.460  1.00  0.00     0.002 C 
ENDROOT
BRANCH   1   2
ATOM      2  C   UNL     1      -6.208  -1.253   2.339  1.00  0.00     0.021 C 
BRANCH   2   3
ATOM      3  C   UNL     1      -5.626  -1.622   0.981  1.00  0.00     0.116 C 
BRANCH   3   4
ATOM      4  N   UNL     1      -5.956  -0.640  -0.032  1.00  0.00    -0.356 N 
ATOM      5  C   UNL     1      -5.240  -0.219  -1.109  1.00  0.00     0.223 C 
ATOM      6  O   UNL     1      -5.797   0.543  -1.904  1.00  0.00    -0.275 OA
ATOM      7  H   UNL     1      -6.835  -0.210   0.076  1.00  0.00     0.163 HD
BRANCH   5   8
ATOM      8  C   UNL     1      -3.791  -0.635  -1.330  1.00  0.00     0.087 C 
BRANCH   8   9
ATOM      9  C   UNL     1      -2.957   0.085  -0.234  1.00  0.00     0.049 C 
BRANCH   9  10
ATOM     10  C   UNL     1      -1.447   0.060  -0.290  1.00  0.00    -0.047 A 
ATOM     11  C   UNL     1       2.871   0.139  -0.007  1.00  0.00     0.044 C 
ATOM     12  C   UNL     1       1.375   0.124  -0.106  1.00  0.00    -0.051 A 
ATOM     13  C   UNL     1       0.680  -1.077   0.048  1.00  0.00     0.004 A 
ATOM     14  C   UNL     1       0.654   1.293  -0.363  1.00  0.00     0.004 A 
ATOM     15  C   UNL     1      -0.714  -1.104  -0.024  1.00  0.00     0.004 A 
ATOM     16  C   UNL     1      -0.741   1.260  -0.456  1.00  0.00     0.004 A 
ENDBRANCH   9  10
ENDBRANCH   8   9
BRANCH   8  17
ATOM     17  C   UNL     1      -3.528  -2.153  -1.489  1.00  0.00     0.049 C 
BRANCH  17  18
ATOM     18  C   UNL     1      -4.610  -3.188  -1.744  1.00  0.00    -0.043 A 
ATOM     19  C   UNL     1      -4.348  -4.506  -1.321  1.00  0.00     0.043 A 
ATOM     20  C   UNL     1      -5.857  -2.930  -2.326  1.00  0.00     0.019 A 
ATOM     21  C   UNL     1      -5.335  -5.486  -1.374  1.00  0.00     0.124 A 
ATOM     22  C   UNL     1      -6.855  -3.915  -2.331  1.00  0.00     0.021 A 
ATOM     23  F   UNL     1      -5.063  -6.717  -0.923  1.00  0.00    -0.207 F 
ATOM     24  C   UNL     1      -6.603  -5.195  -1.847  1.00  0.00     0.055 A 
ATOM     25  Br  UNL     1      -8.594  -3.482  -2.936  1.00  0.00    -0.051 Br
ENDBRANCH  17  18
ENDBRANCH   8  17
ENDBRANCH   5   8
ENDBRANCH   3   4
ENDBRANCH   2   3
ENDBRANCH   1   2
BRANCH   1  26
ATOM     26  C   UNL     1      -8.200  -2.929   2.145  1.00  0.00     0.002 C 
BRANCH  26  27
ATOM     27  C   UNL     1      -7.387  -4.074   2.761  1.00  0.00     0.021 C 
BRANCH  27  28
ATOM     28  C   UNL     1      -7.386  -4.080   4.282  1.00  0.00     0.116 C 
BRANCH  28  29
ATOM     29  N   UNL     1      -8.418  -4.907   4.882  1.00  0.00    -0.352 N 
ATOM     30  C   UNL     1      -8.814  -5.021   6.205  1.00  0.00     0.251 C 
ATOM     31  H   UNL     1      -8.914  -5.476   4.250  1.00  0.00     0.163 HD
ATOM     32  O   UNL     1      -9.614  -5.881   6.522  1.00  0.00    -0.269 OA
BRANCH  30  33
ATOM     33  C   UNL     1      -8.378  -4.010   7.208  1.00  0.00     0.039 A 
ATOM     34  C   UNL     1      -9.325  -3.579   8.149  1.00  0.00     0.014 A 
ATOM     35  C   UNL     1      -7.149  -3.365   7.125  1.00  0.00     0.014 A 
ATOM     36  C   UNL     1      -9.136  -2.370   8.818  1.00  0.00     0.010 A 
ATOM     37  C   UNL     1      -7.005  -2.119   7.697  1.00  0.00     0.010 A 
ATOM     38  C   UNL     1      -8.027  -1.595   8.492  1.00  0.00    -0.014 A 
BRANCH  38  39
ATOM     39  C   UNL     1      -7.885  -0.192   8.849  1.00  0.00     0.031 A 
ATOM     40  C   UNL     1      -6.952   0.220   9.916  1.00  0.00     0.074 A 
ATOM     41  C   UNL     1      -8.507   0.737   8.089  1.00  0.00     0.049 A 
ATOM     42  N   UNL     1      -7.017   1.347  10.538  1.00  0.00    -0.248 NA
ATOM     43  C   UNL     1      -5.869  -0.634  10.390  1.00  0.00     0.031 C 
ATOM     44  C   UNL     1      -8.246   2.174   8.054  1.00  0.00     0.029 A 
ATOM     45  N   UNL     1      -9.658   0.573   7.298  1.00  0.00    -0.354 N 
ATOM     46  C   UNL     1      -5.867   1.488  11.278  1.00  0.00     0.074 A 
ATOM     47  C   UNL     1      -5.209   0.204  11.195  1.00  0.00     0.031 C 
ATOM     48  C   UNL     1      -9.325   2.798   7.557  1.00  0.00     0.029 A 
ATOM     49  C   UNL     1     -10.363   1.795   7.403  1.00  0.00     0.049 A 
ATOM     50  H   UNL     1      -9.918  -0.223   6.782  1.00  0.00     0.167 HD
ATOM     51  C   UNL     1      -5.539   2.718  11.769  1.00  0.00     0.037 A 
ATOM     52  C   UNL     1     -11.594   1.858   7.986  1.00  0.00     0.037 A 
ATOM     53  C   UNL     1      -6.568   3.703  11.449  1.00  0.00     0.049 A 
ATOM     54  C   UNL     1     -11.661   2.782   9.178  1.00  0.00     0.074 A 
ATOM     55  C   UNL     1      -6.682   4.638  10.433  1.00  0.00     0.029 A 
ATOM     56  N   UNL     1      -7.828   3.591  12.026  1.00  0.00    -0.354 N 
ATOM     57  N   UNL     1     -10.619   3.149   9.870  1.00  0.00    -0.248 NA
ATOM     58  C   UNL     1     -12.903   3.348   9.694  1.00  0.00     0.031 C 
ATOM     59  C   UNL     1      -8.030   5.063  10.375  1.00  0.00     0.029 A 
ATOM     60  C   UNL     1      -8.732   4.401  11.368  1.00  0.00     0.049 A 
ATOM     61  H   UNL     1      -8.045   3.016  12.794  1.00  0.00     0.167 HD
ATOM     62  C   UNL     1     -11.017   3.967  10.897  1.00  0.00     0.074 A 
ATOM     63  C   UNL     1     -12.454   4.073  10.734  1.00  0.00     0.031 C 
ATOM     64  C   UNL     1     -10.120   4.478  11.793  1.00  0.00     0.037 A 
BRANCH  51  65
ATOM     65  C   UNL     1      -4.163   3.083  12.279  1.00  0.00     0.064 A 
ATOM     66  C   UNL     1      -3.643   4.385  12.099  1.00  0.00     0.173 A 
ATOM     67  C   UNL     1      -3.288   2.182  12.911  1.00  0.00     0.173 A 
ATOM     68  F   UNL     1      -4.393   5.380  11.609  1.00  0.00    -0.203 F 
ATOM     69  C   UNL     1      -2.322   4.716  12.412  1.00  0.00     0.198 A 
ATOM     70  C   UNL     1      -1.950   2.496  13.172  1.00  0.00     0.198 A 
ATOM     71  F   UNL     1      -3.715   0.987  13.338  1.00  0.00    -0.203 F 
ATOM     72  F   UNL     1      -1.884   5.967  12.207  1.00  0.00    -0.200 F 
ATOM     73  C   UNL     1      -1.463   3.761  12.911  1.00  0.00     0.200 A 
ATOM     74  F   UNL     1      -1.134   1.560  13.680  1.00  0.00    -0.200 F 
ATOM     75  F   UNL     1      -0.182   4.063  13.162  1.00  0.00    -0.200 F 
ENDBRANCH  51  65
BRANCH  52  76
ATOM     76  C   UNL     1     -12.377   0.604   7.825  1.00  0.00     0.064 A 
ATOM     77  C   UNL     1     -12.761   0.229   6.523  1.00  0.00     0.173 A 
ATOM     78  C   UNL     1     -12.380  -0.387   8.813  1.00  0.00     0.173 A 
ATOM     79  F   UNL     1     -12.773   1.144   5.540  1.00  0.00    -0.203 F 
ATOM     80  C   UNL     1     -13.012  -1.101   6.197  1.00  0.00     0.198 A 
ATOM     81  C   UNL     1     -12.647  -1.719   8.485  1.00  0.00     0.198 A 
ATOM     82  F   UNL     1     -12.006  -0.096  10.067  1.00  0.00    -0.203 F 
ATOM     83  F   UNL     1     -13.259  -1.443   4.924  1.00  0.00    -0.200 F 
ATOM     84  C   UNL     1     -12.924  -2.079   7.173  1.00  0.00     0.200 A 
ATOM     85  F   UNL     1     -12.539  -2.671   9.423  1.00  0.00    -0.200 F 
ATOM     86  F   UNL     1     -13.066  -3.371   6.844  1.00  0.00    -0.200 F 
ENDBRANCH  52  76
BRANCH  64  87
ATOM     87  C   UNL     1     -10.436   5.181  13.095  1.00  0.00     0.064 A 
ATOM     88  C   UNL     1     -11.622   4.999  13.824  1.00  0.00     0.173 A 
ATOM     89  C   UNL     1      -9.448   5.971  13.739  1.00  0.00     0.173 A 
ATOM     90  F   UNL     1     -12.590   4.181  13.392  1.00  0.00    -0.203 F 
ATOM     91  C   UNL     1     -11.829   5.606  15.068  1.00  0.00     0.198 A 
ATOM     92  C   UNL     1      -9.634   6.523  15.006  1.00  0.00     0.198 A 
ATOM     93  F   UNL     1      -8.256   6.209  13.174  1.00  0.00    -0.203 F 
ATOM     94  F   UNL     1     -12.998   5.432  15.702  1.00  0.00    -0.200 F 
ATOM     95  C   UNL     1     -10.832   6.354  15.664  1.00  0.00     0.200 A 
ATOM     96  F   UNL     1      -8.634   7.198  15.592  1.00  0.00    -0.200 F 
ATOM     97  F   UNL     1     -11.018   6.889  16.878  1.00  0.00    -0.200 F 
ENDBRANCH  64  87
ENDBRANCH  38  39
ENDBRANCH  30  33
ENDBRANCH  28  29
ENDBRANCH  27  28
ENDBRANCH  26  27
ENDBRANCH   1  26
TORSDOF 17
