REMARK SMILES CC(C)(C[S@](=O)c1cccc(Cl)c1)C(=O)NCCCCCCNC(=O)c1ccc(-c2c3nc(c(-c4c(F)c(F)c(F)c(F)c4F)c4ccc([nH]4)c(-c4c(F)c(F)c(F)c(F)c4F)c4nc(c(-c5c(F)c(F)c(F)c(F)c5F)c5ccc2[nH]5)C=C4)C=C3)cc1
REMARK SMILES IDX 19 1 18 2 17 3 16 4 14 5 15 6 2 8 1 9 3 10 4 11 5 12 6 13
REMARK SMILES IDX 7 14 8 15 13 16 9 17 11 18 10 19 12 20 20 21 21 22 22 23
REMARK SMILES IDX 23 24 24 25 25 27 26 28 27 29 88 30 28 31 87 32 29 33 30 34
REMARK SMILES IDX 31 35 81 36 32 37 86 38 80 39 82 40 33 41 85 42 79 43 78 44
REMARK SMILES IDX 34 46 66 47 46 48 65 49 47 50 50 51 64 52 83 53 48 54 49 55
REMARK SMILES IDX 63 57 84 58 51 59 35 60 36 61 44 62 37 63 38 64 42 65 45 66
REMARK SMILES IDX 39 67 40 68 43 69 41 70 67 71 68 72 76 73 69 74 70 75 74 76
REMARK SMILES IDX 77 77 71 78 72 79 75 80 73 81 52 82 53 83 61 84 54 85 55 86
REMARK SMILES IDX 59 87 62 88 56 89 57 90 60 91 58 92
REMARK H PARENT 16 7 23 26 82 45 50 56
REMARK Flexibility Score: inf
ROOT
ATOM      1  C   UNL     1      -3.364   2.330   2.404  1.00  0.00     0.002 C 
ENDROOT
BRANCH   1   2
ATOM      2  C   UNL     1      -3.679   0.931   1.868  1.00  0.00     0.021 C 
BRANCH   2   3
ATOM      3  C   UNL     1      -4.666   0.886   0.704  1.00  0.00     0.116 C 
BRANCH   3   4
ATOM      4  N   UNL     1      -4.139   1.472  -0.516  1.00  0.00    -0.356 N 
ATOM      5  C   UNL     1      -3.887   0.971  -1.755  1.00  0.00     0.226 C 
ATOM      6  O   UNL     1      -3.610   1.799  -2.628  1.00  0.00    -0.274 OA
ATOM      7  H   UNL     1      -3.919   2.428  -0.428  1.00  0.00     0.163 HD
BRANCH   5   8
ATOM      8  C   UNL     1      -3.983  -0.524  -2.098  1.00  0.00     0.055 C 
ATOM      9  C   UNL     1      -3.591  -0.770  -3.574  1.00  0.00     0.022 C 
ATOM     10  C   UNL     1      -5.488  -0.902  -2.049  1.00  0.00     0.022 C 
BRANCH   8  11
ATOM     11  C   UNL     1      -3.183  -1.449  -1.167  1.00  0.00     0.126 C 
BRANCH  11  12
ATOM     12  S   UNL     1      -1.369  -1.412  -0.995  1.00  0.00     0.054 S 
ATOM     13  O   UNL     1      -1.074  -1.188   0.460  1.00  0.00    -0.254 OA
BRANCH  12  14
ATOM     14  C   UNL     1      -0.784   0.058  -1.829  1.00  0.00     0.040 A 
ATOM     15  C   UNL     1      -0.169  -0.079  -3.081  1.00  0.00     0.018 A 
ATOM     16  C   UNL     1      -0.849   1.320  -1.237  1.00  0.00     0.038 A 
ATOM     17  C   UNL     1       0.260   1.045  -3.788  1.00  0.00     0.003 A 
ATOM     18  C   UNL     1      -0.438   2.444  -1.954  1.00  0.00     0.042 A 
ATOM     19  C   UNL     1       0.102   2.313  -3.233  1.00  0.00     0.020 A 
ATOM     20  Cl  UNL     1      -0.629   4.010  -1.265  1.00  0.00    -0.084 Cl
ENDBRANCH  12  14
ENDBRANCH  11  12
ENDBRANCH   8  11
ENDBRANCH   5   8
ENDBRANCH   3   4
ENDBRANCH   2   3
ENDBRANCH   1   2
BRANCH   1  21
ATOM     21  C   UNL     1      -4.577   3.172   2.810  1.00  0.00     0.002 C 
BRANCH  21  22
ATOM     22  C   UNL     1      -5.562   2.497   3.768  1.00  0.00     0.021 C 
BRANCH  22  23
ATOM     23  C   UNL     1      -4.965   2.039   5.094  1.00  0.00     0.116 C 
BRANCH  23  24
ATOM     24  N   UNL     1      -4.488   3.151   5.899  1.00  0.00    -0.352 N 
ATOM     25  C   UNL     1      -4.811   3.503   7.184  1.00  0.00     0.251 C 
ATOM     26  H   UNL     1      -3.836   3.740   5.455  1.00  0.00     0.163 HD
ATOM     27  O   UNL     1      -4.444   4.589   7.635  1.00  0.00    -0.269 OA
BRANCH  25  28
ATOM     28  C   UNL     1      -5.616   2.598   8.031  1.00  0.00     0.039 A 
ATOM     29  C   UNL     1      -6.633   3.143   8.821  1.00  0.00     0.014 A 
ATOM     30  C   UNL     1      -5.361   1.224   8.073  1.00  0.00     0.014 A 
ATOM     31  C   UNL     1      -7.429   2.305   9.605  1.00  0.00     0.010 A 
ATOM     32  C   UNL     1      -6.202   0.382   8.797  1.00  0.00     0.010 A 
ATOM     33  C   UNL     1      -7.242   0.914   9.575  1.00  0.00    -0.014 A 
BRANCH  33  34
ATOM     34  C   UNL     1      -8.127   0.005  10.350  1.00  0.00     0.031 A 
ATOM     35  C   UNL     1      -7.565  -0.836  11.463  1.00  0.00     0.074 A 
ATOM     36  C   UNL     1      -9.427  -0.104  10.014  1.00  0.00     0.049 A 
ATOM     37  N   UNL     1      -8.167  -1.724  12.215  1.00  0.00    -0.248 NA
ATOM     38  C   UNL     1      -6.132  -0.677  11.754  1.00  0.00     0.031 C 
ATOM     39  C   UNL     1     -10.081   0.622   8.924  1.00  0.00     0.029 A 
ATOM     40  N   UNL     1     -10.430  -0.874  10.549  1.00  0.00    -0.354 N 
ATOM     41  C   UNL     1      -7.186  -2.235  13.056  1.00  0.00     0.074 A 
ATOM     42  C   UNL     1      -5.940  -1.599  12.687  1.00  0.00     0.031 C 
ATOM     43  C   UNL     1     -11.379   0.281   8.885  1.00  0.00     0.029 A 
ATOM     44  C   UNL     1     -11.641  -0.715   9.919  1.00  0.00     0.049 A 
ATOM     45  H   UNL     1     -10.295  -1.482  11.311  1.00  0.00     0.167 HD
ATOM     46  C   UNL     1      -7.318  -3.135  14.060  1.00  0.00     0.037 A 
ATOM     47  C   UNL     1     -12.827  -1.312  10.145  1.00  0.00     0.037 A 
ATOM     48  C   UNL     1      -8.564  -3.748  14.440  1.00  0.00     0.049 A 
ATOM     49  C   UNL     1     -12.943  -2.315  11.262  1.00  0.00     0.074 A 
ATOM     50  C   UNL     1      -8.811  -4.626  15.481  1.00  0.00     0.029 A 
ATOM     51  N   UNL     1      -9.773  -3.552  13.788  1.00  0.00    -0.354 N 
ATOM     52  N   UNL     1     -12.025  -2.736  12.097  1.00  0.00    -0.248 NA
ATOM     53  C   UNL     1     -14.266  -2.920  11.472  1.00  0.00     0.031 C 
ATOM     54  C   UNL     1     -10.158  -5.001  15.427  1.00  0.00     0.029 A 
ATOM     55  C   UNL     1     -10.764  -4.312  14.389  1.00  0.00     0.049 A 
ATOM     56  H   UNL     1      -9.907  -2.960  13.013  1.00  0.00     0.167 HD
ATOM     57  C   UNL     1     -12.662  -3.628  12.948  1.00  0.00     0.074 A 
ATOM     58  C   UNL     1     -14.050  -3.676  12.539  1.00  0.00     0.031 C 
ATOM     59  C   UNL     1     -12.144  -4.344  13.976  1.00  0.00     0.037 A 
BRANCH  46  60
ATOM     60  C   UNL     1      -6.081  -3.512  14.825  1.00  0.00     0.064 A 
ATOM     61  C   UNL     1      -5.441  -2.606  15.684  1.00  0.00     0.173 A 
ATOM     62  C   UNL     1      -5.556  -4.810  14.733  1.00  0.00     0.173 A 
ATOM     63  F   UNL     1      -5.896  -1.349  15.801  1.00  0.00    -0.203 F 
ATOM     64  C   UNL     1      -4.305  -2.976  16.400  1.00  0.00     0.198 A 
ATOM     65  C   UNL     1      -4.439  -5.187  15.476  1.00  0.00     0.198 A 
ATOM     66  F   UNL     1      -6.133  -5.719  13.933  1.00  0.00    -0.203 F 
ATOM     67  F   UNL     1      -3.683  -2.079  17.177  1.00  0.00    -0.200 F 
ATOM     68  C   UNL     1      -3.811  -4.268  16.302  1.00  0.00     0.200 A 
ATOM     69  F   UNL     1      -3.972  -6.440  15.392  1.00  0.00    -0.200 F 
ATOM     70  F   UNL     1      -2.724  -4.626  17.001  1.00  0.00    -0.200 F 
ENDBRANCH  46  60
BRANCH  47  71
ATOM     71  C   UNL     1     -14.006  -0.965   9.309  1.00  0.00     0.064 A 
ATOM     72  C   UNL     1     -15.098  -0.273   9.853  1.00  0.00     0.173 A 
ATOM     73  C   UNL     1     -14.074  -1.327   7.956  1.00  0.00     0.173 A 
ATOM     74  F   UNL     1     -15.089   0.078  11.148  1.00  0.00    -0.203 F 
ATOM     75  C   UNL     1     -16.221   0.021   9.083  1.00  0.00     0.198 A 
ATOM     76  C   UNL     1     -15.185  -1.005   7.179  1.00  0.00     0.198 A 
ATOM     77  F   UNL     1     -13.055  -1.986   7.385  1.00  0.00    -0.203 F 
ATOM     78  F   UNL     1     -17.271   0.637   9.643  1.00  0.00    -0.200 F 
ATOM     79  C   UNL     1     -16.262  -0.340   7.745  1.00  0.00     0.200 A 
ATOM     80  F   UNL     1     -15.213  -1.343   5.882  1.00  0.00    -0.200 F 
ATOM     81  F   UNL     1     -17.341  -0.056   7.005  1.00  0.00    -0.200 F 
ENDBRANCH  47  71
BRANCH  59  82
ATOM     82  C   UNL     1     -13.089  -5.212  14.757  1.00  0.00     0.064 A 
ATOM     83  C   UNL     1     -13.639  -6.382  14.212  1.00  0.00     0.173 A 
ATOM     84  C   UNL     1     -13.420  -4.887  16.081  1.00  0.00     0.173 A 
ATOM     85  F   UNL     1     -13.366  -6.730  12.945  1.00  0.00    -0.203 F 
ATOM     86  C   UNL     1     -14.508  -7.177  14.954  1.00  0.00     0.198 A 
ATOM     87  C   UNL     1     -14.263  -5.702  16.831  1.00  0.00     0.198 A 
ATOM     88  F   UNL     1     -12.915  -3.783  16.654  1.00  0.00    -0.203 F 
ATOM     89  F   UNL     1     -15.063  -8.261  14.394  1.00  0.00    -0.200 F 
ATOM     90  C   UNL     1     -14.813  -6.841  16.264  1.00  0.00     0.200 A 
ATOM     91  F   UNL     1     -14.544  -5.384  18.102  1.00  0.00    -0.200 F 
ATOM     92  F   UNL     1     -15.645  -7.612  16.979  1.00  0.00    -0.200 F 
ENDBRANCH  59  82
ENDBRANCH  33  34
ENDBRANCH  25  28
ENDBRANCH  23  24
ENDBRANCH  22  23
ENDBRANCH  21  22
ENDBRANCH   1  21
TORSDOF 16
