REMARK SMILES Nc1nc(N2CCOC[C@H]2C(=O)NCCCCCCNC(=O)c2ccc(-c3c4nc(c(-c5c(F)c(F)c(F)c(F)c5F)c5ccc([nH]5)c(-c5c(F)c(F)c(F)c(F)c5F)c5nc(c(-c6c(F)c(F)c(F)c(F)c6F)c6ccc3[nH]6)C=C5)C=C4)cc2)ccc1[N+](=O)[O-]
REMARK SMILES IDX 16 1 15 2 14 3 13 4 11 5 12 6 10 8 5 9 6 10 7 11 9 12 8 13
REMARK SMILES IDX 4 14 2 15 3 16 88 17 87 18 86 19 1 20 89 23 90 24 91 25
REMARK SMILES IDX 17 26 18 27 19 28 20 29 21 30 22 32 23 33 24 34 85 35 25 36
REMARK SMILES IDX 84 37 26 38 27 39 28 40 78 41 29 42 83 43 77 44 79 45 30 46
REMARK SMILES IDX 82 47 76 48 75 49 31 51 63 52 43 53 62 54 44 55 47 56 61 57
REMARK SMILES IDX 80 58 45 59 46 60 60 62 81 63 48 64 32 65 33 66 41 67 34 68
REMARK SMILES IDX 35 69 39 70 42 71 36 72 37 73 40 74 38 75 64 76 65 77 73 78
REMARK SMILES IDX 66 79 67 80 71 81 74 82 68 83 69 84 72 85 70 86 49 87 50 88
REMARK SMILES IDX 58 89 51 90 52 91 56 92 59 93 53 94 54 95 57 96 55 97
REMARK H PARENT 13 7 1 21 1 22 20 31 79 50 47 61
REMARK Flexibility Score: inf
ROOT
ATOM      1  C   UNL     1      -1.525   5.352   4.665  1.00  0.00     0.002 C 
ENDROOT
BRANCH   1   2
ATOM      2  C   UNL     1      -1.897   4.404   3.521  1.00  0.00     0.021 C 
BRANCH   2   3
ATOM      3  C   UNL     1      -2.051   5.102   2.170  1.00  0.00     0.116 C 
BRANCH   3   4
ATOM      4  N   UNL     1      -0.859   4.962   1.365  1.00  0.00    -0.354 N 
ATOM      5  C   UNL     1      -0.579   4.242   0.245  1.00  0.00     0.245 C 
ATOM      6  O   UNL     1       0.571   4.399  -0.197  1.00  0.00    -0.273 OA
ATOM      7  H   UNL     1      -0.098   5.493   1.693  1.00  0.00     0.163 HD
BRANCH   5   8
ATOM      8  C   UNL     1      -1.586   3.366  -0.535  1.00  0.00     0.199 C 
ATOM      9  N   UNL     1      -2.024   2.105   0.108  1.00  0.00    -0.340 N 
ATOM     10  C   UNL     1      -3.267   2.102   0.866  1.00  0.00     0.147 C 
ATOM     11  C   UNL     1      -4.363   2.835   0.090  1.00  0.00     0.181 C 
ATOM     12  C   UNL     1      -2.789   4.160  -1.094  1.00  0.00     0.195 C 
ATOM     13  O   UNL     1      -3.963   4.165  -0.262  1.00  0.00    -0.377 OA
BRANCH   9  14
ATOM     14  C   UNL     1      -1.244   0.974   0.005  1.00  0.00     0.132 A 
ATOM     15  C   UNL     1       0.886  -0.011   0.020  1.00  0.00     0.204 A 
ATOM     16  N   UNL     1       0.099   1.094   0.046  1.00  0.00    -0.207 NA
ATOM     17  C   UNL     1       0.337  -1.286  -0.070  1.00  0.00     0.311 A 
ATOM     18  C   UNL     1      -1.044  -1.426  -0.184  1.00  0.00     0.093 A 
ATOM     19  C   UNL     1      -1.832  -0.282  -0.147  1.00  0.00     0.054 A 
BRANCH  15  20
ATOM     20  N   UNL     1       2.230   0.250   0.195  1.00  0.00    -0.378 N 
ATOM     21  H   UNL     1       2.548   1.180   0.251  1.00  0.00     0.158 HD
ATOM     22  H   UNL     1       2.871  -0.494   0.266  1.00  0.00     0.158 HD
ENDBRANCH  15  20
BRANCH  17  23
ATOM     23  N   UNL     1       1.161  -2.485  -0.052  1.00  0.00     0.066 N 
ATOM     24  O   UNL     1       0.621  -3.538   0.322  1.00  0.00    -0.258 OA
ATOM     25  O   UNL     1       2.336  -2.403  -0.442  1.00  0.00    -0.258 OA
ENDBRANCH  17  23
ENDBRANCH   9  14
ENDBRANCH   5   8
ENDBRANCH   3   4
ENDBRANCH   2   3
ENDBRANCH   1   2
BRANCH   1  26
ATOM     26  C   UNL     1      -2.598   6.389   5.024  1.00  0.00     0.002 C 
BRANCH  26  27
ATOM     27  C   UNL     1      -3.987   5.826   5.339  1.00  0.00     0.021 C 
BRANCH  27  28
ATOM     28  C   UNL     1      -4.023   4.781   6.451  1.00  0.00     0.116 C 
BRANCH  28  29
ATOM     29  N   UNL     1      -3.541   5.310   7.716  1.00  0.00    -0.352 N 
ATOM     30  C   UNL     1      -4.172   5.396   8.931  1.00  0.00     0.251 C 
ATOM     31  H   UNL     1      -2.621   5.659   7.698  1.00  0.00     0.163 HD
ATOM     32  O   UNL     1      -3.678   6.060   9.836  1.00  0.00    -0.269 OA
BRANCH  30  33
ATOM     33  C   UNL     1      -5.455   4.697   9.152  1.00  0.00     0.039 A 
ATOM     34  C   UNL     1      -6.481   5.366   9.825  1.00  0.00     0.014 A 
ATOM     35  C   UNL     1      -5.635   3.376   8.733  1.00  0.00     0.014 A 
ATOM     36  C   UNL     1      -7.706   4.729  10.032  1.00  0.00     0.010 A 
ATOM     37  C   UNL     1      -6.877   2.765   8.880  1.00  0.00     0.010 A 
ATOM     38  C   UNL     1      -7.921   3.432   9.538  1.00  0.00    -0.014 A 
BRANCH  38  39
ATOM     39  C   UNL     1      -9.227   2.751   9.713  1.00  0.00     0.031 A 
ATOM     40  C   UNL     1      -9.327   1.523  10.573  1.00  0.00     0.074 A 
ATOM     41  C   UNL     1     -10.308   3.203   9.051  1.00  0.00     0.049 A 
ATOM     42  N   UNL     1     -10.361   0.753  10.803  1.00  0.00    -0.248 NA
ATOM     43  C   UNL     1      -8.092   1.087  11.242  1.00  0.00     0.031 C 
ATOM     44  C   UNL     1     -10.329   4.364   8.162  1.00  0.00     0.029 A 
ATOM     45  N   UNL     1     -11.598   2.736   9.021  1.00  0.00    -0.354 N 
ATOM     46  C   UNL     1      -9.898  -0.262  11.630  1.00  0.00     0.074 A 
ATOM     47  C   UNL     1      -8.479  -0.043  11.813  1.00  0.00     0.031 C 
ATOM     48  C   UNL     1     -11.577   4.538   7.698  1.00  0.00     0.029 A 
ATOM     49  C   UNL     1     -12.434   3.482   8.228  1.00  0.00     0.049 A 
ATOM     50  H   UNL     1     -11.896   1.941   9.521  1.00  0.00     0.167 HD
ATOM     51  C   UNL     1     -10.597  -1.270  12.205  1.00  0.00     0.037 A 
ATOM     52  C   UNL     1     -13.745   3.329   7.962  1.00  0.00     0.037 A 
ATOM     53  C   UNL     1     -12.012  -1.474  12.033  1.00  0.00     0.049 A 
ATOM     54  C   UNL     1     -14.494   2.187   8.589  1.00  0.00     0.074 A 
ATOM     55  C   UNL     1     -12.825  -2.432  12.611  1.00  0.00     0.029 A 
ATOM     56  N   UNL     1     -12.825  -0.702  11.215  1.00  0.00    -0.354 N 
ATOM     57  N   UNL     1     -14.061   1.267   9.416  1.00  0.00    -0.248 NA
ATOM     58  C   UNL     1     -15.918   2.064   8.246  1.00  0.00     0.031 C 
ATOM     59  C   UNL     1     -14.121  -2.268  12.109  1.00  0.00     0.029 A 
ATOM     60  C   UNL     1     -14.126  -1.177  11.254  1.00  0.00     0.049 A 
ATOM     61  H   UNL     1     -12.521   0.070  10.685  1.00  0.00     0.167 HD
ATOM     62  C   UNL     1     -15.161   0.475   9.717  1.00  0.00     0.074 A 
ATOM     63  C   UNL     1     -16.284   1.029   8.989  1.00  0.00     0.031 C 
ATOM     64  C   UNL     1     -15.233  -0.611  10.526  1.00  0.00     0.037 A 
BRANCH  51  65
ATOM     65  C   UNL     1      -9.830  -2.231  13.069  1.00  0.00     0.064 A 
ATOM     66  C   UNL     1      -9.283  -1.837  14.301  1.00  0.00     0.173 A 
ATOM     67  C   UNL     1      -9.633  -3.558  12.660  1.00  0.00     0.173 A 
ATOM     68  F   UNL     1      -9.431  -0.576  14.733  1.00  0.00    -0.203 F 
ATOM     69  C   UNL     1      -8.532  -2.723  15.069  1.00  0.00     0.198 A 
ATOM     70  C   UNL     1      -8.909  -4.451  13.447  1.00  0.00     0.198 A 
ATOM     71  F   UNL     1     -10.139  -3.990  11.495  1.00  0.00    -0.203 F 
ATOM     72  F   UNL     1      -7.964  -2.304  16.208  1.00  0.00    -0.200 F 
ATOM     73  C   UNL     1      -8.348  -4.030  14.643  1.00  0.00     0.200 A 
ATOM     74  F   UNL     1      -8.743  -5.717  13.040  1.00  0.00    -0.200 F 
ATOM     75  F   UNL     1      -7.621  -4.880  15.380  1.00  0.00    -0.200 F 
ENDBRANCH  51  65
BRANCH  52  76
ATOM     76  C   UNL     1     -14.439   4.315   7.096  1.00  0.00     0.064 A 
ATOM     77  C   UNL     1     -15.351   5.227   7.646  1.00  0.00     0.173 A 
ATOM     78  C   UNL     1     -14.197   4.384   5.717  1.00  0.00     0.173 A 
ATOM     79  F   UNL     1     -15.629   5.185   8.958  1.00  0.00    -0.203 F 
ATOM     80  C   UNL     1     -16.002   6.164   6.848  1.00  0.00     0.198 A 
ATOM     81  C   UNL     1     -14.831   5.338   4.923  1.00  0.00     0.198 A 
ATOM     82  F   UNL     1     -13.330   3.537   5.144  1.00  0.00    -0.203 F 
ATOM     83  F   UNL     1     -16.893   7.003   7.395  1.00  0.00    -0.200 F 
ATOM     84  C   UNL     1     -15.736   6.224   5.489  1.00  0.00     0.200 A 
ATOM     85  F   UNL     1     -14.562   5.402   3.612  1.00  0.00    -0.200 F 
ATOM     86  F   UNL     1     -16.355   7.132   4.723  1.00  0.00    -0.200 F 
ENDBRANCH  52  76
BRANCH  64  87
ATOM     87  C   UNL     1     -16.581  -1.251  10.694  1.00  0.00     0.064 A 
ATOM     88  C   UNL     1     -17.171  -2.003   9.668  1.00  0.00     0.173 A 
ATOM     89  C   UNL     1     -17.272  -1.138  11.910  1.00  0.00     0.173 A 
ATOM     90  F   UNL     1     -16.558  -2.126   8.482  1.00  0.00    -0.203 F 
ATOM     91  C   UNL     1     -18.417  -2.600   9.846  1.00  0.00     0.198 A 
ATOM     92  C   UNL     1     -18.504  -1.760  12.094  1.00  0.00     0.198 A 
ATOM     93  F   UNL     1     -16.748  -0.433  12.924  1.00  0.00    -0.203 F 
ATOM     94  F   UNL     1     -18.984  -3.275   8.837  1.00  0.00    -0.200 F 
ATOM     95  C   UNL     1     -19.078  -2.484  11.060  1.00  0.00     0.200 A 
ATOM     96  F   UNL     1     -19.136  -1.657  13.271  1.00  0.00    -0.200 F 
ATOM     97  F   UNL     1     -20.274  -3.064  11.231  1.00  0.00    -0.200 F 
ENDBRANCH  64  87
ENDBRANCH  38  39
ENDBRANCH  30  33
ENDBRANCH  28  29
ENDBRANCH  27  28
ENDBRANCH  26  27
ENDBRANCH   1  26
TORSDOF 16
