REMARK SMILES C[C@H]1CC[C@H]([N@@H+](CC(=O)NCCCCCCNC(=O)c2ccc(-c3c4nc(c(-c5c(F)c(F)c(F)c(F)c5F)c5ccc([nH]5)c(-c5c(F)c(F)c(F)c(F)c5F)c5nc(c(-c6c(F)c(F)c(F)c(F)c6F)c6ccc3[nH]6)C=C5)C=C4)cc2)C(C)(C)C)C[C@@H]1C
REMARK SMILES IDX 13 1 12 2 11 3 10 4 8 5 9 6 7 8 6 9 5 11 1 12 2 13 3 14
REMARK SMILES IDX 88 15 4 16 87 17 89 18 83 19 84 20 85 21 86 22 14 23 15 24
REMARK SMILES IDX 16 25 17 26 18 27 19 29 20 30 21 31 82 32 22 33 81 34 23 35
REMARK SMILES IDX 24 36 25 37 75 38 26 39 80 40 74 41 76 42 27 43 79 44 73 45
REMARK SMILES IDX 72 46 28 48 60 49 40 50 59 51 41 52 44 53 58 54 77 55 42 56
REMARK SMILES IDX 43 57 57 59 78 60 45 61 29 62 30 63 38 64 31 65 32 66 36 67
REMARK SMILES IDX 39 68 33 69 34 70 37 71 35 72 61 73 62 74 70 75 63 76 64 77
REMARK SMILES IDX 68 78 71 79 65 80 66 81 69 82 67 83 46 84 47 85 55 86 48 87
REMARK SMILES IDX 49 88 53 89 56 90 50 91 51 92 54 93 52 94
REMARK H PARENT 10 7 6 10 17 28 76 47 44 58
REMARK Flexibility Score: inf
ROOT
ATOM      1  C   UNL     1      -2.487  -0.383   2.679  1.00  0.00     0.002 C 
ENDROOT
BRANCH   1   2
ATOM      2  C   UNL     1      -2.658  -1.757   2.001  1.00  0.00     0.021 C 
BRANCH   2   3
ATOM      3  C   UNL     1      -3.700  -1.846   0.865  1.00  0.00     0.116 C 
BRANCH   3   4
ATOM      4  N   UNL     1      -3.726  -0.720  -0.056  1.00  0.00    -0.351 N 
ATOM      5  C   UNL     1      -3.659  -0.637  -1.420  1.00  0.00     0.275 C 
ATOM      6  O   UNL     1      -4.034   0.431  -1.913  1.00  0.00    -0.269 OA
ATOM      7  H   UNL     1      -3.809   0.154   0.389  1.00  0.00     0.163 HD
BRANCH   5   8
ATOM      8  C   UNL     1      -3.128  -1.789  -2.294  1.00  0.00     0.364 C 
BRANCH   8   9
ATOM      9  N   UNL     1      -1.712  -1.634  -2.749  1.00  0.00    -0.321 N 
ATOM     10  H   UNL     1      -1.399  -2.520  -3.147  1.00  0.00     0.349 HD
BRANCH   9  11
ATOM     11  C   UNL     1      -0.812  -1.454  -1.596  1.00  0.00     0.185 C 
ATOM     12  C   UNL     1       1.898  -0.874   1.727  1.00  0.00     0.008 C 
ATOM     13  C   UNL     1       1.403  -0.823   0.279  1.00  0.00    -0.011 C 
ATOM     14  C   UNL     1       1.128  -2.266  -0.204  1.00  0.00     0.010 C 
ATOM     15  C   UNL     1       0.154   0.071   0.139  1.00  0.00    -0.006 C 
ATOM     16  C   UNL     1       0.445  -2.343  -1.577  1.00  0.00     0.065 C 
ATOM     17  C   UNL     1      -0.427  -0.008  -1.270  1.00  0.00     0.068 C 
ATOM     18  C   UNL     1       0.368   1.532   0.534  1.00  0.00     0.008 C 
ENDBRANCH   9  11
BRANCH   9  19
ATOM     19  C   UNL     1      -1.458  -0.956  -4.054  1.00  0.00     0.090 C 
ATOM     20  C   UNL     1      -1.746   0.560  -4.108  1.00  0.00     0.078 C 
ATOM     21  C   UNL     1       0.004  -1.161  -4.519  1.00  0.00     0.078 C 
ATOM     22  C   UNL     1      -2.324  -1.600  -5.172  1.00  0.00     0.078 C 
ENDBRANCH   9  19
ENDBRANCH   8   9
ENDBRANCH   5   8
ENDBRANCH   3   4
ENDBRANCH   2   3
ENDBRANCH   1   2
BRANCH   1  23
ATOM     23  C   UNL     1      -2.861  -0.307   4.162  1.00  0.00     0.002 C 
BRANCH  23  24
ATOM     24  C   UNL     1      -1.999  -1.137   5.117  1.00  0.00     0.021 C 
BRANCH  24  25
ATOM     25  C   UNL     1      -0.501  -0.837   5.122  1.00  0.00     0.116 C 
BRANCH  25  26
ATOM     26  N   UNL     1      -0.149   0.462   5.675  1.00  0.00    -0.352 N 
ATOM     27  C   UNL     1       0.817   0.760   6.612  1.00  0.00     0.251 C 
ATOM     28  H   UNL     1      -0.667   1.227   5.335  1.00  0.00     0.163 HD
ATOM     29  O   UNL     1       0.978   1.907   7.016  1.00  0.00    -0.269 OA
BRANCH  27  30
ATOM     30  C   UNL     1       1.629  -0.338   7.178  1.00  0.00     0.039 A 
ATOM     31  C   UNL     1       1.573  -0.567   8.553  1.00  0.00     0.014 A 
ATOM     32  C   UNL     1       2.368  -1.185   6.345  1.00  0.00     0.014 A 
ATOM     33  C   UNL     1       2.184  -1.703   9.085  1.00  0.00     0.010 A 
ATOM     34  C   UNL     1       2.926  -2.350   6.870  1.00  0.00     0.010 A 
ATOM     35  C   UNL     1       2.825  -2.630   8.242  1.00  0.00    -0.014 A 
BRANCH  35  36
ATOM     36  C   UNL     1       3.335  -3.908   8.803  1.00  0.00     0.031 A 
ATOM     37  C   UNL     1       4.808  -4.196   8.854  1.00  0.00     0.074 A 
ATOM     38  C   UNL     1       2.457  -4.822   9.262  1.00  0.00     0.049 A 
ATOM     39  N   UNL     1       5.432  -5.209   9.402  1.00  0.00    -0.248 NA
ATOM     40  C   UNL     1       5.695  -3.233   8.186  1.00  0.00     0.031 C 
ATOM     41  C   UNL     1       0.999  -4.700   9.195  1.00  0.00     0.029 A 
ATOM     42  N   UNL     1       2.659  -6.029   9.885  1.00  0.00    -0.354 N 
ATOM     43  C   UNL     1       6.781  -5.001   9.153  1.00  0.00     0.074 A 
ATOM     44  C   UNL     1       6.881  -3.802   8.349  1.00  0.00     0.031 C 
ATOM     45  C   UNL     1       0.440  -5.764   9.793  1.00  0.00     0.029 A 
ATOM     46  C   UNL     1       1.496  -6.650  10.273  1.00  0.00     0.049 A 
ATOM     47  H   UNL     1       3.553  -6.412  10.040  1.00  0.00     0.167 HD
ATOM     48  C   UNL     1       7.842  -5.727   9.581  1.00  0.00     0.037 A 
ATOM     49  C   UNL     1       1.304  -7.794  10.957  1.00  0.00     0.037 A 
ATOM     50  C   UNL     1       7.741  -6.917  10.386  1.00  0.00     0.049 A 
ATOM     51  C   UNL     1       2.500  -8.568  11.443  1.00  0.00     0.074 A 
ATOM     52  C   UNL     1       8.758  -7.690  10.918  1.00  0.00     0.029 A 
ATOM     53  N   UNL     1       6.547  -7.510  10.770  1.00  0.00    -0.354 N 
ATOM     54  N   UNL     1       3.775  -8.304  11.292  1.00  0.00    -0.248 NA
ATOM     55  C   UNL     1       2.227  -9.789  12.214  1.00  0.00     0.031 C 
ATOM     56  C   UNL     1       8.181  -8.776  11.587  1.00  0.00     0.029 A 
ATOM     57  C   UNL     1       6.803  -8.652  11.514  1.00  0.00     0.049 A 
ATOM     58  H   UNL     1       5.651  -7.170  10.547  1.00  0.00     0.167 HD
ATOM     59  C   UNL     1       4.455  -9.311  11.963  1.00  0.00     0.074 A 
ATOM     60  C   UNL     1       3.450 -10.175  12.547  1.00  0.00     0.031 C 
ATOM     61  C   UNL     1       5.791  -9.506  12.083  1.00  0.00     0.037 A 
BRANCH  48  62
ATOM     62  C   UNL     1       9.210  -5.244   9.192  1.00  0.00     0.064 A 
ATOM     63  C   UNL     1       9.754  -4.071   9.738  1.00  0.00     0.173 A 
ATOM     64  C   UNL     1       9.997  -5.973   8.289  1.00  0.00     0.173 A 
ATOM     65  F   UNL     1       9.037  -3.331  10.598  1.00  0.00    -0.203 F 
ATOM     66  C   UNL     1      11.023  -3.631   9.372  1.00  0.00     0.198 A 
ATOM     67  C   UNL     1      11.278  -5.545   7.947  1.00  0.00     0.198 A 
ATOM     68  F   UNL     1       9.527  -7.104   7.742  1.00  0.00    -0.203 F 
ATOM     69  F   UNL     1      11.501  -2.482   9.869  1.00  0.00    -0.200 F 
ATOM     70  C   UNL     1      11.786  -4.371   8.482  1.00  0.00     0.200 A 
ATOM     71  F   UNL     1      12.019  -6.268   7.096  1.00  0.00    -0.200 F 
ATOM     72  F   UNL     1      13.009  -3.949   8.134  1.00  0.00    -0.200 F 
ENDBRANCH  48  62
BRANCH  49  73
ATOM     73  C   UNL     1      -0.075  -8.251  11.272  1.00  0.00     0.064 A 
ATOM     74  C   UNL     1      -0.560  -8.226  12.588  1.00  0.00     0.173 A 
ATOM     75  C   UNL     1      -0.931  -8.732  10.271  1.00  0.00     0.173 A 
ATOM     76  F   UNL     1       0.228  -7.793  13.584  1.00  0.00    -0.203 F 
ATOM     77  C   UNL     1      -1.839  -8.687  12.894  1.00  0.00     0.198 A 
ATOM     78  C   UNL     1      -2.220  -9.166  10.574  1.00  0.00     0.198 A 
ATOM     79  F   UNL     1      -0.518  -8.771   8.996  1.00  0.00    -0.203 F 
ATOM     80  F   UNL     1      -2.258  -8.697  14.166  1.00  0.00    -0.200 F 
ATOM     81  C   UNL     1      -2.669  -9.152  11.886  1.00  0.00     0.200 A 
ATOM     82  F   UNL     1      -3.025  -9.602   9.596  1.00  0.00    -0.200 F 
ATOM     83  F   UNL     1      -3.900  -9.594  12.180  1.00  0.00    -0.200 F 
ENDBRANCH  49  73
BRANCH  61  84
ATOM     84  C   UNL     1       6.238 -10.693  12.888  1.00  0.00     0.064 A 
ATOM     85  C   UNL     1       6.064 -12.005  12.421  1.00  0.00     0.173 A 
ATOM     86  C   UNL     1       6.853 -10.516  14.136  1.00  0.00     0.173 A 
ATOM     87  F   UNL     1       5.467 -12.228  11.241  1.00  0.00    -0.203 F 
ATOM     88  C   UNL     1       6.455 -13.097  13.192  1.00  0.00     0.198 A 
ATOM     89  C   UNL     1       7.272 -11.610  14.890  1.00  0.00     0.198 A 
ATOM     90  F   UNL     1       7.050  -9.283  14.626  1.00  0.00    -0.203 F 
ATOM     91  F   UNL     1       6.222 -14.341  12.753  1.00  0.00    -0.200 F 
ATOM     92  C   UNL     1       7.062 -12.898  14.423  1.00  0.00     0.200 A 
ATOM     93  F   UNL     1       7.870 -11.416  16.073  1.00  0.00    -0.200 F 
ATOM     94  F   UNL     1       7.435 -13.950  15.164  1.00  0.00    -0.200 F 
ENDBRANCH  61  84
ENDBRANCH  35  36
ENDBRANCH  27  30
ENDBRANCH  25  26
ENDBRANCH  24  25
ENDBRANCH  23  24
ENDBRANCH   1  23
TORSDOF 16
