REMARK SMILES CCOc1ccc(-c2cc(Cl)cc3c2O[C@H](C(F)(F)F)C(C(=O)NCCCCCCNC(=O)c2ccc(-c4c5nc(c(-c6c(F)c(F)c(F)c(F)c6F)c6ccc([nH]6)c(-c6c(F)c(F)c(F)c(F)c6F)c6nc(c(-c7c(F)c(F)c(F)c(F)c7F)c7ccc4[nH]7)C=C6)C=C5)cc2)=C3)cc1
REMARK SMILES IDX 27 1 26 2 25 3 24 4 22 5 23 6 21 8 8 9 9 10 14 11 10 12
REMARK SMILES IDX 13 13 15 14 11 15 12 16 97 17 16 18 7 19 4 20 5 21 99 22
REMARK SMILES IDX 6 23 98 24 3 25 2 26 1 27 17 28 18 29 19 30 20 31 28 32
REMARK SMILES IDX 29 33 30 34 31 35 32 36 33 38 34 39 35 40 96 41 36 42 95 43
REMARK SMILES IDX 37 44 38 45 39 46 89 47 40 48 94 49 88 50 90 51 41 52 93 53
REMARK SMILES IDX 87 54 86 55 42 57 74 58 54 59 73 60 55 61 58 62 72 63 91 64
REMARK SMILES IDX 56 65 57 66 71 68 92 69 59 70 43 71 44 72 52 73 45 74 46 75
REMARK SMILES IDX 50 76 53 77 47 78 48 79 51 80 49 81 75 82 76 83 84 84 77 85
REMARK SMILES IDX 78 86 82 87 85 88 79 89 80 90 83 91 81 92 60 93 61 94 69 95
REMARK SMILES IDX 62 96 63 97 67 98 70 99 64 100 65 101 68 102 66 103
REMARK H PARENT 24 7 31 37 90 56 58 67
REMARK Flexibility Score: inf
ROOT
ATOM      1  C   UNL     1      14.776   3.595  -6.410  1.00  0.00     0.002 C 
ENDROOT
BRANCH   1   2
ATOM      2  C   UNL     1      13.694   2.622  -6.909  1.00  0.00     0.021 C 
BRANCH   2   3
ATOM      3  C   UNL     1      13.105   1.705  -5.827  1.00  0.00     0.116 C 
BRANCH   3   4
ATOM      4  N   UNL     1      12.482   2.503  -4.790  1.00  0.00    -0.352 N 
ATOM      5  C   UNL     1      11.150   2.498  -4.526  1.00  0.00     0.251 C 
ATOM      6  O   UNL     1      10.513   3.543  -4.514  1.00  0.00    -0.270 OA
ATOM      7  H   UNL     1      13.060   3.085  -4.245  1.00  0.00     0.163 HD
BRANCH   5   8
ATOM      8  C   UNL     1      10.573   1.187  -4.104  1.00  0.00     0.067 C 
ATOM      9  C   UNL     1       6.989   2.489  -2.687  1.00  0.00     0.026 A 
ATOM     10  C   UNL     1       7.229   3.624  -1.874  1.00  0.00     0.033 A 
ATOM     11  C   UNL     1       8.111   1.721  -3.039  1.00  0.00     0.135 A 
ATOM     12  C   UNL     1       8.476   3.885  -1.308  1.00  0.00     0.042 A 
ATOM     13  C   UNL     1       9.339   1.934  -2.366  1.00  0.00     0.019 A 
ATOM     14  O   UNL     1       8.087   0.776  -4.055  1.00  0.00    -0.475 OA
ATOM     15  Cl  UNL     1       8.697   5.289  -0.343  1.00  0.00    -0.084 Cl
ATOM     16  C   UNL     1       9.523   3.002  -1.495  1.00  0.00     0.032 A 
ATOM     17  C   UNL     1      10.491   1.092  -2.761  1.00  0.00     0.025 C 
ATOM     18  C   UNL     1       9.326   0.777  -4.880  1.00  0.00     0.314 C 
BRANCH   9  19
ATOM     19  C   UNL     1       5.564   2.122  -2.873  1.00  0.00    -0.014 A 
ATOM     20  C   UNL     1       2.828   1.740  -2.265  1.00  0.00     0.119 A 
ATOM     21  C   UNL     1       3.241   2.901  -2.912  1.00  0.00     0.047 A 
ATOM     22  C   UNL     1       3.743   0.717  -2.040  1.00  0.00     0.047 A 
ATOM     23  C   UNL     1       4.597   3.087  -3.220  1.00  0.00     0.013 A 
ATOM     24  C   UNL     1       5.099   0.905  -2.344  1.00  0.00     0.013 A 
BRANCH  20  25
ATOM     25  O   UNL     1       1.504   1.617  -1.946  1.00  0.00    -0.494 OA
BRANCH  25  26
ATOM     26  C   UNL     1       1.247   1.509  -0.537  1.00  0.00     0.226 C 
ATOM     27  C   UNL     1       1.024   0.062  -0.126  1.00  0.00     0.049 C 
ENDBRANCH  25  26
ENDBRANCH  20  25
ENDBRANCH   9  19
BRANCH  18  28
ATOM     28  C   UNL     1       9.586  -0.599  -5.530  1.00  0.00     0.429 C 
ATOM     29  F   UNL     1       8.900  -1.598  -4.931  1.00  0.00    -0.167 F 
ATOM     30  F   UNL     1       9.247  -0.594  -6.841  1.00  0.00    -0.167 F 
ATOM     31  F   UNL     1      10.899  -0.952  -5.484  1.00  0.00    -0.167 F 
ENDBRANCH  18  28
ENDBRANCH   5   8
ENDBRANCH   3   4
ENDBRANCH   2   3
ENDBRANCH   1   2
BRANCH   1  32
ATOM     32  C   UNL     1      15.966   2.935  -5.710  1.00  0.00     0.002 C 
BRANCH  32  33
ATOM     33  C   UNL     1      16.727   1.923  -6.565  1.00  0.00     0.021 C 
BRANCH  33  34
ATOM     34  C   UNL     1      17.243   2.471  -7.892  1.00  0.00     0.116 C 
BRANCH  34  35
ATOM     35  N   UNL     1      18.197   3.557  -7.717  1.00  0.00    -0.352 N 
ATOM     36  C   UNL     1      19.450   3.703  -8.259  1.00  0.00     0.251 C 
ATOM     37  H   UNL     1      17.902   4.290  -7.129  1.00  0.00     0.163 HD
ATOM     38  O   UNL     1      20.191   4.610  -7.894  1.00  0.00    -0.269 OA
BRANCH  36  39
ATOM     39  C   UNL     1      19.917   2.729  -9.266  1.00  0.00     0.039 A 
ATOM     40  C   UNL     1      21.152   2.104  -9.079  1.00  0.00     0.014 A 
ATOM     41  C   UNL     1      19.113   2.398 -10.360  1.00  0.00     0.014 A 
ATOM     42  C   UNL     1      21.541   1.077  -9.941  1.00  0.00     0.010 A 
ATOM     43  C   UNL     1      19.473   1.334 -11.180  1.00  0.00     0.010 A 
ATOM     44  C   UNL     1      20.680   0.650 -10.965  1.00  0.00    -0.014 A 
BRANCH  44  45
ATOM     45  C   UNL     1      20.991  -0.547 -11.787  1.00  0.00     0.031 A 
ATOM     46  C   UNL     1      21.223  -0.413 -13.264  1.00  0.00     0.074 A 
ATOM     47  C   UNL     1      20.966  -1.766 -11.210  1.00  0.00     0.049 A 
ATOM     48  N   UNL     1      21.388  -1.351 -14.162  1.00  0.00    -0.248 NA
ATOM     49  C   UNL     1      21.251   0.953 -13.808  1.00  0.00     0.031 C 
ATOM     50  C   UNL     1      20.716  -2.026  -9.791  1.00  0.00     0.029 A 
ATOM     51  N   UNL     1      21.134  -3.017 -11.751  1.00  0.00    -0.354 N 
ATOM     52  C   UNL     1      21.522  -0.691 -15.376  1.00  0.00     0.074 A 
ATOM     53  C   UNL     1      21.384   0.724 -15.107  1.00  0.00     0.031 C 
ATOM     54  C   UNL     1      20.758  -3.349  -9.572  1.00  0.00     0.029 A 
ATOM     55  C   UNL     1      20.990  -4.035 -10.839  1.00  0.00     0.049 A 
ATOM     56  H   UNL     1      21.338  -3.170 -12.701  1.00  0.00     0.167 HD
ATOM     57  C   UNL     1      21.752  -1.222 -16.600  1.00  0.00     0.037 A 
ATOM     58  C   UNL     1      21.018  -5.370 -11.010  1.00  0.00     0.037 A 
ATOM     59  C   UNL     1      21.919  -2.629 -16.856  1.00  0.00     0.049 A 
ATOM     60  C   UNL     1      21.240  -5.928 -12.390  1.00  0.00     0.074 A 
ATOM     61  C   UNL     1      22.246  -3.254 -18.047  1.00  0.00     0.029 A 
ATOM     62  N   UNL     1      21.762  -3.629 -15.909  1.00  0.00    -0.354 N 
ATOM     63  N   UNL     1      21.448  -5.292 -13.516  1.00  0.00    -0.248 NA
ATOM     64  C   UNL     1      21.225  -7.392 -12.523  1.00  0.00     0.031 C 
ATOM     65  C   UNL     1      22.231  -4.636 -17.834  1.00  0.00     0.029 A 
ATOM     66  C   UNL     1      21.945  -4.870 -16.499  1.00  0.00     0.049 A 
ATOM     67  H   UNL     1      21.552  -3.481 -14.959  1.00  0.00     0.167 HD
ATOM     68  C   UNL     1      21.613  -6.274 -14.484  1.00  0.00     0.074 A 
ATOM     69  C   UNL     1      21.500  -7.550 -13.809  1.00  0.00     0.031 C 
ATOM     70  C   UNL     1      21.833  -6.131 -15.813  1.00  0.00     0.037 A 
BRANCH  57  71
ATOM     71  C   UNL     1      21.839  -0.285 -17.768  1.00  0.00     0.064 A 
ATOM     72  C   UNL     1      22.943   0.560 -17.954  1.00  0.00     0.173 A 
ATOM     73  C   UNL     1      20.842  -0.291 -18.755  1.00  0.00     0.173 A 
ATOM     74  F   UNL     1      23.919   0.609 -17.035  1.00  0.00    -0.203 F 
ATOM     75  C   UNL     1      23.038   1.377 -19.078  1.00  0.00     0.198 A 
ATOM     76  C   UNL     1      20.953   0.507 -19.891  1.00  0.00     0.198 A 
ATOM     77  F   UNL     1      19.769  -1.086 -18.628  1.00  0.00    -0.203 F 
ATOM     78  F   UNL     1      24.086   2.199 -19.220  1.00  0.00    -0.200 F 
ATOM     79  C   UNL     1      22.048   1.342 -20.050  1.00  0.00     0.200 A 
ATOM     80  F   UNL     1      20.003   0.462 -20.835  1.00  0.00    -0.200 F 
ATOM     81  F   UNL     1      22.150   2.115 -21.140  1.00  0.00    -0.200 F 
ENDBRANCH  57  71
BRANCH  58  82
ATOM     82  C   UNL     1      20.824  -6.281  -9.850  1.00  0.00     0.064 A 
ATOM     83  C   UNL     1      21.871  -7.094  -9.393  1.00  0.00     0.173 A 
ATOM     84  C   UNL     1      19.587  -6.385  -9.198  1.00  0.00     0.173 A 
ATOM     85  F   UNL     1      23.067  -7.049 -10.000  1.00  0.00    -0.203 F 
ATOM     86  C   UNL     1      21.680  -7.996  -8.348  1.00  0.00     0.198 A 
ATOM     87  C   UNL     1      19.406  -7.264  -8.133  1.00  0.00     0.198 A 
ATOM     88  F   UNL     1      18.552  -5.629  -9.594  1.00  0.00    -0.203 F 
ATOM     89  F   UNL     1      22.682  -8.801  -7.971  1.00  0.00    -0.200 F 
ATOM     90  C   UNL     1      20.449  -8.077  -7.716  1.00  0.00     0.200 A 
ATOM     91  F   UNL     1      18.218  -7.330  -7.516  1.00  0.00    -0.200 F 
ATOM     92  F   UNL     1      20.265  -8.946  -6.713  1.00  0.00    -0.200 F 
ENDBRANCH  58  82
BRANCH  70  93
ATOM     93  C   UNL     1      21.989  -7.385 -16.623  1.00  0.00     0.064 A 
ATOM     94  C   UNL     1      20.895  -8.215 -16.907  1.00  0.00     0.173 A 
ATOM     95  C   UNL     1      23.238  -7.737 -17.157  1.00  0.00     0.173 A 
ATOM     96  F   UNL     1      19.684  -7.931 -16.404  1.00  0.00    -0.203 F 
ATOM     97  C   UNL     1      21.050  -9.364 -17.678  1.00  0.00     0.198 A 
ATOM     98  C   UNL     1      23.383  -8.870 -17.953  1.00  0.00     0.198 A 
ATOM     99  F   UNL     1      24.315  -6.974 -16.920  1.00  0.00    -0.203 F 
ATOM    100  F   UNL     1      20.000 -10.167 -17.898  1.00  0.00    -0.200 F 
ATOM    101  C   UNL     1      22.291  -9.685 -18.207  1.00  0.00     0.200 A 
ATOM    102  F   UNL     1      24.580  -9.171 -18.476  1.00  0.00    -0.200 F 
ATOM    103  F   UNL     1      22.436 -10.786 -18.958  1.00  0.00    -0.200 F 
ENDBRANCH  70  93
ENDBRANCH  44  45
ENDBRANCH  36  39
ENDBRANCH  34  35
ENDBRANCH  33  34
ENDBRANCH  32  33
ENDBRANCH   1  32
TORSDOF 17
