REMARK SMILES O=C(NCCCCCCNC(=O)[C@H]1CC=CC[C@H]1c1nc2ccccc2s1)c1ccc(-c2c3nc(c(-c4c(F)c(F)c(F)c(F)c4F)c4ccc([nH]4)c(-c4c(F)c(F)c(F)c(F)c4F)c4nc(c(-c5c(F)c(F)c(F)c(F)c5F)c5ccc2[nH]5)C=C4)C=C3)cc1
REMARK SMILES IDX 6 1 5 2 4 3 3 4 1 5 2 6 28 8 29 9 90 10 30 11 89 12 31 13
REMARK SMILES IDX 32 14 33 15 83 16 34 17 88 18 82 19 84 20 35 21 87 22 81 23
REMARK SMILES IDX 80 24 36 26 68 27 48 28 67 29 49 30 52 31 66 32 85 33 50 34
REMARK SMILES IDX 51 35 65 37 86 38 53 39 37 40 38 41 46 42 39 43 40 44 44 45
REMARK SMILES IDX 47 46 41 47 42 48 45 49 43 50 69 51 70 52 78 53 71 54 72 55
REMARK SMILES IDX 76 56 79 57 73 58 74 59 77 60 75 61 54 62 55 63 63 64 56 65
REMARK SMILES IDX 57 66 61 67 64 68 58 69 59 70 62 71 60 72 7 73 8 74 9 75
REMARK SMILES IDX 10 76 11 77 12 79 13 80 14 81 18 82 15 83 17 84 16 85 19 86
REMARK SMILES IDX 20 87 27 88 21 89 26 90 22 91 25 92 23 93 24 94
REMARK H PARENT 3 7 84 25 52 36 10 78
REMARK Flexibility Score: inf
ROOT
ATOM      1  C   UNL     1       3.741  -1.212   3.659  1.00  0.00     0.002 C 
ENDROOT
BRANCH   1   2
ATOM      2  C   UNL     1       4.464  -0.370   2.603  1.00  0.00     0.021 C 
BRANCH   2   3
ATOM      3  C   UNL     1       4.329  -0.870   1.168  1.00  0.00     0.116 C 
BRANCH   3   4
ATOM      4  N   UNL     1       2.941  -0.949   0.749  1.00  0.00    -0.352 N 
ATOM      5  O   UNL     1       1.028  -0.279  -0.222  1.00  0.00    -0.269 OA
ATOM      6  C   UNL     1       2.252  -0.219  -0.183  1.00  0.00     0.251 C 
ATOM      7  H   UNL     1       2.409  -1.638   1.209  1.00  0.00     0.163 HD
BRANCH   6   8
ATOM      8  C   UNL     1       2.969   0.642  -1.148  1.00  0.00     0.039 A 
ATOM      9  C   UNL     1       4.115   0.193  -1.811  1.00  0.00     0.014 A 
ATOM     10  C   UNL     1       2.424   1.891  -1.460  1.00  0.00     0.014 A 
ATOM     11  C   UNL     1       4.764   1.024  -2.722  1.00  0.00     0.010 A 
ATOM     12  C   UNL     1       3.039   2.699  -2.418  1.00  0.00     0.010 A 
ATOM     13  C   UNL     1       4.220   2.275  -3.048  1.00  0.00    -0.014 A 
BRANCH  13  14
ATOM     14  C   UNL     1       4.837   3.109  -4.107  1.00  0.00     0.031 A 
ATOM     15  C   UNL     1       5.465   4.428  -3.773  1.00  0.00     0.074 A 
ATOM     16  C   UNL     1       4.777   2.688  -5.384  1.00  0.00     0.049 A 
ATOM     17  N   UNL     1       5.960   5.335  -4.576  1.00  0.00    -0.248 NA
ATOM     18  C   UNL     1       5.534   4.782  -2.348  1.00  0.00     0.031 C 
ATOM     19  C   UNL     1       4.175   1.430  -5.826  1.00  0.00     0.029 A 
ATOM     20  N   UNL     1       5.207   3.279  -6.545  1.00  0.00    -0.354 N 
ATOM     21  C   UNL     1       6.377   6.377  -3.760  1.00  0.00     0.074 A 
ATOM     22  C   UNL     1       6.060   5.998  -2.398  1.00  0.00     0.031 C 
ATOM     23  C   UNL     1       4.272   1.342  -7.160  1.00  0.00     0.029 A 
ATOM     24  C   UNL     1       4.893   2.559  -7.670  1.00  0.00     0.049 A 
ATOM     25  H   UNL     1       5.693   4.135  -6.568  1.00  0.00     0.167 HD
ATOM     26  C   UNL     1       6.972   7.540  -4.119  1.00  0.00     0.037 A 
ATOM     27  C   UNL     1       5.054   2.861  -8.972  1.00  0.00     0.037 A 
ATOM     28  C   UNL     1       7.294   7.899  -5.476  1.00  0.00     0.049 A 
ATOM     29  C   UNL     1       5.697   4.163  -9.348  1.00  0.00     0.074 A 
ATOM     30  C   UNL     1       7.948   9.027  -5.939  1.00  0.00     0.029 A 
ATOM     31  N   UNL     1       6.972   7.137  -6.591  1.00  0.00    -0.354 N 
ATOM     32  N   UNL     1       6.132   5.122  -8.567  1.00  0.00    -0.248 NA
ATOM     33  C   UNL     1       5.874   4.428 -10.782  1.00  0.00     0.031 C 
ATOM     34  C   UNL     1       7.981   8.970  -7.337  1.00  0.00     0.029 A 
ATOM     35  C   UNL     1       7.390   7.784  -7.743  1.00  0.00     0.049 A 
ATOM     36  H   UNL     1       6.515   6.266  -6.567  1.00  0.00     0.167 HD
ATOM     37  C   UNL     1       6.649   6.095  -9.408  1.00  0.00     0.074 A 
ATOM     38  C   UNL     1       6.480   5.608 -10.762  1.00  0.00     0.031 C 
ATOM     39  C   UNL     1       7.215   7.283  -9.084  1.00  0.00     0.037 A 
BRANCH  26  40
ATOM     40  C   UNL     1       7.288   8.521  -3.028  1.00  0.00     0.064 A 
ATOM     41  C   UNL     1       8.307   8.287  -2.093  1.00  0.00     0.173 A 
ATOM     42  C   UNL     1       6.570   9.723  -2.927  1.00  0.00     0.173 A 
ATOM     43  F   UNL     1       9.016   7.149  -2.138  1.00  0.00    -0.203 F 
ATOM     44  C   UNL     1       8.573   9.204  -1.078  1.00  0.00     0.198 A 
ATOM     45  C   UNL     1       6.857  10.649  -1.928  1.00  0.00     0.198 A 
ATOM     46  F   UNL     1       5.589  10.000  -3.800  1.00  0.00    -0.203 F 
ATOM     47  F   UNL     1       9.516   8.934  -0.165  1.00  0.00    -0.200 F 
ATOM     48  C   UNL     1       7.851  10.385  -0.999  1.00  0.00     0.200 A 
ATOM     49  F   UNL     1       6.165  11.795  -1.860  1.00  0.00    -0.200 F 
ATOM     50  F   UNL     1       8.107  11.264  -0.021  1.00  0.00    -0.200 F 
ENDBRANCH  26  40
BRANCH  27  51
ATOM     51  C   UNL     1       4.578   1.900  -9.998  1.00  0.00     0.064 A 
ATOM     52  C   UNL     1       5.482   1.127 -10.737  1.00  0.00     0.173 A 
ATOM     53  C   UNL     1       3.207   1.686 -10.207  1.00  0.00     0.173 A 
ATOM     54  F   UNL     1       6.802   1.308 -10.582  1.00  0.00    -0.203 F 
ATOM     55  C   UNL     1       5.032   0.173 -11.648  1.00  0.00     0.198 A 
ATOM     56  C   UNL     1       2.759   0.715 -11.099  1.00  0.00     0.198 A 
ATOM     57  F   UNL     1       2.304   2.396  -9.516  1.00  0.00    -0.203 F 
ATOM     58  F   UNL     1       5.916  -0.543 -12.356  1.00  0.00    -0.200 F 
ATOM     59  C   UNL     1       3.672  -0.040 -11.820  1.00  0.00     0.200 A 
ATOM     60  F   UNL     1       1.445   0.500 -11.249  1.00  0.00    -0.200 F 
ATOM     61  F   UNL     1       3.241  -0.973 -12.679  1.00  0.00    -0.200 F 
ENDBRANCH  27  51
BRANCH  39  62
ATOM     62  C   UNL     1       7.723   8.133 -10.210  1.00  0.00     0.064 A 
ATOM     63  C   UNL     1       6.851   8.861 -11.030  1.00  0.00     0.173 A 
ATOM     64  C   UNL     1       9.103   8.271 -10.424  1.00  0.00     0.173 A 
ATOM     65  F   UNL     1       5.524   8.748 -10.873  1.00  0.00    -0.203 F 
ATOM     66  C   UNL     1       7.343   9.694 -12.032  1.00  0.00     0.198 A 
ATOM     67  C   UNL     1       9.591   9.122 -11.411  1.00  0.00     0.198 A 
ATOM     68  F   UNL     1       9.977   7.596  -9.662  1.00  0.00    -0.203 F 
ATOM     69  F   UNL     1       6.492  10.361 -12.824  1.00  0.00    -0.200 F 
ATOM     70  C   UNL     1       8.711   9.831 -12.215  1.00  0.00     0.200 A 
ATOM     71  F   UNL     1      10.913   9.261 -11.580  1.00  0.00    -0.200 F 
ATOM     72  F   UNL     1       9.182  10.644 -13.170  1.00  0.00    -0.200 F 
ENDBRANCH  39  62
ENDBRANCH  13  14
ENDBRANCH   6   8
ENDBRANCH   3   4
ENDBRANCH   2   3
ENDBRANCH   1   2
BRANCH   1  73
ATOM     73  C   UNL     1       4.121  -2.699   3.714  1.00  0.00     0.002 C 
BRANCH  73  74
ATOM     74  C   UNL     1       5.618  -3.008   3.761  1.00  0.00     0.021 C 
BRANCH  74  75
ATOM     75  C   UNL     1       6.369  -2.342   4.904  1.00  0.00     0.116 C 
BRANCH  75  76
ATOM     76  N   UNL     1       6.541  -3.176   6.064  1.00  0.00    -0.356 N 
ATOM     77  C   UNL     1       7.608  -3.406   6.858  1.00  0.00     0.224 C 
ATOM     78  H   UNL     1       5.731  -3.670   6.327  1.00  0.00     0.163 HD
ATOM     79  O   UNL     1       7.326  -3.907   7.959  1.00  0.00    -0.275 OA
BRANCH  77  80
ATOM     80  C   UNL     1       9.101  -3.232   6.519  1.00  0.00     0.092 C 
ATOM     81  C   UNL     1       9.703  -4.638   6.316  1.00  0.00     0.041 C 
ATOM     82  C   UNL     1       9.704  -2.228   5.508  1.00  0.00     0.065 C 
ATOM     83  C   UNL     1       9.725  -5.076   4.887  1.00  0.00    -0.030 C 
ATOM     84  C   UNL     1       9.722  -2.722   4.036  1.00  0.00     0.038 C 
ATOM     85  C   UNL     1       9.723  -4.213   3.865  1.00  0.00    -0.031 C 
BRANCH  82  86
ATOM     86  C   UNL     1       9.182  -0.812   5.667  1.00  0.00     0.098 A 
ATOM     87  N   UNL     1       8.567  -0.127   4.725  1.00  0.00    -0.241 NA
ATOM     88  S   UNL     1       9.343   0.018   7.168  1.00  0.00    -0.118 S 
ATOM     89  C   UNL     1       7.998   1.016   5.258  1.00  0.00     0.082 A 
ATOM     90  C   UNL     1       8.297   1.259   6.598  1.00  0.00     0.055 A 
ATOM     91  C   UNL     1       7.134   1.902   4.583  1.00  0.00     0.030 A 
ATOM     92  C   UNL     1       7.764   2.359   7.290  1.00  0.00     0.021 A 
ATOM     93  C   UNL     1       6.570   2.981   5.270  1.00  0.00     0.002 A 
ATOM     94  C   UNL     1       6.884   3.204   6.607  1.00  0.00     0.002 A 
ENDBRANCH  82  86
ENDBRANCH  77  80
ENDBRANCH  75  76
ENDBRANCH  74  75
ENDBRANCH  73  74
ENDBRANCH   1  73
TORSDOF 14
