REMARK SMILES C#CCN(CC(=O)NCCCCCCNC(=O)c1ccc(-c2c3nc(c(-c4c(F)c(F)c(F)c(F)c4F)c4ccc([nH]4)c(-c4c(F)c(F)c(F)c(F)c4F)c4nc(c(-c5c(F)c(F)c(F)c(F)c5F)c5ccc2[nH]5)C=C4)C=C3)cc1)C(=O)CCc1ccc(Cl)cc1Cl
REMARK SMILES IDX 10 1 9 2 8 3 6 4 7 5 5 7 4 8 3 9 2 10 1 11 81 12 82 13 83 14
REMARK SMILES IDX 84 15 85 16 86 17 91 18 87 19 90 20 92 21 88 22 89 23 11 24
REMARK SMILES IDX 12 25 13 26 14 27 15 28 16 29 17 31 18 32 19 33 80 34 20 35
REMARK SMILES IDX 79 36 21 37 22 38 23 39 73 40 24 41 78 42 72 43 74 44 25 45
REMARK SMILES IDX 77 46 71 47 70 48 26 50 58 51 38 52 57 53 39 54 42 55 56 56
REMARK SMILES IDX 75 57 40 58 41 59 55 61 76 62 43 63 27 64 28 65 36 66 29 67
REMARK SMILES IDX 30 68 34 69 37 70 31 71 32 72 35 73 33 74 59 75 60 76 68 77
REMARK SMILES IDX 61 78 62 79 66 80 69 81 63 82 64 83 67 84 65 85 44 86 45 87
REMARK SMILES IDX 53 88 46 89 47 90 51 91 54 92 48 93 49 94 52 95 50 96
REMARK H PARENT 8 6 15 30 74 49 42 60
REMARK Flexibility Score: inf
ROOT
ATOM      1  C   UNL     1      -5.178  -0.058  -1.853  1.00  0.00     0.021 C 
ENDROOT
BRANCH   1   2
ATOM      2  C   UNL     1      -5.308   0.273  -0.370  1.00  0.00     0.116 C 
BRANCH   2   3
ATOM      3  N   UNL     1      -5.730  -0.897   0.348  1.00  0.00    -0.355 N 
ATOM      4  C   UNL     1      -4.955  -1.752   1.052  1.00  0.00     0.239 C 
ATOM      5  O   UNL     1      -5.452  -2.819   1.417  1.00  0.00    -0.273 OA
ATOM      6  H   UNL     1      -6.694  -1.099   0.325  1.00  0.00     0.163 HD
BRANCH   4   7
ATOM      7  C   UNL     1      -3.535  -1.344   1.450  1.00  0.00     0.220 C 
BRANCH   7   8
ATOM      8  N   UNL     1      -2.468  -1.320   0.436  1.00  0.00    -0.322 N 
BRANCH   8   9
ATOM      9  C   UNL     1      -1.881  -0.009   0.082  1.00  0.00     0.209 C 
BRANCH   9  10
ATOM     10  C   UNL     1      -0.361  -0.009   0.082  1.00  0.00    -0.085 C 
ATOM     11  C   UNL     1       0.943  -0.009   0.082  1.00  0.00     0.006 C 
ENDBRANCH   9  10
ENDBRANCH   8   9
BRANCH   8  12
ATOM     12  C   UNL     1      -2.002  -2.464  -0.209  1.00  0.00     0.224 C 
ATOM     13  O   UNL     1      -1.287  -2.392  -1.213  1.00  0.00    -0.275 OA
BRANCH  12  14
ATOM     14  C   UNL     1      -2.347  -3.848   0.342  1.00  0.00     0.105 C 
BRANCH  14  15
ATOM     15  C   UNL     1      -1.359  -4.364   1.407  1.00  0.00     0.047 C 
BRANCH  15  16
ATOM     16  C   UNL     1      -1.497  -3.663   2.745  1.00  0.00    -0.029 A 
ATOM     17  C   UNL     1      -0.784  -2.464   2.935  1.00  0.00     0.007 A 
ATOM     18  C   UNL     1      -2.445  -4.042   3.716  1.00  0.00     0.045 A 
ATOM     19  C   UNL     1      -1.109  -1.600   3.983  1.00  0.00     0.021 A 
ATOM     20  C   UNL     1      -2.752  -3.186   4.781  1.00  0.00     0.041 A 
ATOM     21  Cl  UNL     1      -3.344  -5.510   3.593  1.00  0.00    -0.084 Cl
ATOM     22  C   UNL     1      -2.110  -1.954   4.884  1.00  0.00     0.042 A 
ATOM     23  Cl  UNL     1      -2.612  -0.824   6.080  1.00  0.00    -0.084 Cl
ENDBRANCH  15  16
ENDBRANCH  14  15
ENDBRANCH  12  14
ENDBRANCH   8  12
ENDBRANCH   7   8
ENDBRANCH   4   7
ENDBRANCH   2   3
ENDBRANCH   1   2
BRANCH   1  24
ATOM     24  C   UNL     1      -6.511  -0.480  -2.486  1.00  0.00     0.002 C 
BRANCH  24  25
ATOM     25  C   UNL     1      -7.678   0.466  -2.179  1.00  0.00     0.002 C 
BRANCH  25  26
ATOM     26  C   UNL     1      -7.391   1.934  -2.495  1.00  0.00     0.021 C 
BRANCH  26  27
ATOM     27  C   UNL     1      -7.015   2.172  -3.947  1.00  0.00     0.116 C 
BRANCH  27  28
ATOM     28  N   UNL     1      -8.117   1.842  -4.833  1.00  0.00    -0.352 N 
ATOM     29  C   UNL     1      -8.730   2.649  -5.757  1.00  0.00     0.251 C 
ATOM     30  H   UNL     1      -8.469   0.925  -4.761  1.00  0.00     0.163 HD
ATOM     31  O   UNL     1      -9.809   2.344  -6.243  1.00  0.00    -0.269 OA
BRANCH  29  32
ATOM     32  C   UNL     1      -8.059   3.905  -6.144  1.00  0.00     0.039 A 
ATOM     33  C   UNL     1      -8.803   5.083  -6.201  1.00  0.00     0.014 A 
ATOM     34  C   UNL     1      -6.689   3.909  -6.424  1.00  0.00     0.014 A 
ATOM     35  C   UNL     1      -8.158   6.282  -6.505  1.00  0.00     0.010 A 
ATOM     36  C   UNL     1      -6.035   5.114  -6.638  1.00  0.00     0.010 A 
ATOM     37  C   UNL     1      -6.767   6.309  -6.700  1.00  0.00    -0.014 A 
BRANCH  37  38
ATOM     38  C   UNL     1      -6.057   7.571  -7.018  1.00  0.00     0.031 A 
ATOM     39  C   UNL     1      -5.353   7.710  -8.340  1.00  0.00     0.074 A 
ATOM     40  C   UNL     1      -5.999   8.558  -6.104  1.00  0.00     0.049 A 
ATOM     41  N   UNL     1      -4.595   8.683  -8.777  1.00  0.00    -0.248 NA
ATOM     42  C   UNL     1      -5.497   6.592  -9.289  1.00  0.00     0.031 C 
ATOM     43  C   UNL     1      -6.614   8.521  -4.777  1.00  0.00     0.029 A 
ATOM     44  N   UNL     1      -5.382   9.783  -6.150  1.00  0.00    -0.354 N 
ATOM     45  C   UNL     1      -4.170   8.290 -10.039  1.00  0.00     0.074 A 
ATOM     46  C   UNL     1      -4.696   6.965 -10.275  1.00  0.00     0.031 C 
ATOM     47  C   UNL     1      -6.359   9.677  -4.142  1.00  0.00     0.029 A 
ATOM     48  C   UNL     1      -5.526  10.516  -4.997  1.00  0.00     0.049 A 
ATOM     49  H   UNL     1      -4.883  10.105  -6.935  1.00  0.00     0.167 HD
ATOM     50  C   UNL     1      -3.433   8.988 -10.934  1.00  0.00     0.037 A 
ATOM     51  C   UNL     1      -5.025  11.721  -4.667  1.00  0.00     0.037 A 
ATOM     52  C   UNL     1      -2.931  10.316 -10.703  1.00  0.00     0.049 A 
ATOM     53  C   UNL     1      -4.179  12.460  -5.673  1.00  0.00     0.074 A 
ATOM     54  C   UNL     1      -2.199  11.122 -11.556  1.00  0.00     0.029 A 
ATOM     55  N   UNL     1      -3.115  11.034  -9.530  1.00  0.00    -0.354 N 
ATOM     56  N   UNL     1      -3.829  12.101  -6.884  1.00  0.00    -0.248 NA
ATOM     57  C   UNL     1      -3.665  13.775  -5.267  1.00  0.00     0.031 C 
ATOM     58  C   UNL     1      -1.898  12.309 -10.883  1.00  0.00     0.029 A 
ATOM     59  C   UNL     1      -2.496  12.268  -9.633  1.00  0.00     0.049 A 
ATOM     60  H   UNL     1      -3.610  10.713  -8.742  1.00  0.00     0.167 HD
ATOM     61  C   UNL     1      -3.095  13.162  -7.399  1.00  0.00     0.074 A 
ATOM     62  C   UNL     1      -3.060  14.182  -6.373  1.00  0.00     0.031 C 
ATOM     63  C   UNL     1      -2.502  13.283  -8.612  1.00  0.00     0.037 A 
BRANCH  50  64
ATOM     64  C   UNL     1      -3.137   8.339 -12.255  1.00  0.00     0.064 A 
ATOM     65  C   UNL     1      -4.143   8.128 -13.210  1.00  0.00     0.173 A 
ATOM     66  C   UNL     1      -1.824   7.981 -12.596  1.00  0.00     0.173 A 
ATOM     67  F   UNL     1      -5.418   8.440 -12.928  1.00  0.00    -0.203 F 
ATOM     68  C   UNL     1      -3.850   7.566 -14.449  1.00  0.00     0.198 A 
ATOM     69  C   UNL     1      -1.529   7.449 -13.849  1.00  0.00     0.198 A 
ATOM     70  F   UNL     1      -0.823   8.164 -11.722  1.00  0.00    -0.203 F 
ATOM     71  F   UNL     1      -4.835   7.338 -15.329  1.00  0.00    -0.200 F 
ATOM     72  C   UNL     1      -2.542   7.238 -14.772  1.00  0.00     0.200 A 
ATOM     73  F   UNL     1      -0.262   7.147 -14.165  1.00  0.00    -0.200 F 
ATOM     74  F   UNL     1      -2.258   6.715 -15.973  1.00  0.00    -0.200 F 
ENDBRANCH  50  64
BRANCH  51  75
ATOM     75  C   UNL     1      -5.305  12.316  -3.332  1.00  0.00     0.064 A 
ATOM     76  C   UNL     1      -6.058  13.492  -3.208  1.00  0.00     0.173 A 
ATOM     77  C   UNL     1      -4.785  11.751  -2.157  1.00  0.00     0.173 A 
ATOM     78  F   UNL     1      -6.564  14.081  -4.301  1.00  0.00    -0.203 F 
ATOM     79  C   UNL     1      -6.242  14.105  -1.970  1.00  0.00     0.198 A 
ATOM     80  C   UNL     1      -5.001  12.344  -0.915  1.00  0.00     0.198 A 
ATOM     81  F   UNL     1      -4.065  10.621  -2.215  1.00  0.00    -0.203 F 
ATOM     82  F   UNL     1      -6.903  15.268  -1.892  1.00  0.00    -0.200 F 
ATOM     83  C   UNL     1      -5.715  13.529  -0.824  1.00  0.00     0.200 A 
ATOM     84  F   UNL     1      -4.505  11.774   0.192  1.00  0.00    -0.200 F 
ATOM     85  F   UNL     1      -5.883  14.123   0.365  1.00  0.00    -0.200 F 
ENDBRANCH  51  75
BRANCH  63  86
ATOM     86  C   UNL     1      -1.825  14.586  -8.926  1.00  0.00     0.064 A 
ATOM     87  C   UNL     1      -0.628  14.970  -8.305  1.00  0.00     0.173 A 
ATOM     88  C   UNL     1      -2.361  15.437  -9.906  1.00  0.00     0.173 A 
ATOM     89  F   UNL     1      -0.083  14.197  -7.353  1.00  0.00    -0.203 F 
ATOM     90  C   UNL     1      -0.007  16.172  -8.633  1.00  0.00     0.198 A 
ATOM     91  C   UNL     1      -1.718  16.620 -10.257  1.00  0.00     0.198 A 
ATOM     92  F   UNL     1      -3.499  15.112 -10.537  1.00  0.00    -0.203 F 
ATOM     93  F   UNL     1       1.109  16.543  -7.991  1.00  0.00    -0.200 F 
ATOM     94  C   UNL     1      -0.546  16.991  -9.615  1.00  0.00     0.200 A 
ATOM     95  F   UNL     1      -2.231  17.400 -11.218  1.00  0.00    -0.200 F 
ATOM     96  F   UNL     1       0.061  18.141  -9.938  1.00  0.00    -0.200 F 
ENDBRANCH  63  86
ENDBRANCH  37  38
ENDBRANCH  29  32
ENDBRANCH  27  28
ENDBRANCH  26  27
ENDBRANCH  25  26
ENDBRANCH  24  25
ENDBRANCH   1  24
TORSDOF 20
