REMARK SMILES O=C1C[C@@H](c2cccc(O)c2)c2c(c(C(=O)NCCCCCCNC(=O)c3ccc(-c4c5nc(c(-c6c(F)c(F)c(F)c(F)c6F)c6ccc([nH]6)c(-c6c(F)c(F)c(F)c(F)c6F)c6nc(c(-c7c(F)c(F)c(F)c(F)c7F)c7ccc4[nH]7)C=C6)C=C5)cc3)cn2-c2cccc(C(F)(F)F)c2)N1
REMARK SMILES IDX 20 1 19 2 18 3 17 4 15 5 16 6 14 8 1 9 2 10 3 11 102 12 4 13
REMARK SMILES IDX 13 14 12 16 91 17 90 18 5 19 6 20 11 21 7 22 9 23 8 24 10 25
REMARK SMILES IDX 92 27 93 28 101 29 94 30 96 31 95 32 97 33 98 34 99 35
REMARK SMILES IDX 100 36 21 37 22 38 23 39 24 40 25 41 26 43 27 44 28 45 89 46
REMARK SMILES IDX 29 47 88 48 30 49 31 50 32 51 82 52 33 53 87 54 81 55 83 56
REMARK SMILES IDX 34 57 86 58 80 59 79 60 35 62 67 63 47 64 66 65 48 66 51 67
REMARK SMILES IDX 65 68 84 69 49 70 50 71 64 73 85 74 52 75 36 76 37 77 45 78
REMARK SMILES IDX 38 79 39 80 43 81 46 82 40 83 41 84 44 85 42 86 68 87 69 88
REMARK SMILES IDX 77 89 70 90 71 91 75 92 78 93 72 94 73 95 76 96 74 97 53 98
REMARK SMILES IDX 54 99 62 100 55 101 56 102 60 103 63 104 57 105 58 106
REMARK SMILES IDX 61 107 59 108
REMARK H PARENT 17 7 102 15 10 26 24 42 83 61 51 72
REMARK Flexibility Score: inf
ROOT
ATOM      1  C   UNL     1       6.549  -5.764   4.945  1.00  0.00     0.002 C 
ENDROOT
BRANCH   1   2
ATOM      2  C   UNL     1       6.258  -4.265   4.968  1.00  0.00     0.021 C 
BRANCH   2   3
ATOM      3  C   UNL     1       6.603  -3.503   3.693  1.00  0.00     0.116 C 
BRANCH   3   4
ATOM      4  N   UNL     1       5.712  -3.799   2.592  1.00  0.00    -0.352 N 
ATOM      5  C   UNL     1       4.954  -2.994   1.777  1.00  0.00     0.254 C 
ATOM      6  O   UNL     1       4.218  -3.559   0.967  1.00  0.00    -0.269 OA
ATOM      7  H   UNL     1       5.633  -4.759   2.389  1.00  0.00     0.163 HD
BRANCH   5   8
ATOM      8  C   UNL     1       4.968  -1.536   1.876  1.00  0.00     0.081 A 
ATOM      9  O   UNL     1       1.380  -0.261  -1.025  1.00  0.00    -0.275 OA
ATOM     10  C   UNL     1       2.338   0.020  -0.306  1.00  0.00     0.225 C 
ATOM     11  C   UNL     1       2.922   1.429  -0.261  1.00  0.00     0.115 C 
ATOM     12  N   UNL     1       3.014  -0.954   0.388  1.00  0.00    -0.324 N 
ATOM     13  C   UNL     1       3.543   1.818   1.097  1.00  0.00     0.078 C 
ATOM     14  C   UNL     1       4.037  -0.661   1.258  1.00  0.00     0.076 A 
ATOM     15  H   UNL     1       2.756  -1.895   0.257  1.00  0.00     0.170 HD
ATOM     16  C   UNL     1       4.287   0.635   1.645  1.00  0.00     0.055 A 
ATOM     17  N   UNL     1       5.377   0.612   2.489  1.00  0.00    -0.317 N 
ATOM     18  C   UNL     1       5.893  -0.675   2.445  1.00  0.00     0.107 A 
BRANCH  13  19
ATOM     19  C   UNL     1       2.493   2.376   2.041  1.00  0.00    -0.035 A 
ATOM     20  C   UNL     1       1.466   1.581   2.578  1.00  0.00     0.005 A 
ATOM     21  C   UNL     1       2.576   3.721   2.436  1.00  0.00     0.050 A 
ATOM     22  C   UNL     1       0.578   2.107   3.518  1.00  0.00     0.004 A 
ATOM     23  C   UNL     1       1.707   4.223   3.398  1.00  0.00     0.115 A 
ATOM     24  C   UNL     1       0.707   3.428   3.943  1.00  0.00     0.046 A 
BRANCH  23  25
ATOM     25  O   UNL     1       1.907   5.504   3.818  1.00  0.00    -0.508 OA
ATOM     26  H   UNL     1       1.342   5.879   4.465  1.00  0.00     0.293 HD
ENDBRANCH  23  25
ENDBRANCH  13  19
BRANCH  17  27
ATOM     27  C   UNL     1       5.906   1.621   3.336  1.00  0.00     0.046 A 
ATOM     28  C   UNL     1       7.294   1.766   3.455  1.00  0.00     0.026 A 
ATOM     29  C   UNL     1       5.060   2.351   4.179  1.00  0.00     0.039 A 
ATOM     30  C   UNL     1       7.827   2.670   4.374  1.00  0.00     0.003 A 
ATOM     31  C   UNL     1       5.589   3.255   5.117  1.00  0.00     0.058 A 
ATOM     32  C   UNL     1       6.981   3.414   5.195  1.00  0.00     0.013 A 
BRANCH  31  33
ATOM     33  C   UNL     1       4.697   4.032   6.058  1.00  0.00     0.416 C 
ATOM     34  F   UNL     1       5.095   3.911   7.358  1.00  0.00    -0.166 F 
ATOM     35  F   UNL     1       4.695   5.367   5.798  1.00  0.00    -0.166 F 
ATOM     36  F   UNL     1       3.393   3.640   6.044  1.00  0.00    -0.166 F 
ENDBRANCH  31  33
ENDBRANCH  17  27
ENDBRANCH   5   8
ENDBRANCH   3   4
ENDBRANCH   2   3
ENDBRANCH   1   2
BRANCH   1  37
ATOM     37  C   UNL     1       7.955  -6.182   4.492  1.00  0.00     0.002 C 
BRANCH  37  38
ATOM     38  C   UNL     1       9.151  -5.475   5.149  1.00  0.00     0.021 C 
BRANCH  38  39
ATOM     39  C   UNL     1       9.314  -5.743   6.637  1.00  0.00     0.116 C 
BRANCH  39  40
ATOM     40  N   UNL     1       9.578  -7.153   6.929  1.00  0.00    -0.352 N 
ATOM     41  C   UNL     1       9.597  -7.807   8.146  1.00  0.00     0.251 C 
ATOM     42  H   UNL     1       9.768  -7.717   6.145  1.00  0.00     0.163 HD
ATOM     43  O   UNL     1      10.179  -8.875   8.279  1.00  0.00    -0.269 OA
BRANCH  41  44
ATOM     44  C   UNL     1       8.890  -7.205   9.288  1.00  0.00     0.039 A 
ATOM     45  C   UNL     1       9.373  -7.298  10.598  1.00  0.00     0.014 A 
ATOM     46  C   UNL     1       7.707  -6.530   9.017  1.00  0.00     0.014 A 
ATOM     47  C   UNL     1       8.678  -6.650  11.618  1.00  0.00     0.010 A 
ATOM     48  C   UNL     1       7.152  -5.726   9.967  1.00  0.00     0.010 A 
ATOM     49  C   UNL     1       7.569  -5.863  11.284  1.00  0.00    -0.014 A 
BRANCH  49  50
ATOM     50  C   UNL     1       6.817  -5.108  12.272  1.00  0.00     0.031 A 
ATOM     51  C   UNL     1       7.558  -3.981  12.895  1.00  0.00     0.074 A 
ATOM     52  C   UNL     1       5.471  -5.214  12.341  1.00  0.00     0.049 A 
ATOM     53  N   UNL     1       7.876  -3.824  14.136  1.00  0.00    -0.248 NA
ATOM     54  C   UNL     1       8.126  -2.958  12.002  1.00  0.00     0.031 C 
ATOM     55  C   UNL     1       4.574  -6.005  11.487  1.00  0.00     0.029 A 
ATOM     56  N   UNL     1       4.600  -4.514  13.110  1.00  0.00    -0.354 N 
ATOM     57  C   UNL     1       8.514  -2.587  14.214  1.00  0.00     0.074 A 
ATOM     58  C   UNL     1       8.829  -2.217  12.861  1.00  0.00     0.031 C 
ATOM     59  C   UNL     1       3.307  -5.557  11.625  1.00  0.00     0.029 A 
ATOM     60  C   UNL     1       3.277  -4.570  12.686  1.00  0.00     0.049 A 
ATOM     61  H   UNL     1       4.882  -4.006  13.905  1.00  0.00     0.167 HD
ATOM     62  C   UNL     1       8.489  -1.855  15.364  1.00  0.00     0.037 A 
ATOM     63  C   UNL     1       2.259  -3.804  13.153  1.00  0.00     0.037 A 
ATOM     64  C   UNL     1       8.089  -2.679  16.483  1.00  0.00     0.049 A 
ATOM     65  C   UNL     1       2.714  -3.215  14.441  1.00  0.00     0.074 A 
ATOM     66  C   UNL     1       8.569  -3.848  17.045  1.00  0.00     0.029 A 
ATOM     67  N   UNL     1       6.805  -2.551  16.957  1.00  0.00    -0.354 N 
ATOM     68  N   UNL     1       2.911  -3.907  15.529  1.00  0.00    -0.248 NA
ATOM     69  C   UNL     1       3.402  -1.933  14.383  1.00  0.00     0.031 C 
ATOM     70  C   UNL     1       7.403  -4.602  17.376  1.00  0.00     0.029 A 
ATOM     71  C   UNL     1       6.291  -3.817  17.076  1.00  0.00     0.049 A 
ATOM     72  H   UNL     1       6.342  -1.709  17.172  1.00  0.00     0.167 HD
ATOM     73  C   UNL     1       4.061  -3.369  16.086  1.00  0.00     0.074 A 
ATOM     74  C   UNL     1       4.274  -2.106  15.380  1.00  0.00     0.031 C 
ATOM     75  C   UNL     1       4.901  -4.131  16.846  1.00  0.00     0.037 A 
BRANCH  62  76
ATOM     76  C   UNL     1       8.442  -0.339  15.430  1.00  0.00     0.064 A 
ATOM     77  C   UNL     1       8.438   0.281  16.698  1.00  0.00     0.173 A 
ATOM     78  C   UNL     1       8.107   0.510  14.352  1.00  0.00     0.173 A 
ATOM     79  F   UNL     1       8.751  -0.415  17.802  1.00  0.00    -0.203 F 
ATOM     80  C   UNL     1       8.015   1.601  16.881  1.00  0.00     0.198 A 
ATOM     81  C   UNL     1       7.739   1.844  14.533  1.00  0.00     0.198 A 
ATOM     82  F   UNL     1       8.013   0.078  13.091  1.00  0.00    -0.203 F 
ATOM     83  F   UNL     1       7.890   2.091  18.121  1.00  0.00    -0.200 F 
ATOM     84  C   UNL     1       7.653   2.378  15.799  1.00  0.00     0.200 A 
ATOM     85  F   UNL     1       7.388   2.578  13.467  1.00  0.00    -0.200 F 
ATOM     86  F   UNL     1       7.181   3.618  15.975  1.00  0.00    -0.200 F 
ENDBRANCH  62  76
BRANCH  63  87
ATOM     87  C   UNL     1       1.053  -3.308  12.446  1.00  0.00     0.064 A 
ATOM     88  C   UNL     1      -0.024  -2.764  13.167  1.00  0.00     0.173 A 
ATOM     89  C   UNL     1       1.046  -3.089  11.055  1.00  0.00     0.173 A 
ATOM     90  F   UNL     1      -0.078  -2.898  14.501  1.00  0.00    -0.203 F 
ATOM     91  C   UNL     1      -1.022  -2.010  12.542  1.00  0.00     0.198 A 
ATOM     92  C   UNL     1       0.044  -2.343  10.431  1.00  0.00     0.198 A 
ATOM     93  F   UNL     1       2.061  -3.506  10.286  1.00  0.00    -0.203 F 
ATOM     94  F   UNL     1      -1.992  -1.446  13.276  1.00  0.00    -0.200 F 
ATOM     95  C   UNL     1      -0.980  -1.789  11.176  1.00  0.00     0.200 A 
ATOM     96  F   UNL     1       0.114  -2.108   9.112  1.00  0.00    -0.200 F 
ATOM     97  F   UNL     1      -1.896  -1.007  10.587  1.00  0.00    -0.200 F 
ENDBRANCH  63  87
BRANCH  75  98
ATOM     98  C   UNL     1       4.428  -5.493  17.276  1.00  0.00     0.064 A 
ATOM     99  C   UNL     1       4.077  -6.526  16.388  1.00  0.00     0.173 A 
ATOM    100  C   UNL     1       4.460  -5.806  18.641  1.00  0.00     0.173 A 
ATOM    101  F   UNL     1       4.128  -6.347  15.063  1.00  0.00    -0.203 F 
ATOM    102  C   UNL     1       3.720  -7.792  16.851  1.00  0.00     0.198 A 
ATOM    103  C   UNL     1       4.143  -7.082  19.099  1.00  0.00     0.198 A 
ATOM    104  F   UNL     1       4.843  -4.881  19.534  1.00  0.00    -0.203 F 
ATOM    105  F   UNL     1       3.369  -8.751  15.982  1.00  0.00    -0.200 F 
ATOM    106  C   UNL     1       3.759  -8.070  18.206  1.00  0.00     0.200 A 
ATOM    107  F   UNL     1       4.233  -7.361  20.406  1.00  0.00    -0.200 F 
ATOM    108  F   UNL     1       3.452  -9.297  18.651  1.00  0.00    -0.200 F 
ENDBRANCH  75  98
ENDBRANCH  49  50
ENDBRANCH  41  44
ENDBRANCH  39  40
ENDBRANCH  38  39
ENDBRANCH  37  38
ENDBRANCH   1  37
TORSDOF 17
