REMARK SMILES NS(=O)(=O)c1ccc(C#Cc2cc(Cl)cc3c2O[C@H](C(F)(F)F)C(C(=O)NCCCCCCNC(=O)c2ccc(-c4c5nc(c(-c6c(F)c(F)c(F)c(F)c6F)c6ccc([nH]6)c(-c6c(F)c(F)c(F)c(F)c6F)c6nc(c(-c7c(F)c(F)c(F)c(F)c7F)c7ccc4[nH]7)C=C6)C=C5)cc2)=C3)cc1
REMARK SMILES IDX 29 1 28 2 27 3 25 4 26 5 24 7 11 8 12 9 17 10 13 11 16 12
REMARK SMILES IDX 18 13 14 14 15 15 100 16 19 17 10 18 9 19 8 20 5 21 6 22
REMARK SMILES IDX 102 23 7 24 101 25 2 26 3 27 4 28 1 29 20 32 21 33 22 34
REMARK SMILES IDX 23 35 30 36 31 37 32 38 33 39 34 40 35 41 36 43 37 44 38 45
REMARK SMILES IDX 99 46 39 47 98 48 40 49 41 50 42 51 92 52 43 53 97 54 91 55
REMARK SMILES IDX 93 56 44 57 96 58 90 59 89 60 45 62 77 63 57 64 76 65 58 66
REMARK SMILES IDX 61 67 75 68 94 69 59 70 60 71 74 73 95 74 62 75 46 76 47 77
REMARK SMILES IDX 55 78 48 79 49 80 53 81 56 82 50 83 51 84 54 85 52 86 78 87
REMARK SMILES IDX 79 88 87 89 80 90 81 91 85 92 88 93 82 94 83 95 86 96 84 97
REMARK SMILES IDX 63 98 64 99 72 100 65 101 66 102 70 103 73 104 67 105 68 106
REMARK SMILES IDX 71 107 69 108
REMARK H PARENT 27 6 1 30 1 31 34 42 93 61 61 72
REMARK Flexibility Score: inf
ROOT
ATOM      1  C   UNL     1      -0.333  12.412   4.484  1.00  0.00     0.021 C 
ENDROOT
BRANCH   1   2
ATOM      2  C   UNL     1       1.173  12.186   4.500  1.00  0.00     0.116 C 
BRANCH   2   3
ATOM      3  N   UNL     1       1.749  12.497   5.796  1.00  0.00    -0.352 N 
ATOM      4  C   UNL     1       2.432  11.839   6.764  1.00  0.00     0.251 C 
ATOM      5  O   UNL     1       2.774  12.521   7.734  1.00  0.00    -0.270 OA
ATOM      6  H   UNL     1       1.605  13.441   6.037  1.00  0.00     0.163 HD
BRANCH   4   7
ATOM      7  C   UNL     1       2.774  10.387   6.723  1.00  0.00     0.067 C 
ATOM      8  C   UNL     1       3.436   6.237   6.824  1.00  0.00     0.069 A 
ATOM      9  C   UNL     1       4.152   5.674   7.878  1.00  0.00     0.041 A 
ATOM     10  C   UNL     1       3.212   7.620   6.805  1.00  0.00     0.143 A 
ATOM     11  C   UNL     1       4.616   6.494   8.908  1.00  0.00     0.043 A 
ATOM     12  C   UNL     1       3.657   8.440   7.846  1.00  0.00     0.020 A 
ATOM     13  O   UNL     1       2.498   8.110   5.751  1.00  0.00    -0.474 OA
ATOM     14  Cl  UNL     1       5.492   5.797  10.216  1.00  0.00    -0.084 Cl
ATOM     15  C   UNL     1       4.367   7.870   8.904  1.00  0.00     0.032 A 
ATOM     16  C   UNL     1       3.319   9.861   7.835  1.00  0.00     0.025 C 
ATOM     17  C   UNL     1       2.563   9.531   5.513  1.00  0.00     0.314 C 
BRANCH   8  18
ATOM     18  C   UNL     1       2.916   5.412   5.771  1.00  0.00    -0.058 C 
ATOM     19  C   UNL     1       2.444   4.788   4.856  1.00  0.00    -0.062 C 
BRANCH  19  20
ATOM     20  C   UNL     1       1.896   4.072   3.746  1.00  0.00     0.025 A 
ATOM     21  C   UNL     1       0.940   2.673   1.526  1.00  0.00     0.082 A 
ATOM     22  C   UNL     1       0.655   4.036   1.664  1.00  0.00     0.023 A 
ATOM     23  C   UNL     1       1.676   2.001   2.504  1.00  0.00     0.023 A 
ATOM     24  C   UNL     1       1.133   4.734   2.777  1.00  0.00     0.018 A 
ATOM     25  C   UNL     1       2.154   2.705   3.613  1.00  0.00     0.018 A 
BRANCH  21  26
ATOM     26  S   UNL     1       0.412   1.859   0.047  1.00  0.00     0.238 S 
ATOM     27  O   UNL     1       1.036   2.517  -1.077  1.00  0.00    -0.207 OA
ATOM     28  O   UNL     1      -1.011   1.633   0.134  1.00  0.00    -0.207 OA
BRANCH  26  29
ATOM     29  N   UNL     1       1.121   0.335   0.114  1.00  0.00    -0.225 NA
ATOM     30  H   UNL     1       0.860  -0.198  -0.715  1.00  0.00     0.137 HD
ATOM     31  H   UNL     1       0.798  -0.153   0.949  1.00  0.00     0.137 HD
ENDBRANCH  26  29
ENDBRANCH  21  26
ENDBRANCH  19  20
ENDBRANCH   8  18
BRANCH  17  32
ATOM     32  C   UNL     1       3.588   9.825   4.401  1.00  0.00     0.429 C 
ATOM     33  F   UNL     1       3.155   9.331   3.214  1.00  0.00    -0.167 F 
ATOM     34  F   UNL     1       3.785  11.151   4.209  1.00  0.00    -0.167 F 
ATOM     35  F   UNL     1       4.798   9.281   4.654  1.00  0.00    -0.167 F 
ENDBRANCH  17  32
ENDBRANCH   4   7
ENDBRANCH   2   3
ENDBRANCH   1   2
BRANCH   1  36
ATOM     36  C   UNL     1      -0.709  13.860   4.165  1.00  0.00     0.002 C 
BRANCH  36  37
ATOM     37  C   UNL     1      -0.125  14.396   2.849  1.00  0.00     0.002 C 
BRANCH  37  38
ATOM     38  C   UNL     1      -0.364  13.501   1.634  1.00  0.00     0.021 C 
BRANCH  38  39
ATOM     39  C   UNL     1      -1.836  13.235   1.357  1.00  0.00     0.116 C 
BRANCH  39  40
ATOM     40  N   UNL     1      -2.563  14.460   1.052  1.00  0.00    -0.352 N 
ATOM     41  C   UNL     1      -3.260  14.788  -0.085  1.00  0.00     0.251 C 
ATOM     42  H   UNL     1      -2.554  15.146   1.758  1.00  0.00     0.163 HD
ATOM     43  O   UNL     1      -3.653  15.931  -0.281  1.00  0.00    -0.269 OA
BRANCH  41  44
ATOM     44  C   UNL     1      -3.486  13.732  -1.089  1.00  0.00     0.039 A 
ATOM     45  C   UNL     1      -3.950  12.481  -0.678  1.00  0.00     0.014 A 
ATOM     46  C   UNL     1      -3.123  13.962  -2.416  1.00  0.00     0.014 A 
ATOM     47  C   UNL     1      -3.850  11.405  -1.546  1.00  0.00     0.010 A 
ATOM     48  C   UNL     1      -3.131  12.897  -3.317  1.00  0.00     0.010 A 
ATOM     49  C   UNL     1      -3.436  11.599  -2.874  1.00  0.00    -0.014 A 
BRANCH  49  50
ATOM     50  C   UNL     1      -3.316  10.434  -3.784  1.00  0.00     0.031 A 
ATOM     51  C   UNL     1      -1.986  10.058  -4.380  1.00  0.00     0.074 A 
ATOM     52  C   UNL     1      -4.409   9.695  -4.047  1.00  0.00     0.049 A 
ATOM     53  N   UNL     1      -1.707   9.115  -5.245  1.00  0.00    -0.248 NA
ATOM     54  C   UNL     1      -0.816  10.842  -3.954  1.00  0.00     0.031 C 
ATOM     55  C   UNL     1      -5.743   9.940  -3.496  1.00  0.00     0.029 A 
ATOM     56  N   UNL     1      -4.572   8.583  -4.832  1.00  0.00    -0.354 N 
ATOM     57  C   UNL     1      -0.340   9.203  -5.478  1.00  0.00     0.074 A 
ATOM     58  C   UNL     1       0.151  10.313  -4.691  1.00  0.00     0.031 C 
ATOM     59  C   UNL     1      -6.579   8.987  -3.929  1.00  0.00     0.029 A 
ATOM     60  C   UNL     1      -5.863   8.116  -4.853  1.00  0.00     0.049 A 
ATOM     61  H   UNL     1      -3.837   8.162  -5.332  1.00  0.00     0.167 HD
ATOM     62  C   UNL     1       0.432   8.418  -6.267  1.00  0.00     0.037 A 
ATOM     63  C   UNL     1      -6.419   7.118  -5.564  1.00  0.00     0.037 A 
ATOM     64  C   UNL     1      -0.067   7.306  -7.038  1.00  0.00     0.049 A 
ATOM     65  C   UNL     1      -5.554   6.320  -6.497  1.00  0.00     0.074 A 
ATOM     66  C   UNL     1       0.636   6.446  -7.864  1.00  0.00     0.029 A 
ATOM     67  N   UNL     1      -1.393   6.898  -7.077  1.00  0.00    -0.354 N 
ATOM     68  N   UNL     1      -4.266   6.415  -6.717  1.00  0.00    -0.248 NA
ATOM     69  C   UNL     1      -6.223   5.276  -7.283  1.00  0.00     0.031 C 
ATOM     70  C   UNL     1      -0.272   5.562  -8.453  1.00  0.00     0.029 A 
ATOM     71  C   UNL     1      -1.532   5.819  -7.937  1.00  0.00     0.049 A 
ATOM     72  H   UNL     1      -2.127   7.313  -6.569  1.00  0.00     0.167 HD
ATOM     73  C   UNL     1      -3.963   5.429  -7.644  1.00  0.00     0.074 A 
ATOM     74  C   UNL     1      -5.202   4.732  -7.929  1.00  0.00     0.031 C 
ATOM     75  C   UNL     1      -2.768   5.130  -8.211  1.00  0.00     0.037 A 
BRANCH  62  76
ATOM     76  C   UNL     1       1.901   8.729  -6.358  1.00  0.00     0.064 A 
ATOM     77  C   UNL     1       2.771   8.510  -5.279  1.00  0.00     0.173 A 
ATOM     78  C   UNL     1       2.460   9.170  -7.569  1.00  0.00     0.173 A 
ATOM     79  F   UNL     1       2.290   8.103  -4.095  1.00  0.00    -0.203 F 
ATOM     80  C   UNL     1       4.141   8.733  -5.405  1.00  0.00     0.198 A 
ATOM     81  C   UNL     1       3.833   9.360  -7.700  1.00  0.00     0.198 A 
ATOM     82  F   UNL     1       1.676   9.392  -8.635  1.00  0.00    -0.203 F 
ATOM     83  F   UNL     1       4.947   8.552  -4.350  1.00  0.00    -0.200 F 
ATOM     84  C   UNL     1       4.672   9.145  -6.618  1.00  0.00     0.200 A 
ATOM     85  F   UNL     1       4.346   9.740  -8.879  1.00  0.00    -0.200 F 
ATOM     86  F   UNL     1       5.992   9.337  -6.743  1.00  0.00    -0.200 F 
ENDBRANCH  62  76
BRANCH  63  87
ATOM     87  C   UNL     1      -7.869   6.831  -5.412  1.00  0.00     0.064 A 
ATOM     88  C   UNL     1      -8.306   5.636  -4.829  1.00  0.00     0.173 A 
ATOM     89  C   UNL     1      -8.844   7.757  -5.816  1.00  0.00     0.173 A 
ATOM     90  F   UNL     1      -7.413   4.712  -4.444  1.00  0.00    -0.203 F 
ATOM     91  C   UNL     1      -9.664   5.372  -4.662  1.00  0.00     0.198 A 
ATOM     92  C   UNL     1     -10.199   7.508  -5.616  1.00  0.00     0.198 A 
ATOM     93  F   UNL     1      -8.478   8.920  -6.375  1.00  0.00    -0.203 F 
ATOM     94  F   UNL     1     -10.057   4.204  -4.136  1.00  0.00    -0.200 F 
ATOM     95  C   UNL     1     -10.608   6.313  -5.045  1.00  0.00     0.200 A 
ATOM     96  F   UNL     1     -11.106   8.430  -5.966  1.00  0.00    -0.200 F 
ATOM     97  F   UNL     1     -11.913   6.066  -4.867  1.00  0.00    -0.200 F 
ENDBRANCH  63  87
BRANCH  75  98
ATOM     98  C   UNL     1      -2.729   3.979  -9.176  1.00  0.00     0.064 A 
ATOM     99  C   UNL     1      -3.348   4.048 -10.433  1.00  0.00     0.173 A 
ATOM    100  C   UNL     1      -2.022   2.808  -8.858  1.00  0.00     0.173 A 
ATOM    101  F   UNL     1      -4.047   5.138 -10.783  1.00  0.00    -0.203 F 
ATOM    102  C   UNL     1      -3.286   2.978 -11.322  1.00  0.00     0.198 A 
ATOM    103  C   UNL     1      -1.928   1.757  -9.765  1.00  0.00     0.198 A 
ATOM    104  F   UNL     1      -1.402   2.691  -7.674  1.00  0.00    -0.203 F 
ATOM    105  F   UNL     1      -3.932   3.045 -12.494  1.00  0.00    -0.200 F 
ATOM    106  C   UNL     1      -2.568   1.838 -10.992  1.00  0.00     0.200 A 
ATOM    107  F   UNL     1      -1.216   0.665  -9.452  1.00  0.00    -0.200 F 
ATOM    108  F   UNL     1      -2.498   0.815 -11.854  1.00  0.00    -0.200 F 
ENDBRANCH  75  98
ENDBRANCH  49  50
ENDBRANCH  41  44
ENDBRANCH  39  40
ENDBRANCH  38  39
ENDBRANCH  37  38
ENDBRANCH  36  37
ENDBRANCH   1  36
TORSDOF 18
