REMARK SMILES COc1cc2c(CC(=O)NCCCCCCNC(=O)c3ccc(-c4c5nc(c(-c6c(F)c(F)c(F)c(F)c6F)c6ccc([nH]6)c(-c6c(F)c(F)c(F)c(F)c6F)c6nc(c(-c7c(F)c(F)c(F)c(F)c7F)c7ccc4[nH]7)C=C6)C=C5)cc3)c(C)n(C(=O)c3ccc(Cl)cc3)c2cc1Cl
REMARK SMILES IDX 13 1 12 2 11 3 10 4 8 5 9 6 7 8 6 9 3 10 4 11 97 12 5 13
REMARK SMILES IDX 96 14 98 15 95 16 83 17 85 18 84 19 2 20 1 21 86 22 87 23
REMARK SMILES IDX 88 24 89 25 94 26 90 27 93 28 91 29 92 30 14 31 15 32 16 33
REMARK SMILES IDX 17 34 18 35 19 37 20 38 21 39 82 40 22 41 81 42 23 43 24 44
REMARK SMILES IDX 25 45 75 46 26 47 80 48 74 49 76 50 27 51 79 52 73 53 72 54
REMARK SMILES IDX 28 56 60 57 40 58 59 59 41 60 44 61 58 62 77 63 42 64 43 65
REMARK SMILES IDX 57 67 78 68 45 69 29 70 30 71 38 72 31 73 32 74 36 75 39 76
REMARK SMILES IDX 33 77 34 78 37 79 35 80 61 81 62 82 70 83 63 84 64 85 68 86
REMARK SMILES IDX 71 87 65 88 66 89 69 90 67 91 46 92 47 93 55 94 48 95 49 96
REMARK SMILES IDX 53 97 56 98 50 99 51 100 54 101 52 102
REMARK H PARENT 10 7 17 36 76 55 44 66
REMARK Flexibility Score: inf
ROOT
ATOM      1  C   UNL     1       0.480  -6.975  -4.626  1.00  0.00     0.002 C 
ENDROOT
BRANCH   1   2
ATOM      2  C   UNL     1       0.463  -5.611  -5.327  1.00  0.00     0.021 C 
BRANCH   2   3
ATOM      3  C   UNL     1      -0.900  -5.239  -5.913  1.00  0.00     0.116 C 
BRANCH   3   4
ATOM      4  N   UNL     1      -1.827  -4.839  -4.873  1.00  0.00    -0.356 N 
ATOM      5  C   UNL     1      -2.263  -3.586  -4.553  1.00  0.00     0.224 C 
ATOM      6  O   UNL     1      -3.007  -3.456  -3.578  1.00  0.00    -0.275 OA
ATOM      7  H   UNL     1      -2.192  -5.570  -4.324  1.00  0.00     0.163 HD
BRANCH   5   8
ATOM      8  C   UNL     1      -1.887  -2.397  -5.423  1.00  0.00     0.138 C 
BRANCH   8   9
ATOM      9  C   UNL     1      -0.432  -2.020  -5.353  1.00  0.00    -0.009 A 
ATOM     10  C   UNL     1       0.913  -1.239  -1.850  1.00  0.00     0.138 A 
ATOM     11  C   UNL     1      -0.032  -1.643  -2.802  1.00  0.00     0.058 A 
ATOM     12  C   UNL     1       2.190  -0.874  -2.260  1.00  0.00     0.085 A 
ATOM     13  C   UNL     1       0.304  -1.697  -4.176  1.00  0.00     0.008 A 
ATOM     14  C   UNL     1       2.525  -0.877  -3.618  1.00  0.00     0.051 A 
ATOM     15  Cl  UNL     1       3.462  -0.485  -1.156  1.00  0.00    -0.080 Cl
ATOM     16  C   UNL     1       1.600  -1.352  -4.571  1.00  0.00     0.058 A 
ATOM     17  C   UNL     1       0.428  -1.849  -6.432  1.00  0.00     0.028 A 
ATOM     18  N   UNL     1       1.721  -1.633  -5.941  1.00  0.00    -0.280 N 
ATOM     19  C   UNL     1       0.096  -1.924  -7.891  1.00  0.00     0.065 C 
BRANCH  10  20
ATOM     20  O   UNL     1       0.508  -1.316  -0.543  1.00  0.00    -0.495 OA
ATOM     21  C   UNL     1       0.544  -0.060   0.133  1.00  0.00     0.278 C 
ENDBRANCH  10  20
BRANCH  18  22
ATOM     22  C   UNL     1       2.929  -1.724  -6.697  1.00  0.00     0.262 C 
ATOM     23  O   UNL     1       2.877  -2.058  -7.871  1.00  0.00    -0.268 OA
BRANCH  22  24
ATOM     24  C   UNL     1       4.276  -1.465  -6.154  1.00  0.00     0.040 A 
ATOM     25  C   UNL     1       4.865  -2.359  -5.253  1.00  0.00     0.015 A 
ATOM     26  C   UNL     1       4.923  -0.279  -6.518  1.00  0.00     0.015 A 
ATOM     27  C   UNL     1       6.077  -2.018  -4.648  1.00  0.00     0.021 A 
ATOM     28  C   UNL     1       6.138   0.050  -5.916  1.00  0.00     0.021 A 
ATOM     29  C   UNL     1       6.701  -0.811  -4.972  1.00  0.00     0.041 A 
ATOM     30  Cl  UNL     1       8.163  -0.368  -4.182  1.00  0.00    -0.084 Cl
ENDBRANCH  22  24
ENDBRANCH  18  22
ENDBRANCH   8   9
ENDBRANCH   5   8
ENDBRANCH   3   4
ENDBRANCH   2   3
ENDBRANCH   1   2
BRANCH   1  31
ATOM     31  C   UNL     1       0.216  -8.177  -5.540  1.00  0.00     0.002 C 
BRANCH  31  32
ATOM     32  C   UNL     1       1.167  -8.315  -6.735  1.00  0.00     0.021 C 
BRANCH  32  33
ATOM     33  C   UNL     1       2.649  -8.395  -6.362  1.00  0.00     0.116 C 
BRANCH  33  34
ATOM     34  N   UNL     1       2.957  -9.477  -5.449  1.00  0.00    -0.352 N 
ATOM     35  C   UNL     1       3.189 -10.818  -5.580  1.00  0.00     0.251 C 
ATOM     36  H   UNL     1       3.012  -9.176  -4.513  1.00  0.00     0.163 HD
ATOM     37  O   UNL     1       3.486 -11.421  -4.545  1.00  0.00    -0.269 OA
BRANCH  35  38
ATOM     38  C   UNL     1       3.078 -11.595  -6.848  1.00  0.00     0.039 A 
ATOM     39  C   UNL     1       2.784 -11.064  -8.102  1.00  0.00     0.014 A 
ATOM     40  C   UNL     1       3.260 -12.989  -6.744  1.00  0.00     0.014 A 
ATOM     41  C   UNL     1       2.603 -11.899  -9.200  1.00  0.00     0.010 A 
ATOM     42  C   UNL     1       3.107 -13.829  -7.848  1.00  0.00     0.010 A 
ATOM     43  C   UNL     1       2.743 -13.285  -9.074  1.00  0.00    -0.014 A 
BRANCH  43  44
ATOM     44  C   UNL     1       2.559 -14.083 -10.287  1.00  0.00     0.031 A 
ATOM     45  C   UNL     1       3.472 -13.760 -11.418  1.00  0.00     0.074 A 
ATOM     46  C   UNL     1       1.677 -15.094 -10.416  1.00  0.00     0.049 A 
ATOM     47  N   UNL     1       3.159 -13.332 -12.599  1.00  0.00    -0.248 NA
ATOM     48  C   UNL     1       4.919 -13.877 -11.186  1.00  0.00     0.031 C 
ATOM     49  C   UNL     1       0.920 -15.758  -9.354  1.00  0.00     0.029 A 
ATOM     50  N   UNL     1       1.334 -15.800 -11.540  1.00  0.00    -0.354 N 
ATOM     51  C   UNL     1       4.352 -13.277 -13.317  1.00  0.00     0.074 A 
ATOM     52  C   UNL     1       5.412 -13.524 -12.375  1.00  0.00     0.031 C 
ATOM     53  C   UNL     1       0.372 -16.891  -9.843  1.00  0.00     0.029 A 
ATOM     54  C   UNL     1       0.608 -16.949 -11.277  1.00  0.00     0.049 A 
ATOM     55  H   UNL     1       1.581 -15.517 -12.449  1.00  0.00     0.167 HD
ATOM     56  C   UNL     1       4.356 -13.247 -14.678  1.00  0.00     0.037 A 
ATOM     57  C   UNL     1       0.246 -17.909 -12.159  1.00  0.00     0.037 A 
ATOM     58  C   UNL     1       3.072 -12.882 -15.209  1.00  0.00     0.049 A 
ATOM     59  C   UNL     1       0.207 -17.326 -13.520  1.00  0.00     0.074 A 
ATOM     60  C   UNL     1       2.361 -11.725 -15.432  1.00  0.00     0.029 A 
ATOM     61  N   UNL     1       2.207 -13.927 -15.361  1.00  0.00    -0.354 N 
ATOM     62  N   UNL     1      -0.652 -16.422 -13.903  1.00  0.00    -0.248 NA
ATOM     63  C   UNL     1       1.299 -17.583 -14.454  1.00  0.00     0.031 C 
ATOM     64  C   UNL     1       0.993 -12.110 -15.559  1.00  0.00     0.029 A 
ATOM     65  C   UNL     1       0.910 -13.491 -15.400  1.00  0.00     0.049 A 
ATOM     66  H   UNL     1       2.479 -14.871 -15.432  1.00  0.00     0.167 HD
ATOM     67  C   UNL     1       0.006 -15.727 -14.895  1.00  0.00     0.074 A 
ATOM     68  C   UNL     1       1.095 -16.590 -15.322  1.00  0.00     0.031 C 
ATOM     69  C   UNL     1      -0.164 -14.384 -15.035  1.00  0.00     0.037 A 
BRANCH  56  70
ATOM     70  C   UNL     1       5.361 -13.965 -15.555  1.00  0.00     0.064 A 
ATOM     71  C   UNL     1       5.314 -13.773 -16.954  1.00  0.00     0.173 A 
ATOM     72  C   UNL     1       6.119 -15.073 -15.121  1.00  0.00     0.173 A 
ATOM     73  F   UNL     1       4.609 -12.761 -17.483  1.00  0.00    -0.203 F 
ATOM     74  C   UNL     1       5.913 -14.668 -17.846  1.00  0.00     0.198 A 
ATOM     75  C   UNL     1       6.758 -15.935 -16.014  1.00  0.00     0.198 A 
ATOM     76  F   UNL     1       6.175 -15.432 -13.834  1.00  0.00    -0.203 F 
ATOM     77  F   UNL     1       5.737 -14.513 -19.165  1.00  0.00    -0.200 F 
ATOM     78  C   UNL     1       6.629 -15.752 -17.375  1.00  0.00     0.200 A 
ATOM     79  F   UNL     1       7.430 -16.994 -15.539  1.00  0.00    -0.200 F 
ATOM     80  F   UNL     1       7.152 -16.645 -18.225  1.00  0.00    -0.200 F 
ENDBRANCH  56  70
BRANCH  57  81
ATOM     81  C   UNL     1       0.116 -19.364 -11.924  1.00  0.00     0.064 A 
ATOM     82  C   UNL     1      -0.581 -20.184 -12.826  1.00  0.00     0.173 A 
ATOM     83  C   UNL     1       0.909 -20.020 -10.962  1.00  0.00     0.173 A 
ATOM     84  F   UNL     1      -1.330 -19.639 -13.796  1.00  0.00    -0.203 F 
ATOM     85  C   UNL     1      -0.456 -21.576 -12.796  1.00  0.00     0.198 A 
ATOM     86  C   UNL     1       1.022 -21.409 -10.925  1.00  0.00     0.198 A 
ATOM     87  F   UNL     1       1.667 -19.322 -10.104  1.00  0.00    -0.203 F 
ATOM     88  F   UNL     1      -1.074 -22.321 -13.723  1.00  0.00    -0.200 F 
ATOM     89  C   UNL     1       0.355 -22.186 -11.854  1.00  0.00     0.200 A 
ATOM     90  F   UNL     1       1.835 -21.985 -10.028  1.00  0.00    -0.200 F 
ATOM     91  F   UNL     1       0.528 -23.514 -11.867  1.00  0.00    -0.200 F 
ENDBRANCH  57  81
BRANCH  69  92
ATOM     92  C   UNL     1      -1.451 -13.797 -14.557  1.00  0.00     0.064 A 
ATOM     93  C   UNL     1      -1.835 -13.739 -13.209  1.00  0.00     0.173 A 
ATOM     94  C   UNL     1      -2.301 -13.211 -15.505  1.00  0.00     0.173 A 
ATOM     95  F   UNL     1      -1.033 -14.205 -12.243  1.00  0.00    -0.203 F 
ATOM     96  C   UNL     1      -3.045 -13.158 -12.835  1.00  0.00     0.198 A 
ATOM     97  C   UNL     1      -3.491 -12.600 -15.125  1.00  0.00     0.198 A 
ATOM     98  F   UNL     1      -1.957 -13.201 -16.802  1.00  0.00    -0.203 F 
ATOM     99  F   UNL     1      -3.407 -13.130 -11.544  1.00  0.00    -0.200 F 
ATOM    100  C   UNL     1      -3.869 -12.585 -13.792  1.00  0.00     0.200 A 
ATOM    101  F   UNL     1      -4.262 -12.010 -16.049  1.00  0.00    -0.200 F 
ATOM    102  F   UNL     1      -5.017 -11.996 -13.428  1.00  0.00    -0.200 F 
ENDBRANCH  69  92
ENDBRANCH  43  44
ENDBRANCH  35  38
ENDBRANCH  33  34
ENDBRANCH  32  33
ENDBRANCH  31  32
ENDBRANCH   1  31
TORSDOF 17
