REMARK SMILES C[C@H](C(=O)N[C@H](C)C(=O)NCCCCCCNC(=O)c1ccc(-c2c3nc(c(-c4c(F)c(F)c(F)c(F)c4F)c4ccc([nH]4)c(-c4c(F)c(F)c(F)c(F)c4F)c4nc(c(-c5c(F)c(F)c(F)c(F)c5F)c5ccc2[nH]5)C=C4)C=C3)cc1)n1cnc2ccccc21
REMARK SMILES IDX 13 1 12 2 11 3 10 4 8 5 9 6 6 8 7 9 5 10 3 11 4 12 2 14 1 15
REMARK SMILES IDX 83 16 84 17 91 18 85 19 86 20 90 21 87 22 89 23 88 24 14 25
REMARK SMILES IDX 15 26 16 27 17 28 18 29 19 31 20 32 21 33 82 34 22 35 81 36
REMARK SMILES IDX 23 37 24 38 25 39 75 40 26 41 80 42 74 43 76 44 27 45 79 46
REMARK SMILES IDX 73 47 72 48 28 50 60 51 40 52 59 53 41 54 44 55 58 56 77 57
REMARK SMILES IDX 42 58 43 59 57 61 78 62 45 63 29 64 30 65 38 66 31 67 32 68
REMARK SMILES IDX 36 69 39 70 33 71 34 72 37 73 35 74 61 75 62 76 70 77 63 78
REMARK SMILES IDX 64 79 68 80 71 81 65 82 66 83 69 84 67 85 46 86 47 87 55 88
REMARK SMILES IDX 48 89 49 90 53 91 56 92 50 93 51 94 54 95 52 96
REMARK H PARENT 10 7 5 13 17 30 76 49 44 60
REMARK Flexibility Score: inf
ROOT
ATOM      1  C   UNL     1      -0.161   4.597  -3.664  1.00  0.00     0.002 C 
ENDROOT
BRANCH   1   2
ATOM      2  C   UNL     1       0.803   3.957  -2.652  1.00  0.00     0.021 C 
BRANCH   2   3
ATOM      3  C   UNL     1       0.187   3.625  -1.285  1.00  0.00     0.116 C 
BRANCH   3   4
ATOM      4  N   UNL     1      -0.713   2.493  -1.390  1.00  0.00    -0.354 N 
ATOM      5  C   UNL     1      -0.930   1.425  -0.582  1.00  0.00     0.242 C 
ATOM      6  O   UNL     1      -1.608   0.496  -1.039  1.00  0.00    -0.273 OA
ATOM      7  H   UNL     1      -1.272   2.500  -2.200  1.00  0.00     0.163 HD
BRANCH   5   8
ATOM      8  C   UNL     1      -0.268   1.246   0.797  1.00  0.00     0.168 C 
ATOM      9  C   UNL     1       1.194   0.841   0.602  1.00  0.00     0.041 C 
BRANCH   8  10
ATOM     10  N   UNL     1      -0.355   2.333   1.775  1.00  0.00    -0.343 N 
ATOM     11  C   UNL     1      -1.378   2.673   2.615  1.00  0.00     0.243 C 
ATOM     12  O   UNL     1      -1.054   3.291   3.635  1.00  0.00    -0.273 OA
ATOM     13  H   UNL     1       0.443   2.906   1.836  1.00  0.00     0.164 HD
BRANCH  11  14
ATOM     14  C   UNL     1      -2.841   2.309   2.331  1.00  0.00     0.174 C 
ATOM     15  C   UNL     1      -3.780   2.921   3.386  1.00  0.00     0.042 C 
BRANCH  14  16
ATOM     16  N   UNL     1      -3.282   2.769   1.019  1.00  0.00    -0.318 N 
ATOM     17  C   UNL     1      -4.024   2.030   0.137  1.00  0.00     0.201 A 
ATOM     18  C   UNL     1      -3.163   4.042   0.512  1.00  0.00     0.069 A 
ATOM     19  N   UNL     1      -4.370   2.736  -0.914  1.00  0.00    -0.237 NA
ATOM     20  C   UNL     1      -3.862   3.989  -0.690  1.00  0.00     0.088 A 
ATOM     21  C   UNL     1      -2.537   5.206   0.977  1.00  0.00     0.028 A 
ATOM     22  C   UNL     1      -3.965   5.144  -1.474  1.00  0.00     0.030 A 
ATOM     23  C   UNL     1      -2.655   6.349   0.185  1.00  0.00     0.002 A 
ATOM     24  C   UNL     1      -3.371   6.326  -1.012  1.00  0.00     0.002 A 
ENDBRANCH  14  16
ENDBRANCH  11  14
ENDBRANCH   8  10
ENDBRANCH   5   8
ENDBRANCH   3   4
ENDBRANCH   2   3
ENDBRANCH   1   2
BRANCH   1  25
ATOM     25  C   UNL     1      -0.663   5.993  -3.292  1.00  0.00     0.002 C 
BRANCH  25  26
ATOM     26  C   UNL     1       0.403   7.052  -3.026  1.00  0.00     0.021 C 
BRANCH  26  27
ATOM     27  C   UNL     1       1.378   7.272  -4.170  1.00  0.00     0.116 C 
BRANCH  27  28
ATOM     28  N   UNL     1       0.739   7.801  -5.364  1.00  0.00    -0.352 N 
ATOM     29  C   UNL     1       1.193   8.776  -6.217  1.00  0.00     0.251 C 
ATOM     30  H   UNL     1      -0.135   7.409  -5.590  1.00  0.00     0.163 HD
ATOM     31  O   UNL     1       0.464   9.216  -7.105  1.00  0.00    -0.269 OA
BRANCH  29  32
ATOM     32  C   UNL     1       2.555   9.323  -6.044  1.00  0.00     0.039 A 
ATOM     33  C   UNL     1       2.743  10.705  -6.119  1.00  0.00     0.014 A 
ATOM     34  C   UNL     1       3.641   8.480  -5.790  1.00  0.00     0.014 A 
ATOM     35  C   UNL     1       4.010  11.242  -5.888  1.00  0.00     0.010 A 
ATOM     36  C   UNL     1       4.880   9.022  -5.468  1.00  0.00     0.010 A 
ATOM     37  C   UNL     1       5.083  10.407  -5.531  1.00  0.00    -0.014 A 
BRANCH  37  38
ATOM     38  C   UNL     1       6.420  10.979  -5.235  1.00  0.00     0.031 A 
ATOM     39  C   UNL     1       7.603  10.630  -6.095  1.00  0.00     0.074 A 
ATOM     40  C   UNL     1       6.576  11.780  -4.164  1.00  0.00     0.049 A 
ATOM     41  N   UNL     1       8.841  11.049  -6.009  1.00  0.00    -0.248 NA
ATOM     42  C   UNL     1       7.377   9.657  -7.175  1.00  0.00     0.031 C 
ATOM     43  C   UNL     1       5.521  12.125  -3.208  1.00  0.00     0.029 A 
ATOM     44  N   UNL     1       7.678  12.452  -3.698  1.00  0.00    -0.354 N 
ATOM     45  C   UNL     1       9.536  10.384  -7.010  1.00  0.00     0.074 A 
ATOM     46  C   UNL     1       8.601   9.483  -7.646  1.00  0.00     0.031 C 
ATOM     47  C   UNL     1       6.017  12.973  -2.294  1.00  0.00     0.029 A 
ATOM     48  C   UNL     1       7.429  13.209  -2.580  1.00  0.00     0.049 A 
ATOM     49  H   UNL     1       8.563  12.396  -4.126  1.00  0.00     0.167 HD
ATOM     50  C   UNL     1      10.829  10.532  -7.384  1.00  0.00     0.037 A 
ATOM     51  C   UNL     1       8.246  14.010  -1.871  1.00  0.00     0.037 A 
ATOM     52  C   UNL     1      11.745  11.451  -6.761  1.00  0.00     0.049 A 
ATOM     53  C   UNL     1       9.669  14.188  -2.326  1.00  0.00     0.074 A 
ATOM     54  C   UNL     1      13.052  11.739  -7.112  1.00  0.00     0.029 A 
ATOM     55  N   UNL     1      11.449  12.227  -5.649  1.00  0.00    -0.354 N 
ATOM     56  N   UNL     1      10.290  13.632  -3.338  1.00  0.00    -0.248 NA
ATOM     57  C   UNL     1      10.500  15.120  -1.552  1.00  0.00     0.031 C 
ATOM     58  C   UNL     1      13.565  12.645  -6.178  1.00  0.00     0.029 A 
ATOM     59  C   UNL     1      12.558  12.973  -5.284  1.00  0.00     0.049 A 
ATOM     60  H   UNL     1      10.579  12.245  -5.188  1.00  0.00     0.167 HD
ATOM     61  C   UNL     1      11.572  14.164  -3.341  1.00  0.00     0.074 A 
ATOM     62  C   UNL     1      11.635  15.101  -2.237  1.00  0.00     0.031 C 
ATOM     63  C   UNL     1      12.602  13.903  -4.183  1.00  0.00     0.037 A 
BRANCH  50  64
ATOM     64  C   UNL     1      11.327   9.680  -8.518  1.00  0.00     0.064 A 
ATOM     65  C   UNL     1      10.862   9.850  -9.832  1.00  0.00     0.173 A 
ATOM     66  C   UNL     1      12.297   8.692  -8.291  1.00  0.00     0.173 A 
ATOM     67  F   UNL     1       9.927  10.773 -10.104  1.00  0.00    -0.203 F 
ATOM     68  C   UNL     1      11.319   9.037 -10.867  1.00  0.00     0.198 A 
ATOM     69  C   UNL     1      12.778   7.905  -9.335  1.00  0.00     0.198 A 
ATOM     70  F   UNL     1      12.782   8.489  -7.057  1.00  0.00    -0.203 F 
ATOM     71  F   UNL     1      10.813   9.177 -12.100  1.00  0.00    -0.200 F 
ATOM     72  C   UNL     1      12.281   8.071 -10.619  1.00  0.00     0.200 A 
ATOM     73  F   UNL     1      13.719   6.981  -9.096  1.00  0.00    -0.200 F 
ATOM     74  F   UNL     1      12.723   7.292 -11.616  1.00  0.00    -0.200 F 
ENDBRANCH  50  64
BRANCH  51  75
ATOM     75  C   UNL     1       7.718  14.737  -0.686  1.00  0.00     0.064 A 
ATOM     76  C   UNL     1       7.538  16.127  -0.711  1.00  0.00     0.173 A 
ATOM     77  C   UNL     1       7.361  14.054   0.485  1.00  0.00     0.173 A 
ATOM     78  F   UNL     1       7.880  16.827  -1.803  1.00  0.00    -0.203 F 
ATOM     79  C   UNL     1       7.037  16.808   0.397  1.00  0.00     0.198 A 
ATOM     80  C   UNL     1       6.832  14.732   1.581  1.00  0.00     0.198 A 
ATOM     81  F   UNL     1       7.504  12.723   0.557  1.00  0.00    -0.203 F 
ATOM     82  F   UNL     1       6.912  18.142   0.360  1.00  0.00    -0.200 F 
ATOM     83  C   UNL     1       6.677  16.110   1.539  1.00  0.00     0.200 A 
ATOM     84  F   UNL     1       6.468  14.051   2.676  1.00  0.00    -0.200 F 
ATOM     85  F   UNL     1       6.184  16.764   2.600  1.00  0.00    -0.200 F 
ENDBRANCH  51  75
BRANCH  63  86
ATOM     86  C   UNL     1      13.877  14.668  -3.968  1.00  0.00     0.064 A 
ATOM     87  C   UNL     1      14.707  14.428  -2.862  1.00  0.00     0.173 A 
ATOM     88  C   UNL     1      14.293  15.626  -4.905  1.00  0.00     0.173 A 
ATOM     89  F   UNL     1      14.348  13.531  -1.931  1.00  0.00    -0.203 F 
ATOM     90  C   UNL     1      15.889  15.142  -2.687  1.00  0.00     0.198 A 
ATOM     91  C   UNL     1      15.493  16.313  -4.745  1.00  0.00     0.198 A 
ATOM     92  F   UNL     1      13.542  15.887  -5.985  1.00  0.00    -0.203 F 
ATOM     93  F   UNL     1      16.639  14.934  -1.596  1.00  0.00    -0.200 F 
ATOM     94  C   UNL     1      16.285  16.077  -3.632  1.00  0.00     0.200 A 
ATOM     95  F   UNL     1      15.882  17.204  -5.667  1.00  0.00    -0.200 F 
ATOM     96  F   UNL     1      17.428  16.757  -3.465  1.00  0.00    -0.200 F 
ENDBRANCH  63  86
ENDBRANCH  37  38
ENDBRANCH  29  32
ENDBRANCH  27  28
ENDBRANCH  26  27
ENDBRANCH  25  26
ENDBRANCH   1  25
TORSDOF 16
