REMARK SMILES NS(=O)(=O)c1ccc(N2N=C(C(=O)NCCCCCCNC(=O)c3ccc(-c4c5nc(c(-c6c(F)c(F)c(F)c(F)c6F)c6ccc([nH]6)c(-c6c(F)c(F)c(F)c(F)c6F)c6nc(c(-c7c(F)c(F)c(F)c(F)c7F)c7ccc4[nH]7)C=C6)C=C5)cc3)C[C@H]2c2ccco2)cc1
REMARK SMILES IDX 17 1 16 2 15 3 14 4 12 5 13 6 11 8 9 9 10 10 88 11 87 12
REMARK SMILES IDX 8 13 5 14 6 15 95 16 7 17 94 18 2 19 3 20 4 21 1 22 89 25
REMARK SMILES IDX 90 26 93 27 91 28 92 29 18 30 19 31 20 32 21 33 22 34 23 36
REMARK SMILES IDX 24 37 25 38 86 39 26 40 85 41 27 42 28 43 29 44 79 45 30 46
REMARK SMILES IDX 84 47 78 48 80 49 31 50 83 51 77 52 76 53 32 55 64 56 44 57
REMARK SMILES IDX 63 58 45 59 48 60 62 61 81 62 46 63 47 64 61 66 82 67 49 68
REMARK SMILES IDX 33 69 34 70 42 71 35 72 36 73 40 74 43 75 37 76 38 77 41 78
REMARK SMILES IDX 39 79 65 80 66 81 74 82 67 83 68 84 72 85 75 86 69 87 70 88
REMARK SMILES IDX 73 89 71 90 50 91 51 92 59 93 52 94 53 95 57 96 60 97 54 98
REMARK SMILES IDX 55 99 58 100 56 101
REMARK H PARENT 14 7 1 23 1 24 21 35 80 54 48 65
REMARK Flexibility Score: inf
ROOT
ATOM      1  C   UNL     1       2.831   8.127  10.898  1.00  0.00     0.002 C 
ENDROOT
BRANCH   1   2
ATOM      2  C   UNL     1       1.848   7.678   9.813  1.00  0.00     0.021 C 
BRANCH   2   3
ATOM      3  C   UNL     1       2.267   8.021   8.385  1.00  0.00     0.116 C 
BRANCH   3   4
ATOM      4  N   UNL     1       3.356   7.178   7.936  1.00  0.00    -0.351 N 
ATOM      5  C   UNL     1       3.549   6.352   6.859  1.00  0.00     0.267 C 
ATOM      6  O   UNL     1       4.603   5.720   6.816  1.00  0.00    -0.268 OA
ATOM      7  H   UNL     1       4.133   7.205   8.540  1.00  0.00     0.163 HD
BRANCH   5   8
ATOM      8  C   UNL     1       2.563   6.197   5.708  1.00  0.00     0.128 C 
ATOM      9  N   UNL     1       1.834   5.574   3.797  1.00  0.00    -0.254 N 
ATOM     10  N   UNL     1       2.799   5.368   4.736  1.00  0.00    -0.171 NA
ATOM     11  C   UNL     1       0.789   6.509   4.226  1.00  0.00     0.180 C 
ATOM     12  C   UNL     1       1.283   6.953   5.605  1.00  0.00     0.099 C 
BRANCH   9  13
ATOM     13  C   UNL     1       1.573   4.605   2.829  1.00  0.00     0.060 A 
ATOM     14  C   UNL     1       0.942   2.680   0.879  1.00  0.00     0.082 A 
ATOM     15  C   UNL     1       1.244   2.274   2.180  1.00  0.00     0.024 A 
ATOM     16  C   UNL     1       0.990   4.029   0.531  1.00  0.00     0.024 A 
ATOM     17  C   UNL     1       1.571   3.237   3.143  1.00  0.00     0.029 A 
ATOM     18  C   UNL     1       1.301   4.979   1.506  1.00  0.00     0.029 A 
BRANCH  14  19
ATOM     19  S   UNL     1       0.525   1.505  -0.370  1.00  0.00     0.238 S 
ATOM     20  O   UNL     1       1.129   1.918  -1.618  1.00  0.00    -0.207 OA
ATOM     21  O   UNL     1      -0.877   1.195  -0.250  1.00  0.00    -0.207 OA
BRANCH  19  22
ATOM     22  N   UNL     1       1.353   0.113   0.074  1.00  0.00    -0.225 NA
ATOM     23  H   UNL     1       1.164  -0.626  -0.604  1.00  0.00     0.137 HD
ATOM     24  H   UNL     1       1.043  -0.187   0.999  1.00  0.00     0.137 HD
ENDBRANCH  19  22
ENDBRANCH  14  19
ENDBRANCH   9  13
BRANCH  11  25
ATOM     25  C   UNL     1       0.479   7.671   3.332  1.00  0.00     0.128 A 
ATOM     26  C   UNL     1      -0.462   7.859   2.337  1.00  0.00     0.048 A 
ATOM     27  O   UNL     1       1.219   8.811   3.481  1.00  0.00    -0.467 OA
ATOM     28  C   UNL     1      -0.279   9.175   1.851  1.00  0.00     0.042 A 
ATOM     29  C   UNL     1       0.748   9.716   2.587  1.00  0.00     0.195 A 
ENDBRANCH  11  25
ENDBRANCH   5   8
ENDBRANCH   3   4
ENDBRANCH   2   3
ENDBRANCH   1   2
BRANCH   1  30
ATOM     30  C   UNL     1       3.144   9.626  10.928  1.00  0.00     0.002 C 
BRANCH  30  31
ATOM     31  C   UNL     1       1.931  10.559  10.932  1.00  0.00     0.021 C 
BRANCH  31  32
ATOM     32  C   UNL     1       0.925  10.316  12.052  1.00  0.00     0.116 C 
BRANCH  32  33
ATOM     33  N   UNL     1       1.497  10.528  13.370  1.00  0.00    -0.352 N 
ATOM     34  C   UNL     1       1.028  11.287  14.412  1.00  0.00     0.251 C 
ATOM     35  H   UNL     1       2.345  10.058  13.540  1.00  0.00     0.163 HD
ATOM     36  O   UNL     1       1.728  11.473  15.403  1.00  0.00    -0.269 OA
BRANCH  34  37
ATOM     37  C   UNL     1      -0.314  11.904  14.338  1.00  0.00     0.039 A 
ATOM     38  C   UNL     1      -0.463  13.235  14.739  1.00  0.00     0.014 A 
ATOM     39  C   UNL     1      -1.422  11.175  13.898  1.00  0.00     0.014 A 
ATOM     40  C   UNL     1      -1.712  13.852  14.646  1.00  0.00     0.010 A 
ATOM     41  C   UNL     1      -2.653  11.810  13.744  1.00  0.00     0.010 A 
ATOM     42  C   UNL     1      -2.811  13.152  14.121  1.00  0.00    -0.014 A 
BRANCH  42  43
ATOM     43  C   UNL     1      -4.131  13.809  13.959  1.00  0.00     0.031 A 
ATOM     44  C   UNL     1      -5.315  13.339  14.754  1.00  0.00     0.074 A 
ATOM     45  C   UNL     1      -4.282  14.778  13.036  1.00  0.00     0.049 A 
ATOM     46  N   UNL     1      -6.561  13.740  14.702  1.00  0.00    -0.248 NA
ATOM     47  C   UNL     1      -5.073  12.251  15.712  1.00  0.00     0.031 C 
ATOM     48  C   UNL     1      -3.224  15.278  12.158  1.00  0.00     0.029 A 
ATOM     49  N   UNL     1      -5.389  15.502  12.671  1.00  0.00    -0.354 N 
ATOM     50  C   UNL     1      -7.252  12.940  15.601  1.00  0.00     0.074 A 
ATOM     51  C   UNL     1      -6.298  11.999  16.149  1.00  0.00     0.031 C 
ATOM     52  C   UNL     1      -3.730  16.232  11.361  1.00  0.00     0.029 A 
ATOM     53  C   UNL     1      -5.152  16.390  11.652  1.00  0.00     0.049 A 
ATOM     54  H   UNL     1      -6.269  15.394  13.099  1.00  0.00     0.167 HD
ATOM     55  C   UNL     1      -8.560  12.997  15.952  1.00  0.00     0.037 A 
ATOM     56  C   UNL     1      -5.989  17.233  11.017  1.00  0.00     0.037 A 
ATOM     57  C   UNL     1      -9.497  13.956  15.428  1.00  0.00     0.049 A 
ATOM     58  C   UNL     1      -7.428  17.303  11.443  1.00  0.00     0.074 A 
ATOM     59  C   UNL     1     -10.818  14.158  15.787  1.00  0.00     0.029 A 
ATOM     60  N   UNL     1      -9.212  14.870  14.423  1.00  0.00    -0.354 N 
ATOM     61  N   UNL     1      -8.053  16.603  12.358  1.00  0.00    -0.248 NA
ATOM     62  C   UNL     1      -8.275  18.289  10.758  1.00  0.00     0.031 C 
ATOM     63  C   UNL     1     -11.345  15.163  14.967  1.00  0.00     0.029 A 
ATOM     64  C   UNL     1     -10.340  15.620  14.130  1.00  0.00     0.049 A 
ATOM     65  H   UNL     1      -8.337  14.971  13.984  1.00  0.00     0.167 HD
ATOM     66  C   UNL     1      -9.359  17.071  12.372  1.00  0.00     0.074 A 
ATOM     67  C   UNL     1      -9.434  18.128  11.383  1.00  0.00     0.031 C 
ATOM     68  C   UNL     1     -10.402  16.662  13.136  1.00  0.00     0.037 A 
BRANCH  55  69
ATOM     69  C   UNL     1      -9.051  11.985  16.947  1.00  0.00     0.064 A 
ATOM     70  C   UNL     1      -8.650  12.014  18.291  1.00  0.00     0.173 A 
ATOM     71  C   UNL     1      -9.941  10.976  16.551  1.00  0.00     0.173 A 
ATOM     72  F   UNL     1      -7.791  12.953  18.719  1.00  0.00    -0.203 F 
ATOM     73  C   UNL     1      -9.087  11.046  19.192  1.00  0.00     0.198 A 
ATOM     74  C   UNL     1     -10.402  10.028  17.462  1.00  0.00     0.198 A 
ATOM     75  F   UNL     1     -10.363  10.905  15.280  1.00  0.00    -0.203 F 
ATOM     76  F   UNL     1      -8.639  11.058  20.455  1.00  0.00    -0.200 F 
ATOM     77  C   UNL     1      -9.965  10.056  18.777  1.00  0.00     0.200 A 
ATOM     78  F   UNL     1     -11.260   9.079  17.062  1.00  0.00    -0.200 F 
ATOM     79  F   UNL     1     -10.383   9.123  19.644  1.00  0.00    -0.200 F 
ENDBRANCH  55  69
BRANCH  56  80
ATOM     80  C   UNL     1      -5.464  18.093   9.927  1.00  0.00     0.064 A 
ATOM     81  C   UNL     1      -5.271  19.467  10.123  1.00  0.00     0.173 A 
ATOM     82  C   UNL     1      -5.103  17.552   8.684  1.00  0.00     0.173 A 
ATOM     83  F   UNL     1      -5.619  20.031  11.289  1.00  0.00    -0.203 F 
ATOM     84  C   UNL     1      -4.741  20.269   9.115  1.00  0.00     0.198 A 
ATOM     85  C   UNL     1      -4.551  18.351   7.686  1.00  0.00     0.198 A 
ATOM     86  F   UNL     1      -5.261  16.241   8.452  1.00  0.00    -0.203 F 
ATOM     87  F   UNL     1      -4.590  21.585   9.319  1.00  0.00    -0.200 F 
ATOM     88  C   UNL     1      -4.374  19.709   7.901  1.00  0.00     0.200 A 
ATOM     89  F   UNL     1      -4.182  17.803   6.520  1.00  0.00    -0.200 F 
ATOM     90  F   UNL     1      -3.849  20.479   6.937  1.00  0.00    -0.200 F 
ENDBRANCH  56  80
BRANCH  68  91
ATOM     91  C   UNL     1     -11.713  17.367  12.943  1.00  0.00     0.064 A 
ATOM     92  C   UNL     1     -12.498  17.155  11.801  1.00  0.00     0.173 A 
ATOM     93  C   UNL     1     -12.208  18.232  13.931  1.00  0.00     0.173 A 
ATOM     94  F   UNL     1     -12.061  16.349  10.821  1.00  0.00    -0.203 F 
ATOM     95  C   UNL     1     -13.723  17.799  11.646  1.00  0.00     0.198 A 
ATOM     96  C   UNL     1     -13.445  18.853  13.785  1.00  0.00     0.198 A 
ATOM     97  F   UNL     1     -11.496  18.465  15.044  1.00  0.00    -0.203 F 
ATOM     98  F   UNL     1     -14.438  17.614  10.527  1.00  0.00    -0.200 F 
ATOM     99  C   UNL     1     -14.198  18.641  12.640  1.00  0.00     0.200 A 
ATOM    100  F   UNL     1     -13.908  19.657  14.752  1.00  0.00    -0.200 F 
ATOM    101  F   UNL     1     -15.381  19.254  12.492  1.00  0.00    -0.200 F 
ENDBRANCH  68  91
ENDBRANCH  42  43
ENDBRANCH  34  37
ENDBRANCH  32  33
ENDBRANCH  31  32
ENDBRANCH  30  31
ENDBRANCH   1  30
TORSDOF 17
