REMARK SMILES O=C(NCCCCCCNC(=O)c1cccc(/C=N/NC(=S)Nc2ccccc2)c1O)c1ccc(-c2c3nc(c(-c4c(F)c(F)c(F)c(F)c4F)c4ccc([nH]4)c(-c4c(F)c(F)c(F)c(F)c4F)c4nc(c(-c5c(F)c(F)c(F)c(F)c5F)c5ccc2[nH]5)C=C4)C=C3)cc1
REMARK SMILES IDX 8 1 7 2 6 3 5 4 4 5 3 6 1 7 2 8 32 10 33 11 94 12 34 13
REMARK SMILES IDX 93 14 35 15 36 16 37 17 87 18 38 19 92 20 86 21 88 22 39 23
REMARK SMILES IDX 91 24 85 25 84 26 40 28 72 29 52 30 71 31 53 32 56 33 70 34
REMARK SMILES IDX 89 35 54 36 55 37 69 39 90 40 57 41 41 42 42 43 50 44 43 45
REMARK SMILES IDX 44 46 48 47 51 48 45 49 46 50 49 51 47 52 73 53 74 54 82 55
REMARK SMILES IDX 75 56 76 57 80 58 83 59 77 60 78 61 81 62 79 63 58 64 59 65
REMARK SMILES IDX 67 66 60 67 61 68 65 69 68 70 62 71 63 72 66 73 64 74 9 75
REMARK SMILES IDX 10 76 11 77 12 79 13 80 14 81 30 82 15 83 17 84 16 85 31 86
REMARK SMILES IDX 18 88 19 89 20 90 21 92 22 93 23 94 24 96 25 97 29 98 26 99
REMARK SMILES IDX 28 100 27 101
REMARK H PARENT 3 9 88 27 56 38 10 78 31 87 20 91 23 95
REMARK Flexibility Score: inf
ROOT
ATOM      1  C   UNL     1       5.795  -4.029   1.589  1.00  0.00     0.021 C 
ENDROOT
BRANCH   1   2
ATOM      2  C   UNL     1       4.351  -3.761   2.025  1.00  0.00     0.002 C 
BRANCH   2   3
ATOM      3  C   UNL     1       4.095  -2.477   2.820  1.00  0.00     0.002 C 
BRANCH   3   4
ATOM      4  C   UNL     1       4.651  -1.183   2.225  1.00  0.00     0.021 C 
BRANCH   4   5
ATOM      5  C   UNL     1       4.322  -0.931   0.759  1.00  0.00     0.116 C 
BRANCH   5   6
ATOM      6  N   UNL     1       2.896  -0.912   0.492  1.00  0.00    -0.352 N 
ATOM      7  O   UNL     1       0.924  -0.061  -0.192  1.00  0.00    -0.269 OA
ATOM      8  C   UNL     1       2.145   0.031  -0.165  1.00  0.00     0.251 C 
ATOM      9  H   UNL     1       2.394  -1.688   0.831  1.00  0.00     0.163 HD
BRANCH   8  10
ATOM     10  C   UNL     1       2.812   1.179  -0.814  1.00  0.00     0.039 A 
ATOM     11  C   UNL     1       3.937   1.000  -1.625  1.00  0.00     0.014 A 
ATOM     12  C   UNL     1       2.285   2.457  -0.611  1.00  0.00     0.014 A 
ATOM     13  C   UNL     1       4.607   2.109  -2.134  1.00  0.00     0.010 A 
ATOM     14  C   UNL     1       2.914   3.562  -1.186  1.00  0.00     0.010 A 
ATOM     15  C   UNL     1       4.093   3.399  -1.930  1.00  0.00    -0.014 A 
BRANCH  15  16
ATOM     16  C   UNL     1       4.759   4.577  -2.538  1.00  0.00     0.031 A 
ATOM     17  C   UNL     1       5.358   5.648  -1.673  1.00  0.00     0.074 A 
ATOM     18  C   UNL     1       4.782   4.695  -3.878  1.00  0.00     0.049 A 
ATOM     19  N   UNL     1       5.883   6.795  -2.020  1.00  0.00    -0.248 NA
ATOM     20  C   UNL     1       5.354   5.402  -0.224  1.00  0.00     0.031 C 
ATOM     21  C   UNL     1       4.233   3.717  -4.817  1.00  0.00     0.029 A 
ATOM     22  N   UNL     1       5.270   5.693  -4.682  1.00  0.00    -0.354 N 
ATOM     23  C   UNL     1       6.250   7.419  -0.835  1.00  0.00     0.074 A 
ATOM     24  C   UNL     1       5.861   6.534   0.243  1.00  0.00     0.031 C 
ATOM     25  C   UNL     1       4.420   4.158  -6.069  1.00  0.00     0.029 A 
ATOM     26  C   UNL     1       5.040   5.478  -6.018  1.00  0.00     0.049 A 
ATOM     27  H   UNL     1       5.739   6.486  -4.335  1.00  0.00     0.167 HD
ATOM     28  C   UNL     1       6.859   8.618  -0.667  1.00  0.00     0.037 A 
ATOM     29  C   UNL     1       5.265   6.270  -7.082  1.00  0.00     0.037 A 
ATOM     30  C   UNL     1       7.238   9.488  -1.752  1.00  0.00     0.049 A 
ATOM     31  C   UNL     1       5.893   7.618  -6.869  1.00  0.00     0.074 A 
ATOM     32  C   UNL     1       7.890  10.708  -1.694  1.00  0.00     0.029 A 
ATOM     33  N   UNL     1       6.984   9.237  -3.094  1.00  0.00    -0.354 N 
ATOM     34  N   UNL     1       6.268   8.186  -5.748  1.00  0.00    -0.248 NA
ATOM     35  C   UNL     1       6.132   8.433  -8.066  1.00  0.00     0.031 C 
ATOM     36  C   UNL     1       7.971  11.224  -2.991  1.00  0.00     0.029 A 
ATOM     37  C   UNL     1       7.439  10.293  -3.869  1.00  0.00     0.049 A 
ATOM     38  H   UNL     1       6.545   8.428  -3.444  1.00  0.00     0.167 HD
ATOM     39  C   UNL     1       6.817   9.409  -6.105  1.00  0.00     0.074 A 
ATOM     40  C   UNL     1       6.727   9.500  -7.549  1.00  0.00     0.031 C 
ATOM     41  C   UNL     1       7.354  10.365  -5.308  1.00  0.00     0.037 A 
BRANCH  28  42
ATOM     42  C   UNL     1       7.116   9.076   0.742  1.00  0.00     0.064 A 
ATOM     43  C   UNL     1       8.040   8.430   1.578  1.00  0.00     0.173 A 
ATOM     44  C   UNL     1       6.434  10.188   1.261  1.00  0.00     0.173 A 
ATOM     45  F   UNL     1       8.714   7.357   1.138  1.00  0.00    -0.203 F 
ATOM     46  C   UNL     1       8.236   8.850   2.892  1.00  0.00     0.198 A 
ATOM     47  C   UNL     1       6.660  10.628   2.563  1.00  0.00     0.198 A 
ATOM     48  F   UNL     1       5.546  10.851   0.505  1.00  0.00    -0.203 F 
ATOM     49  F   UNL     1       9.073   8.174   3.692  1.00  0.00    -0.200 F 
ATOM     50  C   UNL     1       7.551   9.951   3.381  1.00  0.00     0.200 A 
ATOM     51  F   UNL     1       6.008  11.703   3.028  1.00  0.00    -0.200 F 
ATOM     52  F   UNL     1       7.739  10.353   4.646  1.00  0.00    -0.200 F 
ENDBRANCH  28  42
BRANCH  29  53
ATOM     53  C   UNL     1       4.882   5.795  -8.435  1.00  0.00     0.064 A 
ATOM     54  C   UNL     1       5.856   5.449  -9.380  1.00  0.00     0.173 A 
ATOM     55  C   UNL     1       3.535   5.633  -8.795  1.00  0.00     0.173 A 
ATOM     56  F   UNL     1       7.156   5.600  -9.088  1.00  0.00    -0.203 F 
ATOM     57  C   UNL     1       5.498   4.966 -10.637  1.00  0.00     0.198 A 
ATOM     58  C   UNL     1       3.179   5.122 -10.040  1.00  0.00     0.198 A 
ATOM     59  F   UNL     1       2.565   5.941  -7.921  1.00  0.00    -0.203 F 
ATOM     60  F   UNL     1       6.449   4.670 -11.534  1.00  0.00    -0.200 F 
ATOM     61  C   UNL     1       4.161   4.794 -10.962  1.00  0.00     0.200 A 
ATOM     62  F   UNL     1       1.887   4.937 -10.341  1.00  0.00    -0.200 F 
ATOM     63  F   UNL     1       3.818   4.312 -12.165  1.00  0.00    -0.200 F 
ENDBRANCH  29  53
BRANCH  41  64
ATOM     64  C   UNL     1       7.946  11.573  -5.975  1.00  0.00     0.064 A 
ATOM     65  C   UNL     1       7.149  12.558  -6.575  1.00  0.00     0.173 A 
ATOM     66  C   UNL     1       9.335  11.775  -5.954  1.00  0.00     0.173 A 
ATOM     67  F   UNL     1       5.817  12.404  -6.637  1.00  0.00    -0.203 F 
ATOM     68  C   UNL     1       7.721  13.694  -7.142  1.00  0.00     0.198 A 
ATOM     69  C   UNL     1       9.901  12.927  -6.493  1.00  0.00     0.198 A 
ATOM     70  F   UNL     1      10.143  10.865  -5.389  1.00  0.00    -0.203 F 
ATOM     71  F   UNL     1       6.944  14.604  -7.745  1.00  0.00    -0.200 F 
ATOM     72  C   UNL     1       9.095  13.883  -7.090  1.00  0.00     0.200 A 
ATOM     73  F   UNL     1      11.227  13.114  -6.427  1.00  0.00    -0.200 F 
ATOM     74  F   UNL     1       9.642  14.985  -7.620  1.00  0.00    -0.200 F 
ENDBRANCH  41  64
ENDBRANCH  15  16
ENDBRANCH   8  10
ENDBRANCH   5   6
ENDBRANCH   4   5
ENDBRANCH   3   4
ENDBRANCH   2   3
ENDBRANCH   1   2
BRANCH   1  75
ATOM     75  C   UNL     1       6.834  -4.015   2.702  1.00  0.00     0.116 C 
BRANCH  75  76
ATOM     76  N   UNL     1       6.697  -5.124   3.626  1.00  0.00    -0.352 N 
ATOM     77  C   UNL     1       7.656  -5.911   4.216  1.00  0.00     0.255 C 
ATOM     78  H   UNL     1       5.770  -5.349   3.869  1.00  0.00     0.163 HD
ATOM     79  O   UNL     1       7.286  -6.892   4.860  1.00  0.00    -0.269 OA
BRANCH  77  80
ATOM     80  C   UNL     1       9.114  -5.624   4.115  1.00  0.00     0.082 A 
ATOM     81  C   UNL     1       9.965  -6.739   4.045  1.00  0.00     0.018 A 
ATOM     82  C   UNL     1       9.685  -4.345   4.198  1.00  0.00     0.137 A 
ATOM     83  C   UNL     1      11.353  -6.581   4.039  1.00  0.00     0.002 A 
ATOM     84  C   UNL     1      11.078  -4.184   4.176  1.00  0.00     0.037 A 
ATOM     85  C   UNL     1      11.910  -5.305   4.107  1.00  0.00     0.014 A 
BRANCH  82  86
ATOM     86  O   UNL     1       8.923  -3.226   4.381  1.00  0.00    -0.506 OA
ATOM     87  H   UNL     1       7.988  -3.294   4.402  1.00  0.00     0.293 HD
ENDBRANCH  82  86
BRANCH  84  88
ATOM     88  C   UNL     1      11.672  -2.831   4.309  1.00  0.00     0.145 C 
ATOM     89  N   UNL     1      12.856  -2.675   4.813  1.00  0.00    -0.181 NA
BRANCH  89  90
ATOM     90  N   UNL     1      13.349  -1.417   5.022  1.00  0.00    -0.254 N 
ATOM     91  H   UNL     1      14.329  -1.363   4.952  1.00  0.00     0.193 HD
BRANCH  90  92
ATOM     92  C   UNL     1      12.758  -0.229   5.307  1.00  0.00     0.191 C 
ATOM     93  S   UNL     1      13.658   1.166   5.054  1.00  0.00    -0.039 S 
BRANCH  92  94
ATOM     94  N   UNL     1      11.486  -0.078   5.741  1.00  0.00    -0.331 N 
ATOM     95  H   UNL     1      11.084   0.792   5.518  1.00  0.00     0.169 HD
BRANCH  94  96
ATOM     96  C   UNL     1      10.635  -0.941   6.452  1.00  0.00     0.040 A 
ATOM     97  C   UNL     1       9.258  -0.709   6.358  1.00  0.00     0.026 A 
ATOM     98  C   UNL     1      11.100  -2.007   7.221  1.00  0.00     0.026 A 
ATOM     99  C   UNL     1       8.354  -1.606   6.932  1.00  0.00     0.002 A 
ATOM    100  C   UNL     1      10.197  -2.904   7.795  1.00  0.00     0.002 A 
ATOM    101  C   UNL     1       8.825  -2.717   7.631  1.00  0.00     0.000 A 
ENDBRANCH  94  96
ENDBRANCH  92  94
ENDBRANCH  90  92
ENDBRANCH  89  90
ENDBRANCH  84  88
ENDBRANCH  77  80
ENDBRANCH  75  76
ENDBRANCH   1  75
TORSDOF 19
