REMARK SMILES COc1cccc(CSc2nc3ccccc3c(=O)n2CCC(=O)NCCCCCCNC(=O)c2ccc(-c3c4nc(c(-c5c(F)c(F)c(F)c(F)c5F)c5ccc([nH]5)c(-c5c(F)c(F)c(F)c(F)c5F)c5nc(c(-c6c(F)c(F)c(F)c(F)c6F)c6ccc3[nH]6)C=C5)C=C4)cc2)c1
REMARK SMILES IDX 26 1 25 2 23 3 24 4 22 6 21 7 20 8 10 9 11 10 12 11 18 12
REMARK SMILES IDX 13 13 17 14 19 15 14 16 16 17 15 18 9 19 8 20 7 21 3 22 4 23
REMARK SMILES IDX 98 24 5 25 6 26 2 27 1 28 27 29 28 30 29 31 30 32 31 33
REMARK SMILES IDX 32 34 33 35 34 37 35 38 36 39 97 40 37 41 96 42 38 43 39 44
REMARK SMILES IDX 40 45 90 46 41 47 95 48 89 49 91 50 42 51 94 52 88 53 87 54
REMARK SMILES IDX 43 56 75 57 55 58 74 59 56 60 59 61 73 62 92 63 57 64 58 65
REMARK SMILES IDX 72 67 93 68 60 69 44 70 45 71 53 72 46 73 47 74 51 75 54 76
REMARK SMILES IDX 48 77 49 78 52 79 50 80 76 81 77 82 85 83 78 84 79 85 83 86
REMARK SMILES IDX 86 87 80 88 81 89 84 90 82 91 61 92 62 93 70 94 63 95 64 96
REMARK SMILES IDX 68 97 71 98 65 99 66 100 69 101 67 102
REMARK H PARENT 25 5 32 36 91 55 59 66
REMARK Flexibility Score: inf
ROOT
ATOM      1  C   UNL     1       7.344  -2.050   4.538  1.00  0.00     0.116 C 
ENDROOT
BRANCH   1   2
ATOM      2  N   UNL     1       6.857  -2.594   3.276  1.00  0.00    -0.356 N 
ATOM      3  C   UNL     1       6.010  -2.084   2.342  1.00  0.00     0.221 C 
ATOM      4  O   UNL     1       5.731  -2.788   1.368  1.00  0.00    -0.275 OA
ATOM      5  H   UNL     1       7.202  -3.491   3.062  1.00  0.00     0.163 HD
BRANCH   3   6
ATOM      6  C   UNL     1       5.425  -0.691   2.463  1.00  0.00     0.122 C 
BRANCH   6   7
ATOM      7  C   UNL     1       3.890  -0.713   2.507  1.00  0.00     0.138 C 
BRANCH   7   8
ATOM      8  N   UNL     1       3.343  -0.672   3.862  1.00  0.00    -0.287 N 
ATOM      9  C   UNL     1       3.501  -1.654   4.812  1.00  0.00     0.171 A 
ATOM     10  N   UNL     1       3.781  -1.342   6.045  1.00  0.00    -0.224 NA
ATOM     11  C   UNL     1       3.865   0.013   6.391  1.00  0.00     0.079 A 
ATOM     12  C   UNL     1       2.848   0.577   4.269  1.00  0.00     0.262 A 
ATOM     13  C   UNL     1       4.596   0.427   7.504  1.00  0.00     0.029 A 
ATOM     14  C   UNL     1       3.210   0.976   5.643  1.00  0.00     0.066 A 
ATOM     15  O   UNL     1       2.264   1.363   3.545  1.00  0.00    -0.269 OA
ATOM     16  C   UNL     1       4.601   1.766   7.905  1.00  0.00     0.002 A 
ATOM     17  C   UNL     1       3.120   2.303   6.079  1.00  0.00     0.016 A 
ATOM     18  C   UNL     1       3.815   2.694   7.225  1.00  0.00     0.001 A 
BRANCH   9  19
ATOM     19  S   UNL     1       3.388  -3.379   4.539  1.00  0.00    -0.083 SA
BRANCH  19  20
ATOM     20  C   UNL     1       2.839  -3.856   2.901  1.00  0.00     0.113 C 
BRANCH  20  21
ATOM     21  C   UNL     1       1.429  -3.448   2.589  1.00  0.00    -0.034 A 
ATOM     22  C   UNL     1      -0.078  -1.930   1.449  1.00  0.00     0.119 A 
ATOM     23  C   UNL     1      -1.112  -2.359   2.280  1.00  0.00     0.046 A 
ATOM     24  C   UNL     1       1.167  -2.537   1.556  1.00  0.00     0.051 A 
ATOM     25  C   UNL     1      -0.904  -3.381   3.207  1.00  0.00     0.004 A 
ATOM     26  C   UNL     1       0.367  -3.920   3.368  1.00  0.00     0.005 A 
BRANCH  22  27
ATOM     27  O   UNL     1      -0.387  -0.905   0.599  1.00  0.00    -0.497 OA
ATOM     28  C   UNL     1       0.701  -0.274  -0.072  1.00  0.00     0.278 C 
ENDBRANCH  22  27
ENDBRANCH  20  21
ENDBRANCH  19  20
ENDBRANCH   9  19
ENDBRANCH   7   8
ENDBRANCH   6   7
ENDBRANCH   3   6
ENDBRANCH   1   2
BRANCH   1  29
ATOM     29  C   UNL     1       6.640  -2.693   5.729  1.00  0.00     0.021 C 
BRANCH  29  30
ATOM     30  C   UNL     1       7.407  -3.712   6.564  1.00  0.00     0.002 C 
BRANCH  30  31
ATOM     31  C   UNL     1       8.538  -3.158   7.427  1.00  0.00     0.002 C 
BRANCH  31  32
ATOM     32  C   UNL     1       8.231  -1.879   8.211  1.00  0.00     0.021 C 
BRANCH  32  33
ATOM     33  C   UNL     1       7.009  -1.928   9.128  1.00  0.00     0.116 C 
BRANCH  33  34
ATOM     34  N   UNL     1       7.196  -2.763  10.293  1.00  0.00    -0.352 N 
ATOM     35  C   UNL     1       7.353  -2.415  11.610  1.00  0.00     0.251 C 
ATOM     36  H   UNL     1       7.213  -3.731  10.114  1.00  0.00     0.163 HD
ATOM     37  O   UNL     1       7.662  -3.274  12.432  1.00  0.00    -0.269 OA
BRANCH  35  38
ATOM     38  C   UNL     1       7.185  -1.013  12.065  1.00  0.00     0.039 A 
ATOM     39  C   UNL     1       8.145  -0.491  12.937  1.00  0.00     0.014 A 
ATOM     40  C   UNL     1       6.068  -0.241  11.726  1.00  0.00     0.014 A 
ATOM     41  C   UNL     1       8.003   0.803  13.445  1.00  0.00     0.010 A 
ATOM     42  C   UNL     1       5.956   1.076  12.191  1.00  0.00     0.010 A 
ATOM     43  C   UNL     1       6.915   1.609  13.067  1.00  0.00    -0.014 A 
BRANCH  43  44
ATOM     44  C   UNL     1       6.794   2.994  13.601  1.00  0.00     0.031 A 
ATOM     45  C   UNL     1       5.681   3.366  14.546  1.00  0.00     0.074 A 
ATOM     46  C   UNL     1       7.696   3.929  13.242  1.00  0.00     0.049 A 
ATOM     47  N   UNL     1       5.452   4.509  15.147  1.00  0.00    -0.248 NA
ATOM     48  C   UNL     1       4.686   2.326  14.841  1.00  0.00     0.031 C 
ATOM     49  C   UNL     1       8.801   3.714  12.307  1.00  0.00     0.029 A 
ATOM     50  N   UNL     1       7.833   5.242  13.623  1.00  0.00    -0.354 N 
ATOM     51  C   UNL     1       4.291   4.325  15.887  1.00  0.00     0.074 A 
ATOM     52  C   UNL     1       3.833   2.979  15.618  1.00  0.00     0.031 C 
ATOM     53  C   UNL     1       9.519   4.844  12.209  1.00  0.00     0.029 A 
ATOM     54  C   UNL     1       8.911   5.873  13.050  1.00  0.00     0.049 A 
ATOM     55  H   UNL     1       7.216   5.688  14.247  1.00  0.00     0.167 HD
ATOM     56  C   UNL     1       3.675   5.190  16.730  1.00  0.00     0.037 A 
ATOM     57  C   UNL     1       9.362   7.135  13.186  1.00  0.00     0.037 A 
ATOM     58  C   UNL     1       4.137   6.526  17.011  1.00  0.00     0.049 A 
ATOM     59  C   UNL     1       8.656   8.078  14.122  1.00  0.00     0.074 A 
ATOM     60  C   UNL     1       3.609   7.455  17.893  1.00  0.00     0.029 A 
ATOM     61  N   UNL     1       5.232   7.128  16.409  1.00  0.00    -0.354 N 
ATOM     62  N   UNL     1       7.605   7.865  14.875  1.00  0.00    -0.248 NA
ATOM     63  C   UNL     1       9.209   9.435  14.238  1.00  0.00     0.031 C 
ATOM     64  C   UNL     1       4.350   8.636  17.784  1.00  0.00     0.029 A 
ATOM     65  C   UNL     1       5.378   8.425  16.880  1.00  0.00     0.049 A 
ATOM     66  H   UNL     1       5.818   6.699  15.745  1.00  0.00     0.167 HD
ATOM     67  C   UNL     1       7.390   9.045  15.575  1.00  0.00     0.074 A 
ATOM     68  C   UNL     1       8.428   9.968  15.167  1.00  0.00     0.031 C 
ATOM     69  C   UNL     1       6.419   9.335  16.476  1.00  0.00     0.037 A 
BRANCH  56  70
ATOM     70  C   UNL     1       2.421   4.721  17.416  1.00  0.00     0.064 A 
ATOM     71  C   UNL     1       2.452   3.732  18.412  1.00  0.00     0.173 A 
ATOM     72  C   UNL     1       1.181   5.301  17.109  1.00  0.00     0.173 A 
ATOM     73  F   UNL     1       3.610   3.141  18.741  1.00  0.00    -0.203 F 
ATOM     74  C   UNL     1       1.284   3.321  19.050  1.00  0.00     0.198 A 
ATOM     75  C   UNL     1       0.021   4.910  17.773  1.00  0.00     0.198 A 
ATOM     76  F   UNL     1       1.095   6.260  16.174  1.00  0.00    -0.203 F 
ATOM     77  F   UNL     1       1.332   2.340  19.963  1.00  0.00    -0.200 F 
ATOM     78  C   UNL     1       0.071   3.914  18.736  1.00  0.00     0.200 A 
ATOM     79  F   UNL     1      -1.148   5.498  17.479  1.00  0.00    -0.200 F 
ATOM     80  F   UNL     1      -1.050   3.524  19.358  1.00  0.00    -0.200 F 
ENDBRANCH  56  70
BRANCH  57  81
ATOM     81  C   UNL     1      10.568   7.572  12.434  1.00  0.00     0.064 A 
ATOM     82  C   UNL     1      11.772   7.851  13.096  1.00  0.00     0.173 A 
ATOM     83  C   UNL     1      10.541   7.722  11.040  1.00  0.00     0.173 A 
ATOM     84  F   UNL     1      11.843   7.744  14.431  1.00  0.00    -0.203 F 
ATOM     85  C   UNL     1      12.897   8.282  12.394  1.00  0.00     0.198 A 
ATOM     86  C   UNL     1      11.674   8.122  10.336  1.00  0.00     0.198 A 
ATOM     87  F   UNL     1       9.415   7.463  10.358  1.00  0.00    -0.203 F 
ATOM     88  F   UNL     1      14.021   8.585  13.056  1.00  0.00    -0.200 F 
ATOM     89  C   UNL     1      12.849   8.410  11.014  1.00  0.00     0.200 A 
ATOM     90  F   UNL     1      11.628   8.229   9.001  1.00  0.00    -0.200 F 
ATOM     91  F   UNL     1      13.932   8.817  10.339  1.00  0.00    -0.200 F 
ENDBRANCH  57  81
BRANCH  69  92
ATOM     92  C   UNL     1       6.454  10.694  17.118  1.00  0.00     0.064 A 
ATOM     93  C   UNL     1       6.144  11.860  16.403  1.00  0.00     0.173 A 
ATOM     94  C   UNL     1       6.769  10.825  18.480  1.00  0.00     0.173 A 
ATOM     95  F   UNL     1       5.850  11.791  15.095  1.00  0.00    -0.203 F 
ATOM     96  C   UNL     1       6.175  13.108  17.019  1.00  0.00     0.198 A 
ATOM     97  C   UNL     1       6.769  12.072  19.100  1.00  0.00     0.198 A 
ATOM     98  F   UNL     1       7.068   9.742  19.213  1.00  0.00    -0.203 F 
ATOM     99  F   UNL     1       5.926  14.213  16.303  1.00  0.00    -0.200 F 
ATOM    100  C   UNL     1       6.480  13.213  18.368  1.00  0.00     0.200 A 
ATOM    101  F   UNL     1       7.049  12.168  20.407  1.00  0.00    -0.200 F 
ATOM    102  F   UNL     1       6.503  14.415  18.960  1.00  0.00    -0.200 F 
ENDBRANCH  69  92
ENDBRANCH  43  44
ENDBRANCH  35  38
ENDBRANCH  33  34
ENDBRANCH  32  33
ENDBRANCH  31  32
ENDBRANCH  30  31
ENDBRANCH  29  30
ENDBRANCH   1  29
TORSDOF 19
