REMARK SMILES Cc1ccc2c(c1)c(-c1ccnc3c(C)cccc13)c(C)n2CC(=O)NCCCCCCNC(=O)c1ccc(-c2c3nc(c(-c4c(F)c(F)c(F)c(F)c4F)c4ccc([nH]4)c(-c4c(F)c(F)c(F)c(F)c4F)c4nc(c(-c5c(F)c(F)c(F)c(F)c5F)c5ccc2[nH]5)C=C4)C=C3)cc1
REMARK SMILES IDX 29 1 28 2 27 3 26 4 24 5 25 6 23 8 22 9 1 10 2 11 3 12 7 13
REMARK SMILES IDX 4 14 6 15 5 16 8 17 20 18 21 19 9 20 10 21 19 22 11 23 13 24
REMARK SMILES IDX 18 25 12 26 14 27 17 28 15 29 16 30 30 31 31 32 32 33 33 34
REMARK SMILES IDX 34 35 35 37 36 38 37 39 98 40 38 41 97 42 39 43 40 44 41 45
REMARK SMILES IDX 91 46 42 47 96 48 90 49 92 50 43 51 95 52 89 53 88 54 44 56
REMARK SMILES IDX 76 57 56 58 75 59 57 60 60 61 74 62 93 63 58 64 59 65 73 67
REMARK SMILES IDX 94 68 61 69 45 70 46 71 54 72 47 73 48 74 52 75 55 76 49 77
REMARK SMILES IDX 50 78 53 79 51 80 77 81 78 82 86 83 79 84 80 85 84 86 87 87
REMARK SMILES IDX 81 88 82 89 85 90 83 91 62 92 63 93 71 94 64 95 65 96 69 97
REMARK SMILES IDX 72 98 66 99 67 100 70 101 68 102
REMARK H PARENT 26 7 33 36 92 55 60 66
REMARK Flexibility Score: inf
ROOT
ATOM      1  C   UNL     1       3.494  -4.050   5.515  1.00  0.00     0.002 C 
ENDROOT
BRANCH   1   2
ATOM      2  C   UNL     1       2.634  -3.879   4.257  1.00  0.00     0.021 C 
BRANCH   2   3
ATOM      3  C   UNL     1       2.547  -5.132   3.389  1.00  0.00     0.116 C 
BRANCH   3   4
ATOM      4  N   UNL     1       1.740  -6.155   4.026  1.00  0.00    -0.355 N 
ATOM      5  C   UNL     1       0.451  -6.525   3.774  1.00  0.00     0.239 C 
ATOM      6  O   UNL     1      -0.050  -7.386   4.503  1.00  0.00    -0.273 OA
ATOM      7  H   UNL     1       2.188  -6.656   4.745  1.00  0.00     0.163 HD
BRANCH   5   8
ATOM      8  C   UNL     1      -0.312  -5.960   2.590  1.00  0.00     0.222 C 
BRANCH   8   9
ATOM      9  N   UNL     1      -0.699  -4.560   2.741  1.00  0.00    -0.335 N 
ATOM     10  C   UNL     1       0.897   0.165   0.070  1.00  0.00     0.044 C 
ATOM     11  C   UNL     1       0.454  -1.122   0.703  1.00  0.00    -0.050 A 
ATOM     12  C   UNL     1       0.852  -2.337   0.145  1.00  0.00     0.005 A 
ATOM     13  C   UNL     1      -0.353  -1.119   1.851  1.00  0.00     0.014 A 
ATOM     14  C   UNL     1       0.486  -3.556   0.723  1.00  0.00     0.027 A 
ATOM     15  C   UNL     1      -0.731  -2.338   2.459  1.00  0.00     0.008 A 
ATOM     16  C   UNL     1      -0.281  -3.537   1.901  1.00  0.00     0.049 A 
ATOM     17  C   UNL     1      -1.517  -2.673   3.599  1.00  0.00     0.011 A 
ATOM     18  C   UNL     1      -1.533  -4.056   3.722  1.00  0.00     0.024 A 
ATOM     19  C   UNL     1      -2.240  -4.902   4.731  1.00  0.00     0.065 C 
BRANCH  17  20
ATOM     20  C   UNL     1      -2.213  -1.788   4.527  1.00  0.00    -0.005 A 
ATOM     21  C   UNL     1      -3.426  -1.240   4.121  1.00  0.00     0.029 A 
ATOM     22  C   UNL     1      -1.702  -1.503   5.820  1.00  0.00     0.008 A 
ATOM     23  C   UNL     1      -4.102  -0.445   5.018  1.00  0.00     0.112 A 
ATOM     24  C   UNL     1      -2.480  -0.687   6.671  1.00  0.00     0.074 A 
ATOM     25  C   UNL     1      -0.463  -1.998   6.288  1.00  0.00     0.011 A 
ATOM     26  N   UNL     1      -3.659  -0.171   6.263  1.00  0.00    -0.256 NA
ATOM     27  C   UNL     1      -2.002  -0.424   7.965  1.00  0.00    -0.025 A 
ATOM     28  C   UNL     1       0.008  -1.714   7.563  1.00  0.00     0.001 A 
ATOM     29  C   UNL     1      -2.792   0.404   8.945  1.00  0.00     0.047 C 
ATOM     30  C   UNL     1      -0.764  -0.930   8.402  1.00  0.00     0.005 A 
ENDBRANCH  17  20
ENDBRANCH   8   9
ENDBRANCH   5   8
ENDBRANCH   3   4
ENDBRANCH   2   3
ENDBRANCH   1   2
BRANCH   1  31
ATOM     31  C   UNL     1       4.982  -4.281   5.242  1.00  0.00     0.002 C 
BRANCH  31  32
ATOM     32  C   UNL     1       5.659  -3.197   4.398  1.00  0.00     0.021 C 
BRANCH  32  33
ATOM     33  C   UNL     1       5.559  -1.785   4.981  1.00  0.00     0.116 C 
BRANCH  33  34
ATOM     34  N   UNL     1       6.210  -1.637   6.269  1.00  0.00    -0.352 N 
ATOM     35  C   UNL     1       7.501  -1.434   6.677  1.00  0.00     0.251 C 
ATOM     36  H   UNL     1       5.579  -1.695   7.023  1.00  0.00     0.163 HD
ATOM     37  O   UNL     1       7.677  -1.242   7.872  1.00  0.00    -0.269 OA
BRANCH  35  38
ATOM     38  C   UNL     1       8.694  -1.501   5.779  1.00  0.00     0.039 A 
ATOM     39  C   UNL     1       8.655  -1.643   4.395  1.00  0.00     0.014 A 
ATOM     40  C   UNL     1       9.953  -1.482   6.412  1.00  0.00     0.014 A 
ATOM     41  C   UNL     1       9.815  -1.901   3.679  1.00  0.00     0.010 A 
ATOM     42  C   UNL     1      11.126  -1.695   5.691  1.00  0.00     0.010 A 
ATOM     43  C   UNL     1      11.049  -1.964   4.330  1.00  0.00    -0.014 A 
BRANCH  43  44
ATOM     44  C   UNL     1      12.210  -2.270   3.498  1.00  0.00     0.031 A 
ATOM     45  C   UNL     1      12.428  -1.365   2.332  1.00  0.00     0.074 A 
ATOM     46  C   UNL     1      13.069  -3.279   3.743  1.00  0.00     0.049 A 
ATOM     47  N   UNL     1      12.432  -1.663   1.071  1.00  0.00    -0.248 NA
ATOM     48  C   UNL     1      12.581   0.071   2.611  1.00  0.00     0.031 C 
ATOM     49  C   UNL     1      13.189  -4.111   4.940  1.00  0.00     0.029 A 
ATOM     50  N   UNL     1      14.089  -3.720   2.952  1.00  0.00    -0.354 N 
ATOM     51  C   UNL     1      12.724  -0.480   0.394  1.00  0.00     0.074 A 
ATOM     52  C   UNL     1      12.714   0.570   1.381  1.00  0.00     0.031 C 
ATOM     53  C   UNL     1      14.348  -4.807   4.883  1.00  0.00     0.029 A 
ATOM     54  C   UNL     1      14.969  -4.579   3.589  1.00  0.00     0.049 A 
ATOM     55  H   UNL     1      14.191  -3.452   2.010  1.00  0.00     0.167 HD
ATOM     56  C   UNL     1      13.113  -0.466  -0.911  1.00  0.00     0.037 A 
ATOM     57  C   UNL     1      16.155  -5.016   3.104  1.00  0.00     0.037 A 
ATOM     58  C   UNL     1      12.732  -1.668  -1.599  1.00  0.00     0.049 A 
ATOM     59  C   UNL     1      16.123  -4.871   1.629  1.00  0.00     0.074 A 
ATOM     60  C   UNL     1      11.531  -2.268  -1.921  1.00  0.00     0.029 A 
ATOM     61  N   UNL     1      13.689  -2.621  -1.835  1.00  0.00    -0.354 N 
ATOM     62  N   UNL     1      15.383  -5.592   0.835  1.00  0.00    -0.248 NA
ATOM     63  C   UNL     1      16.654  -3.647   1.050  1.00  0.00     0.031 C 
ATOM     64  C   UNL     1      11.785  -3.670  -1.857  1.00  0.00     0.029 A 
ATOM     65  C   UNL     1      13.129  -3.832  -1.522  1.00  0.00     0.049 A 
ATOM     66  H   UNL     1      14.603  -2.466  -2.167  1.00  0.00     0.167 HD
ATOM     67  C   UNL     1      15.016  -4.728  -0.184  1.00  0.00     0.074 A 
ATOM     68  C   UNL     1      15.915  -3.587  -0.060  1.00  0.00     0.031 C 
ATOM     69  C   UNL     1      13.844  -4.896  -0.861  1.00  0.00     0.037 A 
BRANCH  56  70
ATOM     70  C   UNL     1      14.104   0.512  -1.491  1.00  0.00     0.064 A 
ATOM     71  C   UNL     1      14.311   0.555  -2.885  1.00  0.00     0.173 A 
ATOM     72  C   UNL     1      15.066   1.190  -0.712  1.00  0.00     0.173 A 
ATOM     73  F   UNL     1      13.472  -0.075  -3.721  1.00  0.00    -0.203 F 
ATOM     74  C   UNL     1      15.434   1.169  -3.446  1.00  0.00     0.198 A 
ATOM     75  C   UNL     1      16.157   1.845  -1.279  1.00  0.00     0.198 A 
ATOM     76  F   UNL     1      15.049   1.149   0.626  1.00  0.00    -0.203 F 
ATOM     77  F   UNL     1      15.652   1.078  -4.765  1.00  0.00    -0.200 F 
ATOM     78  C   UNL     1      16.359   1.808  -2.642  1.00  0.00     0.200 A 
ATOM     79  F   UNL     1      17.053   2.444  -0.481  1.00  0.00    -0.200 F 
ATOM     80  F   UNL     1      17.467   2.344  -3.171  1.00  0.00    -0.200 F 
ENDBRANCH  56  70
BRANCH  57  81
ATOM     81  C   UNL     1      17.417  -5.243   3.845  1.00  0.00     0.064 A 
ATOM     82  C   UNL     1      18.483  -5.940   3.253  1.00  0.00     0.173 A 
ATOM     83  C   UNL     1      17.711  -4.531   5.024  1.00  0.00     0.173 A 
ATOM     84  F   UNL     1      18.297  -6.611   2.107  1.00  0.00    -0.203 F 
ATOM     85  C   UNL     1      19.774  -5.893   3.786  1.00  0.00     0.198 A 
ATOM     86  C   UNL     1      18.998  -4.493   5.561  1.00  0.00     0.198 A 
ATOM     87  F   UNL     1      16.781  -3.774   5.623  1.00  0.00    -0.203 F 
ATOM     88  F   UNL     1      20.782  -6.508   3.151  1.00  0.00    -0.200 F 
ATOM     89  C   UNL     1      20.033  -5.159   4.931  1.00  0.00     0.200 A 
ATOM     90  F   UNL     1      19.241  -3.751   6.650  1.00  0.00    -0.200 F 
ATOM     91  F   UNL     1      21.283  -5.056   5.403  1.00  0.00    -0.200 F 
ENDBRANCH  57  81
BRANCH  69  92
ATOM     92  C   UNL     1      13.109  -6.192  -0.673  1.00  0.00     0.064 A 
ATOM     93  C   UNL     1      12.567  -6.608   0.555  1.00  0.00     0.173 A 
ATOM     94  C   UNL     1      12.820  -6.968  -1.804  1.00  0.00     0.173 A 
ATOM     95  F   UNL     1      12.711  -5.864   1.659  1.00  0.00    -0.203 F 
ATOM     96  C   UNL     1      11.808  -7.773   0.651  1.00  0.00     0.198 A 
ATOM     97  C   UNL     1      12.031  -8.111  -1.712  1.00  0.00     0.198 A 
ATOM     98  F   UNL     1      13.261  -6.585  -3.013  1.00  0.00    -0.203 F 
ATOM     99  F   UNL     1      11.307  -8.154   1.835  1.00  0.00    -0.200 F 
ATOM    100  C   UNL     1      11.534  -8.519  -0.484  1.00  0.00     0.200 A 
ATOM    101  F   UNL     1      11.725  -8.800  -2.819  1.00  0.00    -0.200 F 
ATOM    102  F   UNL     1      10.765  -9.613  -0.400  1.00  0.00    -0.200 F 
ENDBRANCH  69  92
ENDBRANCH  43  44
ENDBRANCH  35  38
ENDBRANCH  33  34
ENDBRANCH  32  33
ENDBRANCH  31  32
ENDBRANCH   1  31
TORSDOF 15
