REMARK SMILES CCNC(=O)N1CC[C@H](Cc2cccc(C(=O)NCCCCCCNC(=O)c3ccc(-c4c5nc(c(-c6c(F)c(F)c(F)c(F)c6F)c6ccc([nH]6)c(-c6c(F)c(F)c(F)c(F)c6F)c6nc(c(-c7c(F)c(F)c(F)c(F)c7F)c7ccc4[nH]7)C=C6)C=C5)cc3)c2)C1
REMARK SMILES IDX 20 1 19 2 18 3 16 4 17 5 15 7 11 8 12 9 91 10 13 11 14 12
REMARK SMILES IDX 10 13 9 14 6 15 7 16 92 17 8 18 4 19 3 20 5 22 2 23 1 24
REMARK SMILES IDX 21 25 22 26 23 27 24 28 25 29 26 30 27 32 28 33 29 34 90 35
REMARK SMILES IDX 30 36 89 37 31 38 32 39 33 40 83 41 34 42 88 43 82 44 84 45
REMARK SMILES IDX 35 46 87 47 81 48 80 49 36 51 68 52 48 53 67 54 49 55 52 56
REMARK SMILES IDX 66 57 85 58 50 59 51 60 65 62 86 63 53 64 37 65 38 66 46 67
REMARK SMILES IDX 39 68 40 69 44 70 47 71 41 72 42 73 45 74 43 75 69 76 70 77
REMARK SMILES IDX 78 78 71 79 72 80 76 81 79 82 73 83 74 84 77 85 75 86 54 87
REMARK SMILES IDX 55 88 63 89 56 90 57 91 61 92 64 93 58 94 59 95 62 96 60 97
REMARK H PARENT 18 6 3 21 25 31 84 50 52 61
REMARK Flexibility Score: inf
ROOT
ATOM      1  C   UNL     1      -8.402   5.141   1.649  1.00  0.00     0.021 C 
ENDROOT
BRANCH   1   2
ATOM      2  C   UNL     1      -7.743   3.774   1.761  1.00  0.00     0.116 C 
BRANCH   2   3
ATOM      3  N   UNL     1      -8.668   2.651   1.804  1.00  0.00    -0.352 N 
ATOM      4  C   UNL     1      -8.634   1.416   1.187  1.00  0.00     0.251 C 
ATOM      5  O   UNL     1      -9.569   0.639   1.377  1.00  0.00    -0.269 OA
ATOM      6  H   UNL     1      -9.456   2.798   2.375  1.00  0.00     0.163 HD
BRANCH   4   7
ATOM      7  C   UNL     1      -7.537   1.017   0.261  1.00  0.00     0.040 A 
ATOM      8  C   UNL     1      -5.281   1.347  -0.608  1.00  0.00    -0.047 A 
ATOM      9  C   UNL     1      -5.584   0.503  -1.681  1.00  0.00     0.004 A 
ATOM     10  C   UNL     1      -6.241   1.509   0.398  1.00  0.00     0.017 A 
ATOM     11  C   UNL     1      -6.827  -0.133  -1.750  1.00  0.00     0.001 A 
ATOM     12  C   UNL     1      -7.811   0.146  -0.797  1.00  0.00     0.014 A 
BRANCH   8  13
ATOM     13  C   UNL     1      -4.011   2.171  -0.612  1.00  0.00     0.041 C 
BRANCH  13  14
ATOM     14  C   UNL     1      -3.452   2.522   0.773  1.00  0.00     0.015 C 
ATOM     15  N   UNL     1      -1.211   2.612   1.484  1.00  0.00    -0.325 N 
ATOM     16  C   UNL     1      -1.900   1.739   2.411  1.00  0.00     0.121 C 
ATOM     17  C   UNL     1      -2.164   3.357   0.695  1.00  0.00     0.125 C 
ATOM     18  C   UNL     1      -3.061   1.262   1.571  1.00  0.00     0.027 C 
BRANCH  15  19
ATOM     19  C   UNL     1       0.119   2.871   1.415  1.00  0.00     0.317 C 
ATOM     20  N   UNL     1       0.986   1.845   1.616  1.00  0.00    -0.338 N 
ATOM     21  H   UNL     1       1.844   2.073   2.040  1.00  0.00     0.165 HD
ATOM     22  O   UNL     1       0.564   3.977   1.115  1.00  0.00    -0.249 OA
BRANCH  20  23
ATOM     23  C   UNL     1       0.782   0.448   1.272  1.00  0.00     0.114 C 
ATOM     24  C   UNL     1       1.408   0.119  -0.073  1.00  0.00     0.027 C 
ENDBRANCH  20  23
ENDBRANCH  15  19
ENDBRANCH  13  14
ENDBRANCH   8  13
ENDBRANCH   4   7
ENDBRANCH   2   3
ENDBRANCH   1   2
BRANCH   1  25
ATOM     25  C   UNL     1      -9.235   5.597   2.844  1.00  0.00     0.002 C 
BRANCH  25  26
ATOM     26  C   UNL     1      -8.531   5.593   4.204  1.00  0.00     0.002 C 
BRANCH  26  27
ATOM     27  C   UNL     1      -7.188   6.323   4.278  1.00  0.00     0.021 C 
BRANCH  27  28
ATOM     28  C   UNL     1      -7.189   7.771   3.797  1.00  0.00     0.116 C 
BRANCH  28  29
ATOM     29  N   UNL     1      -8.089   8.617   4.562  1.00  0.00    -0.352 N 
ATOM     30  C   UNL     1      -7.843   9.802   5.209  1.00  0.00     0.251 C 
ATOM     31  H   UNL     1      -9.016   8.291   4.625  1.00  0.00     0.163 HD
ATOM     32  O   UNL     1      -8.697  10.293   5.938  1.00  0.00    -0.269 OA
BRANCH  30  33
ATOM     33  C   UNL     1      -6.537  10.482   5.051  1.00  0.00     0.039 A 
ATOM     34  C   UNL     1      -5.913  11.010   6.185  1.00  0.00     0.014 A 
ATOM     35  C   UNL     1      -5.936  10.619   3.797  1.00  0.00     0.014 A 
ATOM     36  C   UNL     1      -4.662  11.620   6.070  1.00  0.00     0.010 A 
ATOM     37  C   UNL     1      -4.657  11.161   3.694  1.00  0.00     0.010 A 
ATOM     38  C   UNL     1      -4.006  11.669   4.829  1.00  0.00    -0.014 A 
BRANCH  38  39
ATOM     39  C   UNL     1      -2.646  12.255   4.700  1.00  0.00     0.031 A 
ATOM     40  C   UNL     1      -2.429  13.487   3.864  1.00  0.00     0.074 A 
ATOM     41  C   UNL     1      -1.600  11.653   5.299  1.00  0.00     0.049 A 
ATOM     42  N   UNL     1      -1.312  14.104   3.570  1.00  0.00    -0.248 NA
ATOM     43  C   UNL     1      -3.626  14.097   3.261  1.00  0.00     0.031 C 
ATOM     44  C   UNL     1      -1.674  10.437   6.111  1.00  0.00     0.029 A 
ATOM     45  N   UNL     1      -0.265  11.976   5.311  1.00  0.00    -0.354 N 
ATOM     46  C   UNL     1      -1.671  15.169   2.755  1.00  0.00     0.074 A 
ATOM     47  C   UNL     1      -3.099  15.080   2.545  1.00  0.00     0.031 C 
ATOM     48  C   UNL     1      -0.446  10.129   6.558  1.00  0.00     0.029 A 
ATOM     49  C   UNL     1       0.510  11.098   6.029  1.00  0.00     0.049 A 
ATOM     50  H   UNL     1       0.102  12.764   4.848  1.00  0.00     0.167 HD
ATOM     51  C   UNL     1      -0.885  16.152   2.253  1.00  0.00     0.037 A 
ATOM     52  C   UNL     1       1.842  11.070   6.227  1.00  0.00     0.037 A 
ATOM     53  C   UNL     1       0.535  16.246   2.468  1.00  0.00     0.049 A 
ATOM     54  C   UNL     1       2.696  12.148   5.610  1.00  0.00     0.074 A 
ATOM     55  C   UNL     1       1.416  17.211   2.012  1.00  0.00     0.029 A 
ATOM     56  N   UNL     1       1.282  15.340   3.206  1.00  0.00    -0.354 N 
ATOM     57  N   UNL     1       2.336  13.181   4.886  1.00  0.00    -0.248 NA
ATOM     58  C   UNL     1       4.144  12.060   5.844  1.00  0.00     0.031 C 
ATOM     59  C   UNL     1       2.702  16.868   2.440  1.00  0.00     0.029 A 
ATOM     60  C   UNL     1       2.615  15.718   3.208  1.00  0.00     0.049 A 
ATOM     61  H   UNL     1       0.919  14.546   3.661  1.00  0.00     0.167 HD
ATOM     62  C   UNL     1       3.503  13.883   4.617  1.00  0.00     0.074 A 
ATOM     63  C   UNL     1       4.580  13.170   5.269  1.00  0.00     0.031 C 
ATOM     64  C   UNL     1       3.670  15.014   3.889  1.00  0.00     0.037 A 
BRANCH  51  65
ATOM     65  C   UNL     1      -1.547  17.225   1.436  1.00  0.00     0.064 A 
ATOM     66  C   UNL     1      -2.395  18.173   2.030  1.00  0.00     0.173 A 
ATOM     67  C   UNL     1      -1.287  17.347   0.063  1.00  0.00     0.173 A 
ATOM     68  F   UNL     1      -2.685  18.095   3.337  1.00  0.00    -0.203 F 
ATOM     69  C   UNL     1      -2.972  19.192   1.276  1.00  0.00     0.198 A 
ATOM     70  C   UNL     1      -1.841  18.386  -0.682  1.00  0.00     0.198 A 
ATOM     71  F   UNL     1      -0.479  16.471  -0.554  1.00  0.00    -0.203 F 
ATOM     72  F   UNL     1      -3.809  20.061   1.857  1.00  0.00    -0.200 F 
ATOM     73  C   UNL     1      -2.687  19.303  -0.077  1.00  0.00     0.200 A 
ATOM     74  F   UNL     1      -1.553  18.501  -1.986  1.00  0.00    -0.200 F 
ATOM     75  F   UNL     1      -3.230  20.293  -0.798  1.00  0.00    -0.200 F 
ENDBRANCH  51  65
BRANCH  52  76
ATOM     76  C   UNL     1       2.466   9.996   7.048  1.00  0.00     0.064 A 
ATOM     77  C   UNL     1       3.108  10.296   8.258  1.00  0.00     0.173 A 
ATOM     78  C   UNL     1       2.486   8.662   6.615  1.00  0.00     0.173 A 
ATOM     79  F   UNL     1       3.135  11.559   8.707  1.00  0.00    -0.203 F 
ATOM     80  C   UNL     1       3.784   9.313   8.979  1.00  0.00     0.198 A 
ATOM     81  C   UNL     1       3.130   7.673   7.356  1.00  0.00     0.198 A 
ATOM     82  F   UNL     1       1.881   8.318   5.469  1.00  0.00    -0.203 F 
ATOM     83  F   UNL     1       4.452   9.643  10.093  1.00  0.00    -0.200 F 
ATOM     84  C   UNL     1       3.793   8.002   8.528  1.00  0.00     0.200 A 
ATOM     85  F   UNL     1       3.123   6.404   6.926  1.00  0.00    -0.200 F 
ATOM     86  F   UNL     1       4.452   7.059   9.216  1.00  0.00    -0.200 F 
ENDBRANCH  52  76
BRANCH  64  87
ATOM     87  C   UNL     1       5.056  15.588   3.814  1.00  0.00     0.064 A 
ATOM     88  C   UNL     1       6.079  14.961   3.088  1.00  0.00     0.173 A 
ATOM     89  C   UNL     1       5.354  16.803   4.452  1.00  0.00     0.173 A 
ATOM     90  F   UNL     1       5.851  13.791   2.472  1.00  0.00    -0.203 F 
ATOM     91  C   UNL     1       7.357  15.512   3.029  1.00  0.00     0.198 A 
ATOM     92  C   UNL     1       6.622  17.368   4.362  1.00  0.00     0.198 A 
ATOM     93  F   UNL     1       4.409  17.448   5.152  1.00  0.00    -0.203 F 
ATOM     94  F   UNL     1       8.333  14.866   2.376  1.00  0.00    -0.200 F 
ATOM     95  C   UNL     1       7.625  16.718   3.659  1.00  0.00     0.200 A 
ATOM     96  F   UNL     1       6.875  18.542   4.957  1.00  0.00    -0.200 F 
ATOM     97  F   UNL     1       8.853  17.250   3.595  1.00  0.00    -0.200 F 
ENDBRANCH  64  87
ENDBRANCH  38  39
ENDBRANCH  30  33
ENDBRANCH  28  29
ENDBRANCH  27  28
ENDBRANCH  26  27
ENDBRANCH  25  26
ENDBRANCH   1  25
TORSDOF 17
