REMARK SMILES C[C@@H](Sc1nnc(-c2ccc3c(c2)OCCCO3)n1C1CC1)C(=O)NCCCCCCNC(=O)c1ccc(-c2c3nc(c(-c4c(F)c(F)c(F)c(F)c4F)c4ccc([nH]4)c(-c4c(F)c(F)c(F)c(F)c4F)c4nc(c(-c5c(F)c(F)c(F)c(F)c5F)c5ccc2[nH]5)C=C4)C=C3)cc1
REMARK SMILES IDX 26 1 25 2 23 3 24 4 2 6 1 7 3 8 4 9 5 10 19 11 6 12 7 13
REMARK SMILES IDX 20 14 21 15 22 16 8 17 9 18 13 19 10 20 12 21 11 22 14 23
REMARK SMILES IDX 15 24 16 25 18 27 17 28 27 30 28 31 29 32 30 33 31 34 32 35
REMARK SMILES IDX 33 36 34 38 35 39 36 40 97 41 37 42 96 43 38 44 39 45 40 46
REMARK SMILES IDX 90 47 41 48 95 49 89 50 91 51 42 52 94 53 88 54 87 55 43 57
REMARK SMILES IDX 75 58 55 59 74 60 56 61 59 62 73 63 92 64 57 65 58 66 72 68
REMARK SMILES IDX 93 69 60 70 44 71 45 72 53 73 46 74 47 75 51 76 54 77 48 78
REMARK SMILES IDX 49 79 52 80 50 81 76 82 77 83 85 84 78 85 79 86 83 87 86 88
REMARK SMILES IDX 80 89 81 90 84 91 82 92 61 93 62 94 70 95 63 96 64 97 68 98
REMARK SMILES IDX 71 99 65 100 66 101 69 102 67 103
REMARK H PARENT 25 5 32 37 91 56 59 67
REMARK Flexibility Score: 80.00
ROOT
ATOM      1  C   UNL     1      -1.206  -1.929  -0.933  1.00  0.00     0.116 C 
ENDROOT
BRANCH   1   2
ATOM      2  N   UNL     1      -1.579  -0.543  -1.114  1.00  0.00    -0.355 N 
ATOM      3  C   UNL     1      -0.795   0.542  -1.401  1.00  0.00     0.233 C 
ATOM      4  O   UNL     1      -1.372   1.619  -1.581  1.00  0.00    -0.274 OA
ATOM      5  H   UNL     1      -2.540  -0.351  -1.017  1.00  0.00     0.163 HD
BRANCH   3   6
ATOM      6  C   UNL     1       0.740   0.458  -1.449  1.00  0.00     0.141 C 
ATOM      7  C   UNL     1       1.317   0.147  -0.068  1.00  0.00     0.030 C 
BRANCH   6   8
ATOM      8  S   UNL     1       1.244  -0.679  -2.799  1.00  0.00    -0.073 SA
BRANCH   8   9
ATOM      9  C   UNL     1       2.958  -0.738  -2.635  1.00  0.00     0.192 A 
ATOM     10  N   UNL     1       3.731   0.324  -2.582  1.00  0.00    -0.123 NA
ATOM     11  N   UNL     1       3.734  -1.871  -2.590  1.00  0.00    -0.299 N 
ATOM     12  N   UNL     1       5.039  -0.103  -2.564  1.00  0.00    -0.129 NA
ATOM     13  C   UNL     1       5.043  -1.420  -2.631  1.00  0.00     0.165 A 
BRANCH  11  14
ATOM     14  C   UNL     1       3.399  -3.285  -2.444  1.00  0.00     0.091 C 
ATOM     15  C   UNL     1       2.179  -3.822  -1.737  1.00  0.00     0.028 C 
ATOM     16  C   UNL     1       2.291  -3.968  -3.217  1.00  0.00     0.028 C 
ENDBRANCH  11  14
BRANCH  13  17
ATOM     17  C   UNL     1       6.211  -2.291  -2.680  1.00  0.00     0.023 A 
ATOM     18  C   UNL     1       7.074  -2.354  -1.582  1.00  0.00     0.016 A 
ATOM     19  C   UNL     1       6.396  -3.168  -3.761  1.00  0.00     0.062 A 
ATOM     20  C   UNL     1       8.073  -3.328  -1.535  1.00  0.00     0.051 A 
ATOM     21  C   UNL     1       7.405  -4.128  -3.719  1.00  0.00     0.161 A 
ATOM     22  C   UNL     1       8.236  -4.213  -2.601  1.00  0.00     0.161 A 
BRANCH  21  23
ATOM     23  O   UNL     1       7.428  -5.040  -4.739  1.00  0.00    -0.490 OA
BRANCH  23  24
ATOM     24  C   UNL     1       8.670  -5.033  -5.442  1.00  0.00     0.233 C 
BRANCH  24  25
ATOM     25  C   UNL     1       9.749  -5.830  -4.724  1.00  0.00     0.083 CG0
ATOM     26  G   UNL     1      10.177  -5.153  -3.432  1.00  0.00     0.000 G0
ENDBRANCH  24  25
ENDBRANCH  23  24
ENDBRANCH  21  23
BRANCH  22  27
ATOM     27  O   UNL     1       9.157  -5.210  -2.436  1.00  0.00    -0.490 OA
BRANCH  27  28
ATOM     28  C   UNL     1      10.177  -5.153  -3.432  1.00  0.00     0.233 CG0
ATOM     29  G   UNL     1       9.749  -5.830  -4.724  1.00  0.00     0.000 G0
ENDBRANCH  27  28
ENDBRANCH  22  27
ENDBRANCH  13  17
ENDBRANCH   8   9
ENDBRANCH   6   8
ENDBRANCH   3   6
ENDBRANCH   1   2
BRANCH   1  30
ATOM     30  C   UNL     1      -1.727  -2.521   0.369  1.00  0.00     0.021 C 
BRANCH  30  31
ATOM     31  C   UNL     1      -3.205  -2.904   0.329  1.00  0.00     0.002 C 
BRANCH  31  32
ATOM     32  C   UNL     1      -3.568  -3.988  -0.695  1.00  0.00     0.002 C 
BRANCH  32  33
ATOM     33  C   UNL     1      -2.788  -5.308  -0.580  1.00  0.00     0.021 C 
BRANCH  33  34
ATOM     34  C   UNL     1      -2.822  -5.945   0.811  1.00  0.00     0.116 C 
BRANCH  34  35
ATOM     35  N   UNL     1      -4.168  -6.148   1.302  1.00  0.00    -0.352 N 
ATOM     36  C   UNL     1      -5.072  -7.166   1.277  1.00  0.00     0.251 C 
ATOM     37  H   UNL     1      -4.516  -5.354   1.769  1.00  0.00     0.163 HD
ATOM     38  O   UNL     1      -6.127  -6.961   1.892  1.00  0.00    -0.269 OA
BRANCH  36  39
ATOM     39  C   UNL     1      -4.923  -8.448   0.540  1.00  0.00     0.039 A 
ATOM     40  C   UNL     1      -3.852  -8.801  -0.280  1.00  0.00     0.014 A 
ATOM     41  C   UNL     1      -6.021  -9.328   0.623  1.00  0.00     0.014 A 
ATOM     42  C   UNL     1      -3.932  -9.933  -1.086  1.00  0.00     0.010 A 
ATOM     43  C   UNL     1      -6.097 -10.469  -0.166  1.00  0.00     0.010 A 
ATOM     44  C   UNL     1      -5.083 -10.729  -1.078  1.00  0.00    -0.014 A 
BRANCH  44  45
ATOM     45  C   UNL     1      -5.176 -11.809  -2.058  1.00  0.00     0.031 A 
ATOM     46  C   UNL     1      -4.054 -12.792  -2.053  1.00  0.00     0.074 A 
ATOM     47  C   UNL     1      -6.210 -11.946  -2.915  1.00  0.00     0.049 A 
ATOM     48  N   UNL     1      -3.189 -13.023  -2.989  1.00  0.00    -0.248 NA
ATOM     49  C   UNL     1      -3.812 -13.548  -0.816  1.00  0.00     0.031 C 
ATOM     50  C   UNL     1      -7.497 -11.244  -2.942  1.00  0.00     0.029 A 
ATOM     51  N   UNL     1      -6.326 -12.824  -3.950  1.00  0.00    -0.354 N 
ATOM     52  C   UNL     1      -2.368 -14.047  -2.521  1.00  0.00     0.074 A 
ATOM     53  C   UNL     1      -2.739 -14.269  -1.145  1.00  0.00     0.031 C 
ATOM     54  C   UNL     1      -8.336 -11.870  -3.801  1.00  0.00     0.029 A 
ATOM     55  C   UNL     1      -7.597 -12.906  -4.499  1.00  0.00     0.049 A 
ATOM     56  H   UNL     1      -5.568 -13.357  -4.283  1.00  0.00     0.167 HD
ATOM     57  C   UNL     1      -1.540 -14.749  -3.344  1.00  0.00     0.037 A 
ATOM     58  C   UNL     1      -8.011 -13.791  -5.438  1.00  0.00     0.037 A 
ATOM     59  C   UNL     1      -1.282 -14.047  -4.571  1.00  0.00     0.049 A 
ATOM     60  C   UNL     1      -6.804 -14.273  -6.152  1.00  0.00     0.074 A 
ATOM     61  C   UNL     1      -0.642 -12.868  -4.899  1.00  0.00     0.029 A 
ATOM     62  N   UNL     1      -1.995 -14.393  -5.690  1.00  0.00    -0.354 N 
ATOM     63  N   UNL     1      -6.077 -13.524  -6.933  1.00  0.00    -0.248 NA
ATOM     64  C   UNL     1      -6.155 -15.471  -5.644  1.00  0.00     0.031 C 
ATOM     65  C   UNL     1      -1.405 -12.320  -5.972  1.00  0.00     0.029 A 
ATOM     66  C   UNL     1      -2.431 -13.222  -6.255  1.00  0.00     0.049 A 
ATOM     67  H   UNL     1      -2.161 -15.305  -6.023  1.00  0.00     0.167 HD
ATOM     68  C   UNL     1      -4.773 -13.922  -6.685  1.00  0.00     0.074 A 
ATOM     69  C   UNL     1      -4.888 -15.172  -5.938  1.00  0.00     0.031 C 
ATOM     70  C   UNL     1      -3.725 -13.067  -6.870  1.00  0.00     0.037 A 
BRANCH  57  71
ATOM     71  C   UNL     1      -1.191 -16.203  -3.166  1.00  0.00     0.064 A 
ATOM     72  C   UNL     1      -0.168 -16.782  -3.945  1.00  0.00     0.173 A 
ATOM     73  C   UNL     1      -2.024 -17.111  -2.479  1.00  0.00     0.173 A 
ATOM     74  F   UNL     1       0.669 -16.011  -4.655  1.00  0.00    -0.203 F 
ATOM     75  C   UNL     1      -0.037 -18.167  -4.078  1.00  0.00     0.198 A 
ATOM     76  C   UNL     1      -1.860 -18.492  -2.576  1.00  0.00     0.198 A 
ATOM     77  F   UNL     1      -3.090 -16.701  -1.781  1.00  0.00    -0.203 F 
ATOM     78  F   UNL     1       0.875 -18.672  -4.920  1.00  0.00    -0.200 F 
ATOM     79  C   UNL     1      -0.887 -19.021  -3.399  1.00  0.00     0.200 A 
ATOM     80  F   UNL     1      -2.706 -19.304  -1.926  1.00  0.00    -0.200 F 
ATOM     81  F   UNL     1      -0.804 -20.346  -3.574  1.00  0.00    -0.200 F 
ENDBRANCH  57  71
BRANCH  58  82
ATOM     82  C   UNL     1      -9.291 -14.539  -5.472  1.00  0.00     0.064 A 
ATOM     83  C   UNL     1      -9.694 -15.225  -6.630  1.00  0.00     0.173 A 
ATOM     84  C   UNL     1      -9.977 -14.857  -4.283  1.00  0.00     0.173 A 
ATOM     85  F   UNL     1      -9.061 -15.012  -7.793  1.00  0.00    -0.203 F 
ATOM     86  C   UNL     1     -10.696 -16.200  -6.593  1.00  0.00     0.198 A 
ATOM     87  C   UNL     1     -10.978 -15.828  -4.248  1.00  0.00     0.198 A 
ATOM     88  F   UNL     1      -9.616 -14.308  -3.115  1.00  0.00    -0.203 F 
ATOM     89  F   UNL     1     -11.005 -16.885  -7.703  1.00  0.00    -0.200 F 
ATOM     90  C   UNL     1     -11.327 -16.511  -5.399  1.00  0.00     0.200 A 
ATOM     91  F   UNL     1     -11.553 -16.148  -3.080  1.00  0.00    -0.200 F 
ATOM     92  F   UNL     1     -12.234 -17.496  -5.348  1.00  0.00    -0.200 F 
ENDBRANCH  58  82
BRANCH  70  93
ATOM     93  C   UNL     1      -4.008 -11.753  -7.542  1.00  0.00     0.064 A 
ATOM     94  C   UNL     1      -4.822 -10.753  -6.980  1.00  0.00     0.173 A 
ATOM     95  C   UNL     1      -3.312 -11.433  -8.713  1.00  0.00     0.173 A 
ATOM     96  F   UNL     1      -5.439 -10.946  -5.808  1.00  0.00    -0.203 F 
ATOM     97  C   UNL     1      -4.962  -9.506  -7.588  1.00  0.00     0.198 A 
ATOM     98  C   UNL     1      -3.426 -10.176  -9.300  1.00  0.00     0.198 A 
ATOM     99  F   UNL     1      -2.474 -12.327  -9.262  1.00  0.00    -0.203 F 
ATOM    100  F   UNL     1      -5.746  -8.570  -7.032  1.00  0.00    -0.200 F 
ATOM    101  C   UNL     1      -4.257  -9.216  -8.743  1.00  0.00     0.200 A 
ATOM    102  F   UNL     1      -2.703  -9.881 -10.389  1.00  0.00    -0.200 F 
ATOM    103  F   UNL     1      -4.352  -8.002  -9.303  1.00  0.00    -0.200 F 
ENDBRANCH  70  93
ENDBRANCH  44  45
ENDBRANCH  36  39
ENDBRANCH  34  35
ENDBRANCH  33  34
ENDBRANCH  32  33
ENDBRANCH  31  32
ENDBRANCH  30  31
ENDBRANCH   1  30
TORSDOF 17
