REMARK SMILES C[N@@H+](CC(=O)NCCCCCCNC(=O)c1ccc(-c2c3nc(c(-c4c(F)c(F)c(F)c(F)c4F)c4ccc([nH]4)c(-c4c(F)c(F)c(F)c(F)c4F)c4nc(c(-c5c(F)c(F)c(F)c(F)c5F)c5ccc2[nH]5)C=C4)C=C3)cc1)Cc1csc(-c2ccco2)n1
REMARK SMILES IDX 8 1 7 2 6 3 4 4 5 5 3 7 2 8 1 9 79 11 80 12 81 13 89 14
REMARK SMILES IDX 82 15 83 16 84 17 85 18 88 19 86 20 87 21 9 22 10 23 11 24
REMARK SMILES IDX 12 25 13 26 14 27 15 29 16 30 17 31 78 32 18 33 77 34 19 35
REMARK SMILES IDX 20 36 21 37 71 38 22 39 76 40 70 41 72 42 23 43 75 44 69 45
REMARK SMILES IDX 68 46 24 48 56 49 36 50 55 51 37 52 40 53 54 54 73 55 38 56
REMARK SMILES IDX 39 57 53 59 74 60 41 61 25 62 26 63 34 64 27 65 28 66 32 67
REMARK SMILES IDX 35 68 29 69 30 70 33 71 31 72 57 73 58 74 66 75 59 76 60 77
REMARK SMILES IDX 64 78 67 79 61 80 62 81 65 82 63 83 42 84 43 85 51 86 44 87
REMARK SMILES IDX 45 88 49 89 52 90 46 91 47 92 50 93 48 94
REMARK H PARENT 6 6 2 10 13 28 72 47 40 58
REMARK Flexibility Score: inf
ROOT
ATOM      1  C   UNL     1       0.558  -0.029   2.465  1.00  0.00     0.021 C 
ENDROOT
BRANCH   1   2
ATOM      2  C   UNL     1      -0.607  -0.550   1.613  1.00  0.00     0.116 C 
BRANCH   2   3
ATOM      3  N   UNL     1      -1.437   0.497   1.043  1.00  0.00    -0.351 N 
ATOM      4  C   UNL     1      -1.580   0.949  -0.238  1.00  0.00     0.275 C 
ATOM      5  O   UNL     1      -2.398   1.853  -0.431  1.00  0.00    -0.269 OA
ATOM      6  H   UNL     1      -1.998   0.968   1.701  1.00  0.00     0.163 HD
BRANCH   4   7
ATOM      7  C   UNL     1      -0.786   0.348  -1.396  1.00  0.00     0.363 C 
BRANCH   7   8
ATOM      8  N   UNL     1       0.568   0.870  -1.552  1.00  0.00    -0.325 N 
ATOM      9  C   UNL     1       1.682   0.064  -1.121  1.00  0.00     0.333 C 
ATOM     10  H   UNL     1       0.549   0.628  -2.543  1.00  0.00     0.348 HD
BRANCH   8  11
ATOM     11  C   UNL     1       0.798   2.266  -1.938  1.00  0.00     0.320 C 
BRANCH  11  12
ATOM     12  C   UNL     1       0.753   3.266  -0.806  1.00  0.00     0.106 A 
ATOM     13  C   UNL     1       0.713   2.973   0.536  1.00  0.00     0.097 A 
ATOM     14  N   UNL     1       0.774   4.648  -1.056  1.00  0.00    -0.232 NA
ATOM     15  S   UNL     1       0.690   4.347   1.513  1.00  0.00    -0.119 S 
ATOM     16  C   UNL     1       0.759   5.307   0.092  1.00  0.00     0.159 A 
BRANCH  16  17
ATOM     17  C   UNL     1       0.763   6.730   0.263  1.00  0.00     0.162 A 
ATOM     18  C   UNL     1       0.143   7.719  -0.481  1.00  0.00     0.053 A 
ATOM     19  O   UNL     1       1.363   7.322   1.353  1.00  0.00    -0.462 OA
ATOM     20  C   UNL     1       0.325   8.942   0.218  1.00  0.00     0.043 A 
ATOM     21  C   UNL     1       1.087   8.645   1.320  1.00  0.00     0.196 A 
ENDBRANCH  16  17
ENDBRANCH  11  12
ENDBRANCH   8  11
ENDBRANCH   7   8
ENDBRANCH   4   7
ENDBRANCH   2   3
ENDBRANCH   1   2
BRANCH   1  22
ATOM     22  C   UNL     1       0.171   0.990   3.548  1.00  0.00     0.002 C 
BRANCH  22  23
ATOM     23  C   UNL     1      -0.461   0.377   4.797  1.00  0.00     0.002 C 
BRANCH  23  24
ATOM     24  C   UNL     1       0.367  -0.734   5.442  1.00  0.00     0.021 C 
BRANCH  24  25
ATOM     25  C   UNL     1       1.810  -0.344   5.748  1.00  0.00     0.116 C 
BRANCH  25  26
ATOM     26  N   UNL     1       1.888   0.603   6.847  1.00  0.00    -0.352 N 
ATOM     27  C   UNL     1       2.462   0.426   8.083  1.00  0.00     0.251 C 
ATOM     28  H   UNL     1       1.477   1.483   6.686  1.00  0.00     0.163 HD
ATOM     29  O   UNL     1       2.237   1.204   9.000  1.00  0.00    -0.269 OA
BRANCH  27  30
ATOM     30  C   UNL     1       3.352  -0.734   8.296  1.00  0.00     0.039 A 
ATOM     31  C   UNL     1       3.156  -1.546   9.414  1.00  0.00     0.014 A 
ATOM     32  C   UNL     1       4.363  -1.026   7.375  1.00  0.00     0.014 A 
ATOM     33  C   UNL     1       3.944  -2.686   9.581  1.00  0.00     0.010 A 
ATOM     34  C   UNL     1       5.094  -2.203   7.503  1.00  0.00     0.010 A 
ATOM     35  C   UNL     1       4.897  -3.040   8.611  1.00  0.00    -0.014 A 
BRANCH  35  36
ATOM     36  C   UNL     1       5.703  -4.280   8.744  1.00  0.00     0.031 A 
ATOM     37  C   UNL     1       7.196  -4.196   8.900  1.00  0.00     0.074 A 
ATOM     38  C   UNL     1       5.098  -5.481   8.668  1.00  0.00     0.049 A 
ATOM     39  N   UNL     1       8.077  -5.161   8.976  1.00  0.00    -0.248 NA
ATOM     40  C   UNL     1       7.781  -2.846   8.948  1.00  0.00     0.031 C 
ATOM     41  C   UNL     1       3.663  -5.694   8.471  1.00  0.00     0.029 A 
ATOM     42  N   UNL     1       5.614  -6.751   8.739  1.00  0.00    -0.354 N 
ATOM     43  C   UNL     1       9.314  -4.537   9.070  1.00  0.00     0.074 A 
ATOM     44  C   UNL     1       9.078  -3.113   8.981  1.00  0.00     0.031 C 
ATOM     45  C   UNL     1       3.411  -7.012   8.463  1.00  0.00     0.029 A 
ATOM     46  C   UNL     1       4.668  -7.739   8.612  1.00  0.00     0.049 A 
ATOM     47  H   UNL     1       6.572  -6.937   8.868  1.00  0.00     0.167 HD
ATOM     48  C   UNL     1      10.534  -5.100   9.243  1.00  0.00     0.037 A 
ATOM     49  C   UNL     1       4.801  -9.079   8.609  1.00  0.00     0.037 A 
ATOM     50  C   UNL     1      10.761  -6.517   9.351  1.00  0.00     0.049 A 
ATOM     51  C   UNL     1       6.170  -9.679   8.787  1.00  0.00     0.074 A 
ATOM     52  C   UNL     1      11.951  -7.185   9.583  1.00  0.00     0.029 A 
ATOM     53  N   UNL     1       9.776  -7.486   9.228  1.00  0.00    -0.354 N 
ATOM     54  N   UNL     1       7.324  -9.078   8.948  1.00  0.00    -0.248 NA
ATOM     55  C   UNL     1       6.255 -11.146   8.788  1.00  0.00     0.031 C 
ATOM     56  C   UNL     1      11.695  -8.559   9.546  1.00  0.00     0.029 A 
ATOM     57  C   UNL     1      10.336  -8.748   9.353  1.00  0.00     0.049 A 
ATOM     58  H   UNL     1       8.821  -7.305   9.075  1.00  0.00     0.167 HD
ATOM     59  C   UNL     1       8.264 -10.088   9.102  1.00  0.00     0.074 A 
ATOM     60  C   UNL     1       7.543 -11.342   9.030  1.00  0.00     0.031 C 
ATOM     61  C   UNL     1       9.603  -9.987   9.286  1.00  0.00     0.037 A 
BRANCH  48  62
ATOM     62  C   UNL     1      11.719  -4.180   9.326  1.00  0.00     0.064 A 
ATOM     63  C   UNL     1      11.913  -3.323  10.421  1.00  0.00     0.173 A 
ATOM     64  C   UNL     1      12.693  -4.180   8.316  1.00  0.00     0.173 A 
ATOM     65  F   UNL     1      11.007  -3.275  11.409  1.00  0.00    -0.203 F 
ATOM     66  C   UNL     1      13.019  -2.480  10.486  1.00  0.00     0.198 A 
ATOM     67  C   UNL     1      13.816  -3.361   8.400  1.00  0.00     0.198 A 
ATOM     68  F   UNL     1      12.562  -4.983   7.249  1.00  0.00    -0.203 F 
ATOM     69  F   UNL     1      13.155  -1.633  11.516  1.00  0.00    -0.200 F 
ATOM     70  C   UNL     1      13.974  -2.505   9.480  1.00  0.00     0.200 A 
ATOM     71  F   UNL     1      14.745  -3.397   7.435  1.00  0.00    -0.200 F 
ATOM     72  F   UNL     1      15.043  -1.700   9.549  1.00  0.00    -0.200 F 
ENDBRANCH  48  62
BRANCH  49  73
ATOM     73  C   UNL     1       3.603  -9.946   8.455  1.00  0.00     0.064 A 
ATOM     74  C   UNL     1       3.149 -10.744   9.514  1.00  0.00     0.173 A 
ATOM     75  C   UNL     1       2.893 -10.003   7.246  1.00  0.00     0.173 A 
ATOM     76  F   UNL     1       3.805 -10.740  10.684  1.00  0.00    -0.203 F 
ATOM     77  C   UNL     1       2.047 -11.583   9.364  1.00  0.00     0.198 A 
ATOM     78  C   UNL     1       1.772 -10.819   7.107  1.00  0.00     0.198 A 
ATOM     79  F   UNL     1       3.282  -9.255   6.203  1.00  0.00    -0.203 F 
ATOM     80  F   UNL     1       1.666 -12.373  10.377  1.00  0.00    -0.200 F 
ATOM     81  C   UNL     1       1.356 -11.615   8.162  1.00  0.00     0.200 A 
ATOM     82  F   UNL     1       1.098 -10.834   5.949  1.00  0.00    -0.200 F 
ATOM     83  F   UNL     1       0.294 -12.420   8.019  1.00  0.00    -0.200 F 
ENDBRANCH  49  73
BRANCH  61  84
ATOM     84  C   UNL     1      10.373 -11.264   9.464  1.00  0.00     0.064 A 
ATOM     85  C   UNL     1      10.580 -12.156   8.401  1.00  0.00     0.173 A 
ATOM     86  C   UNL     1      10.947 -11.579  10.706  1.00  0.00     0.173 A 
ATOM     87  F   UNL     1      10.042 -11.909   7.197  1.00  0.00    -0.203 F 
ATOM     88  C   UNL     1      11.308 -13.329   8.583  1.00  0.00     0.198 A 
ATOM     89  C   UNL     1      11.702 -12.735  10.875  1.00  0.00     0.198 A 
ATOM     90  F   UNL     1      10.786 -10.756  11.753  1.00  0.00    -0.203 F 
ATOM     91  F   UNL     1      11.448 -14.193   7.567  1.00  0.00    -0.200 F 
ATOM     92  C   UNL     1      11.875 -13.614   9.817  1.00  0.00     0.200 A 
ATOM     93  F   UNL     1      12.263 -13.000  12.063  1.00  0.00    -0.200 F 
ATOM     94  F   UNL     1      12.583 -14.739   9.987  1.00  0.00    -0.200 F 
ENDBRANCH  61  84
ENDBRANCH  35  36
ENDBRANCH  27  30
ENDBRANCH  25  26
ENDBRANCH  24  25
ENDBRANCH  23  24
ENDBRANCH  22  23
ENDBRANCH   1  22
TORSDOF 17
