REMARK SMILES O=C(NCCCCCCNC(=O)c1ccc(-c2c3nc(c(-c4c(F)c(F)c(F)c(F)c4F)c4ccc([nH]4)c(-c4c(F)c(F)c(F)c(F)c4F)c4nc(c(-c5c(F)c(F)c(F)c(F)c5F)c5ccc2[nH]5)C=C4)C=C3)cc1)c1ccc(N[C@H]2OC[C@@H](O)[C@@H](O)[C@H]2O)cc1
REMARK SMILES IDX 6 1 5 2 4 3 3 4 1 5 2 6 76 8 77 9 91 10 78 11 90 12 79 13
REMARK SMILES IDX 80 14 81 16 82 17 88 18 83 19 86 20 84 21 89 22 87 24 85 26
REMARK SMILES IDX 7 28 8 29 9 30 10 31 11 32 12 34 13 35 14 36 75 37 15 38
REMARK SMILES IDX 74 39 16 40 17 41 18 42 68 43 19 44 73 45 67 46 69 47 20 48
REMARK SMILES IDX 72 49 66 50 65 51 21 53 53 54 33 55 52 56 34 57 37 58 51 59
REMARK SMILES IDX 70 60 35 61 36 62 50 64 71 65 38 66 22 67 23 68 31 69 24 70
REMARK SMILES IDX 25 71 29 72 32 73 26 74 27 75 30 76 28 77 54 78 55 79 63 80
REMARK SMILES IDX 56 81 57 82 61 83 64 84 58 85 59 86 62 87 60 88 39 89 40 90
REMARK SMILES IDX 48 91 41 92 42 93 46 94 49 95 43 96 44 97 47 98 45 99
REMARK H PARENT 3 7 80 15 89 23 87 25 85 27 10 33 69 52 37 63
REMARK Flexibility Score: inf
ROOT
ATOM      1  C   UNL     1       1.140  -8.245   8.467  1.00  0.00     0.002 C 
ENDROOT
BRANCH   1   2
ATOM      2  C   UNL     1       2.193  -7.836   7.435  1.00  0.00     0.021 C 
BRANCH   2   3
ATOM      3  C   UNL     1       2.904  -6.518   7.722  1.00  0.00     0.116 C 
BRANCH   3   4
ATOM      4  N   UNL     1       3.726  -6.578   8.919  1.00  0.00    -0.352 N 
ATOM      5  O   UNL     1       5.657  -6.480  10.100  1.00  0.00    -0.269 OA
ATOM      6  C   UNL     1       5.051  -6.239   9.062  1.00  0.00     0.251 C 
ATOM      7  H   UNL     1       3.277  -6.904   9.733  1.00  0.00     0.163 HD
BRANCH   6   8
ATOM      8  C   UNL     1       5.743  -5.594   7.930  1.00  0.00     0.039 A 
ATOM      9  C   UNL     1       5.218  -4.436   7.362  1.00  0.00     0.016 A 
ATOM     10  C   UNL     1       6.901  -6.167   7.409  1.00  0.00     0.016 A 
ATOM     11  C   UNL     1       5.790  -3.918   6.201  1.00  0.00     0.026 A 
ATOM     12  C   UNL     1       7.477  -5.624   6.254  1.00  0.00     0.026 A 
ATOM     13  C   UNL     1       6.904  -4.521   5.601  1.00  0.00     0.036 A 
BRANCH  13  14
ATOM     14  N   UNL     1       7.494  -4.040   4.440  1.00  0.00    -0.358 N 
ATOM     15  H   UNL     1       8.364  -4.410   4.163  1.00  0.00     0.163 HD
BRANCH  14  16
ATOM     16  C   UNL     1       6.879  -3.010   3.615  1.00  0.00     0.244 C 
ATOM     17  O   UNL     1       6.800  -1.802   4.375  1.00  0.00    -0.353 OA
ATOM     18  C   UNL     1       7.765  -2.739   2.378  1.00  0.00     0.195 C 
ATOM     19  C   UNL     1       6.116  -0.753   3.683  1.00  0.00     0.197 C 
ATOM     20  C   UNL     1       7.114  -1.620   1.551  1.00  0.00     0.178 C 
ATOM     21  C   UNL     1       6.862  -0.367   2.405  1.00  0.00     0.171 C 
BRANCH  18  22
ATOM     22  O   UNL     1       9.083  -2.318   2.806  1.00  0.00    -0.386 OA
ATOM     23  H   UNL     1       9.008  -1.512   3.340  1.00  0.00     0.211 HD
ENDBRANCH  18  22
BRANCH  20  24
ATOM     24  O   UNL     1       7.938  -1.291   0.431  1.00  0.00    -0.387 OA
ATOM     25  H   UNL     1       8.796  -0.966   0.745  1.00  0.00     0.211 HD
ENDBRANCH  20  24
BRANCH  21  26
ATOM     26  O   UNL     1       8.111   0.253   2.746  1.00  0.00    -0.388 OA
ATOM     27  H   UNL     1       8.653  -0.370   3.256  1.00  0.00     0.211 HD
ENDBRANCH  21  26
ENDBRANCH  14  16
ENDBRANCH  13  14
ENDBRANCH   6   8
ENDBRANCH   3   4
ENDBRANCH   2   3
ENDBRANCH   1   2
BRANCH   1  28
ATOM     28  C   UNL     1       0.033  -7.220   8.730  1.00  0.00     0.002 C 
BRANCH  28  29
ATOM     29  C   UNL     1      -0.719  -6.719   7.494  1.00  0.00     0.021 C 
BRANCH  29  30
ATOM     30  C   UNL     1      -1.334  -7.802   6.614  1.00  0.00     0.116 C 
BRANCH  30  31
ATOM     31  N   UNL     1      -2.323  -8.604   7.313  1.00  0.00    -0.352 N 
ATOM     32  C   UNL     1      -3.596  -8.951   6.934  1.00  0.00     0.251 C 
ATOM     33  H   UNL     1      -2.038  -8.949   8.189  1.00  0.00     0.163 HD
ATOM     34  O   UNL     1      -4.335  -9.530   7.725  1.00  0.00    -0.269 OA
BRANCH  32  35
ATOM     35  C   UNL     1      -4.096  -8.607   5.585  1.00  0.00     0.039 A 
ATOM     36  C   UNL     1      -5.385  -8.077   5.465  1.00  0.00     0.014 A 
ATOM     37  C   UNL     1      -3.319  -8.820   4.443  1.00  0.00     0.014 A 
ATOM     38  C   UNL     1      -5.869  -7.702   4.209  1.00  0.00     0.010 A 
ATOM     39  C   UNL     1      -3.779  -8.389   3.199  1.00  0.00     0.010 A 
ATOM     40  C   UNL     1      -5.058  -7.825   3.070  1.00  0.00    -0.014 A 
BRANCH  40  41
ATOM     41  C   UNL     1      -5.530  -7.367   1.739  1.00  0.00     0.031 A 
ATOM     42  C   UNL     1      -5.751  -8.358   0.631  1.00  0.00     0.074 A 
ATOM     43  C   UNL     1      -5.700  -6.051   1.509  1.00  0.00     0.049 A 
ATOM     44  N   UNL     1      -6.079  -8.144  -0.619  1.00  0.00    -0.248 NA
ATOM     45  C   UNL     1      -5.554  -9.777   0.966  1.00  0.00     0.031 C 
ATOM     46  C   UNL     1      -5.476  -4.986   2.488  1.00  0.00     0.029 A 
ATOM     47  N   UNL     1      -6.085  -5.382   0.373  1.00  0.00    -0.354 N 
ATOM     48  C   UNL     1      -6.117  -9.396  -1.219  1.00  0.00     0.074 A 
ATOM     49  C   UNL     1      -5.731 -10.360  -0.211  1.00  0.00     0.031 C 
ATOM     50  C   UNL     1      -5.738  -3.800   1.915  1.00  0.00     0.029 A 
ATOM     51  C   UNL     1      -6.114  -4.017   0.521  1.00  0.00     0.049 A 
ATOM     52  H   UNL     1      -6.319  -5.838  -0.467  1.00  0.00     0.167 HD
ATOM     53  C   UNL     1      -6.466  -9.714  -2.489  1.00  0.00     0.037 A 
ATOM     54  C   UNL     1      -6.402  -3.049  -0.369  1.00  0.00     0.037 A 
ATOM     55  C   UNL     1      -6.871  -8.757  -3.485  1.00  0.00     0.049 A 
ATOM     56  C   UNL     1      -6.789  -3.429  -1.772  1.00  0.00     0.074 A 
ATOM     57  C   UNL     1      -7.280  -8.987  -4.787  1.00  0.00     0.029 A 
ATOM     58  N   UNL     1      -6.921  -7.386  -3.287  1.00  0.00    -0.354 N 
ATOM     59  N   UNL     1      -6.870  -4.620  -2.313  1.00  0.00    -0.248 NA
ATOM     60  C   UNL     1      -7.133  -2.331  -2.687  1.00  0.00     0.031 C 
ATOM     61  C   UNL     1      -7.545  -7.751  -5.388  1.00  0.00     0.029 A 
ATOM     62  C   UNL     1      -7.342  -6.755  -4.446  1.00  0.00     0.049 A 
ATOM     63  H   UNL     1      -6.690  -6.927  -2.446  1.00  0.00     0.167 HD
ATOM     64  C   UNL     1      -7.297  -4.419  -3.619  1.00  0.00     0.074 A 
ATOM     65  C   UNL     1      -7.473  -2.991  -3.785  1.00  0.00     0.031 C 
ATOM     66  C   UNL     1      -7.521  -5.334  -4.593  1.00  0.00     0.037 A 
BRANCH  53  67
ATOM     67  C   UNL     1      -6.435 -11.165  -2.872  1.00  0.00     0.064 A 
ATOM     68  C   UNL     1      -7.385 -12.072  -2.380  1.00  0.00     0.173 A 
ATOM     69  C   UNL     1      -5.473 -11.646  -3.773  1.00  0.00     0.173 A 
ATOM     70  F   UNL     1      -8.318 -11.664  -1.506  1.00  0.00    -0.203 F 
ATOM     71  C   UNL     1      -7.359 -13.412  -2.756  1.00  0.00     0.198 A 
ATOM     72  C   UNL     1      -5.467 -12.981  -4.169  1.00  0.00     0.198 A 
ATOM     73  F   UNL     1      -4.545 -10.819  -4.278  1.00  0.00    -0.203 F 
ATOM     74  F   UNL     1      -8.250 -14.269  -2.238  1.00  0.00    -0.200 F 
ATOM     75  C   UNL     1      -6.405 -13.864  -3.655  1.00  0.00     0.200 A 
ATOM     76  F   UNL     1      -4.552 -13.414  -5.048  1.00  0.00    -0.200 F 
ATOM     77  F   UNL     1      -6.386 -15.153  -4.023  1.00  0.00    -0.200 F 
ENDBRANCH  53  67
BRANCH  54  78
ATOM     78  C   UNL     1      -6.349  -1.623   0.043  1.00  0.00     0.064 A 
ATOM     79  C   UNL     1      -7.521  -0.864   0.170  1.00  0.00     0.173 A 
ATOM     80  C   UNL     1      -5.128  -0.988   0.313  1.00  0.00     0.173 A 
ATOM     81  F   UNL     1      -8.711  -1.422  -0.098  1.00  0.00    -0.203 F 
ATOM     82  C   UNL     1      -7.472   0.481   0.529  1.00  0.00     0.198 A 
ATOM     83  C   UNL     1      -5.082   0.350   0.699  1.00  0.00     0.198 A 
ATOM     84  F   UNL     1      -3.978  -1.671   0.212  1.00  0.00    -0.203 F 
ATOM     85  F   UNL     1      -8.604   1.195   0.597  1.00  0.00    -0.200 F 
ATOM     86  C   UNL     1      -6.254   1.086   0.798  1.00  0.00     0.200 A 
ATOM     87  F   UNL     1      -3.904   0.927   0.971  1.00  0.00    -0.200 F 
ATOM     88  F   UNL     1      -6.207   2.379   1.145  1.00  0.00    -0.200 F 
ENDBRANCH  54  78
BRANCH  66  89
ATOM     89  C   UNL     1      -8.010  -4.824  -5.916  1.00  0.00     0.064 A 
ATOM     90  C   UNL     1      -7.163  -4.138  -6.798  1.00  0.00     0.173 A 
ATOM     91  C   UNL     1      -9.333  -5.058  -6.321  1.00  0.00     0.173 A 
ATOM     92  F   UNL     1      -5.894  -3.876  -6.448  1.00  0.00    -0.203 F 
ATOM     93  C   UNL     1      -7.628  -3.686  -8.029  1.00  0.00     0.198 A 
ATOM     94  C   UNL     1      -9.787  -4.628  -7.564  1.00  0.00     0.198 A 
ATOM     95  F   UNL     1     -10.181  -5.714  -5.515  1.00  0.00    -0.203 F 
ATOM     96  F   UNL     1      -6.814  -2.995  -8.838  1.00  0.00    -0.200 F 
ATOM     97  C   UNL     1      -8.937  -3.937  -8.414  1.00  0.00     0.200 A 
ATOM     98  F   UNL     1     -11.049  -4.881  -7.940  1.00  0.00    -0.200 F 
ATOM     99  F   UNL     1      -9.381  -3.506  -9.603  1.00  0.00    -0.200 F 
ENDBRANCH  66  89
ENDBRANCH  40  41
ENDBRANCH  32  35
ENDBRANCH  30  31
ENDBRANCH  29  30
ENDBRANCH  28  29
ENDBRANCH   1  28
TORSDOF 18
