REMARK SMILES COc1cc(OC)cc(-c2ccc([C@@H](C)C(=O)NCCCCCCNC(=O)c3ccc(-c4c5nc(c(-c6c(F)c(F)c(F)c(F)c6F)c6ccc([nH]6)c(-c6c(F)c(F)c(F)c(F)c6F)c6nc(c(-c7c(F)c(F)c(F)c(F)c7F)c7ccc4[nH]7)C=C6)C=C5)cc3)cc2F)c1
REMARK SMILES IDX 21 1 20 2 19 3 18 4 16 5 17 6 14 8 15 9 13 10 10 11 11 12
REMARK SMILES IDX 92 13 12 14 91 15 93 16 9 17 3 18 4 19 94 20 5 21 8 22 2 23
REMARK SMILES IDX 1 24 6 25 7 26 22 27 23 28 24 29 25 30 26 31 27 33 28 34
REMARK SMILES IDX 29 35 90 36 30 37 89 38 31 39 32 40 33 41 83 42 34 43 88 44
REMARK SMILES IDX 82 45 84 46 35 47 87 48 81 49 80 50 36 52 68 53 48 54 67 55
REMARK SMILES IDX 49 56 52 57 66 58 85 59 50 60 51 61 65 63 86 64 53 65 37 66
REMARK SMILES IDX 38 67 46 68 39 69 40 70 44 71 47 72 41 73 42 74 45 75 43 76
REMARK SMILES IDX 69 77 70 78 78 79 71 80 72 81 76 82 79 83 73 84 74 85 77 86
REMARK SMILES IDX 75 87 54 88 55 89 63 90 56 91 57 92 61 93 64 94 58 95 59 96
REMARK SMILES IDX 62 97 60 98
REMARK H PARENT 18 7 25 32 84 51 52 62
REMARK Flexibility Score: inf
ROOT
ATOM      1  C   UNL     1       6.234   5.609  -4.874  1.00  0.00     0.002 C 
ENDROOT
BRANCH   1   2
ATOM      2  C   UNL     1       6.157   4.151  -5.337  1.00  0.00     0.021 C 
BRANCH   2   3
ATOM      3  C   UNL     1       7.443   3.639  -5.990  1.00  0.00     0.116 C 
BRANCH   3   4
ATOM      4  N   UNL     1       8.358   3.083  -5.016  1.00  0.00    -0.356 N 
ATOM      5  C   UNL     1       8.646   1.799  -4.670  1.00  0.00     0.227 C 
ATOM      6  O   UNL     1       9.426   1.647  -3.723  1.00  0.00    -0.274 OA
ATOM      7  H   UNL     1       8.864   3.759  -4.509  1.00  0.00     0.163 HD
BRANCH   5   8
ATOM      8  C   UNL     1       8.066   0.570  -5.387  1.00  0.00     0.105 C 
ATOM      9  C   UNL     1       8.425   0.489  -6.872  1.00  0.00     0.023 C 
BRANCH   8  10
ATOM     10  C   UNL     1       6.611   0.299  -5.037  1.00  0.00    -0.033 A 
ATOM     11  C   UNL     1       3.900  -0.153  -4.236  1.00  0.00     0.018 A 
ATOM     12  C   UNL     1       4.223   0.640  -5.351  1.00  0.00     0.012 A 
ATOM     13  C   UNL     1       4.975  -0.723  -3.542  1.00  0.00     0.131 A 
ATOM     14  C   UNL     1       5.545   0.830  -5.764  1.00  0.00     0.005 A 
ATOM     15  C   UNL     1       6.303  -0.491  -3.918  1.00  0.00     0.044 A 
ATOM     16  F   UNL     1       4.756  -1.527  -2.490  1.00  0.00    -0.206 F 
BRANCH  11  17
ATOM     17  C   UNL     1       2.484  -0.372  -3.864  1.00  0.00    -0.008 A 
ATOM     18  C   UNL     1       0.702  -0.584  -2.210  1.00  0.00     0.123 A 
ATOM     19  C   UNL     1      -0.229  -0.762  -3.234  1.00  0.00     0.092 A 
ATOM     20  C   UNL     1       2.051  -0.394  -2.525  1.00  0.00     0.055 A 
ATOM     21  C   UNL     1       0.166  -0.740  -4.569  1.00  0.00     0.123 A 
ATOM     22  C   UNL     1       1.514  -0.554  -4.872  1.00  0.00     0.055 A 
BRANCH  18  23
ATOM     23  O   UNL     1       0.183  -0.655  -0.945  1.00  0.00    -0.497 OA
ATOM     24  C   UNL     1       0.900   0.037   0.069  1.00  0.00     0.278 C 
ENDBRANCH  18  23
BRANCH  21  25
ATOM     25  O   UNL     1      -0.841  -0.906  -5.480  1.00  0.00    -0.497 OA
ATOM     26  C   UNL     1      -0.466  -0.937  -6.852  1.00  0.00     0.278 C 
ENDBRANCH  21  25
ENDBRANCH  11  17
ENDBRANCH   8  10
ENDBRANCH   5   8
ENDBRANCH   3   4
ENDBRANCH   2   3
ENDBRANCH   1   2
BRANCH   1  27
ATOM     27  C   UNL     1       6.438   6.639  -5.993  1.00  0.00     0.002 C 
BRANCH  27  28
ATOM     28  C   UNL     1       5.409   6.593  -7.128  1.00  0.00     0.021 C 
BRANCH  28  29
ATOM     29  C   UNL     1       3.967   6.833  -6.691  1.00  0.00     0.116 C 
BRANCH  29  30
ATOM     30  N   UNL     1       3.783   8.167  -6.139  1.00  0.00    -0.352 N 
ATOM     31  C   UNL     1       2.974   9.189  -6.566  1.00  0.00     0.251 C 
ATOM     32  H   UNL     1       4.320   8.365  -5.339  1.00  0.00     0.163 HD
ATOM     33  O   UNL     1       3.119  10.320  -6.116  1.00  0.00    -0.269 OA
BRANCH  31  34
ATOM     34  C   UNL     1       1.928   8.933  -7.579  1.00  0.00     0.039 A 
ATOM     35  C   UNL     1       1.754   9.849  -8.621  1.00  0.00     0.014 A 
ATOM     36  C   UNL     1       1.097   7.814  -7.482  1.00  0.00     0.014 A 
ATOM     37  C   UNL     1       0.784   9.612  -9.598  1.00  0.00     0.010 A 
ATOM     38  C   UNL     1       0.175   7.546  -8.490  1.00  0.00     0.010 A 
ATOM     39  C   UNL     1       0.007   8.444  -9.555  1.00  0.00    -0.014 A 
BRANCH  39  40
ATOM     40  C   UNL     1      -0.994   8.143 -10.610  1.00  0.00     0.031 A 
ATOM     41  C   UNL     1      -2.456   8.088 -10.267  1.00  0.00     0.074 A 
ATOM     42  C   UNL     1      -0.579   7.848 -11.857  1.00  0.00     0.049 A 
ATOM     43  N   UNL     1      -3.472   7.751 -11.021  1.00  0.00    -0.248 NA
ATOM     44  C   UNL     1      -2.822   8.431  -8.884  1.00  0.00     0.031 C 
ATOM     45  C   UNL     1       0.815   7.829 -12.301  1.00  0.00     0.029 A 
ATOM     46  N   UNL     1      -1.290   7.492 -12.975  1.00  0.00    -0.354 N 
ATOM     47  C   UNL     1      -4.591   7.824 -10.201  1.00  0.00     0.074 A 
ATOM     48  C   UNL     1      -4.125   8.190  -8.881  1.00  0.00     0.031 C 
ATOM     49  C   UNL     1       0.857   7.495 -13.601  1.00  0.00     0.029 A 
ATOM     50  C   UNL     1      -0.502   7.239 -14.071  1.00  0.00     0.049 A 
ATOM     51  H   UNL     1      -2.272   7.425 -12.991  1.00  0.00     0.167 HD
ATOM     52  C   UNL     1      -5.890   7.624 -10.526  1.00  0.00     0.037 A 
ATOM     53  C   UNL     1      -0.837   6.835 -15.311  1.00  0.00     0.037 A 
ATOM     54  C   UNL     1      -6.351   7.288 -11.848  1.00  0.00     0.049 A 
ATOM     55  C   UNL     1      -2.287   6.615 -15.645  1.00  0.00     0.074 A 
ATOM     56  C   UNL     1      -7.651   7.125 -12.293  1.00  0.00     0.029 A 
ATOM     57  N   UNL     1      -5.523   7.061 -12.938  1.00  0.00    -0.354 N 
ATOM     58  N   UNL     1      -3.342   6.748 -14.879  1.00  0.00    -0.248 NA
ATOM     59  C   UNL     1      -2.594   6.194 -17.019  1.00  0.00     0.031 C 
ATOM     60  C   UNL     1      -7.608   6.756 -13.642  1.00  0.00     0.029 A 
ATOM     61  C   UNL     1      -6.284   6.738 -14.050  1.00  0.00     0.049 A 
ATOM     62  H   UNL     1      -4.541   7.120 -12.923  1.00  0.00     0.167 HD
ATOM     63  C   UNL     1      -4.436   6.457 -15.681  1.00  0.00     0.074 A 
ATOM     64  C   UNL     1      -3.918   6.151 -16.998  1.00  0.00     0.031 C 
ATOM     65  C   UNL     1      -5.752   6.445 -15.356  1.00  0.00     0.037 A 
BRANCH  52  66
ATOM     66  C   UNL     1      -6.910   7.768  -9.433  1.00  0.00     0.064 A 
ATOM     67  C   UNL     1      -7.220   9.017  -8.876  1.00  0.00     0.173 A 
ATOM     68  C   UNL     1      -7.611   6.647  -8.962  1.00  0.00     0.173 A 
ATOM     69  F   UNL     1      -6.571  10.118  -9.283  1.00  0.00    -0.203 F 
ATOM     70  C   UNL     1      -8.172   9.136  -7.866  1.00  0.00     0.198 A 
ATOM     71  C   UNL     1      -8.584   6.774  -7.974  1.00  0.00     0.198 A 
ATOM     72  F   UNL     1      -7.359   5.430  -9.466  1.00  0.00    -0.203 F 
ATOM     73  F   UNL     1      -8.415  10.333  -7.314  1.00  0.00    -0.200 F 
ATOM     74  C   UNL     1      -8.858   8.016  -7.421  1.00  0.00     0.200 A 
ATOM     75  F   UNL     1      -9.256   5.693  -7.555  1.00  0.00    -0.200 F 
ATOM     76  F   UNL     1      -9.779   8.133  -6.455  1.00  0.00    -0.200 F 
ENDBRANCH  52  66
BRANCH  53  77
ATOM     77  C   UNL     1       0.221   6.634 -16.335  1.00  0.00     0.064 A 
ATOM     78  C   UNL     1       0.339   7.507 -17.426  1.00  0.00     0.173 A 
ATOM     79  C   UNL     1       1.131   5.571 -16.248  1.00  0.00     0.173 A 
ATOM     80  F   UNL     1      -0.522   8.526 -17.563  1.00  0.00    -0.203 F 
ATOM     81  C   UNL     1       1.316   7.314 -18.400  1.00  0.00     0.198 A 
ATOM     82  C   UNL     1       2.126   5.395 -17.208  1.00  0.00     0.198 A 
ATOM     83  F   UNL     1       1.064   4.712 -15.221  1.00  0.00    -0.203 F 
ATOM     84  F   UNL     1       1.380   8.138 -19.455  1.00  0.00    -0.200 F 
ATOM     85  C   UNL     1       2.212   6.261 -18.287  1.00  0.00     0.200 A 
ATOM     86  F   UNL     1       2.999   4.386 -17.087  1.00  0.00    -0.200 F 
ATOM     87  F   UNL     1       3.155   6.079 -19.221  1.00  0.00    -0.200 F 
ENDBRANCH  53  77
BRANCH  65  88
ATOM     88  C   UNL     1      -6.729   6.126 -16.450  1.00  0.00     0.064 A 
ATOM     89  C   UNL     1      -6.869   4.825 -16.955  1.00  0.00     0.173 A 
ATOM     90  C   UNL     1      -7.567   7.126 -16.966  1.00  0.00     0.173 A 
ATOM     91  F   UNL     1      -6.080   3.838 -16.505  1.00  0.00    -0.203 F 
ATOM     92  C   UNL     1      -7.799   4.542 -17.952  1.00  0.00     0.198 A 
ATOM     93  C   UNL     1      -8.515   6.833 -17.941  1.00  0.00     0.198 A 
ATOM     94  F   UNL     1      -7.476   8.385 -16.512  1.00  0.00    -0.203 F 
ATOM     95  F   UNL     1      -7.886   3.301 -18.450  1.00  0.00    -0.200 F 
ATOM     96  C   UNL     1      -8.626   5.544 -18.438  1.00  0.00     0.200 A 
ATOM     97  F   UNL     1      -9.322   7.800 -18.401  1.00  0.00    -0.200 F 
ATOM     98  F   UNL     1      -9.527   5.267 -19.391  1.00  0.00    -0.200 F 
ENDBRANCH  65  88
ENDBRANCH  39  40
ENDBRANCH  31  34
ENDBRANCH  29  30
ENDBRANCH  28  29
ENDBRANCH  27  28
ENDBRANCH   1  27
TORSDOF 17
