REMARK SMILES O=C(NCCCCCCNC(=O)c1cc(NC(=O)c2cccc(Cl)c2)ccc1N1CC[NH+](CC(=O)N2CCOCC2)CC1)c1ccc(-c2c3nc(c(-c4c(F)c(F)c(F)c(F)c4F)c4ccc([nH]4)c(-c4c(F)c(F)c(F)c(F)c4F)c4nc(c(-c5c(F)c(F)c(F)c(F)c5F)c5ccc2[nH]5)C=C4)C=C3)cc1
REMARK SMILES IDX 7 1 6 2 5 3 4 4 3 5 1 6 2 7 44 9 45 10 106 11 46 12 105 13
REMARK SMILES IDX 47 14 48 15 49 16 99 17 50 18 104 19 98 20 100 21 51 22
REMARK SMILES IDX 103 23 97 24 96 25 52 27 84 28 64 29 83 30 65 31 68 32 82 33
REMARK SMILES IDX 101 34 66 35 67 36 81 38 102 39 69 40 53 41 54 42 62 43
REMARK SMILES IDX 55 44 56 45 60 46 63 47 57 48 58 49 61 50 59 51 85 52 86 53
REMARK SMILES IDX 94 54 87 55 88 56 92 57 95 58 89 59 90 60 93 61 91 62 70 63
REMARK SMILES IDX 71 64 79 65 72 66 73 67 77 68 80 69 74 70 75 71 78 72 76 73
REMARK SMILES IDX 8 74 9 75 10 76 11 77 12 79 13 80 14 81 28 82 15 83 27 84
REMARK SMILES IDX 26 85 29 86 30 87 43 88 31 89 42 90 32 91 33 93 34 94 35 95
REMARK SMILES IDX 36 96 37 97 41 98 38 99 40 100 39 101 16 102 17 103 18 105
REMARK SMILES IDX 19 106 20 107 25 108 21 109 23 110 22 111 24 112
REMARK H PARENT 3 8 100 26 68 37 10 78 32 92 16 104
REMARK Flexibility Score: inf
ROOT
ATOM      1  C   UNL     1       4.471  -3.074   3.367  1.00  0.00     0.002 C 
ENDROOT
BRANCH   1   2
ATOM      2  C   UNL     1       4.095  -1.598   3.523  1.00  0.00     0.002 C 
BRANCH   2   3
ATOM      3  C   UNL     1       4.666  -0.624   2.496  1.00  0.00     0.021 C 
BRANCH   3   4
ATOM      4  C   UNL     1       4.330  -0.937   1.046  1.00  0.00     0.116 C 
BRANCH   4   5
ATOM      5  N   UNL     1       2.902  -0.896   0.779  1.00  0.00    -0.352 N 
ATOM      6  O   UNL     1       0.972  -0.139  -0.104  1.00  0.00    -0.269 OA
ATOM      7  C   UNL     1       2.204  -0.161  -0.141  1.00  0.00     0.251 C 
ATOM      8  H   UNL     1       2.353  -1.486   1.345  1.00  0.00     0.163 HD
BRANCH   7   9
ATOM      9  C   UNL     1       2.914   0.620  -1.176  1.00  0.00     0.039 A 
ATOM     10  C   UNL     1       4.017   0.089  -1.853  1.00  0.00     0.014 A 
ATOM     11  C   UNL     1       2.434   1.890  -1.510  1.00  0.00     0.014 A 
ATOM     12  C   UNL     1       4.707   0.867  -2.777  1.00  0.00     0.010 A 
ATOM     13  C   UNL     1       3.075   2.636  -2.499  1.00  0.00     0.010 A 
ATOM     14  C   UNL     1       4.225   2.135  -3.131  1.00  0.00    -0.014 A 
BRANCH  14  15
ATOM     15  C   UNL     1       4.870   2.900  -4.226  1.00  0.00     0.031 A 
ATOM     16  C   UNL     1       5.506   4.231  -3.963  1.00  0.00     0.074 A 
ATOM     17  C   UNL     1       4.827   2.401  -5.475  1.00  0.00     0.049 A 
ATOM     18  N   UNL     1       6.012   5.088  -4.814  1.00  0.00    -0.248 NA
ATOM     19  C   UNL     1       5.570   4.665  -2.561  1.00  0.00     0.031 C 
ATOM     20  C   UNL     1       4.225   1.119  -5.847  1.00  0.00     0.029 A 
ATOM     21  N   UNL     1       5.275   2.916  -6.665  1.00  0.00    -0.354 N 
ATOM     22  C   UNL     1       6.430   6.173  -4.055  1.00  0.00     0.074 A 
ATOM     23  C   UNL     1       6.095   5.876  -2.678  1.00  0.00     0.031 C 
ATOM     24  C   UNL     1       4.342   0.945  -7.170  1.00  0.00     0.029 A 
ATOM     25  C   UNL     1       4.960   2.132  -7.748  1.00  0.00     0.049 A 
ATOM     26  H   UNL     1       5.772   3.762  -6.735  1.00  0.00     0.167 HD
ATOM     27  C   UNL     1       7.036   7.310  -4.476  1.00  0.00     0.037 A 
ATOM     28  C   UNL     1       5.107   2.362  -9.066  1.00  0.00     0.037 A 
ATOM     29  C   UNL     1       7.359   7.587  -5.854  1.00  0.00     0.049 A 
ATOM     30  C   UNL     1       5.741   3.646  -9.515  1.00  0.00     0.074 A 
ATOM     31  C   UNL     1       8.017   8.683  -6.382  1.00  0.00     0.029 A 
ATOM     32  N   UNL     1       7.028   6.765  -6.924  1.00  0.00    -0.354 N 
ATOM     33  N   UNL     1       6.175   4.647  -8.789  1.00  0.00    -0.248 NA
ATOM     34  C   UNL     1       5.907   3.834 -10.961  1.00  0.00     0.031 C 
ATOM     35  C   UNL     1       8.022   8.559  -7.776  1.00  0.00     0.029 A 
ATOM     36  C   UNL     1       7.436   7.349  -8.114  1.00  0.00     0.049 A 
ATOM     37  H   UNL     1       6.572   5.896  -6.849  1.00  0.00     0.167 HD
ATOM     38  C   UNL     1       6.689   5.574  -9.684  1.00  0.00     0.074 A 
ATOM     39  C   UNL     1       6.515   5.013 -11.008  1.00  0.00     0.031 C 
ATOM     40  C   UNL     1       7.261   6.775  -9.426  1.00  0.00     0.037 A 
BRANCH  27  41
ATOM     41  C   UNL     1       7.346   8.356  -3.441  1.00  0.00     0.064 A 
ATOM     42  C   UNL     1       8.303   8.150  -2.436  1.00  0.00     0.173 A 
ATOM     43  C   UNL     1       6.676   9.589  -3.460  1.00  0.00     0.173 A 
ATOM     44  F   UNL     1       8.970   6.988  -2.366  1.00  0.00    -0.203 F 
ATOM     45  C   UNL     1       8.540   9.117  -1.461  1.00  0.00     0.198 A 
ATOM     46  C   UNL     1       6.942  10.568  -2.506  1.00  0.00     0.198 A 
ATOM     47  F   UNL     1       5.760   9.848  -4.405  1.00  0.00    -0.203 F 
ATOM     48  F   UNL     1       9.408   8.867  -0.470  1.00  0.00    -0.200 F 
ATOM     49  C   UNL     1       7.863  10.326  -1.499  1.00  0.00     0.200 A 
ATOM     50  F   UNL     1       6.299  11.743  -2.555  1.00  0.00    -0.200 F 
ATOM     51  F   UNL     1       8.090  11.253  -0.558  1.00  0.00    -0.200 F 
ENDBRANCH  27  41
BRANCH  28  52
ATOM     52  C   UNL     1       4.618   1.347 -10.032  1.00  0.00     0.064 A 
ATOM     53  C   UNL     1       5.511   0.563 -10.773  1.00  0.00     0.173 A 
ATOM     54  C   UNL     1       3.245   1.094 -10.182  1.00  0.00     0.173 A 
ATOM     55  F   UNL     1       6.831   0.777 -10.673  1.00  0.00    -0.203 F 
ATOM     56  C   UNL     1       5.050  -0.435 -11.628  1.00  0.00     0.198 A 
ATOM     57  C   UNL     1       2.787   0.076 -11.014  1.00  0.00     0.198 A 
ATOM     58  F   UNL     1       2.350   1.809  -9.485  1.00  0.00    -0.203 F 
ATOM     59  F   UNL     1       5.923  -1.157 -12.343  1.00  0.00    -0.200 F 
ATOM     60  C   UNL     1       3.689  -0.686 -11.740  1.00  0.00     0.200 A 
ATOM     61  F   UNL     1       1.474  -0.178 -11.099  1.00  0.00    -0.200 F 
ATOM     62  F   UNL     1       3.249  -1.662 -12.545  1.00  0.00    -0.200 F 
ENDBRANCH  28  52
BRANCH  40  63
ATOM     63  C   UNL     1       7.788   7.557 -10.594  1.00  0.00     0.064 A 
ATOM     64  C   UNL     1       6.935   8.206 -11.498  1.00  0.00     0.173 A 
ATOM     65  C   UNL     1       9.172   7.725 -10.759  1.00  0.00     0.173 A 
ATOM     66  F   UNL     1       5.605   8.062 -11.394  1.00  0.00    -0.203 F 
ATOM     67  C   UNL     1       7.449   8.990 -12.528  1.00  0.00     0.198 A 
ATOM     68  C   UNL     1       9.681   8.534 -11.771  1.00  0.00     0.198 A 
ATOM     69  F   UNL     1      10.030   7.127  -9.919  1.00  0.00    -0.203 F 
ATOM     70  F   UNL     1       6.617   9.578 -13.399  1.00  0.00    -0.200 F 
ATOM     71  C   UNL     1       8.819   9.164 -12.655  1.00  0.00     0.200 A 
ATOM     72  F   UNL     1      11.004   8.712 -11.882  1.00  0.00    -0.200 F 
ATOM     73  F   UNL     1       9.310   9.938 -13.633  1.00  0.00    -0.200 F 
ENDBRANCH  40  63
ENDBRANCH  14  15
ENDBRANCH   7   9
ENDBRANCH   4   5
ENDBRANCH   3   4
ENDBRANCH   2   3
ENDBRANCH   1   2
BRANCH   1  74
ATOM     74  C   UNL     1       5.925  -3.472   3.060  1.00  0.00     0.021 C 
BRANCH  74  75
ATOM     75  C   UNL     1       7.030  -3.091   4.047  1.00  0.00     0.116 C 
BRANCH  75  76
ATOM     76  N   UNL     1       6.722  -3.376   5.433  1.00  0.00    -0.352 N 
ATOM     77  C   UNL     1       7.551  -3.369   6.529  1.00  0.00     0.253 C 
ATOM     78  H   UNL     1       5.783  -3.608   5.617  1.00  0.00     0.163 HD
ATOM     79  O   UNL     1       7.072  -3.666   7.626  1.00  0.00    -0.269 OA
BRANCH  77  80
ATOM     80  C   UNL     1       9.009  -3.046   6.439  1.00  0.00     0.065 A 
ATOM     81  C   UNL     1       9.824  -3.957   7.118  1.00  0.00     0.042 A 
ATOM     82  C   UNL     1       9.579  -1.917   5.810  1.00  0.00     0.050 A 
ATOM     83  C   UNL     1      11.203  -3.954   6.973  1.00  0.00     0.042 A 
ATOM     84  C   UNL     1      10.984  -1.862   5.761  1.00  0.00     0.029 A 
ATOM     85  C   UNL     1      11.786  -2.871   6.322  1.00  0.00     0.028 A 
BRANCH  82  86
ATOM     86  N   UNL     1       8.803  -0.855   5.363  1.00  0.00    -0.360 N 
ATOM     87  C   UNL     1       9.278   0.239   4.491  1.00  0.00     0.178 C 
ATOM     88  C   UNL     1       7.840  -0.378   6.352  1.00  0.00     0.178 C 
ATOM     89  C   UNL     1       8.076   1.084   3.941  1.00  0.00     0.284 C 
ATOM     90  C   UNL     1       6.610   0.167   5.635  1.00  0.00     0.284 C 
ATOM     91  N   UNL     1       6.904   1.336   4.815  1.00  0.00    -0.324 N 
ATOM     92  H   UNL     1       6.144   1.496   4.154  1.00  0.00     0.348 HD
BRANCH  91  93
ATOM     93  C   UNL     1       6.883   2.588   5.589  1.00  0.00     0.363 C 
BRANCH  93  94
ATOM     94  C   UNL     1       8.029   2.824   6.580  1.00  0.00     0.277 C 
ATOM     95  O   UNL     1       9.121   3.215   6.152  1.00  0.00    -0.268 OA
ATOM     96  N   UNL     1       7.802   2.674   7.954  1.00  0.00    -0.333 N 
ATOM     97  C   UNL     1       6.944   1.652   8.585  1.00  0.00     0.148 C 
ATOM     98  C   UNL     1       8.823   3.210   8.853  1.00  0.00     0.148 C 
ATOM     99  C   UNL     1       6.528   1.943  10.027  1.00  0.00     0.181 C 
ATOM    100  C   UNL     1       8.225   3.553  10.217  1.00  0.00     0.181 C 
ATOM    101  O   UNL     1       7.633   2.393  10.815  1.00  0.00    -0.378 OA
ENDBRANCH  93  94
ENDBRANCH  91  93
ENDBRANCH  82  86
BRANCH  83 102
ATOM    102  N   UNL     1      12.029  -5.003   7.421  1.00  0.00    -0.322 N 
ATOM    103  C   UNL     1      11.728  -6.306   7.780  1.00  0.00     0.255 C 
ATOM    104  H   UNL     1      12.983  -4.771   7.490  1.00  0.00     0.170 HD
ATOM    105  O   UNL     1      12.595  -7.035   8.258  1.00  0.00    -0.269 OA
BRANCH 103 106
ATOM    106  C   UNL     1      10.373  -6.867   7.575  1.00  0.00     0.041 A 
ATOM    107  C   UNL     1       9.659  -7.295   8.701  1.00  0.00     0.014 A 
ATOM    108  C   UNL     1       9.767  -6.846   6.312  1.00  0.00     0.034 A 
ATOM    109  C   UNL     1       8.306  -7.613   8.578  1.00  0.00     0.002 A 
ATOM    110  C   UNL     1       8.409  -7.143   6.208  1.00  0.00     0.041 A 
ATOM    111  C   UNL     1       7.675  -7.513   7.336  1.00  0.00     0.020 A 
ATOM    112  Cl  UNL     1       7.613  -6.968   4.692  1.00  0.00    -0.084 Cl
ENDBRANCH 103 106
ENDBRANCH  83 102
ENDBRANCH  77  80
ENDBRANCH  75  76
ENDBRANCH  74  75
ENDBRANCH   1  74
TORSDOF 18
