REMARK SMILES COc1ccc2c(c1)[C@H]([NH2+][C@@H](C(=O)NCCCCCCNC(=O)c1ccc(-c3c4nc(c(-c5c(F)c(F)c(F)c(F)c5F)c5ccc([nH]5)c(-c5c(F)c(F)c(F)c(F)c5F)c5nc(c(-c6c(F)c(F)c(F)c(F)c6F)c6ccc3[nH]6)C=C5)C=C4)cc1)C1CC1)CC2
REMARK SMILES IDX 17 1 16 2 15 3 14 4 12 5 13 6 11 8 10 9 9 12 3 13 4 14 8 15
REMARK SMILES IDX 5 16 7 17 6 18 91 19 90 20 2 21 1 22 87 23 88 24 89 25 18 26
REMARK SMILES IDX 19 27 20 28 21 29 22 30 23 32 24 33 25 34 86 35 26 36 85 37
REMARK SMILES IDX 27 38 28 39 29 40 79 41 30 42 84 43 78 44 80 45 31 46 83 47
REMARK SMILES IDX 77 48 76 49 32 51 64 52 44 53 63 54 45 55 48 56 62 57 81 58
REMARK SMILES IDX 46 59 47 60 61 62 82 63 49 64 33 65 34 66 42 67 35 68 36 69
REMARK SMILES IDX 40 70 43 71 37 72 38 73 41 74 39 75 65 76 66 77 74 78 67 79
REMARK SMILES IDX 68 80 72 81 75 82 69 83 70 84 73 85 71 86 50 87 51 88 59 89
REMARK SMILES IDX 52 90 53 91 57 92 60 93 54 94 55 95 58 96 56 97
REMARK H PARENT 14 7 10 10 10 11 21 31 80 50 48 61
REMARK Flexibility Score: inf
ROOT
ATOM      1  C   UNL     1      -5.247  -4.972  -0.818  1.00  0.00     0.002 C 
ENDROOT
BRANCH   1   2
ATOM      2  C   UNL     1      -4.156  -4.321  -1.675  1.00  0.00     0.021 C 
BRANCH   2   3
ATOM      3  C   UNL     1      -2.735  -4.678  -1.252  1.00  0.00     0.116 C 
BRANCH   3   4
ATOM      4  N   UNL     1      -2.490  -6.092  -1.353  1.00  0.00    -0.351 N 
ATOM      5  C   UNL     1      -1.600  -6.787  -2.111  1.00  0.00     0.278 C 
ATOM      6  O   UNL     1      -1.646  -8.010  -1.933  1.00  0.00    -0.268 OA
ATOM      7  H   UNL     1      -3.062  -6.649  -0.777  1.00  0.00     0.163 HD
BRANCH   5   8
ATOM      8  C   UNL     1      -0.522  -6.086  -3.023  1.00  0.00     0.276 C 
BRANCH   8   9
ATOM      9  N   UNL     1      -1.115  -5.049  -3.902  1.00  0.00    -0.330 N 
ATOM     10  H   UNL     1      -1.530  -5.533  -4.699  1.00  0.00     0.347 HD
ATOM     11  H   UNL     1      -1.758  -4.547  -3.291  1.00  0.00     0.347 HD
BRANCH   9  12
ATOM     12  C   UNL     1      -0.243  -3.992  -4.445  1.00  0.00     0.214 C 
ATOM     13  C   UNL     1       1.024  -1.721  -1.580  1.00  0.00     0.119 A 
ATOM     14  C   UNL     1       2.326  -1.525  -2.053  1.00  0.00     0.047 A 
ATOM     15  C   UNL     1       0.129  -2.516  -2.304  1.00  0.00     0.056 A 
ATOM     16  C   UNL     1       2.715  -2.059  -3.284  1.00  0.00     0.008 A 
ATOM     17  C   UNL     1       0.535  -3.126  -3.480  1.00  0.00     0.016 A 
ATOM     18  C   UNL     1       1.805  -2.831  -3.992  1.00  0.00    -0.038 A 
ATOM     19  C   UNL     1       1.963  -3.352  -5.384  1.00  0.00     0.042 C 
ATOM     20  C   UNL     1       0.880  -4.431  -5.417  1.00  0.00     0.075 C 
BRANCH  13  21
ATOM     21  O   UNL     1       0.523  -1.212  -0.411  1.00  0.00    -0.497 OA
ATOM     22  C   UNL     1       1.092   0.020   0.017  1.00  0.00     0.278 C 
ENDBRANCH  13  21
ENDBRANCH   9  12
ENDBRANCH   8   9
BRANCH   8  23
ATOM     23  C   UNL     1       0.336  -7.090  -3.790  1.00  0.00     0.057 C 
ATOM     24  C   UNL     1      -0.083  -8.504  -4.170  1.00  0.00     0.011 C 
ATOM     25  C   UNL     1       0.092  -7.489  -5.244  1.00  0.00     0.011 C 
ENDBRANCH   8  23
ENDBRANCH   5   8
ENDBRANCH   3   4
ENDBRANCH   2   3
ENDBRANCH   1   2
BRANCH   1  26
ATOM     26  C   UNL     1      -5.146  -4.690   0.685  1.00  0.00     0.002 C 
BRANCH  26  27
ATOM     27  C   UNL     1      -5.142  -3.209   1.065  1.00  0.00     0.021 C 
BRANCH  27  28
ATOM     28  C   UNL     1      -6.361  -2.430   0.584  1.00  0.00     0.116 C 
BRANCH  28  29
ATOM     29  N   UNL     1      -7.597  -2.918   1.177  1.00  0.00    -0.352 N 
ATOM     30  C   UNL     1      -8.579  -2.220   1.832  1.00  0.00     0.251 C 
ATOM     31  H   UNL     1      -7.749  -3.887   1.098  1.00  0.00     0.163 HD
ATOM     32  O   UNL     1      -9.469  -2.816   2.435  1.00  0.00    -0.269 OA
BRANCH  30  33
ATOM     33  C   UNL     1      -8.553  -0.743   1.831  1.00  0.00     0.039 A 
ATOM     34  C   UNL     1      -8.780  -0.062   3.029  1.00  0.00     0.014 A 
ATOM     35  C   UNL     1      -8.299  -0.033   0.654  1.00  0.00     0.014 A 
ATOM     36  C   UNL     1      -8.685   1.330   3.060  1.00  0.00     0.010 A 
ATOM     37  C   UNL     1      -8.129   1.347   0.703  1.00  0.00     0.010 A 
ATOM     38  C   UNL     1      -8.320   2.043   1.906  1.00  0.00    -0.014 A 
BRANCH  38  39
ATOM     39  C   UNL     1      -8.122   3.514   1.940  1.00  0.00     0.031 A 
ATOM     40  C   UNL     1      -9.001   4.416   1.120  1.00  0.00     0.074 A 
ATOM     41  C   UNL     1      -7.106   4.031   2.658  1.00  0.00     0.049 A 
ATOM     42  N   UNL     1      -8.936   5.715   0.960  1.00  0.00    -0.248 NA
ATOM     43  C   UNL     1     -10.081   3.772   0.357  1.00  0.00     0.031 C 
ATOM     44  C   UNL     1      -6.157   3.256   3.459  1.00  0.00     0.029 A 
ATOM     45  N   UNL     1      -6.692   5.330   2.820  1.00  0.00    -0.354 N 
ATOM     46  C   UNL     1      -9.955   6.037   0.074  1.00  0.00     0.074 A 
ATOM     47  C   UNL     1     -10.587   4.795  -0.314  1.00  0.00     0.031 C 
ATOM     48  C   UNL     1      -5.288   4.094   4.045  1.00  0.00     0.029 A 
ATOM     49  C   UNL     1      -5.587   5.459   3.626  1.00  0.00     0.049 A 
ATOM     50  H   UNL     1      -7.144   6.096   2.398  1.00  0.00     0.167 HD
ATOM     51  C   UNL     1     -10.343   7.261  -0.358  1.00  0.00     0.037 A 
ATOM     52  C   UNL     1      -4.885   6.554   3.975  1.00  0.00     0.037 A 
ATOM     53  C   UNL     1      -9.718   8.496   0.043  1.00  0.00     0.049 A 
ATOM     54  C   UNL     1      -5.322   7.900   3.460  1.00  0.00     0.074 A 
ATOM     55  C   UNL     1     -10.071   9.790  -0.296  1.00  0.00     0.029 A 
ATOM     56  N   UNL     1      -8.606   8.588   0.867  1.00  0.00    -0.354 N 
ATOM     57  N   UNL     1      -6.329   8.200   2.677  1.00  0.00    -0.248 NA
ATOM     58  C   UNL     1      -4.525   9.060   3.882  1.00  0.00     0.031 C 
ATOM     59  C   UNL     1      -9.136  10.661   0.273  1.00  0.00     0.029 A 
ATOM     60  C   UNL     1      -8.241   9.916   1.022  1.00  0.00     0.049 A 
ATOM     61  H   UNL     1      -8.144   7.823   1.280  1.00  0.00     0.167 HD
ATOM     62  C   UNL     1      -6.308   9.582   2.540  1.00  0.00     0.074 A 
ATOM     63  C   UNL     1      -5.196  10.062   3.333  1.00  0.00     0.031 C 
ATOM     64  C   UNL     1      -7.135  10.381   1.821  1.00  0.00     0.037 A 
BRANCH  51  65
ATOM     65  C   UNL     1     -11.495   7.328  -1.320  1.00  0.00     0.064 A 
ATOM     66  C   UNL     1     -12.804   7.003  -0.929  1.00  0.00     0.173 A 
ATOM     67  C   UNL     1     -11.296   7.760  -2.640  1.00  0.00     0.173 A 
ATOM     68  F   UNL     1     -13.049   6.575   0.319  1.00  0.00    -0.203 F 
ATOM     69  C   UNL     1     -13.862   7.079  -1.831  1.00  0.00     0.198 A 
ATOM     70  C   UNL     1     -12.363   7.868  -3.529  1.00  0.00     0.198 A 
ATOM     71  F   UNL     1     -10.068   8.090  -3.067  1.00  0.00    -0.203 F 
ATOM     72  F   UNL     1     -15.094   6.713  -1.448  1.00  0.00    -0.200 F 
ATOM     73  C   UNL     1     -13.643   7.519  -3.127  1.00  0.00     0.200 A 
ATOM     74  F   UNL     1     -12.151   8.310  -4.777  1.00  0.00    -0.200 F 
ATOM     75  F   UNL     1     -14.664   7.601  -3.990  1.00  0.00    -0.200 F 
ENDBRANCH  51  65
BRANCH  52  76
ATOM     76  C   UNL     1      -3.705   6.427   4.871  1.00  0.00     0.064 A 
ATOM     77  C   UNL     1      -3.725   6.955   6.170  1.00  0.00     0.173 A 
ATOM     78  C   UNL     1      -2.531   5.788   4.446  1.00  0.00     0.173 A 
ATOM     79  F   UNL     1      -4.817   7.594   6.616  1.00  0.00    -0.203 F 
ATOM     80  C   UNL     1      -2.609   6.871   7.000  1.00  0.00     0.198 A 
ATOM     81  C   UNL     1      -1.427   5.675   5.289  1.00  0.00     0.198 A 
ATOM     82  F   UNL     1      -2.459   5.261   3.215  1.00  0.00    -0.203 F 
ATOM     83  F   UNL     1      -2.638   7.431   8.216  1.00  0.00    -0.200 F 
ATOM     84  C   UNL     1      -1.463   6.225   6.561  1.00  0.00     0.200 A 
ATOM     85  F   UNL     1      -0.327   5.036   4.866  1.00  0.00    -0.200 F 
ATOM     86  F   UNL     1      -0.390   6.142   7.359  1.00  0.00    -0.200 F 
ENDBRANCH  52  76
BRANCH  64  87
ATOM     87  C   UNL     1      -6.897  11.863   1.893  1.00  0.00     0.064 A 
ATOM     88  C   UNL     1      -5.777  12.463   1.298  1.00  0.00     0.173 A 
ATOM     89  C   UNL     1      -7.825  12.699   2.534  1.00  0.00     0.173 A 
ATOM     90  F   UNL     1      -4.852  11.708   0.686  1.00  0.00    -0.203 F 
ATOM     91  C   UNL     1      -5.579  13.839   1.370  1.00  0.00     0.198 A 
ATOM     92  C   UNL     1      -7.643  14.078   2.572  1.00  0.00     0.198 A 
ATOM     93  F   UNL     1      -8.918  12.178   3.112  1.00  0.00    -0.203 F 
ATOM     94  F   UNL     1      -4.474  14.383   0.842  1.00  0.00    -0.200 F 
ATOM     95  C   UNL     1      -6.516  14.646   1.998  1.00  0.00     0.200 A 
ATOM     96  F   UNL     1      -8.558  14.857   3.165  1.00  0.00    -0.200 F 
ATOM     97  F   UNL     1      -6.329  15.972   2.058  1.00  0.00    -0.200 F 
ENDBRANCH  64  87
ENDBRANCH  38  39
ENDBRANCH  30  33
ENDBRANCH  28  29
ENDBRANCH  27  28
ENDBRANCH  26  27
ENDBRANCH   1  26
TORSDOF 17
