REMARK SMILES O=C(Cc1ccccc1Nc1c(Cl)cccc1C(F)(F)F)NCCCCCCNC(=O)c1ccc(-c2c3nc(c(-c4c(F)c(F)c(F)c(F)c4F)c4ccc([nH]4)c(-c4c(F)c(F)c(F)c(F)c4F)c4nc(c(-c5c(F)c(F)c(F)c(F)c5F)c5ccc2[nH]5)C=C4)C=C3)cc1
REMARK SMILES IDX 24 1 23 2 22 3 1 4 2 5 3 7 4 8 5 9 9 10 6 11 8 12 7 13 10 14
REMARK SMILES IDX 11 16 12 17 17 18 13 19 14 20 16 21 15 22 18 23 19 24 20 25
REMARK SMILES IDX 21 26 25 27 26 28 27 29 28 30 29 31 30 32 31 34 32 35 33 36
REMARK SMILES IDX 94 37 34 38 93 39 35 40 36 41 37 42 87 43 38 44 92 45 86 46
REMARK SMILES IDX 88 47 39 48 91 49 85 50 84 51 40 53 72 54 52 55 71 56 53 57
REMARK SMILES IDX 56 58 70 59 89 60 54 61 55 62 69 64 90 65 57 66 41 67 42 68
REMARK SMILES IDX 50 69 43 70 44 71 48 72 51 73 45 74 46 75 49 76 47 77 73 78
REMARK SMILES IDX 74 79 82 80 75 81 76 82 80 83 83 84 77 85 78 86 81 87 79 88
REMARK SMILES IDX 58 89 59 90 67 91 60 92 61 93 65 94 68 95 62 96 63 97 66 98
REMARK SMILES IDX 64 99
REMARK H PARENT 22 6 10 15 29 33 88 52 56 63
REMARK Flexibility Score: inf
ROOT
ATOM      1  C   UNL     1       2.571  -2.426   2.458  1.00  0.00     0.021 C 
ENDROOT
BRANCH   1   2
ATOM      2  C   UNL     1       2.026  -1.024   2.175  1.00  0.00     0.116 C 
BRANCH   2   3
ATOM      3  N   UNL     1       2.754  -0.389   1.098  1.00  0.00    -0.356 N 
ATOM      4  O   UNL     1       0.995  -0.066  -0.347  1.00  0.00    -0.275 OA
ATOM      5  C   UNL     1       2.192   0.020  -0.092  1.00  0.00     0.224 C 
ATOM      6  H   UNL     1       3.719  -0.239   1.224  1.00  0.00     0.163 HD
BRANCH   5   7
ATOM      7  C   UNL     1       3.203   0.534  -1.111  1.00  0.00     0.137 C 
BRANCH   7   8
ATOM      8  C   UNL     1       3.944   1.764  -0.629  1.00  0.00    -0.015 A 
ATOM      9  C   UNL     1       5.167   1.583   0.050  1.00  0.00     0.006 A 
ATOM     10  C   UNL     1       3.426   3.065  -0.797  1.00  0.00     0.042 A 
ATOM     11  C   UNL     1       5.847   2.663   0.602  1.00  0.00     0.000 A 
ATOM     12  C   UNL     1       4.129   4.137  -0.225  1.00  0.00     0.026 A 
ATOM     13  C   UNL     1       5.321   3.941   0.474  1.00  0.00     0.002 A 
BRANCH  10  14
ATOM     14  N   UNL     1       2.274   3.285  -1.580  1.00  0.00    -0.354 N 
ATOM     15  H   UNL     1       1.706   2.492  -1.709  1.00  0.00     0.167 HD
BRANCH  14  16
ATOM     16  C   UNL     1       1.800   4.461  -2.210  1.00  0.00     0.070 A 
ATOM     17  C   UNL     1       0.453   4.843  -1.989  1.00  0.00     0.065 A 
ATOM     18  C   UNL     1       2.612   5.320  -2.982  1.00  0.00     0.080 A 
ATOM     19  Cl  UNL     1      -0.620   3.815  -1.097  1.00  0.00    -0.082 Cl
ATOM     20  C   UNL     1      -0.059   6.053  -2.463  1.00  0.00     0.023 A 
ATOM     21  C   UNL     1       2.081   6.554  -3.429  1.00  0.00     0.015 A 
ATOM     22  C   UNL     1       0.763   6.920  -3.169  1.00  0.00     0.002 A 
BRANCH  18  23
ATOM     23  C   UNL     1       4.025   4.996  -3.415  1.00  0.00     0.418 C 
ATOM     24  F   UNL     1       4.288   5.475  -4.672  1.00  0.00    -0.166 F 
ATOM     25  F   UNL     1       4.964   5.584  -2.620  1.00  0.00    -0.166 F 
ATOM     26  F   UNL     1       4.337   3.674  -3.484  1.00  0.00    -0.166 F 
ENDBRANCH  18  23
ENDBRANCH  14  16
ENDBRANCH  10  14
ENDBRANCH   7   8
ENDBRANCH   5   7
ENDBRANCH   2   3
ENDBRANCH   1   2
BRANCH   1  27
ATOM     27  C   UNL     1       4.077  -2.491   2.758  1.00  0.00     0.002 C 
BRANCH  27  28
ATOM     28  C   UNL     1       4.553  -1.659   3.953  1.00  0.00     0.002 C 
BRANCH  28  29
ATOM     29  C   UNL     1       3.897  -1.999   5.292  1.00  0.00     0.021 C 
BRANCH  29  30
ATOM     30  C   UNL     1       4.041  -3.452   5.735  1.00  0.00     0.116 C 
BRANCH  30  31
ATOM     31  N   UNL     1       5.423  -3.832   5.985  1.00  0.00    -0.352 N 
ATOM     32  C   UNL     1       5.963  -4.496   7.057  1.00  0.00     0.251 C 
ATOM     33  H   UNL     1       6.063  -3.575   5.282  1.00  0.00     0.163 HD
ATOM     34  O   UNL     1       7.185  -4.603   7.163  1.00  0.00    -0.269 OA
BRANCH  32  35
ATOM     35  C   UNL     1       5.087  -5.064   8.105  1.00  0.00     0.039 A 
ATOM     36  C   UNL     1       5.446  -4.900   9.446  1.00  0.00     0.014 A 
ATOM     37  C   UNL     1       3.926  -5.771   7.776  1.00  0.00     0.014 A 
ATOM     38  C   UNL     1       4.614  -5.392  10.455  1.00  0.00     0.010 A 
ATOM     39  C   UNL     1       3.062  -6.196   8.782  1.00  0.00     0.010 A 
ATOM     40  C   UNL     1       3.399  -6.018  10.132  1.00  0.00    -0.014 A 
BRANCH  40  41
ATOM     41  C   UNL     1       2.481  -6.507  11.194  1.00  0.00     0.031 A 
ATOM     42  C   UNL     1       2.192  -7.977  11.327  1.00  0.00     0.074 A 
ATOM     43  C   UNL     1       1.870  -5.625  12.009  1.00  0.00     0.049 A 
ATOM     44  N   UNL     1       1.378  -8.592  12.148  1.00  0.00    -0.248 NA
ATOM     45  C   UNL     1       2.893  -8.875  10.396  1.00  0.00     0.031 C 
ATOM     46  C   UNL     1       2.030  -4.171  11.955  1.00  0.00     0.029 A 
ATOM     47  N   UNL     1       0.982  -5.822  13.038  1.00  0.00    -0.354 N 
ATOM     48  C   UNL     1       1.467  -9.941  11.830  1.00  0.00     0.074 A 
ATOM     49  C   UNL     1       2.364 -10.050  10.700  1.00  0.00     0.031 C 
ATOM     50  C   UNL     1       1.281  -3.610  12.918  1.00  0.00     0.029 A 
ATOM     51  C   UNL     1       0.562  -4.658  13.635  1.00  0.00     0.049 A 
ATOM     52  H   UNL     1       0.676  -6.714  13.322  1.00  0.00     0.167 HD
ATOM     53  C   UNL     1       0.881 -10.998  12.443  1.00  0.00     0.037 A 
ATOM     54  C   UNL     1      -0.311  -4.460  14.642  1.00  0.00     0.037 A 
ATOM     55  C   UNL     1      -0.002 -10.891  13.575  1.00  0.00     0.049 A 
ATOM     56  C   UNL     1      -0.959  -5.651  15.297  1.00  0.00     0.074 A 
ATOM     57  C   UNL     1      -0.629 -11.902  14.281  1.00  0.00     0.029 A 
ATOM     58  N   UNL     1      -0.380  -9.696  14.170  1.00  0.00    -0.354 N 
ATOM     59  N   UNL     1      -0.822  -6.925  15.023  1.00  0.00    -0.248 NA
ATOM     60  C   UNL     1      -1.873  -5.375  16.414  1.00  0.00     0.031 C 
ATOM     61  C   UNL     1      -1.417 -11.318  15.279  1.00  0.00     0.029 A 
ATOM     62  C   UNL     1      -1.239  -9.945  15.229  1.00  0.00     0.049 A 
ATOM     63  H   UNL     1      -0.083  -8.802  13.882  1.00  0.00     0.167 HD
ATOM     64  C   UNL     1      -1.601  -7.602  15.953  1.00  0.00     0.074 A 
ATOM     65  C   UNL     1      -2.195  -6.598  16.809  1.00  0.00     0.031 C 
ATOM     66  C   UNL     1      -1.806  -8.935  16.085  1.00  0.00     0.037 A 
BRANCH  53  67
ATOM     67  C   UNL     1       1.188 -12.367  11.908  1.00  0.00     0.064 A 
ATOM     68  C   UNL     1       2.461 -12.941  12.056  1.00  0.00     0.173 A 
ATOM     69  C   UNL     1       0.196 -13.130  11.274  1.00  0.00     0.173 A 
ATOM     70  F   UNL     1       3.449 -12.249  12.643  1.00  0.00    -0.203 F 
ATOM     71  C   UNL     1       2.737 -14.213  11.563  1.00  0.00     0.198 A 
ATOM     72  C   UNL     1       0.467 -14.416  10.812  1.00  0.00     0.198 A 
ATOM     73  F   UNL     1      -1.039 -12.634  11.112  1.00  0.00    -0.203 F 
ATOM     74  F   UNL     1       3.973 -14.719  11.672  1.00  0.00    -0.200 F 
ATOM     75  C   UNL     1       1.738 -14.953  10.950  1.00  0.00     0.200 A 
ATOM     76  F   UNL     1      -0.504 -15.135  10.231  1.00  0.00    -0.200 F 
ATOM     77  F   UNL     1       2.002 -16.182  10.484  1.00  0.00    -0.200 F 
ENDBRANCH  53  67
BRANCH  54  78
ATOM     78  C   UNL     1      -0.612  -3.081  15.110  1.00  0.00     0.064 A 
ATOM     79  C   UNL     1      -0.211  -2.646  16.381  1.00  0.00     0.173 A 
ATOM     80  C   UNL     1      -1.331  -2.180  14.311  1.00  0.00     0.173 A 
ATOM     81  F   UNL     1       0.462  -3.477  17.191  1.00  0.00    -0.203 F 
ATOM     82  C   UNL     1      -0.546  -1.377  16.848  1.00  0.00     0.198 A 
ATOM     83  C   UNL     1      -1.638  -0.900  14.766  1.00  0.00     0.198 A 
ATOM     84  F   UNL     1      -1.733  -2.543  13.084  1.00  0.00    -0.203 F 
ATOM     85  F   UNL     1      -0.202  -1.010  18.090  1.00  0.00    -0.200 F 
ATOM     86  C   UNL     1      -1.256  -0.503  16.039  1.00  0.00     0.200 A 
ATOM     87  F   UNL     1      -2.311  -0.053  13.975  1.00  0.00    -0.200 F 
ATOM     88  F   UNL     1      -1.581   0.716  16.489  1.00  0.00    -0.200 F 
ENDBRANCH  54  78
BRANCH  66  89
ATOM     89  C   UNL     1      -2.667  -9.388  17.229  1.00  0.00     0.064 A 
ATOM     90  C   UNL     1      -4.052  -9.167  17.248  1.00  0.00     0.173 A 
ATOM     91  C   UNL     1      -2.098 -10.077  18.312  1.00  0.00     0.173 A 
ATOM     92  F   UNL     1      -4.643  -8.500  16.244  1.00  0.00    -0.203 F 
ATOM     93  C   UNL     1      -4.830  -9.587  18.324  1.00  0.00     0.198 A 
ATOM     94  C   UNL     1      -2.883 -10.525  19.370  1.00  0.00     0.198 A 
ATOM     95  F   UNL     1      -0.779 -10.322  18.340  1.00  0.00    -0.203 F 
ATOM     96  F   UNL     1      -6.141  -9.314  18.346  1.00  0.00    -0.200 F 
ATOM     97  C   UNL     1      -4.246 -10.271  19.380  1.00  0.00     0.200 A 
ATOM     98  F   UNL     1      -2.320 -11.199  20.382  1.00  0.00    -0.200 F 
ATOM     99  F   UNL     1      -4.997 -10.678  20.413  1.00  0.00    -0.200 F 
ENDBRANCH  66  89
ENDBRANCH  40  41
ENDBRANCH  32  35
ENDBRANCH  30  31
ENDBRANCH  29  30
ENDBRANCH  28  29
ENDBRANCH  27  28
ENDBRANCH   1  27
TORSDOF 17
