REMARK SMILES Cc1nc(C(=O)NCCCCCCNC(=O)c2ccc(-c3c4nc(c(-c5c(F)c(F)c(F)c(F)c5F)c5ccc([nH]5)c(-c5c(F)c(F)c(F)c(F)c5F)c5nc(c(-c6c(F)c(F)c(F)c(F)c6F)c6ccc3[nH]6)C=C5)C=C4)cc2)nn1-c1cccc(C(F)(F)F)c1
REMARK SMILES IDX 10 1 9 2 8 3 7 4 5 5 6 6 4 8 1 9 2 10 3 11 81 12 80 13 82 14
REMARK SMILES IDX 83 15 91 16 84 17 86 18 85 19 87 20 88 21 89 22 90 23 11 24
REMARK SMILES IDX 12 25 13 26 14 27 15 28 16 30 17 31 18 32 79 33 19 34 78 35
REMARK SMILES IDX 20 36 21 37 22 38 72 39 23 40 77 41 71 42 73 43 24 44 76 45
REMARK SMILES IDX 70 46 69 47 25 49 57 50 37 51 56 52 38 53 41 54 55 55 74 56
REMARK SMILES IDX 39 57 40 58 54 60 75 61 42 62 26 63 27 64 35 65 28 66 29 67
REMARK SMILES IDX 33 68 36 69 30 70 31 71 34 72 32 73 58 74 59 75 67 76 60 77
REMARK SMILES IDX 61 78 65 79 68 80 62 81 63 82 66 83 64 84 43 85 44 86 52 87
REMARK SMILES IDX 45 88 46 89 50 90 53 91 47 92 48 93 51 94 49 95
REMARK H PARENT 7 7 14 29 73 48 41 59
REMARK Flexibility Score: inf
ROOT
ATOM      1  C   UNL     1      -2.709  -1.006   8.013  1.00  0.00     0.002 C 
ENDROOT
BRANCH   1   2
ATOM      2  C   UNL     1      -2.509  -0.364   6.639  1.00  0.00     0.021 C 
BRANCH   2   3
ATOM      3  C   UNL     1      -1.090  -0.428   6.076  1.00  0.00     0.116 C 
BRANCH   3   4
ATOM      4  N   UNL     1      -0.698  -1.773   5.692  1.00  0.00    -0.349 N 
ATOM      5  C   UNL     1      -0.135  -2.229   4.511  1.00  0.00     0.290 C 
ATOM      6  O   UNL     1       0.032  -3.446   4.404  1.00  0.00    -0.266 OA
ATOM      7  H   UNL     1      -0.857  -2.465   6.375  1.00  0.00     0.163 HD
BRANCH   5   8
ATOM      8  C   UNL     1       0.207  -1.281   3.425  1.00  0.00     0.239 A 
ATOM      9  C   UNL     1       0.896  -0.389   0.035  1.00  0.00     0.090 C 
ATOM     10  C   UNL     1       0.489  -0.519   1.454  1.00  0.00     0.130 A 
ATOM     11  N   UNL     1       0.289  -1.653   2.096  1.00  0.00    -0.207 NA
ATOM     12  N   UNL     1       0.424   0.519   2.362  1.00  0.00    -0.217 N 
ATOM     13  N   UNL     1       0.496   0.019   3.615  1.00  0.00    -0.140 NA
BRANCH  12  14
ATOM     14  C   UNL     1       0.162   1.899   2.183  1.00  0.00     0.067 A 
ATOM     15  C   UNL     1       0.651   2.809   3.130  1.00  0.00     0.028 A 
ATOM     16  C   UNL     1      -0.686   2.342   1.159  1.00  0.00     0.041 A 
ATOM     17  C   UNL     1       0.339   4.163   3.023  1.00  0.00     0.003 A 
ATOM     18  C   UNL     1      -1.045   3.700   1.078  1.00  0.00     0.058 A 
ATOM     19  C   UNL     1      -0.504   4.606   2.005  1.00  0.00     0.013 A 
BRANCH  18  20
ATOM     20  C   UNL     1      -2.032   4.191   0.045  1.00  0.00     0.416 C 
ATOM     21  F   UNL     1      -3.096   4.828   0.608  1.00  0.00    -0.166 F 
ATOM     22  F   UNL     1      -1.479   5.078  -0.825  1.00  0.00    -0.166 F 
ATOM     23  F   UNL     1      -2.558   3.193  -0.718  1.00  0.00    -0.166 F 
ENDBRANCH  18  20
ENDBRANCH  12  14
ENDBRANCH   5   8
ENDBRANCH   3   4
ENDBRANCH   2   3
ENDBRANCH   1   2
BRANCH   1  24
ATOM     24  C   UNL     1      -1.790  -0.517   9.143  1.00  0.00     0.002 C 
BRANCH  24  25
ATOM     25  C   UNL     1      -1.686   1.000   9.360  1.00  0.00     0.021 C 
BRANCH  25  26
ATOM     26  C   UNL     1      -2.995   1.681   9.725  1.00  0.00     0.116 C 
BRANCH  26  27
ATOM     27  N   UNL     1      -3.513   1.279  11.032  1.00  0.00    -0.352 N 
ATOM     28  C   UNL     1      -4.694   1.669  11.643  1.00  0.00     0.251 C 
ATOM     29  H   UNL     1      -2.951   0.652  11.543  1.00  0.00     0.163 HD
ATOM     30  O   UNL     1      -4.848   1.568  12.848  1.00  0.00    -0.269 OA
BRANCH  28  31
ATOM     31  C   UNL     1      -5.773   2.215  10.799  1.00  0.00     0.039 A 
ATOM     32  C   UNL     1      -6.555   3.296  11.213  1.00  0.00     0.014 A 
ATOM     33  C   UNL     1      -5.971   1.634   9.552  1.00  0.00     0.014 A 
ATOM     34  C   UNL     1      -7.479   3.837  10.320  1.00  0.00     0.010 A 
ATOM     35  C   UNL     1      -6.735   2.278   8.617  1.00  0.00     0.010 A 
ATOM     36  C   UNL     1      -7.547   3.333   9.013  1.00  0.00    -0.014 A 
BRANCH  36  37
ATOM     37  C   UNL     1      -8.431   3.926   8.018  1.00  0.00     0.031 A 
ATOM     38  C   UNL     1      -8.261   5.386   7.789  1.00  0.00     0.074 A 
ATOM     39  C   UNL     1      -9.205   3.179   7.202  1.00  0.00     0.049 A 
ATOM     40  N   UNL     1      -9.123   6.320   8.017  1.00  0.00    -0.248 NA
ATOM     41  C   UNL     1      -6.951   5.883   7.342  1.00  0.00     0.031 C 
ATOM     42  C   UNL     1      -9.265   1.719   7.062  1.00  0.00     0.029 A 
ATOM     43  N   UNL     1     -10.044   3.602   6.221  1.00  0.00    -0.354 N 
ATOM     44  C   UNL     1      -8.535   7.512   7.601  1.00  0.00     0.074 A 
ATOM     45  C   UNL     1      -7.154   7.203   7.327  1.00  0.00     0.031 C 
ATOM     46  C   UNL     1      -9.891   1.401   5.908  1.00  0.00     0.029 A 
ATOM     47  C   UNL     1     -10.429   2.615   5.326  1.00  0.00     0.049 A 
ATOM     48  H   UNL     1     -10.354   4.534   6.151  1.00  0.00     0.167 HD
ATOM     49  C   UNL     1      -9.292   8.614   7.332  1.00  0.00     0.037 A 
ATOM     50  C   UNL     1     -11.110   2.799   4.170  1.00  0.00     0.037 A 
ATOM     51  C   UNL     1     -10.624   8.469   7.865  1.00  0.00     0.049 A 
ATOM     52  C   UNL     1     -11.792   4.116   4.269  1.00  0.00     0.074 A 
ATOM     53  C   UNL     1     -11.138   8.270   9.133  1.00  0.00     0.029 A 
ATOM     54  N   UNL     1     -11.636   8.126   7.001  1.00  0.00    -0.354 N 
ATOM     55  N   UNL     1     -12.774   4.361   5.094  1.00  0.00    -0.248 NA
ATOM     56  C   UNL     1     -11.066   5.288   3.799  1.00  0.00     0.031 C 
ATOM     57  C   UNL     1     -12.201   7.337   8.951  1.00  0.00     0.029 A 
ATOM     58  C   UNL     1     -12.319   7.089   7.583  1.00  0.00     0.049 A 
ATOM     59  H   UNL     1     -11.833   8.545   6.131  1.00  0.00     0.167 HD
ATOM     60  C   UNL     1     -12.512   5.631   5.585  1.00  0.00     0.074 A 
ATOM     61  C   UNL     1     -11.499   6.187   4.688  1.00  0.00     0.031 C 
ATOM     62  C   UNL     1     -12.914   6.007   6.835  1.00  0.00     0.037 A 
BRANCH  49  63
ATOM     63  C   UNL     1      -8.962   9.677   6.313  1.00  0.00     0.064 A 
ATOM     64  C   UNL     1      -9.772  10.830   6.239  1.00  0.00     0.173 A 
ATOM     65  C   UNL     1      -8.093   9.474   5.221  1.00  0.00     0.173 A 
ATOM     66  F   UNL     1     -10.640  11.122   7.220  1.00  0.00    -0.203 F 
ATOM     67  C   UNL     1      -9.781  11.657   5.113  1.00  0.00     0.198 A 
ATOM     68  C   UNL     1      -8.066  10.333   4.123  1.00  0.00     0.198 A 
ATOM     69  F   UNL     1      -7.323   8.385   5.117  1.00  0.00    -0.203 F 
ATOM     70  F   UNL     1     -10.665  12.660   5.031  1.00  0.00    -0.200 F 
ATOM     71  C   UNL     1      -8.934  11.402   4.051  1.00  0.00     0.200 A 
ATOM     72  F   UNL     1      -7.247  10.062   3.097  1.00  0.00    -0.200 F 
ATOM     73  F   UNL     1      -8.988  12.150   2.942  1.00  0.00    -0.200 F 
ENDBRANCH  49  63
BRANCH  50  74
ATOM     74  C   UNL     1     -10.974   2.048   2.900  1.00  0.00     0.064 A 
ATOM     75  C   UNL     1     -11.942   2.152   1.889  1.00  0.00     0.173 A 
ATOM     76  C   UNL     1      -9.763   1.421   2.543  1.00  0.00     0.173 A 
ATOM     77  F   UNL     1     -13.106   2.772   2.132  1.00  0.00    -0.203 F 
ATOM     78  C   UNL     1     -11.702   1.682   0.593  1.00  0.00     0.198 A 
ATOM     79  C   UNL     1      -9.528   0.945   1.253  1.00  0.00     0.198 A 
ATOM     80  F   UNL     1      -8.745   1.341   3.413  1.00  0.00    -0.203 F 
ATOM     81  F   UNL     1     -12.626   1.857  -0.362  1.00  0.00    -0.200 F 
ATOM     82  C   UNL     1     -10.492   1.089   0.274  1.00  0.00     0.200 A 
ATOM     83  F   UNL     1      -8.339   0.406   0.950  1.00  0.00    -0.200 F 
ATOM     84  F   UNL     1     -10.239   0.695  -0.982  1.00  0.00    -0.200 F 
ENDBRANCH  50  74
BRANCH  62  85
ATOM     85  C   UNL     1     -13.851   5.103   7.588  1.00  0.00     0.064 A 
ATOM     86  C   UNL     1     -13.548   3.780   7.955  1.00  0.00     0.173 A 
ATOM     87  C   UNL     1     -15.034   5.653   8.101  1.00  0.00     0.173 A 
ATOM     88  F   UNL     1     -12.390   3.212   7.601  1.00  0.00    -0.203 F 
ATOM     89  C   UNL     1     -14.409   3.033   8.757  1.00  0.00     0.198 A 
ATOM     90  C   UNL     1     -15.874   4.918   8.934  1.00  0.00     0.198 A 
ATOM     91  F   UNL     1     -15.351   6.931   7.836  1.00  0.00    -0.203 F 
ATOM     92  F   UNL     1     -14.098   1.769   9.082  1.00  0.00    -0.200 F 
ATOM     93  C   UNL     1     -15.567   3.606   9.252  1.00  0.00     0.200 A 
ATOM     94  F   UNL     1     -16.966   5.495   9.453  1.00  0.00    -0.200 F 
ATOM     95  F   UNL     1     -16.374   2.903  10.059  1.00  0.00    -0.200 F 
ENDBRANCH  62  85
ENDBRANCH  36  37
ENDBRANCH  28  31
ENDBRANCH  26  27
ENDBRANCH  25  26
ENDBRANCH  24  25
ENDBRANCH   1  24
TORSDOF 15
