REMARK SMILES C[C@@H](CCC(=O)NCCCCCCNC(=O)c1ccc(-c2c3nc(c(-c4c(F)c(F)c(F)c(F)c4F)c4ccc([nH]4)c(-c4c(F)c(F)c(F)c(F)c4F)c4nc(c(-c5c(F)c(F)c(F)c(F)c5F)c5ccc2[nH]5)C=C4)C=C3)cc1)[C@@H]1CC[C@H]2[C@@H]3CC[C@H]4CC(=O)CC[C@@]4(C)[C@H]3CC(=O)[C@@]21C
REMARK SMILES IDX 10 1 9 2 8 3 7 4 5 5 6 6 4 8 3 9 2 10 1 11 80 12 81 13 99 14
REMARK SMILES IDX 82 15 83 16 97 17 100 18 84 19 96 20 98 21 85 22 95 23 86 24
REMARK SMILES IDX 93 25 87 26 92 27 94 28 88 29 91 30 89 31 90 32 11 33 12 34
REMARK SMILES IDX 13 35 14 36 15 37 16 39 17 40 18 41 79 42 19 43 78 44 20 45
REMARK SMILES IDX 21 46 22 47 72 48 23 49 77 50 71 51 73 52 24 53 76 54 70 55
REMARK SMILES IDX 69 56 25 58 57 59 37 60 56 61 38 62 41 63 55 64 74 65 39 66
REMARK SMILES IDX 40 67 54 69 75 70 42 71 26 72 27 73 35 74 28 75 29 76 33 77
REMARK SMILES IDX 36 78 30 79 31 80 34 81 32 82 58 83 59 84 67 85 60 86 61 87
REMARK SMILES IDX 65 88 68 89 62 90 63 91 66 92 64 93 43 94 44 95 52 96 45 97
REMARK SMILES IDX 46 98 50 99 53 100 47 101 48 102 51 103 49 104
REMARK H PARENT 7 7 14 38 73 57 41 68
REMARK Flexibility Score: inf
ROOT
ATOM      1  C   UNL     1       0.415   2.023  -0.655  1.00  0.00     0.002 C 
ENDROOT
BRANCH   1   2
ATOM      2  C   UNL     1       0.566   0.854  -1.619  1.00  0.00     0.021 C 
BRANCH   2   3
ATOM      3  C   UNL     1       1.979   0.284  -1.728  1.00  0.00     0.116 C 
BRANCH   3   4
ATOM      4  N   UNL     1       2.238  -0.735  -0.727  1.00  0.00    -0.356 N 
ATOM      5  C   UNL     1       1.961  -2.068  -0.724  1.00  0.00     0.220 C 
ATOM      6  O   UNL     1       2.270  -2.758   0.250  1.00  0.00    -0.275 OA
ATOM      7  H   UNL     1       2.688  -0.407   0.084  1.00  0.00     0.163 HD
BRANCH   5   8
ATOM      8  C   UNL     1       1.286  -2.690  -1.913  1.00  0.00     0.100 C 
BRANCH   8   9
ATOM      9  C   UNL     1      -0.028  -3.364  -1.523  1.00  0.00     0.013 C 
BRANCH   9  10
ATOM     10  C   UNL     1      -1.323  -2.522  -1.339  1.00  0.00    -0.010 C 
ATOM     11  C   UNL     1      -1.590  -1.466  -2.420  1.00  0.00     0.008 C 
BRANCH  10  12
ATOM     12  C   UNL     1      -1.926  -2.347   0.120  1.00  0.00     0.005 C 
ATOM     13  C   UNL     1      -3.494  -2.328  -0.094  1.00  0.00     0.005 C 
ATOM     14  C   UNL     1      -1.765  -1.284   1.311  1.00  0.00     0.032 C 
ATOM     15  C   UNL     1      -4.091  -1.225   0.763  1.00  0.00     0.005 C 
ATOM     16  C   UNL     1      -2.918  -0.297   1.027  1.00  0.00     0.006 C 
ATOM     17  C   UNL     1      -0.563  -0.413   1.688  1.00  0.00     0.139 C 
ATOM     18  C   UNL     1      -1.960  -2.129   2.615  1.00  0.00     0.020 C 
ATOM     19  C   UNL     1      -3.218   0.789   2.090  1.00  0.00    -0.003 C 
ATOM     20  C   UNL     1      -0.781   0.663   2.778  1.00  0.00     0.080 C 
ATOM     21  O   UNL     1       0.573  -0.616   1.279  1.00  0.00    -0.299 OA
ATOM     22  C   UNL     1      -4.311   1.729   1.548  1.00  0.00     0.004 C 
ATOM     23  C   UNL     1      -1.945   1.602   2.442  1.00  0.00     0.006 C 
ATOM     24  C   UNL     1      -4.581   2.936   2.431  1.00  0.00     0.005 C 
ATOM     25  C   UNL     1      -2.226   2.796   3.457  1.00  0.00    -0.025 C 
ATOM     26  C   UNL     1      -3.293   3.694   2.779  1.00  0.00     0.002 C 
ATOM     27  C   UNL     1      -2.744   2.366   4.851  1.00  0.00     0.015 C 
ATOM     28  C   UNL     1      -0.915   3.602   3.670  1.00  0.00     0.012 C 
ATOM     29  C   UNL     1      -3.603   4.964   3.561  1.00  0.00     0.079 C 
ATOM     30  C   UNL     1      -3.656   3.354   5.608  1.00  0.00     0.076 C 
ATOM     31  C   UNL     1      -4.101   4.638   4.935  1.00  0.00     0.133 C 
ATOM     32  O   UNL     1      -4.841   5.428   5.529  1.00  0.00    -0.300 OA
ENDBRANCH  10  12
ENDBRANCH   9  10
ENDBRANCH   8   9
ENDBRANCH   5   8
ENDBRANCH   3   4
ENDBRANCH   2   3
ENDBRANCH   1   2
BRANCH   1  33
ATOM     33  C   UNL     1       0.716   3.389  -1.264  1.00  0.00     0.002 C 
BRANCH  33  34
ATOM     34  C   UNL     1      -0.324   3.904  -2.273  1.00  0.00     0.021 C 
BRANCH  34  35
ATOM     35  C   UNL     1      -1.779   3.894  -1.793  1.00  0.00     0.116 C 
BRANCH  35  36
ATOM     36  N   UNL     1      -1.896   4.481  -0.464  1.00  0.00    -0.352 N 
ATOM     37  C   UNL     1      -2.549   5.601  -0.039  1.00  0.00     0.251 C 
ATOM     38  H   UNL     1      -1.426   3.987   0.246  1.00  0.00     0.163 HD
ATOM     39  O   UNL     1      -2.190   6.151   1.014  1.00  0.00    -0.269 OA
BRANCH  37  40
ATOM     40  C   UNL     1      -3.657   6.171  -0.810  1.00  0.00     0.039 A 
ATOM     41  C   UNL     1      -3.778   7.563  -0.841  1.00  0.00     0.014 A 
ATOM     42  C   UNL     1      -4.521   5.360  -1.549  1.00  0.00     0.014 A 
ATOM     43  C   UNL     1      -4.625   8.151  -1.769  1.00  0.00     0.010 A 
ATOM     44  C   UNL     1      -5.316   5.942  -2.524  1.00  0.00     0.010 A 
ATOM     45  C   UNL     1      -5.300   7.335  -2.687  1.00  0.00    -0.014 A 
BRANCH  45  46
ATOM     46  C   UNL     1      -5.796   7.902  -3.957  1.00  0.00     0.031 A 
ATOM     47  C   UNL     1      -7.251   7.886  -4.279  1.00  0.00     0.074 A 
ATOM     48  C   UNL     1      -4.871   8.290  -4.859  1.00  0.00     0.049 A 
ATOM     49  N   UNL     1      -7.849   8.223  -5.390  1.00  0.00    -0.248 NA
ATOM     50  C   UNL     1      -8.153   7.385  -3.230  1.00  0.00     0.031 C 
ATOM     51  C   UNL     1      -3.418   8.240  -4.655  1.00  0.00     0.029 A 
ATOM     52  N   UNL     1      -5.003   8.779  -6.131  1.00  0.00    -0.354 N 
ATOM     53  C   UNL     1      -9.194   7.956  -5.186  1.00  0.00     0.074 A 
ATOM     54  C   UNL     1      -9.321   7.395  -3.857  1.00  0.00     0.031 C 
ATOM     55  C   UNL     1      -2.797   8.703  -5.749  1.00  0.00     0.029 A 
ATOM     56  C   UNL     1      -3.802   9.048  -6.744  1.00  0.00     0.049 A 
ATOM     57  H   UNL     1      -5.875   8.925  -6.565  1.00  0.00     0.167 HD
ATOM     58  C   UNL     1     -10.222   8.176  -6.037  1.00  0.00     0.037 A 
ATOM     59  C   UNL     1      -3.548   9.519  -7.977  1.00  0.00     0.037 A 
ATOM     60  C   UNL     1     -10.061   8.758  -7.344  1.00  0.00     0.049 A 
ATOM     61  C   UNL     1      -4.717   9.829  -8.866  1.00  0.00     0.074 A 
ATOM     62  C   UNL     1     -11.030   9.077  -8.276  1.00  0.00     0.029 A 
ATOM     63  N   UNL     1      -8.837   9.114  -7.898  1.00  0.00    -0.354 N 
ATOM     64  N   UNL     1      -5.995   9.646  -8.636  1.00  0.00    -0.248 NA
ATOM     65  C   UNL     1      -4.417  10.420 -10.175  1.00  0.00     0.031 C 
ATOM     66  C   UNL     1     -10.392   9.609  -9.402  1.00  0.00     0.029 A 
ATOM     67  C   UNL     1      -9.027   9.652  -9.159  1.00  0.00     0.049 A 
ATOM     68  H   UNL     1      -7.963   9.000  -7.458  1.00  0.00     0.167 HD
ATOM     69  C   UNL     1      -6.655  10.126  -9.755  1.00  0.00     0.074 A 
ATOM     70  C   UNL     1      -5.635  10.618 -10.660  1.00  0.00     0.031 C 
ATOM     71  C   UNL     1      -7.984  10.155 -10.015  1.00  0.00     0.037 A 
BRANCH  58  72
ATOM     72  C   UNL     1     -11.595   7.793  -5.576  1.00  0.00     0.064 A 
ATOM     73  C   UNL     1     -12.255   8.509  -4.566  1.00  0.00     0.173 A 
ATOM     74  C   UNL     1     -12.267   6.707  -6.156  1.00  0.00     0.173 A 
ATOM     75  F   UNL     1     -11.649   9.546  -3.969  1.00  0.00    -0.203 F 
ATOM     76  C   UNL     1     -13.524   8.134  -4.133  1.00  0.00     0.198 A 
ATOM     77  C   UNL     1     -13.547   6.350  -5.738  1.00  0.00     0.198 A 
ATOM     78  F   UNL     1     -11.682   5.988  -7.126  1.00  0.00    -0.203 F 
ATOM     79  F   UNL     1     -14.113   8.802  -3.131  1.00  0.00    -0.200 F 
ATOM     80  C   UNL     1     -14.171   7.059  -4.722  1.00  0.00     0.200 A 
ATOM     81  F   UNL     1     -14.175   5.315  -6.314  1.00  0.00    -0.200 F 
ATOM     82  F   UNL     1     -15.393   6.699  -4.304  1.00  0.00    -0.200 F 
ENDBRANCH  58  72
BRANCH  59  83
ATOM     83  C   UNL     1      -2.149   9.768  -8.411  1.00  0.00     0.064 A 
ATOM     84  C   UNL     1      -1.672  11.077  -8.568  1.00  0.00     0.173 A 
ATOM     85  C   UNL     1      -1.259   8.715  -8.665  1.00  0.00     0.173 A 
ATOM     86  F   UNL     1      -2.487  12.117  -8.343  1.00  0.00    -0.203 F 
ATOM     87  C   UNL     1      -0.367  11.323  -8.990  1.00  0.00     0.198 A 
ATOM     88  C   UNL     1       0.054   8.963  -9.063  1.00  0.00     0.198 A 
ATOM     89  F   UNL     1      -1.659   7.444  -8.511  1.00  0.00    -0.203 F 
ATOM     90  F   UNL     1       0.049  12.584  -9.174  1.00  0.00    -0.200 F 
ATOM     91  C   UNL     1       0.496  10.266  -9.234  1.00  0.00     0.200 A 
ATOM     92  F   UNL     1       0.891   7.939  -9.279  1.00  0.00    -0.200 F 
ATOM     93  F   UNL     1       1.751  10.503  -9.640  1.00  0.00    -0.200 F 
ENDBRANCH  59  83
BRANCH  71  94
ATOM     94  C   UNL     1      -8.403  10.780 -11.308  1.00  0.00     0.064 A 
ATOM     95  C   UNL     1      -8.251  10.109 -12.529  1.00  0.00     0.173 A 
ATOM     96  C   UNL     1      -9.011  12.044 -11.314  1.00  0.00     0.173 A 
ATOM     97  F   UNL     1      -7.657   8.906 -12.568  1.00  0.00    -0.203 F 
ATOM     98  C   UNL     1      -8.681  10.689 -13.717  1.00  0.00     0.198 A 
ATOM     99  C   UNL     1      -9.461  12.611 -12.502  1.00  0.00     0.198 A 
ATOM    100  F   UNL     1      -9.177  12.720 -10.168  1.00  0.00    -0.203 F 
ATOM    101  F   UNL     1      -8.496  10.048 -14.879  1.00  0.00    -0.200 F 
ATOM    102  C   UNL     1      -9.293  11.935 -13.701  1.00  0.00     0.200 A 
ATOM    103  F   UNL     1     -10.059  13.809 -12.485  1.00  0.00    -0.200 F 
ATOM    104  F   UNL     1      -9.716  12.487 -14.846  1.00  0.00    -0.200 F 
ENDBRANCH  71  94
ENDBRANCH  45  46
ENDBRANCH  37  40
ENDBRANCH  35  36
ENDBRANCH  34  35
ENDBRANCH  33  34
ENDBRANCH   1  33
TORSDOF 16
