REMARK SMILES O=C(NCCCCCCNC(=O)c1ccc(N2C(=O)[C@@H]3N=NC(c4ccccc4)=C3[C@H]2c2cccc(Br)c2)cc1)c1ccc(-c2c3nc(c(-c4c(F)c(F)c(F)c(F)c4F)c4ccc([nH]4)c(-c4c(F)c(F)c(F)c(F)c4F)c4nc(c(-c5c(F)c(F)c(F)c(F)c5F)c5ccc2[nH]5)C=C4)C=C3)cc1
REMARK SMILES IDX 6 1 5 2 4 3 3 4 1 5 2 6 41 8 42 9 103 10 43 11 102 12 44 13
REMARK SMILES IDX 45 14 46 15 96 16 47 17 101 18 95 19 97 20 48 21 100 22
REMARK SMILES IDX 94 23 93 24 49 26 81 27 61 28 80 29 62 30 65 31 79 32 98 33
REMARK SMILES IDX 63 34 64 35 78 37 99 38 66 39 50 40 51 41 59 42 52 43 53 44
REMARK SMILES IDX 57 45 60 46 54 47 55 48 58 49 56 50 82 51 83 52 91 53 84 54
REMARK SMILES IDX 85 55 89 56 92 57 86 58 87 59 90 60 88 61 67 62 68 63 76 64
REMARK SMILES IDX 69 65 70 66 74 67 77 68 71 69 72 70 75 71 73 72 7 73 8 74
REMARK SMILES IDX 9 75 10 76 11 77 12 79 13 80 14 81 40 82 15 83 39 84 16 85
REMARK SMILES IDX 17 86 18 87 31 88 20 89 19 90 30 91 21 92 23 93 22 94 32 95
REMARK SMILES IDX 33 96 38 97 34 98 36 99 35 100 37 101 24 102 25 103 29 104
REMARK SMILES IDX 26 105 28 106 27 107
REMARK H PARENT 3 7 97 25 65 36 10 78
REMARK Flexibility Score: inf
ROOT
ATOM      1  C   UNL     1       4.367   2.230   2.607  1.00  0.00     0.002 C 
ENDROOT
BRANCH   1   2
ATOM      2  C   UNL     1       4.865   1.836   1.209  1.00  0.00     0.021 C 
BRANCH   2   3
ATOM      3  C   UNL     1       4.637   0.376   0.821  1.00  0.00     0.116 C 
BRANCH   3   4
ATOM      4  N   UNL     1       3.244  -0.020   0.770  1.00  0.00    -0.352 N 
ATOM      5  O   UNL     1       1.189  -0.516   0.134  1.00  0.00    -0.269 OA
ATOM      6  C   UNL     1       2.237   0.071  -0.150  1.00  0.00     0.251 C 
ATOM      7  H   UNL     1       2.952  -0.463   1.600  1.00  0.00     0.163 HD
BRANCH   6   8
ATOM      8  C   UNL     1       2.285   0.847  -1.423  1.00  0.00     0.039 A 
ATOM      9  C   UNL     1       3.434   1.326  -2.051  1.00  0.00     0.014 A 
ATOM     10  C   UNL     1       1.040   1.086  -2.041  1.00  0.00     0.014 A 
ATOM     11  C   UNL     1       3.337   2.056  -3.239  1.00  0.00     0.010 A 
ATOM     12  C   UNL     1       0.937   1.809  -3.228  1.00  0.00     0.010 A 
ATOM     13  C   UNL     1       2.089   2.307  -3.825  1.00  0.00    -0.014 A 
BRANCH  13  14
ATOM     14  C   UNL     1       2.058   2.910  -5.162  1.00  0.00     0.031 A 
ATOM     15  C   UNL     1       2.663   2.066  -6.235  1.00  0.00     0.074 A 
ATOM     16  C   UNL     1       1.412   4.049  -5.492  1.00  0.00     0.049 A 
ATOM     17  N   UNL     1       3.656   2.352  -7.013  1.00  0.00    -0.248 NA
ATOM     18  C   UNL     1       2.142   0.701  -6.410  1.00  0.00     0.031 C 
ATOM     19  C   UNL     1       0.503   4.838  -4.661  1.00  0.00     0.029 A 
ATOM     20  N   UNL     1       1.367   4.693  -6.699  1.00  0.00    -0.354 N 
ATOM     21  C   UNL     1       3.796   1.268  -7.881  1.00  0.00     0.074 A 
ATOM     22  C   UNL     1       2.921   0.238  -7.388  1.00  0.00     0.031 C 
ATOM     23  C   UNL     1      -0.153   5.731  -5.440  1.00  0.00     0.029 A 
ATOM     24  C   UNL     1       0.377   5.665  -6.793  1.00  0.00     0.049 A 
ATOM     25  H   UNL     1       1.984   4.487  -7.438  1.00  0.00     0.167 HD
ATOM     26  C   UNL     1       4.481   1.381  -9.053  1.00  0.00     0.037 A 
ATOM     27  C   UNL     1      -0.013   6.332  -7.909  1.00  0.00     0.037 A 
ATOM     28  C   UNL     1       5.365   2.517  -9.032  1.00  0.00     0.049 A 
ATOM     29  C   UNL     1       1.072   6.221  -8.911  1.00  0.00     0.074 A 
ATOM     30  C   UNL     1       6.442   2.904  -8.259  1.00  0.00     0.029 A 
ATOM     31  N   UNL     1       4.992   3.635  -9.730  1.00  0.00    -0.354 N 
ATOM     32  N   UNL     1       2.219   6.829  -8.826  1.00  0.00    -0.248 NA
ATOM     33  C   UNL     1       1.013   5.125  -9.865  1.00  0.00     0.031 C 
ATOM     34  C   UNL     1       6.346   4.324  -8.173  1.00  0.00     0.029 A 
ATOM     35  C   UNL     1       5.248   4.719  -8.936  1.00  0.00     0.049 A 
ATOM     36  H   UNL     1       4.610   3.655 -10.638  1.00  0.00     0.167 HD
ATOM     37  C   UNL     1       3.126   5.928  -9.357  1.00  0.00     0.074 A 
ATOM     38  C   UNL     1       2.318   4.963 -10.093  1.00  0.00     0.031 C 
ATOM     39  C   UNL     1       4.413   5.894  -8.908  1.00  0.00     0.037 A 
BRANCH  26  40
ATOM     40  C   UNL     1       4.088   0.704 -10.351  1.00  0.00     0.064 A 
ATOM     41  C   UNL     1       4.904   0.884 -11.489  1.00  0.00     0.173 A 
ATOM     42  C   UNL     1       2.804   0.178 -10.608  1.00  0.00     0.173 A 
ATOM     43  F   UNL     1       6.146   1.377 -11.371  1.00  0.00    -0.203 F 
ATOM     44  C   UNL     1       4.428   0.669 -12.786  1.00  0.00     0.198 A 
ATOM     45  C   UNL     1       2.351  -0.086 -11.901  1.00  0.00     0.198 A 
ATOM     46  F   UNL     1       1.896   0.002  -9.643  1.00  0.00    -0.203 F 
ATOM     47  F   UNL     1       5.189   1.000 -13.837  1.00  0.00    -0.200 F 
ATOM     48  C   UNL     1       3.146   0.197 -12.991  1.00  0.00     0.200 A 
ATOM     49  F   UNL     1       1.100  -0.534 -12.081  1.00  0.00    -0.200 F 
ATOM     50  F   UNL     1       2.660   0.062 -14.232  1.00  0.00    -0.200 F 
ENDBRANCH  26  40
BRANCH  27  51
ATOM     51  C   UNL     1      -1.345   6.871  -8.282  1.00  0.00     0.064 A 
ATOM     52  C   UNL     1      -1.486   7.801  -9.329  1.00  0.00     0.173 A 
ATOM     53  C   UNL     1      -2.528   6.263  -7.824  1.00  0.00     0.173 A 
ATOM     54  F   UNL     1      -0.406   8.398  -9.854  1.00  0.00    -0.203 F 
ATOM     55  C   UNL     1      -2.730   8.074  -9.907  1.00  0.00     0.198 A 
ATOM     56  C   UNL     1      -3.770   6.544  -8.396  1.00  0.00     0.198 A 
ATOM     57  F   UNL     1      -2.490   5.310  -6.883  1.00  0.00    -0.203 F 
ATOM     58  F   UNL     1      -2.813   8.911 -10.951  1.00  0.00    -0.200 F 
ATOM     59  C   UNL     1      -3.869   7.436  -9.448  1.00  0.00     0.200 A 
ATOM     60  F   UNL     1      -4.861   5.893  -7.967  1.00  0.00    -0.200 F 
ATOM     61  F   UNL     1      -5.051   7.645 -10.045  1.00  0.00    -0.200 F 
ENDBRANCH  27  51
BRANCH  39  62
ATOM     62  C   UNL     1       4.914   7.067  -8.117  1.00  0.00     0.064 A 
ATOM     63  C   UNL     1       4.371   7.492  -6.892  1.00  0.00     0.173 A 
ATOM     64  C   UNL     1       6.075   7.710  -8.568  1.00  0.00     0.173 A 
ATOM     65  F   UNL     1       3.325   6.862  -6.341  1.00  0.00    -0.203 F 
ATOM     66  C   UNL     1       4.940   8.548  -6.183  1.00  0.00     0.198 A 
ATOM     67  C   UNL     1       6.665   8.735  -7.836  1.00  0.00     0.198 A 
ATOM     68  F   UNL     1       6.667   7.311  -9.706  1.00  0.00    -0.203 F 
ATOM     69  F   UNL     1       4.394   8.952  -5.026  1.00  0.00    -0.200 F 
ATOM     70  C   UNL     1       6.090   9.163  -6.651  1.00  0.00     0.200 A 
ATOM     71  F   UNL     1       7.806   9.290  -8.267  1.00  0.00    -0.200 F 
ATOM     72  F   UNL     1       6.661  10.150  -5.946  1.00  0.00    -0.200 F 
ENDBRANCH  39  62
ENDBRANCH  13  14
ENDBRANCH   6   8
ENDBRANCH   3   4
ENDBRANCH   2   3
ENDBRANCH   1   2
BRANCH   1  73
ATOM     73  C   UNL     1       4.930   1.426   3.786  1.00  0.00     0.002 C 
BRANCH  73  74
ATOM     74  C   UNL     1       6.458   1.346   3.892  1.00  0.00     0.021 C 
BRANCH  74  75
ATOM     75  C   UNL     1       7.197   2.681   4.020  1.00  0.00     0.116 C 
BRANCH  75  76
ATOM     76  N   UNL     1       6.953   3.336   5.293  1.00  0.00    -0.352 N 
ATOM     77  C   UNL     1       7.851   3.842   6.201  1.00  0.00     0.251 C 
ATOM     78  H   UNL     1       6.006   3.432   5.542  1.00  0.00     0.163 HD
ATOM     79  O   UNL     1       7.457   4.239   7.295  1.00  0.00    -0.269 OA
BRANCH  77  80
ATOM     80  C   UNL     1       9.303   3.874   5.902  1.00  0.00     0.039 A 
ATOM     81  C   UNL     1      10.163   3.272   6.819  1.00  0.00     0.016 A 
ATOM     82  C   UNL     1       9.834   4.515   4.773  1.00  0.00     0.016 A 
ATOM     83  C   UNL     1      11.535   3.240   6.562  1.00  0.00     0.027 A 
ATOM     84  C   UNL     1      11.223   4.497   4.525  1.00  0.00     0.027 A 
ATOM     85  C   UNL     1      12.079   3.831   5.404  1.00  0.00     0.045 A 
BRANCH  85  86
ATOM     86  N   UNL     1      13.469   3.643   5.104  1.00  0.00    -0.299 N 
ATOM     87  C   UNL     1      13.963   2.312   5.357  1.00  0.00     0.259 C 
ATOM     88  C   UNL     1      14.468   4.661   5.515  1.00  0.00     0.152 C 
ATOM     89  C   UNL     1      15.292   2.447   6.054  1.00  0.00     0.248 C 
ATOM     90  O   UNL     1      13.394   1.274   5.118  1.00  0.00    -0.271 OA
ATOM     91  C   UNL     1      15.134   3.834   6.544  1.00  0.00     0.021 C 
ATOM     92  N   UNL     1      15.441   1.700   7.310  1.00  0.00    -0.170 NA
ATOM     93  C   UNL     1      15.430   3.817   7.839  1.00  0.00     0.097 C 
ATOM     94  N   UNL     1      15.653   2.519   8.257  1.00  0.00    -0.154 NA
BRANCH  88  95
ATOM     95  C   UNL     1      15.484   5.064   4.422  1.00  0.00    -0.020 A 
ATOM     96  C   UNL     1      16.882   4.936   4.637  1.00  0.00     0.006 A 
ATOM     97  C   UNL     1      15.083   5.628   3.202  1.00  0.00     0.022 A 
ATOM     98  C   UNL     1      17.828   5.295   3.675  1.00  0.00     0.002 A 
ATOM     99  C   UNL     1      16.042   6.021   2.250  1.00  0.00     0.018 A 
ATOM    100  C   UNL     1      17.407   5.846   2.477  1.00  0.00     0.016 A 
ATOM    101  Br  UNL     1      15.492   6.829   0.630  1.00  0.00    -0.051 Br
ENDBRANCH  88  95
BRANCH  93 102
ATOM    102  C   UNL     1      15.377   4.886   8.834  1.00  0.00     0.002 A 
ATOM    103  C   UNL     1      16.451   5.774   8.978  1.00  0.00     0.010 A 
ATOM    104  C   UNL     1      14.357   4.884   9.793  1.00  0.00     0.010 A 
ATOM    105  C   UNL     1      16.543   6.585  10.114  1.00  0.00     0.001 A 
ATOM    106  C   UNL     1      14.449   5.698  10.923  1.00  0.00     0.001 A 
ATOM    107  C   UNL     1      15.555   6.528  11.096  1.00  0.00     0.000 A 
ENDBRANCH  93 102
ENDBRANCH  85  86
ENDBRANCH  77  80
ENDBRANCH  75  76
ENDBRANCH  74  75
ENDBRANCH  73  74
ENDBRANCH   1  73
TORSDOF 16
