REMARK SMILES Cc1ccc(C(=O)NCCCCCCNC(=O)c2ccc(-c3c4nc(c(-c5c(F)c(F)c(F)c(F)c5F)c5ccc([nH]5)c(-c5c(F)c(F)c(F)c(F)c5F)c5nc(c(-c6c(F)c(F)c(F)c(F)c6F)c6ccc3[nH]6)C=C5)C=C4)cc2)cc1NC(=O)C(=O)NC[C@@H](c1ccccc1)[NH+]1CC[NH+](C)CC1
REMARK SMILES IDX 10 1 9 2 8 3 6 4 7 5 5 7 1 8 2 9 3 10 82 11 4 12 81 13 83 14
REMARK SMILES IDX 84 15 85 17 86 18 87 19 88 20 89 22 90 23 97 24 98 25 103 26
REMARK SMILES IDX 99 28 102 29 100 30 101 31 91 33 92 34 96 35 93 36 95 37
REMARK SMILES IDX 94 38 11 39 12 40 13 41 14 42 15 43 16 44 17 46 18 47 19 48
REMARK SMILES IDX 80 49 20 50 79 51 21 52 22 53 23 54 73 55 24 56 78 57 72 58
REMARK SMILES IDX 74 59 25 60 77 61 71 62 70 63 26 65 58 66 38 67 57 68 39 69
REMARK SMILES IDX 42 70 56 71 75 72 40 73 41 74 55 76 76 77 43 78 27 79 28 80
REMARK SMILES IDX 36 81 29 82 30 83 34 84 37 85 31 86 32 87 35 88 33 89 59 90
REMARK SMILES IDX 60 91 68 92 61 93 62 94 66 95 69 96 63 97 64 98 67 99 65 100
REMARK SMILES IDX 44 101 45 102 53 103 46 104 47 105 51 106 54 107 48 108
REMARK SMILES IDX 49 109 52 110 50 111
REMARK H PARENT 8 6 83 16 88 21 97 27 100 32 15 45 74 64 42 75
REMARK Flexibility Score: inf
ROOT
ATOM      1  C   UNL     1       1.467   6.814  -4.736  1.00  0.00     0.021 C 
ENDROOT
BRANCH   1   2
ATOM      2  C   UNL     1       1.866   8.280  -4.601  1.00  0.00     0.116 C 
BRANCH   2   3
ATOM      3  N   UNL     1       2.937   8.746  -5.449  1.00  0.00    -0.352 N 
ATOM      4  C   UNL     1       3.134   9.999  -5.994  1.00  0.00     0.251 C 
ATOM      5  O   UNL     1       4.130  10.179  -6.694  1.00  0.00    -0.269 OA
ATOM      6  H   UNL     1       3.623   8.075  -5.671  1.00  0.00     0.163 HD
BRANCH   4   7
ATOM      7  C   UNL     1       2.170  11.130  -5.809  1.00  0.00     0.041 A 
ATOM      8  C   UNL     1      -0.643  14.424  -5.628  1.00  0.00     0.046 C 
ATOM      9  C   UNL     1       0.334  13.278  -5.624  1.00  0.00    -0.027 A 
ATOM     10  C   UNL     1       1.141  13.110  -6.763  1.00  0.00     0.006 A 
ATOM     11  C   UNL     1       0.475  12.376  -4.552  1.00  0.00     0.045 A 
ATOM     12  C   UNL     1       2.033  12.040  -6.862  1.00  0.00     0.014 A 
ATOM     13  C   UNL     1       1.437  11.353  -4.636  1.00  0.00     0.040 A 
BRANCH  11  14
ATOM     14  N   UNL     1      -0.321  12.531  -3.394  1.00  0.00    -0.318 N 
ATOM     15  C   UNL     1      -0.809  11.567  -2.523  1.00  0.00     0.313 C 
ATOM     16  H   UNL     1      -0.565  13.459  -3.172  1.00  0.00     0.170 HD
ATOM     17  O   UNL     1      -1.329  11.876  -1.456  1.00  0.00    -0.263 OA
BRANCH  15  18
ATOM     18  C   UNL     1      -0.832  10.099  -2.998  1.00  0.00     0.309 C 
ATOM     19  O   UNL     1      -1.007   9.831  -4.183  1.00  0.00    -0.264 OA
ATOM     20  N   UNL     1      -0.692   9.056  -2.115  1.00  0.00    -0.341 N 
ATOM     21  H   UNL     1      -0.211   8.271  -2.463  1.00  0.00     0.164 HD
BRANCH  20  22
ATOM     22  C   UNL     1      -1.157   8.943  -0.723  1.00  0.00     0.186 C 
BRANCH  22  23
ATOM     23  C   UNL     1      -1.806   7.520  -0.464  1.00  0.00     0.235 C 
BRANCH  23  24
ATOM     24  N   UNL     1      -3.170   7.229  -0.999  1.00  0.00    -0.318 N 
ATOM     25  C   UNL     1      -3.496   7.751  -2.338  1.00  0.00     0.325 C 
ATOM     26  C   UNL     1      -4.299   7.532  -0.103  1.00  0.00     0.325 C 
ATOM     27  H   UNL     1      -3.069   6.217  -1.076  1.00  0.00     0.349 HD
ATOM     28  C   UNL     1      -4.036   9.205  -2.392  1.00  0.00     0.324 C 
ATOM     29  C   UNL     1      -4.669   9.017  -0.034  1.00  0.00     0.324 C 
ATOM     30  N   UNL     1      -5.007   9.579  -1.350  1.00  0.00    -0.328 N 
ATOM     31  C   UNL     1      -5.098  11.039  -1.246  1.00  0.00     0.333 C 
ATOM     32  H   UNL     1      -5.907   9.188  -1.629  1.00  0.00     0.348 HD
ENDBRANCH  23  24
BRANCH  23  33
ATOM     33  C   UNL     1      -1.532   6.850   0.904  1.00  0.00     0.011 A 
ATOM     34  C   UNL     1      -2.047   5.555   1.146  1.00  0.00     0.010 A 
ATOM     35  C   UNL     1      -0.668   7.372   1.875  1.00  0.00     0.010 A 
ATOM     36  C   UNL     1      -1.646   4.778   2.233  1.00  0.00     0.001 A 
ATOM     37  C   UNL     1      -0.280   6.602   2.983  1.00  0.00     0.001 A 
ATOM     38  C   UNL     1      -0.745   5.300   3.146  1.00  0.00     0.000 A 
ENDBRANCH  23  33
ENDBRANCH  22  23
ENDBRANCH  20  22
ENDBRANCH  15  18
ENDBRANCH  11  14
ENDBRANCH   4   7
ENDBRANCH   2   3
ENDBRANCH   1   2
BRANCH   1  39
ATOM     39  C   UNL     1       2.516   5.736  -4.463  1.00  0.00     0.002 C 
BRANCH  39  40
ATOM     40  C   UNL     1       3.361   5.820  -3.184  1.00  0.00     0.002 C 
BRANCH  40  41
ATOM     41  C   UNL     1       2.648   6.070  -1.857  1.00  0.00     0.021 C 
BRANCH  41  42
ATOM     42  C   UNL     1       1.559   5.082  -1.477  1.00  0.00     0.116 C 
BRANCH  42  43
ATOM     43  N   UNL     1       1.949   3.928  -0.685  1.00  0.00    -0.352 N 
ATOM     44  C   UNL     1       1.172   2.874  -0.213  1.00  0.00     0.251 C 
ATOM     45  H   UNL     1       2.904   3.885  -0.448  1.00  0.00     0.163 HD
ATOM     46  O   UNL     1       1.663   2.063   0.553  1.00  0.00    -0.269 OA
BRANCH  44  47
ATOM     47  C   UNL     1      -0.226   2.665  -0.698  1.00  0.00     0.039 A 
ATOM     48  C   UNL     1      -0.749   1.368  -0.789  1.00  0.00     0.014 A 
ATOM     49  C   UNL     1      -1.004   3.720  -1.148  1.00  0.00     0.014 A 
ATOM     50  C   UNL     1      -1.919   1.137  -1.524  1.00  0.00     0.010 A 
ATOM     51  C   UNL     1      -2.151   3.517  -1.871  1.00  0.00     0.010 A 
ATOM     52  C   UNL     1      -2.552   2.218  -2.136  1.00  0.00    -0.014 A 
BRANCH  52  53
ATOM     53  C   UNL     1      -3.453   2.130  -3.268  1.00  0.00     0.031 A 
ATOM     54  C   UNL     1      -4.907   2.223  -3.135  1.00  0.00     0.074 A 
ATOM     55  C   UNL     1      -2.874   2.229  -4.485  1.00  0.00     0.049 A 
ATOM     56  N   UNL     1      -5.721   1.673  -3.969  1.00  0.00    -0.248 NA
ATOM     57  C   UNL     1      -5.564   2.970  -2.069  1.00  0.00     0.031 C 
ATOM     58  C   UNL     1      -3.501   2.499  -5.772  1.00  0.00     0.029 A 
ATOM     59  N   UNL     1      -1.535   1.955  -4.800  1.00  0.00    -0.354 N 
ATOM     60  C   UNL     1      -6.952   2.237  -3.747  1.00  0.00     0.074 A 
ATOM     61  C   UNL     1      -6.835   2.947  -2.490  1.00  0.00     0.031 C 
ATOM     62  C   UNL     1      -2.670   2.083  -6.744  1.00  0.00     0.029 A 
ATOM     63  C   UNL     1      -1.559   1.405  -6.095  1.00  0.00     0.049 A 
ATOM     64  H   UNL     1      -0.745   2.113  -4.234  1.00  0.00     0.167 HD
ATOM     65  C   UNL     1      -7.893   2.217  -4.733  1.00  0.00     0.037 A 
ATOM     66  C   UNL     1      -1.217   0.097  -6.278  1.00  0.00     0.037 A 
ATOM     67  C   UNL     1      -7.367   1.639  -5.967  1.00  0.00     0.049 A 
ATOM     68  C   UNL     1      -2.339  -0.743  -6.839  1.00  0.00     0.074 A 
ATOM     69  C   UNL     1      -6.894   2.214  -7.137  1.00  0.00     0.029 A 
ATOM     70  N   UNL     1      -6.937   0.315  -5.990  1.00  0.00    -0.354 N 
ATOM     71  N   UNL     1      -3.600  -0.416  -6.786  1.00  0.00    -0.248 NA
ATOM     72  C   UNL     1      -2.123  -2.024  -7.497  1.00  0.00     0.031 C 
ATOM     73  C   UNL     1      -6.184   1.231  -7.867  1.00  0.00     0.029 A 
ATOM     74  C   UNL     1      -6.226   0.052  -7.146  1.00  0.00     0.049 A 
ATOM     75  H   UNL     1      -7.115  -0.344  -5.280  1.00  0.00     0.167 HD
ATOM     76  C   UNL     1      -4.362  -1.393  -7.381  1.00  0.00     0.074 A 
ATOM     77  C   UNL     1      -3.381  -2.367  -7.827  1.00  0.00     0.031 C 
ATOM     78  C   UNL     1      -5.727  -1.288  -7.439  1.00  0.00     0.037 A 
BRANCH  65  79
ATOM     79  C   UNL     1      -9.159   3.028  -4.636  1.00  0.00     0.064 A 
ATOM     80  C   UNL     1      -9.684   3.733  -5.738  1.00  0.00     0.173 A 
ATOM     81  C   UNL     1      -9.887   3.160  -3.437  1.00  0.00     0.173 A 
ATOM     82  F   UNL     1      -9.144   3.636  -6.958  1.00  0.00    -0.203 F 
ATOM     83  C   UNL     1     -10.782   4.588  -5.623  1.00  0.00     0.198 A 
ATOM     84  C   UNL     1     -10.961   4.046  -3.312  1.00  0.00     0.198 A 
ATOM     85  F   UNL     1      -9.570   2.426  -2.360  1.00  0.00    -0.203 F 
ATOM     86  F   UNL     1     -11.224   5.249  -6.703  1.00  0.00    -0.200 F 
ATOM     87  C   UNL     1     -11.402   4.769  -4.404  1.00  0.00     0.200 A 
ATOM     88  F   UNL     1     -11.559   4.205  -2.123  1.00  0.00    -0.200 F 
ATOM     89  F   UNL     1     -12.424   5.627  -4.285  1.00  0.00    -0.200 F 
ENDBRANCH  65  79
BRANCH  66  90
ATOM     90  C   UNL     1      -0.190  -0.374  -5.304  1.00  0.00     0.064 A 
ATOM     91  C   UNL     1       1.066   0.270  -5.293  1.00  0.00     0.173 A 
ATOM     92  C   UNL     1      -0.529  -1.136  -4.180  1.00  0.00     0.173 A 
ATOM     93  F   UNL     1       1.440   1.025  -6.340  1.00  0.00    -0.203 F 
ATOM     94  C   UNL     1       1.888   0.248  -4.168  1.00  0.00     0.198 A 
ATOM     95  C   UNL     1       0.309  -1.175  -3.062  1.00  0.00     0.198 A 
ATOM     96  F   UNL     1      -1.715  -1.757  -4.114  1.00  0.00    -0.203 F 
ATOM     97  F   UNL     1       3.018   0.970  -4.151  1.00  0.00    -0.200 F 
ATOM     98  C   UNL     1       1.498  -0.458  -3.045  1.00  0.00     0.200 A 
ATOM     99  F   UNL     1      -0.078  -1.837  -1.962  1.00  0.00    -0.200 F 
ATOM    100  F   UNL     1       2.246  -0.418  -1.933  1.00  0.00    -0.200 F 
ENDBRANCH  66  90
BRANCH  78 101
ATOM    101  C   UNL     1      -6.750  -2.337  -7.857  1.00  0.00     0.064 A 
ATOM    102  C   UNL     1      -6.489  -3.705  -8.030  1.00  0.00     0.173 A 
ATOM    103  C   UNL     1      -8.123  -1.982  -7.994  1.00  0.00     0.173 A 
ATOM    104  F   UNL     1      -5.273  -4.223  -7.839  1.00  0.00    -0.203 F 
ATOM    105  C   UNL     1      -7.494  -4.625  -8.355  1.00  0.00     0.198 A 
ATOM    106  C   UNL     1      -9.131  -2.911  -8.251  1.00  0.00     0.198 A 
ATOM    107  F   UNL     1      -8.552  -0.719  -7.859  1.00  0.00    -0.203 F 
ATOM    108  F   UNL     1      -7.172  -5.912  -8.551  1.00  0.00    -0.200 F 
ATOM    109  C   UNL     1      -8.815  -4.234  -8.447  1.00  0.00     0.200 A 
ATOM    110  F   UNL     1     -10.410  -2.511  -8.287  1.00  0.00    -0.200 F 
ATOM    111  F   UNL     1      -9.777  -5.129  -8.704  1.00  0.00    -0.200 F 
ENDBRANCH  78 101
ENDBRANCH  52  53
ENDBRANCH  44  47
ENDBRANCH  42  43
ENDBRANCH  41  42
ENDBRANCH  40  41
ENDBRANCH  39  40
ENDBRANCH   1  39
TORSDOF 19
