REMARK SMILES CC(C)CCc1cc2c(cc1Cl)C=C(C(=O)NCCCCCCNC(=O)c1ccc(-c3c4nc(c(-c5c(F)c(F)c(F)c(F)c5F)c5ccc([nH]5)c(-c5c(F)c(F)c(F)c(F)c5F)c5nc(c(-c6c(F)c(F)c(F)c(F)c6F)c6ccc3[nH]6)C=C5)C=C4)cc1)[C@@H](C(F)(F)F)O2
REMARK SMILES IDX 20 1 19 2 18 3 17 4 15 5 16 6 14 8 6 9 7 10 11 11 8 12 10 13
REMARK SMILES IDX 12 14 9 15 95 16 13 17 90 18 5 19 4 20 2 21 1 22 3 23 91 24
REMARK SMILES IDX 92 25 93 26 94 27 21 28 22 29 23 30 24 31 25 32 26 34 27 35
REMARK SMILES IDX 28 36 89 37 29 38 88 39 30 40 31 41 32 42 82 43 33 44 87 45
REMARK SMILES IDX 81 46 83 47 34 48 86 49 80 50 79 51 35 53 67 54 47 55 66 56
REMARK SMILES IDX 48 57 51 58 65 59 84 60 49 61 50 62 64 64 85 65 52 66 36 67
REMARK SMILES IDX 37 68 45 69 38 70 39 71 43 72 46 73 40 74 41 75 44 76 42 77
REMARK SMILES IDX 68 78 69 79 77 80 70 81 71 82 75 83 78 84 72 85 73 86 76 87
REMARK SMILES IDX 74 88 53 89 54 90 62 91 55 92 56 93 60 94 63 95 57 96 58 97
REMARK SMILES IDX 61 98 59 99
REMARK H PARENT 17 7 24 33 83 52 51 63
REMARK Flexibility Score: inf
ROOT
ATOM      1  C   UNL     1      -1.077   8.010   9.818  1.00  0.00     0.002 C 
ENDROOT
BRANCH   1   2
ATOM      2  C   UNL     1      -1.387   7.265   8.515  1.00  0.00     0.021 C 
BRANCH   2   3
ATOM      3  C   UNL     1      -0.157   6.688   7.818  1.00  0.00     0.116 C 
BRANCH   3   4
ATOM      4  N   UNL     1       0.212   5.392   8.356  1.00  0.00    -0.352 N 
ATOM      5  C   UNL     1       0.277   4.113   7.919  1.00  0.00     0.251 C 
ATOM      6  O   UNL     1       0.687   3.298   8.752  1.00  0.00    -0.270 OA
ATOM      7  H   UNL     1       0.492   5.463   9.297  1.00  0.00     0.163 HD
BRANCH   5   8
ATOM      8  C   UNL     1      -0.101   3.640   6.553  1.00  0.00     0.067 C 
ATOM      9  C   UNL     1      -1.153   0.770   2.518  1.00  0.00    -0.026 A 
ATOM     10  C   UNL     1      -1.354   2.118   2.858  1.00  0.00     0.052 A 
ATOM     11  C   UNL     1      -0.626  -0.083   3.503  1.00  0.00     0.045 A 
ATOM     12  C   UNL     1      -0.975   2.608   4.106  1.00  0.00     0.128 A 
ATOM     13  C   UNL     1      -0.272   0.410   4.768  1.00  0.00     0.032 A 
ATOM     14  Cl  UNL     1      -0.391  -1.774   3.232  1.00  0.00    -0.084 Cl
ATOM     15  C   UNL     1      -0.437   1.763   5.070  1.00  0.00     0.019 A 
ATOM     16  O   UNL     1      -1.199   3.934   4.327  1.00  0.00    -0.475 OA
ATOM     17  C   UNL     1      -0.101   2.304   6.380  1.00  0.00     0.025 C 
ATOM     18  C   UNL     1      -0.430   4.545   5.399  1.00  0.00     0.314 C 
BRANCH   9  19
ATOM     19  C   UNL     1      -1.533   0.308   1.127  1.00  0.00     0.037 C 
BRANCH  19  20
ATOM     20  C   UNL     1      -0.958   1.165  -0.017  1.00  0.00     0.008 C 
BRANCH  20  21
ATOM     21  C   UNL     1       0.580   1.284  -0.036  1.00  0.00    -0.017 C 
ATOM     22  C   UNL     1       1.257  -0.063  -0.287  1.00  0.00     0.007 C 
ATOM     23  C   UNL     1       1.010   2.291  -1.106  1.00  0.00     0.007 C 
ENDBRANCH  20  21
ENDBRANCH  19  20
ENDBRANCH   9  19
BRANCH  18  24
ATOM     24  C   UNL     1       0.817   5.225   4.804  1.00  0.00     0.429 C 
ATOM     25  F   UNL     1       0.456   6.234   3.972  1.00  0.00    -0.167 F 
ATOM     26  F   UNL     1       1.607   5.782   5.753  1.00  0.00    -0.167 F 
ATOM     27  F   UNL     1       1.590   4.372   4.097  1.00  0.00    -0.167 F 
ENDBRANCH  18  24
ENDBRANCH   5   8
ENDBRANCH   3   4
ENDBRANCH   2   3
ENDBRANCH   1   2
BRANCH   1  28
ATOM     28  C   UNL     1      -0.079   9.172   9.701  1.00  0.00     0.002 C 
BRANCH  28  29
ATOM     29  C   UNL     1      -0.340  10.157   8.560  1.00  0.00     0.021 C 
BRANCH  29  30
ATOM     30  C   UNL     1      -1.709  10.824   8.590  1.00  0.00     0.116 C 
BRANCH  30  31
ATOM     31  N   UNL     1      -1.874  11.710   9.731  1.00  0.00    -0.352 N 
ATOM     32  C   UNL     1      -2.212  13.041   9.751  1.00  0.00     0.251 C 
ATOM     33  H   UNL     1      -1.722  11.298  10.612  1.00  0.00     0.163 HD
ATOM     34  O   UNL     1      -2.163  13.685  10.794  1.00  0.00    -0.269 OA
BRANCH  32  35
ATOM     35  C   UNL     1      -2.601  13.706   8.491  1.00  0.00     0.039 A 
ATOM     36  C   UNL     1      -3.558  13.128   7.652  1.00  0.00     0.014 A 
ATOM     37  C   UNL     1      -1.966  14.896   8.127  1.00  0.00     0.014 A 
ATOM     38  C   UNL     1      -3.764  13.655   6.382  1.00  0.00     0.010 A 
ATOM     39  C   UNL     1      -2.227  15.463   6.878  1.00  0.00     0.010 A 
ATOM     40  C   UNL     1      -3.091  14.820   5.977  1.00  0.00    -0.014 A 
BRANCH  40  41
ATOM     41  C   UNL     1      -3.283  15.339   4.600  1.00  0.00     0.031 A 
ATOM     42  C   UNL     1      -2.149  15.316   3.611  1.00  0.00     0.074 A 
ATOM     43  C   UNL     1      -4.495  15.789   4.226  1.00  0.00     0.049 A 
ATOM     44  N   UNL     1      -2.120  15.751   2.377  1.00  0.00    -0.248 NA
ATOM     45  C   UNL     1      -0.881  14.726   4.067  1.00  0.00     0.031 C 
ATOM     46  C   UNL     1      -5.677  15.834   5.086  1.00  0.00     0.029 A 
ATOM     47  N   UNL     1      -4.939  16.273   3.022  1.00  0.00    -0.354 N 
ATOM     48  C   UNL     1      -0.832  15.507   1.917  1.00  0.00     0.074 A 
ATOM     49  C   UNL     1      -0.101  14.903   3.010  1.00  0.00     0.031 C 
ATOM     50  C   UNL     1      -6.722  16.278   4.372  1.00  0.00     0.029 A 
ATOM     51  C   UNL     1      -6.270  16.604   3.023  1.00  0.00     0.049 A 
ATOM     52  H   UNL     1      -4.358  16.372   2.233  1.00  0.00     0.167 HD
ATOM     53  C   UNL     1      -0.313  15.757   0.692  1.00  0.00     0.037 A 
ATOM     54  C   UNL     1      -7.039  17.128   2.050  1.00  0.00     0.037 A 
ATOM     55  C   UNL     1      -1.048  16.339  -0.401  1.00  0.00     0.049 A 
ATOM     56  C   UNL     1      -6.426  17.434   0.714  1.00  0.00     0.074 A 
ATOM     57  C   UNL     1      -0.608  16.630  -1.681  1.00  0.00     0.029 A 
ATOM     58  N   UNL     1      -2.384  16.710  -0.344  1.00  0.00    -0.354 N 
ATOM     59  N   UNL     1      -5.200  17.225   0.301  1.00  0.00    -0.248 NA
ATOM     60  C   UNL     1      -7.300  18.061  -0.286  1.00  0.00     0.031 C 
ATOM     61  C   UNL     1      -1.668  17.206  -2.389  1.00  0.00     0.029 A 
ATOM     62  C   UNL     1      -2.780  17.238  -1.563  1.00  0.00     0.049 A 
ATOM     63  H   UNL     1      -2.964  16.614   0.445  1.00  0.00     0.167 HD
ATOM     64  C   UNL     1      -5.155  17.687  -1.006  1.00  0.00     0.074 A 
ATOM     65  C   UNL     1      -6.484  18.168  -1.326  1.00  0.00     0.031 C 
ATOM     66  C   UNL     1      -4.104  17.716  -1.862  1.00  0.00     0.037 A 
BRANCH  53  67
ATOM     67  C   UNL     1       1.129  15.413   0.461  1.00  0.00     0.064 A 
ATOM     68  C   UNL     1       1.550  14.085   0.300  1.00  0.00     0.173 A 
ATOM     69  C   UNL     1       2.091  16.428   0.335  1.00  0.00     0.173 A 
ATOM     70  F   UNL     1       0.671  13.079   0.425  1.00  0.00    -0.203 F 
ATOM     71  C   UNL     1       2.883  13.784   0.033  1.00  0.00     0.198 A 
ATOM     72  C   UNL     1       3.419  16.124   0.046  1.00  0.00     0.198 A 
ATOM     73  F   UNL     1       1.738  17.714   0.476  1.00  0.00    -0.203 F 
ATOM     74  F   UNL     1       3.268  12.507  -0.088  1.00  0.00    -0.200 F 
ATOM     75  C   UNL     1       3.814  14.804  -0.102  1.00  0.00     0.200 A 
ATOM     76  F   UNL     1       4.315  17.111  -0.095  1.00  0.00    -0.200 F 
ATOM     77  F   UNL     1       5.094  14.512  -0.372  1.00  0.00    -0.200 F 
ENDBRANCH  53  67
BRANCH  54  78
ATOM     78  C   UNL     1      -8.475  17.392   2.316  1.00  0.00     0.064 A 
ATOM     79  C   UNL     1      -9.470  16.606   1.723  1.00  0.00     0.173 A 
ATOM     80  C   UNL     1      -8.878  18.410   3.193  1.00  0.00     0.173 A 
ATOM     81  F   UNL     1      -9.132  15.635   0.862  1.00  0.00    -0.203 F 
ATOM     82  C   UNL     1     -10.818  16.828   1.996  1.00  0.00     0.198 A 
ATOM     83  C   UNL     1     -10.224  18.615   3.485  1.00  0.00     0.198 A 
ATOM     84  F   UNL     1      -7.960  19.187   3.787  1.00  0.00    -0.203 F 
ATOM     85  F   UNL     1     -11.753  16.079   1.397  1.00  0.00    -0.200 F 
ATOM     86  C   UNL     1     -11.193  17.826   2.884  1.00  0.00     0.200 A 
ATOM     87  F   UNL     1     -10.581  19.570   4.354  1.00  0.00    -0.200 F 
ATOM     88  F   UNL     1     -12.489  18.029   3.158  1.00  0.00    -0.200 F 
ENDBRANCH  54  78
BRANCH  66  89
ATOM     89  C   UNL     1      -4.351  18.277  -3.230  1.00  0.00     0.064 A 
ATOM     90  C   UNL     1      -4.492  19.656  -3.438  1.00  0.00     0.173 A 
ATOM     91  C   UNL     1      -4.404  17.431  -4.347  1.00  0.00     0.173 A 
ATOM     92  F   UNL     1      -4.463  20.502  -2.397  1.00  0.00    -0.203 F 
ATOM     93  C   UNL     1      -4.695  20.168  -4.717  1.00  0.00     0.198 A 
ATOM     94  C   UNL     1      -4.583  17.948  -5.627  1.00  0.00     0.198 A 
ATOM     95  F   UNL     1      -4.269  16.104  -4.198  1.00  0.00    -0.203 F 
ATOM     96  F   UNL     1      -4.864  21.486  -4.890  1.00  0.00    -0.200 F 
ATOM     97  C   UNL     1      -4.734  19.314  -5.810  1.00  0.00     0.200 A 
ATOM     98  F   UNL     1      -4.611  17.124  -6.683  1.00  0.00    -0.200 F 
ATOM     99  F   UNL     1      -4.923  19.809  -7.041  1.00  0.00    -0.200 F 
ENDBRANCH  66  89
ENDBRANCH  40  41
ENDBRANCH  32  35
ENDBRANCH  30  31
ENDBRANCH  29  30
ENDBRANCH  28  29
ENDBRANCH   1  28
TORSDOF 17
