REMARK SMILES O=C(NCCCCCCNC(=O)c1cc(N2CCN(c3ccc(F)cc3)CC2)ccc1NC(=O)C1CCCC1)c1ccc(-c2c3nc(c(-c4c(F)c(F)c(F)c(F)c4F)c4ccc([nH]4)c(-c4c(F)c(F)c(F)c(F)c4F)c4nc(c(-c5c(F)c(F)c(F)c(F)c5F)c5ccc2[nH]5)C=C4)C=C3)cc1
REMARK SMILES IDX 6 1 5 2 4 3 3 4 1 5 2 6 40 8 41 9 102 10 42 11 101 12 43 13
REMARK SMILES IDX 44 14 45 15 95 16 46 17 100 18 94 19 96 20 47 21 99 22 93 23
REMARK SMILES IDX 92 24 48 26 80 27 60 28 79 29 61 30 64 31 78 32 97 33 62 34
REMARK SMILES IDX 63 35 77 37 98 38 65 39 49 40 50 41 58 42 51 43 52 44 56 45
REMARK SMILES IDX 59 46 53 47 54 48 57 49 55 50 81 51 82 52 90 53 83 54 84 55
REMARK SMILES IDX 88 56 91 57 85 58 86 59 89 60 87 61 66 62 67 63 75 64 68 65
REMARK SMILES IDX 69 66 73 67 76 68 70 69 71 70 74 71 72 72 7 73 8 74 9 75
REMARK SMILES IDX 10 76 11 77 12 79 13 80 14 81 31 82 15 83 30 84 29 85 32 86
REMARK SMILES IDX 33 87 34 89 35 90 36 91 39 92 37 93 38 94 16 95 17 96 28 97
REMARK SMILES IDX 18 98 27 99 19 100 20 101 21 102 26 103 22 104 25 105 23 106
REMARK SMILES IDX 24 107
REMARK H PARENT 3 7 96 25 64 36 10 78 32 88
REMARK Flexibility Score: inf
ROOT
ATOM      1  C   UNL     1       4.336   3.702   1.233  1.00  0.00     0.002 C 
ENDROOT
BRANCH   1   2
ATOM      2  C   UNL     1       4.798   2.657   0.220  1.00  0.00     0.021 C 
BRANCH   2   3
ATOM      3  C   UNL     1       4.487   1.219   0.604  1.00  0.00     0.116 C 
BRANCH   3   4
ATOM      4  N   UNL     1       3.062   0.946   0.651  1.00  0.00    -0.352 N 
ATOM      5  O   UNL     1       1.142  -0.084   0.050  1.00  0.00    -0.269 OA
ATOM      6  C   UNL     1       2.364  -0.071   0.043  1.00  0.00     0.251 C 
ATOM      7  H   UNL     1       2.524   1.571   1.189  1.00  0.00     0.163 HD
BRANCH   6   8
ATOM      8  C   UNL     1       3.114  -1.150  -0.636  1.00  0.00     0.039 A 
ATOM      9  C   UNL     1       4.209  -1.750  -0.009  1.00  0.00     0.014 A 
ATOM     10  C   UNL     1       2.709  -1.571  -1.905  1.00  0.00     0.014 A 
ATOM     11  C   UNL     1       4.968  -2.690  -0.693  1.00  0.00     0.010 A 
ATOM     12  C   UNL     1       3.419  -2.584  -2.556  1.00  0.00     0.010 A 
ATOM     13  C   UNL     1       4.556  -3.147  -1.955  1.00  0.00    -0.014 A 
BRANCH  13  14
ATOM     14  C   UNL     1       5.246  -4.315  -2.555  1.00  0.00     0.031 A 
ATOM     15  C   UNL     1       6.015  -4.204  -3.838  1.00  0.00     0.074 A 
ATOM     16  C   UNL     1       5.159  -5.494  -1.907  1.00  0.00     0.049 A 
ATOM     17  N   UNL     1       6.654  -5.140  -4.493  1.00  0.00    -0.248 NA
ATOM     18  C   UNL     1       6.074  -2.880  -4.475  1.00  0.00     0.031 C 
ATOM     19  C   UNL     1       4.416  -5.714  -0.662  1.00  0.00     0.029 A 
ATOM     20  N   UNL     1       5.692  -6.723  -2.193  1.00  0.00    -0.354 N 
ATOM     21  C   UNL     1       7.174  -4.528  -5.625  1.00  0.00     0.074 A 
ATOM     22  C   UNL     1       6.766  -3.140  -5.578  1.00  0.00     0.031 C 
ATOM     23  C   UNL     1       4.566  -6.988  -0.277  1.00  0.00     0.029 A 
ATOM     24  C   UNL     1       5.348  -7.693  -1.283  1.00  0.00     0.049 A 
ATOM     25  H   UNL     1       6.266  -6.895  -2.974  1.00  0.00     0.167 HD
ATOM     26  C   UNL     1       7.923  -5.084  -6.608  1.00  0.00     0.037 A 
ATOM     27  C   UNL     1       5.599  -9.014  -1.278  1.00  0.00     0.037 A 
ATOM     28  C   UNL     1       8.336  -6.465  -6.630  1.00  0.00     0.049 A 
ATOM     29  C   UNL     1       6.402  -9.599  -2.404  1.00  0.00     0.074 A 
ATOM     30  C   UNL     1       9.157  -7.104  -7.544  1.00  0.00     0.029 A 
ATOM     31  N   UNL     1       7.947  -7.425  -5.706  1.00  0.00    -0.354 N 
ATOM     32  N   UNL     1       6.950  -8.995  -3.429  1.00  0.00    -0.248 NA
ATOM     33  C   UNL     1       6.617 -11.052  -2.376  1.00  0.00     0.031 C 
ATOM     34  C   UNL     1       9.211  -8.460  -7.212  1.00  0.00     0.029 A 
ATOM     35  C   UNL     1       8.475  -8.658  -6.055  1.00  0.00     0.049 A 
ATOM     36  H   UNL     1       7.381  -7.254  -4.918  1.00  0.00     0.167 HD
ATOM     37  C   UNL     1       7.583  -9.987  -4.161  1.00  0.00     0.074 A 
ATOM     38  C   UNL     1       7.381 -11.229  -3.443  1.00  0.00     0.031 C 
ATOM     39  C   UNL     1       8.260  -9.884  -5.330  1.00  0.00     0.037 A 
BRANCH  26  40
ATOM     40  C   UNL     1       8.343  -4.221  -7.762  1.00  0.00     0.064 A 
ATOM     41  C   UNL     1       9.344  -3.248  -7.632  1.00  0.00     0.173 A 
ATOM     42  C   UNL     1       7.816  -4.453  -9.043  1.00  0.00     0.173 A 
ATOM     43  F   UNL     1       9.878  -2.984  -6.430  1.00  0.00    -0.203 F 
ATOM     44  C   UNL     1       9.799  -2.537  -8.741  1.00  0.00     0.198 A 
ATOM     45  C   UNL     1       8.290  -3.759 -10.152  1.00  0.00     0.198 A 
ATOM     46  F   UNL     1       6.863  -5.380  -9.223  1.00  0.00    -0.203 F 
ATOM     47  F   UNL     1      10.745  -1.599  -8.592  1.00  0.00    -0.200 F 
ATOM     48  C   UNL     1       9.281  -2.801 -10.001  1.00  0.00     0.200 A 
ATOM     49  F   UNL     1       7.801  -4.029 -11.370  1.00  0.00    -0.200 F 
ATOM     50  F   UNL     1       9.739  -2.135 -11.069  1.00  0.00    -0.200 F 
ENDBRANCH  26  40
BRANCH  27  51
ATOM     51  C   UNL     1       5.046  -9.876  -0.200  1.00  0.00     0.064 A 
ATOM     52  C   UNL     1       5.886 -10.547   0.697  1.00  0.00     0.173 A 
ATOM     53  C   UNL     1       3.662 -10.067  -0.064  1.00  0.00     0.173 A 
ATOM     54  F   UNL     1       7.217 -10.411   0.598  1.00  0.00    -0.203 F 
ATOM     55  C   UNL     1       5.367 -11.404   1.665  1.00  0.00     0.198 A 
ATOM     56  C   UNL     1       3.142 -10.892   0.929  1.00  0.00     0.198 A 
ATOM     57  F   UNL     1       2.811  -9.443  -0.892  1.00  0.00    -0.203 F 
ATOM     58  F   UNL     1       6.197 -12.085   2.467  1.00  0.00    -0.200 F 
ATOM     59  C   UNL     1       3.995 -11.572   1.784  1.00  0.00     0.200 A 
ATOM     60  F   UNL     1       1.815 -11.034   1.052  1.00  0.00    -0.200 F 
ATOM     61  F   UNL     1       3.497 -12.398   2.713  1.00  0.00    -0.200 F 
ENDBRANCH  27  51
BRANCH  39  62
ATOM     62  C   UNL     1       8.842 -11.148  -5.893  1.00  0.00     0.064 A 
ATOM     63  C   UNL     1       8.025 -12.154  -6.431  1.00  0.00     0.173 A 
ATOM     64  C   UNL     1      10.231 -11.345  -5.916  1.00  0.00     0.173 A 
ATOM     65  F   UNL     1       6.690 -12.021  -6.414  1.00  0.00    -0.203 F 
ATOM     66  C   UNL     1       8.577 -13.323  -6.945  1.00  0.00     0.198 A 
ATOM     67  C   UNL     1      10.780 -12.501  -6.463  1.00  0.00     0.198 A 
ATOM     68  F   UNL     1      11.056 -10.412  -5.418  1.00  0.00    -0.203 F 
ATOM     69  F   UNL     1       7.775 -14.295  -7.402  1.00  0.00    -0.200 F 
ATOM     70  C   UNL     1       9.953 -13.492  -6.968  1.00  0.00     0.200 A 
ATOM     71  F   UNL     1      12.111 -12.656  -6.498  1.00  0.00    -0.200 F 
ATOM     72  F   UNL     1      10.483 -14.616  -7.470  1.00  0.00    -0.200 F 
ENDBRANCH  39  62
ENDBRANCH  13  14
ENDBRANCH   6   8
ENDBRANCH   3   4
ENDBRANCH   2   3
ENDBRANCH   1   2
BRANCH   1  73
ATOM     73  C   UNL     1       4.824   3.490   2.670  1.00  0.00     0.002 C 
BRANCH  73  74
ATOM     74  C   UNL     1       6.338   3.320   2.851  1.00  0.00     0.021 C 
BRANCH  74  75
ATOM     75  C   UNL     1       7.193   4.426   2.240  1.00  0.00     0.116 C 
BRANCH  75  76
ATOM     76  N   UNL     1       6.885   5.729   2.801  1.00  0.00    -0.352 N 
ATOM     77  C   UNL     1       7.714   6.696   3.303  1.00  0.00     0.253 C 
ATOM     78  H   UNL     1       5.926   5.953   2.824  1.00  0.00     0.163 HD
ATOM     79  O   UNL     1       7.223   7.645   3.910  1.00  0.00    -0.269 OA
BRANCH  77  80
ATOM     80  C   UNL     1       9.184   6.638   3.118  1.00  0.00     0.065 A 
ATOM     81  C   UNL     1       9.954   6.871   4.280  1.00  0.00     0.042 A 
ATOM     82  C   UNL     1       9.800   6.501   1.854  1.00  0.00     0.054 A 
ATOM     83  C   UNL     1      11.342   7.001   4.218  1.00  0.00     0.038 A 
ATOM     84  C   UNL     1      11.187   6.621   1.818  1.00  0.00     0.029 A 
ATOM     85  C   UNL     1      11.939   6.845   2.972  1.00  0.00     0.028 A 
BRANCH  82  86
ATOM     86  N   UNL     1       9.009   6.285   0.699  1.00  0.00    -0.325 N 
ATOM     87  C   UNL     1       9.259   5.758  -0.541  1.00  0.00     0.227 C 
ATOM     88  H   UNL     1       8.075   6.578   0.812  1.00  0.00     0.169 HD
ATOM     89  O   UNL     1       8.292   5.554  -1.281  1.00  0.00    -0.274 OA
BRANCH  87  90
ATOM     90  C   UNL     1      10.664   5.426  -0.986  1.00  0.00     0.079 C 
ATOM     91  C   UNL     1      10.816   4.332  -2.037  1.00  0.00     0.013 C 
ATOM     92  C   UNL     1      11.284   6.622  -1.710  1.00  0.00     0.013 C 
ATOM     93  C   UNL     1      12.263   4.534  -2.485  1.00  0.00     0.001 C 
ATOM     94  C   UNL     1      12.496   6.045  -2.433  1.00  0.00     0.001 C 
ENDBRANCH  87  90
ENDBRANCH  82  86
BRANCH  83  95
ATOM     95  N   UNL     1      12.075   7.392   5.314  1.00  0.00    -0.368 N 
ATOM     96  C   UNL     1      12.305   6.492   6.458  1.00  0.00     0.138 C 
ATOM     97  C   UNL     1      13.022   8.514   5.185  1.00  0.00     0.138 C 
ATOM     98  C   UNL     1      13.790   6.026   6.532  1.00  0.00     0.138 C 
ATOM     99  C   UNL     1      14.479   8.019   5.208  1.00  0.00     0.138 C 
ATOM    100  N   UNL     1      14.725   7.160   6.375  1.00  0.00    -0.368 N 
BRANCH 100 101
ATOM    101  C   UNL     1      15.464   7.617   7.446  1.00  0.00     0.037 A 
ATOM    102  C   UNL     1      16.376   6.765   8.087  1.00  0.00     0.029 A 
ATOM    103  C   UNL     1      15.373   8.939   7.909  1.00  0.00     0.029 A 
ATOM    104  C   UNL     1      17.182   7.219   9.136  1.00  0.00     0.041 A 
ATOM    105  C   UNL     1      16.161   9.396   8.969  1.00  0.00     0.041 A 
ATOM    106  C   UNL     1      17.064   8.532   9.568  1.00  0.00     0.123 A 
ATOM    107  F   UNL     1      17.833   8.972  10.572  1.00  0.00    -0.207 F 
ENDBRANCH 100 101
ENDBRANCH  83  95
ENDBRANCH  77  80
ENDBRANCH  75  76
ENDBRANCH  74  75
ENDBRANCH  73  74
ENDBRANCH   1  73
TORSDOF 17
