REMARK SMILES Cc1cc(C[N@H+]2CCN(C)C(=O)C2(C)C)oc1C(=O)NCCCCCCNC(=O)c1ccc(-c2c3nc(c(-c4c(F)c(F)c(F)c(F)c4F)c4ccc([nH]4)c(-c4c(F)c(F)c(F)c(F)c4F)c4nc(c(-c5c(F)c(F)c(F)c(F)c5F)c5ccc2[nH]5)C=C4)C=C3)cc1
REMARK SMILES IDX 23 1 22 2 21 3 20 4 18 5 19 6 17 8 1 9 2 10 3 11 4 12 16 13
REMARK SMILES IDX 5 14 6 15 7 16 13 17 8 19 11 20 14 21 15 22 9 23 12 24 10 25
REMARK SMILES IDX 24 26 25 27 26 28 27 29 28 30 29 32 30 33 31 34 92 35 32 36
REMARK SMILES IDX 91 37 33 38 34 39 35 40 85 41 36 42 90 43 84 44 86 45 37 46
REMARK SMILES IDX 89 47 83 48 82 49 38 51 70 52 50 53 69 54 51 55 54 56 68 57
REMARK SMILES IDX 87 58 52 59 53 60 67 62 88 63 55 64 39 65 40 66 48 67 41 68
REMARK SMILES IDX 42 69 46 70 49 71 43 72 44 73 47 74 45 75 71 76 72 77 80 78
REMARK SMILES IDX 73 79 74 80 78 81 81 82 75 83 76 84 79 85 77 86 56 87 57 88
REMARK SMILES IDX 65 89 58 90 59 91 63 92 66 93 60 94 61 95 64 96 62 97
REMARK H PARENT 20 7 6 18 27 31 86 50 54 61
REMARK Flexibility Score: inf
ROOT
ATOM      1  C   UNL     1      -4.264  -4.031  -1.362  1.00  0.00     0.002 C 
ENDROOT
BRANCH   1   2
ATOM      2  C   UNL     1      -3.577  -2.741  -1.821  1.00  0.00     0.021 C 
BRANCH   2   3
ATOM      3  C   UNL     1      -2.727  -2.026  -0.777  1.00  0.00     0.116 C 
BRANCH   3   4
ATOM      4  N   UNL     1      -1.539  -2.746  -0.398  1.00  0.00    -0.349 N 
ATOM      5  C   UNL     1      -0.333  -2.260   0.061  1.00  0.00     0.287 C 
ATOM      6  O   UNL     1       0.563  -3.096   0.183  1.00  0.00    -0.266 OA
ATOM      7  H   UNL     1      -1.596  -3.726  -0.477  1.00  0.00     0.163 HD
BRANCH   5   8
ATOM      8  C   UNL     1      -0.130  -0.845   0.342  1.00  0.00     0.194 A 
ATOM      9  C   UNL     1      -2.303   0.283   1.293  1.00  0.00     0.049 C 
ATOM     10  C   UNL     1      -0.887   0.203   0.863  1.00  0.00     0.001 A 
ATOM     11  C   UNL     1      -0.009   1.317   0.952  1.00  0.00     0.056 A 
ATOM     12  C   UNL     1       1.180   0.953   0.373  1.00  0.00     0.159 A 
ATOM     13  O   UNL     1       1.139  -0.371   0.065  1.00  0.00    -0.450 OA
BRANCH  12  14
ATOM     14  C   UNL     1       2.428   1.703   0.047  1.00  0.00     0.339 C 
BRANCH  14  15
ATOM     15  N   UNL     1       2.432   2.476  -1.215  1.00  0.00    -0.315 N 
ATOM     16  C   UNL     1       2.591   1.621  -2.399  1.00  0.00     0.285 C 
ATOM     17  C   UNL     1       1.346   3.485  -1.409  1.00  0.00     0.172 C 
ATOM     18  H   UNL     1       3.265   3.054  -1.103  1.00  0.00     0.349 HD
ATOM     19  C   UNL     1       1.301   0.983  -2.924  1.00  0.00     0.180 C 
ATOM     20  C   UNL     1      -0.001   2.822  -1.847  1.00  0.00     0.283 C 
ATOM     21  C   UNL     1       1.171   4.406  -0.181  1.00  0.00     0.090 C 
ATOM     22  C   UNL     1       1.707   4.447  -2.574  1.00  0.00     0.090 C 
ATOM     23  N   UNL     1       0.094   1.794  -2.786  1.00  0.00    -0.335 N 
ATOM     24  O   UNL     1      -1.090   3.273  -1.483  1.00  0.00    -0.268 OA
ATOM     25  C   UNL     1      -1.099   1.302  -3.447  1.00  0.00     0.147 C 
ENDBRANCH  14  15
ENDBRANCH  12  14
ENDBRANCH   5   8
ENDBRANCH   3   4
ENDBRANCH   2   3
ENDBRANCH   1   2
BRANCH   1  26
ATOM     26  C   UNL     1      -5.096  -3.961  -0.077  1.00  0.00     0.002 C 
BRANCH  26  27
ATOM     27  C   UNL     1      -6.127  -2.835   0.024  1.00  0.00     0.021 C 
BRANCH  27  28
ATOM     28  C   UNL     1      -7.102  -2.700  -1.141  1.00  0.00     0.116 C 
BRANCH  28  29
ATOM     29  N   UNL     1      -7.897  -3.892  -1.369  1.00  0.00    -0.352 N 
ATOM     30  C   UNL     1      -9.251  -4.028  -1.551  1.00  0.00     0.251 C 
ATOM     31  H   UNL     1      -7.386  -4.734  -1.398  1.00  0.00     0.163 HD
ATOM     32  O   UNL     1      -9.746  -5.148  -1.636  1.00  0.00    -0.269 OA
BRANCH  30  33
ATOM     33  C   UNL     1     -10.131  -2.837  -1.611  1.00  0.00     0.039 A 
ATOM     34  C   UNL     1     -11.341  -2.869  -0.912  1.00  0.00     0.014 A 
ATOM     35  C   UNL     1      -9.793  -1.708  -2.363  1.00  0.00     0.014 A 
ATOM     36  C   UNL     1     -12.180  -1.751  -0.912  1.00  0.00     0.010 A 
ATOM     37  C   UNL     1     -10.597  -0.570  -2.310  1.00  0.00     0.010 A 
ATOM     38  C   UNL     1     -11.798  -0.579  -1.584  1.00  0.00    -0.014 A 
BRANCH  38  39
ATOM     39  C   UNL     1     -12.640   0.644  -1.532  1.00  0.00     0.031 A 
ATOM     40  C   UNL     1     -13.288   1.175  -2.781  1.00  0.00     0.074 A 
ATOM     41  C   UNL     1     -12.772   1.314  -0.370  1.00  0.00     0.049 A 
ATOM     42  N   UNL     1     -13.992   2.266  -2.950  1.00  0.00    -0.248 NA
ATOM     43  C   UNL     1     -13.098   0.387  -4.008  1.00  0.00     0.031 C 
ATOM     44  C   UNL     1     -12.161   0.927   0.902  1.00  0.00     0.029 A 
ATOM     45  N   UNL     1     -13.451   2.470  -0.073  1.00  0.00    -0.354 N 
ATOM     46  C   UNL     1     -14.315   2.302  -4.300  1.00  0.00     0.074 A 
ATOM     47  C   UNL     1     -13.692   1.149  -4.915  1.00  0.00     0.031 C 
ATOM     48  C   UNL     1     -12.505   1.819   1.845  1.00  0.00     0.029 A 
ATOM     49  C   UNL     1     -13.330   2.860   1.238  1.00  0.00     0.049 A 
ATOM     50  H   UNL     1     -13.976   2.972  -0.738  1.00  0.00     0.167 HD
ATOM     51  C   UNL     1     -15.077   3.205  -4.963  1.00  0.00     0.037 A 
ATOM     52  C   UNL     1     -13.819   3.939   1.877  1.00  0.00     0.037 A 
ATOM     53  C   UNL     1     -15.720   4.336  -4.346  1.00  0.00     0.049 A 
ATOM     54  C   UNL     1     -14.663   4.926   1.117  1.00  0.00     0.074 A 
ATOM     55  C   UNL     1     -16.560   5.272  -4.923  1.00  0.00     0.029 A 
ATOM     56  N   UNL     1     -15.592   4.684  -3.009  1.00  0.00    -0.354 N 
ATOM     57  N   UNL     1     -15.013   4.915  -0.146  1.00  0.00    -0.248 NA
ATOM     58  C   UNL     1     -15.185   6.073   1.874  1.00  0.00     0.031 C 
ATOM     59  C   UNL     1     -16.908   6.210  -3.945  1.00  0.00     0.029 A 
ATOM     60  C   UNL     1     -16.323   5.832  -2.748  1.00  0.00     0.049 A 
ATOM     61  H   UNL     1     -15.060   4.189  -2.345  1.00  0.00     0.167 HD
ATOM     62  C   UNL     1     -15.818   6.032  -0.329  1.00  0.00     0.074 A 
ATOM     63  C   UNL     1     -15.915   6.691   0.956  1.00  0.00     0.031 C 
ATOM     64  C   UNL     1     -16.421   6.470  -1.460  1.00  0.00     0.037 A 
BRANCH  51  65
ATOM     65  C   UNL     1     -15.265   3.006  -6.439  1.00  0.00     0.064 A 
ATOM     66  C   UNL     1     -16.054   1.962  -6.945  1.00  0.00     0.173 A 
ATOM     67  C   UNL     1     -14.688   3.896  -7.357  1.00  0.00     0.173 A 
ATOM     68  F   UNL     1     -16.619   1.077  -6.110  1.00  0.00    -0.203 F 
ATOM     69  C   UNL     1     -16.236   1.801  -8.316  1.00  0.00     0.198 A 
ATOM     70  C   UNL     1     -14.897   3.749  -8.726  1.00  0.00     0.198 A 
ATOM     71  F   UNL     1     -13.931   4.916  -6.926  1.00  0.00    -0.203 F 
ATOM     72  F   UNL     1     -16.957   0.769  -8.778  1.00  0.00    -0.200 F 
ATOM     73  C   UNL     1     -15.664   2.698  -9.205  1.00  0.00     0.200 A 
ATOM     74  F   UNL     1     -14.354   4.625  -9.583  1.00  0.00    -0.200 F 
ATOM     75  F   UNL     1     -15.848   2.547 -10.524  1.00  0.00    -0.200 F 
ENDBRANCH  51  65
BRANCH  52  76
ATOM     76  C   UNL     1     -13.543   4.134   3.325  1.00  0.00     0.064 A 
ATOM     77  C   UNL     1     -14.565   4.001   4.275  1.00  0.00     0.173 A 
ATOM     78  C   UNL     1     -12.261   4.464   3.786  1.00  0.00     0.173 A 
ATOM     79  F   UNL     1     -15.812   3.708   3.880  1.00  0.00    -0.203 F 
ATOM     80  C   UNL     1     -14.319   4.211   5.630  1.00  0.00     0.198 A 
ATOM     81  C   UNL     1     -12.010   4.647   5.144  1.00  0.00     0.198 A 
ATOM     82  F   UNL     1     -11.248   4.598   2.917  1.00  0.00    -0.203 F 
ATOM     83  F   UNL     1     -15.323   4.124   6.513  1.00  0.00    -0.200 F 
ATOM     84  C   UNL     1     -13.041   4.529   6.064  1.00  0.00     0.200 A 
ATOM     85  F   UNL     1     -10.771   4.940   5.561  1.00  0.00    -0.200 F 
ATOM     86  F   UNL     1     -12.804   4.729   7.368  1.00  0.00    -0.200 F 
ENDBRANCH  52  76
BRANCH  64  87
ATOM     87  C   UNL     1     -17.274   7.700  -1.353  1.00  0.00     0.064 A 
ATOM     88  C   UNL     1     -16.712   8.974  -1.191  1.00  0.00     0.173 A 
ATOM     89  C   UNL     1     -18.671   7.604  -1.456  1.00  0.00     0.173 A 
ATOM     90  F   UNL     1     -15.384   9.116  -1.072  1.00  0.00    -0.203 F 
ATOM     91  C   UNL     1     -17.519  10.106  -1.112  1.00  0.00     0.198 A 
ATOM     92  C   UNL     1     -19.472   8.741  -1.405  1.00  0.00     0.198 A 
ATOM     93  F   UNL     1     -19.257   6.409  -1.618  1.00  0.00    -0.203 F 
ATOM     94  F   UNL     1     -16.963  11.310  -0.912  1.00  0.00    -0.200 F 
ATOM     95  C   UNL     1     -18.896   9.990  -1.226  1.00  0.00     0.200 A 
ATOM     96  F   UNL     1     -20.802   8.628  -1.528  1.00  0.00    -0.200 F 
ATOM     97  F   UNL     1     -19.670  11.082  -1.158  1.00  0.00    -0.200 F 
ENDBRANCH  64  87
ENDBRANCH  38  39
ENDBRANCH  30  33
ENDBRANCH  28  29
ENDBRANCH  27  28
ENDBRANCH  26  27
ENDBRANCH   1  26
TORSDOF 15
