REMARK SMILES C[C@H]([C@@H](C)O)[NH+]1CCC(C)(C(=O)NCCCCCCNC(=O)c2ccc(-c3c4nc(c(-c5c(F)c(F)c(F)c(F)c5F)c5ccc([nH]5)c(-c5c(F)c(F)c(F)c(F)c5F)c5nc(c(-c6c(F)c(F)c(F)c(F)c6F)c6ccc3[nH]6)C=C5)C=C4)cc2)CC1
REMARK SMILES IDX 16 1 15 2 14 3 13 4 11 5 12 6 9 8 6 9 7 10 87 11 8 13 86 14
REMARK SMILES IDX 10 15 2 16 1 17 3 18 4 19 5 20 17 22 18 23 19 24 20 25 21 26
REMARK SMILES IDX 22 28 23 29 24 30 85 31 25 32 84 33 26 34 27 35 28 36 78 37
REMARK SMILES IDX 29 38 83 39 77 40 79 41 30 42 82 43 76 44 75 45 31 47 63 48
REMARK SMILES IDX 43 49 62 50 44 51 47 52 61 53 80 54 45 55 46 56 60 58 81 59
REMARK SMILES IDX 48 60 32 61 33 62 41 63 34 64 35 65 39 66 42 67 36 68 37 69
REMARK SMILES IDX 40 70 38 71 64 72 65 73 73 74 66 75 67 76 71 77 74 78 68 79
REMARK SMILES IDX 69 80 72 81 70 82 49 83 50 84 58 85 51 86 52 87 56 88 59 89
REMARK SMILES IDX 53 90 54 91 57 92 55 93
REMARK H PARENT 13 7 6 12 5 21 20 27 79 46 47 57
REMARK Flexibility Score: inf
ROOT
ATOM      1  C   UNL     1      -5.362   4.685   2.080  1.00  0.00     0.002 C 
ENDROOT
BRANCH   1   2
ATOM      2  C   UNL     1      -3.866   4.367   2.049  1.00  0.00     0.021 C 
BRANCH   2   3
ATOM      3  C   UNL     1      -3.300   3.914   3.394  1.00  0.00     0.116 C 
BRANCH   3   4
ATOM      4  N   UNL     1      -3.783   2.592   3.756  1.00  0.00    -0.356 N 
ATOM      5  C   UNL     1      -3.159   1.383   3.859  1.00  0.00     0.226 C 
ATOM      6  O   UNL     1      -3.878   0.414   4.116  1.00  0.00    -0.274 OA
ATOM      7  H   UNL     1      -4.744   2.563   3.967  1.00  0.00     0.163 HD
BRANCH   5   8
ATOM      8  C   UNL     1      -1.634   1.240   3.675  1.00  0.00     0.057 C 
ATOM      9  N   UNL     1      -0.796  -0.590   1.463  1.00  0.00    -0.331 N 
ATOM     10  C   UNL     1      -1.534   0.630   1.207  1.00  0.00     0.263 C 
ATOM     11  C   UNL     1      -1.254  -1.181   2.720  1.00  0.00     0.263 C 
ATOM     12  H   UNL     1      -1.040  -1.221   0.699  1.00  0.00     0.348 HD
ATOM     13  C   UNL     1      -1.241   1.700   2.250  1.00  0.00     0.078 C 
ATOM     14  C   UNL     1      -1.189  -0.239   3.928  1.00  0.00     0.078 C 
ATOM     15  C   UNL     1      -0.930   2.062   4.780  1.00  0.00     0.022 C 
BRANCH   9  16
ATOM     16  C   UNL     1       0.661  -0.626   1.194  1.00  0.00     0.209 C 
ATOM     17  C   UNL     1       1.599  -0.138   2.317  1.00  0.00     0.078 C 
BRANCH  16  18
ATOM     18  C   UNL     1       1.108  -0.084  -0.213  1.00  0.00     0.169 C 
ATOM     19  C   UNL     1       1.237   1.431  -0.381  1.00  0.00     0.045 C 
BRANCH  18  20
ATOM     20  O   UNL     1       2.383  -0.656  -0.559  1.00  0.00    -0.387 OA
ATOM     21  H   UNL     1       3.057  -0.344   0.065  1.00  0.00     0.211 HD
ENDBRANCH  18  20
ENDBRANCH  16  18
ENDBRANCH   9  16
ENDBRANCH   5   8
ENDBRANCH   3   4
ENDBRANCH   2   3
ENDBRANCH   1   2
BRANCH   1  22
ATOM     22  C   UNL     1      -5.775   5.711   3.138  1.00  0.00     0.002 C 
BRANCH  22  23
ATOM     23  C   UNL     1      -4.988   7.024   3.106  1.00  0.00     0.021 C 
BRANCH  23  24
ATOM     24  C   UNL     1      -5.038   7.755   1.770  1.00  0.00     0.116 C 
BRANCH  24  25
ATOM     25  N   UNL     1      -6.393   8.135   1.411  1.00  0.00    -0.352 N 
ATOM     26  C   UNL     1      -6.893   9.375   1.104  1.00  0.00     0.251 C 
ATOM     27  H   UNL     1      -7.046   7.399   1.386  1.00  0.00     0.163 HD
ATOM     28  O   UNL     1      -8.102   9.558   1.035  1.00  0.00    -0.269 OA
BRANCH  26  29
ATOM     29  C   UNL     1      -5.961  10.497   0.869  1.00  0.00     0.039 A 
ATOM     30  C   UNL     1      -6.233  11.734   1.457  1.00  0.00     0.014 A 
ATOM     31  C   UNL     1      -4.830  10.329   0.064  1.00  0.00     0.014 A 
ATOM     32  C   UNL     1      -5.342  12.793   1.277  1.00  0.00     0.010 A 
ATOM     33  C   UNL     1      -3.907  11.362  -0.053  1.00  0.00     0.010 A 
ATOM     34  C   UNL     1      -4.158  12.607   0.544  1.00  0.00    -0.014 A 
BRANCH  34  35
ATOM     35  C   UNL     1      -3.177  13.707   0.378  1.00  0.00     0.031 A 
ATOM     36  C   UNL     1      -2.901  14.269  -0.988  1.00  0.00     0.074 A 
ATOM     37  C   UNL     1      -2.493  14.156   1.447  1.00  0.00     0.049 A 
ATOM     38  N   UNL     1      -2.033  15.180  -1.350  1.00  0.00    -0.248 NA
ATOM     39  C   UNL     1      -3.687  13.714  -2.102  1.00  0.00     0.031 C 
ATOM     40  C   UNL     1      -2.642  13.659   2.816  1.00  0.00     0.029 A 
ATOM     41  N   UNL     1      -1.527  15.125   1.549  1.00  0.00    -0.354 N 
ATOM     42  C   UNL     1      -2.159  15.295  -2.728  1.00  0.00     0.074 A 
ATOM     43  C   UNL     1      -3.145  14.323  -3.146  1.00  0.00     0.031 C 
ATOM     44  C   UNL     1      -1.813  14.340   3.623  1.00  0.00     0.029 A 
ATOM     45  C   UNL     1      -1.048  15.293   2.825  1.00  0.00     0.049 A 
ATOM     46  H   UNL     1      -1.207  15.650   0.780  1.00  0.00     0.167 HD
ATOM     47  C   UNL     1      -1.526  16.151  -3.565  1.00  0.00     0.037 A 
ATOM     48  C   UNL     1      -0.093  16.118   3.295  1.00  0.00     0.037 A 
ATOM     49  C   UNL     1      -0.563  17.132  -3.139  1.00  0.00     0.049 A 
ATOM     50  C   UNL     1       0.602  17.053   2.342  1.00  0.00     0.074 A 
ATOM     51  C   UNL     1       0.092  18.085  -3.900  1.00  0.00     0.029 A 
ATOM     52  N   UNL     1      -0.115  17.285  -1.835  1.00  0.00    -0.354 N 
ATOM     53  N   UNL     1       0.427  17.200   1.051  1.00  0.00    -0.248 NA
ATOM     54  C   UNL     1       1.622  17.942   2.914  1.00  0.00     0.031 C 
ATOM     55  C   UNL     1       0.972  18.781  -3.065  1.00  0.00     0.029 A 
ATOM     56  C   UNL     1       0.825  18.300  -1.774  1.00  0.00     0.049 A 
ATOM     57  H   UNL     1      -0.420  16.750  -1.067  1.00  0.00     0.167 HD
ATOM     58  C   UNL     1       1.289  18.216   0.662  1.00  0.00     0.074 A 
ATOM     59  C   UNL     1       1.977  18.659   1.857  1.00  0.00     0.031 C 
ATOM     60  C   UNL     1       1.493  18.735  -0.573  1.00  0.00     0.037 A 
BRANCH  47  61
ATOM     61  C   UNL     1      -1.856  16.064  -5.027  1.00  0.00     0.064 A 
ATOM     62  C   UNL     1      -3.110  16.454  -5.524  1.00  0.00     0.173 A 
ATOM     63  C   UNL     1      -0.896  15.620  -5.949  1.00  0.00     0.173 A 
ATOM     64  F   UNL     1      -4.068  16.875  -4.684  1.00  0.00    -0.203 F 
ATOM     65  C   UNL     1      -3.400  16.372  -6.883  1.00  0.00     0.198 A 
ATOM     66  C   UNL     1      -1.179  15.571  -7.312  1.00  0.00     0.198 A 
ATOM     67  F   UNL     1       0.321  15.241  -5.530  1.00  0.00    -0.203 F 
ATOM     68  F   UNL     1      -4.622  16.700  -7.327  1.00  0.00    -0.200 F 
ATOM     69  C   UNL     1      -2.432  15.939  -7.777  1.00  0.00     0.200 A 
ATOM     70  F   UNL     1      -0.238  15.165  -8.176  1.00  0.00    -0.200 F 
ATOM     71  F   UNL     1      -2.710  15.869  -9.086  1.00  0.00    -0.200 F 
ENDBRANCH  47  61
BRANCH  48  72
ATOM     72  C   UNL     1       0.247  16.113   4.742  1.00  0.00     0.064 A 
ATOM     73  C   UNL     1      -0.068  17.208   5.559  1.00  0.00     0.173 A 
ATOM     74  C   UNL     1       0.896  15.021   5.337  1.00  0.00     0.173 A 
ATOM     75  F   UNL     1      -0.671  18.284   5.033  1.00  0.00    -0.203 F 
ATOM     76  C   UNL     1       0.274  17.221   6.910  1.00  0.00     0.198 A 
ATOM     77  C   UNL     1       1.210  15.022   6.694  1.00  0.00     0.198 A 
ATOM     78  F   UNL     1       1.213  13.945   4.601  1.00  0.00    -0.203 F 
ATOM     79  F   UNL     1       0.005  18.300   7.656  1.00  0.00    -0.200 F 
ATOM     80  C   UNL     1       0.908  16.126   7.478  1.00  0.00     0.200 A 
ATOM     81  F   UNL     1       1.808  13.956   7.242  1.00  0.00    -0.200 F 
ATOM     82  F   UNL     1       1.233  16.137   8.777  1.00  0.00    -0.200 F 
ENDBRANCH  48  72
BRANCH  60  83
ATOM     83  C   UNL     1       2.471  19.869  -0.691  1.00  0.00     0.064 A 
ATOM     84  C   UNL     1       3.852  19.669  -0.553  1.00  0.00     0.173 A 
ATOM     85  C   UNL     1       2.020  21.164  -0.988  1.00  0.00     0.173 A 
ATOM     86  F   UNL     1       4.332  18.453  -0.255  1.00  0.00    -0.203 F 
ATOM     87  C   UNL     1       4.744  20.731  -0.682  1.00  0.00     0.198 A 
ATOM     88  C   UNL     1       2.917  22.216  -1.148  1.00  0.00     0.198 A 
ATOM     89  F   UNL     1       0.709  21.407  -1.137  1.00  0.00    -0.203 F 
ATOM     90  F   UNL     1       6.056  20.526  -0.498  1.00  0.00    -0.200 F 
ATOM     91  C   UNL     1       4.277  22.000  -0.987  1.00  0.00     0.200 A 
ATOM     92  F   UNL     1       2.465  23.439  -1.458  1.00  0.00    -0.200 F 
ATOM     93  F   UNL     1       5.139  23.019  -1.120  1.00  0.00    -0.200 F 
ENDBRANCH  60  83
ENDBRANCH  34  35
ENDBRANCH  26  29
ENDBRANCH  24  25
ENDBRANCH  23  24
ENDBRANCH  22  23
ENDBRANCH   1  22
TORSDOF 16
