REMARK SMILES Cc1ccc(NC(=O)NC2CCCC2)cc1/C=C/C(=O)NCCCCCCNC(=O)c1ccc(-c2c3nc(c(-c4c(F)c(F)c(F)c(F)c4F)c4ccc([nH]4)c(-c4c(F)c(F)c(F)c(F)c4F)c4nc(c(-c5c(F)c(F)c(F)c(F)c5F)c5ccc2[nH]5)C=C4)C=C3)cc1
REMARK SMILES IDX 24 1 23 2 22 3 21 4 19 5 20 6 18 8 17 9 16 10 1 11 2 12 3 13
REMARK SMILES IDX 4 14 15 15 5 16 6 17 7 18 8 20 9 21 10 23 11 24 14 25 12 26
REMARK SMILES IDX 13 27 25 28 26 29 27 30 28 31 29 32 30 34 31 35 32 36 93 37
REMARK SMILES IDX 33 38 92 39 34 40 35 41 36 42 86 43 37 44 91 45 85 46 87 47
REMARK SMILES IDX 38 48 90 49 84 50 83 51 39 53 71 54 51 55 70 56 52 57 55 58
REMARK SMILES IDX 69 59 88 60 53 61 54 62 68 64 89 65 56 66 40 67 41 68 49 69
REMARK SMILES IDX 42 70 43 71 47 72 50 73 44 74 45 75 48 76 46 77 72 78 73 79
REMARK SMILES IDX 81 80 74 81 75 82 79 83 82 84 76 85 77 86 80 87 78 88 57 89
REMARK SMILES IDX 58 90 66 91 59 92 60 93 64 94 67 95 61 96 62 97 65 98 63 99
REMARK H PARENT 21 7 6 19 9 22 28 33 87 52 55 63
REMARK Flexibility Score: inf
ROOT
ATOM      1  C   UNL     1       5.353   5.146  -1.092  1.00  0.00     0.002 C 
ENDROOT
BRANCH   1   2
ATOM      2  C   UNL     1       4.283   4.059  -0.929  1.00  0.00     0.021 C 
BRANCH   2   3
ATOM      3  C   UNL     1       3.293   4.321   0.204  1.00  0.00     0.116 C 
BRANCH   3   4
ATOM      4  N   UNL     1       2.248   5.238  -0.206  1.00  0.00    -0.353 N 
ATOM      5  C   UNL     1       0.896   5.083  -0.175  1.00  0.00     0.243 C 
ATOM      6  O   UNL     1       0.157   6.027  -0.438  1.00  0.00    -0.270 OA
ATOM      7  H   UNL     1       2.563   6.102  -0.559  1.00  0.00     0.163 HD
BRANCH   5   8
ATOM      8  C   UNL     1       0.318   3.805   0.284  1.00  0.00     0.072 C 
ATOM      9  C   UNL     1       0.587   2.616  -0.279  1.00  0.00     0.014 C 
BRANCH   9  10
ATOM     10  C   UNL     1       0.015   1.394   0.295  1.00  0.00    -0.020 A 
ATOM     11  C   UNL     1       2.320   0.367   0.696  1.00  0.00     0.045 C 
ATOM     12  C   UNL     1       0.827   0.395   0.870  1.00  0.00    -0.044 A 
ATOM     13  C   UNL     1       0.216  -0.656   1.565  1.00  0.00     0.006 A 
ATOM     14  C   UNL     1      -1.168  -0.807   1.543  1.00  0.00     0.026 A 
ATOM     15  C   UNL     1      -1.376   1.213   0.255  1.00  0.00     0.034 A 
ATOM     16  C   UNL     1      -1.942   0.045   0.765  1.00  0.00     0.043 A 
BRANCH  16  17
ATOM     17  N   UNL     1      -3.264  -0.252   0.426  1.00  0.00    -0.308 N 
ATOM     18  C   UNL     1      -3.867  -1.421   0.108  1.00  0.00     0.319 C 
ATOM     19  H   UNL     1      -3.865   0.528   0.418  1.00  0.00     0.171 HD
ATOM     20  O   UNL     1      -5.099  -1.482   0.151  1.00  0.00    -0.248 OA
ATOM     21  N   UNL     1      -3.206  -2.493  -0.384  1.00  0.00    -0.335 N 
ATOM     22  H   UNL     1      -3.780  -3.284  -0.505  1.00  0.00     0.165 HD
BRANCH  21  23
ATOM     23  C   UNL     1      -1.827  -2.721  -0.771  1.00  0.00     0.083 C 
ATOM     24  C   UNL     1      -1.546  -4.132  -1.284  1.00  0.00     0.025 C 
ATOM     25  C   UNL     1      -1.314  -1.880  -1.936  1.00  0.00     0.025 C 
ATOM     26  C   UNL     1      -0.126  -4.005  -1.838  1.00  0.00     0.002 C 
ATOM     27  C   UNL     1       0.014  -2.548  -2.289  1.00  0.00     0.002 C 
ENDBRANCH  21  23
ENDBRANCH  16  17
ENDBRANCH   9  10
ENDBRANCH   5   8
ENDBRANCH   3   4
ENDBRANCH   2   3
ENDBRANCH   1   2
BRANCH   1  28
ATOM     28  C   UNL     1       6.208   5.448   0.153  1.00  0.00     0.002 C 
BRANCH  28  29
ATOM     29  C   UNL     1       6.779   4.232   0.890  1.00  0.00     0.021 C 
BRANCH  29  30
ATOM     30  C   UNL     1       7.842   3.479   0.101  1.00  0.00     0.116 C 
BRANCH  30  31
ATOM     31  N   UNL     1       9.210   3.807   0.483  1.00  0.00    -0.352 N 
ATOM     32  C   UNL     1      10.398   3.486  -0.149  1.00  0.00     0.251 C 
ATOM     33  H   UNL     1       9.302   4.332   1.310  1.00  0.00     0.163 HD
ATOM     34  O   UNL     1      11.469   3.803   0.345  1.00  0.00    -0.269 OA
BRANCH  32  35
ATOM     35  C   UNL     1      10.357   2.861  -1.494  1.00  0.00     0.039 A 
ATOM     36  C   UNL     1      11.154   3.413  -2.504  1.00  0.00     0.014 A 
ATOM     37  C   UNL     1       9.427   1.871  -1.798  1.00  0.00     0.014 A 
ATOM     38  C   UNL     1      10.851   3.145  -3.838  1.00  0.00     0.010 A 
ATOM     39  C   UNL     1       9.065   1.675  -3.117  1.00  0.00     0.010 A 
ATOM     40  C   UNL     1       9.733   2.365  -4.134  1.00  0.00    -0.014 A 
BRANCH  40  41
ATOM     41  C   UNL     1       9.121   2.309  -5.458  1.00  0.00     0.031 A 
ATOM     42  C   UNL     1       9.277   1.117  -6.318  1.00  0.00     0.074 A 
ATOM     43  C   UNL     1       8.332   3.330  -5.861  1.00  0.00     0.049 A 
ATOM     44  N   UNL     1       9.079   1.109  -7.593  1.00  0.00    -0.248 NA
ATOM     45  C   UNL     1       9.709  -0.173  -5.796  1.00  0.00     0.031 C 
ATOM     46  C   UNL     1       7.430   3.360  -7.009  1.00  0.00     0.029 A 
ATOM     47  N   UNL     1       8.367   4.662  -5.413  1.00  0.00    -0.354 N 
ATOM     48  C   UNL     1       9.130  -0.195  -8.026  1.00  0.00     0.074 A 
ATOM     49  C   UNL     1       9.555  -0.954  -6.871  1.00  0.00     0.031 C 
ATOM     50  C   UNL     1       7.252   4.638  -7.381  1.00  0.00     0.029 A 
ATOM     51  C   UNL     1       8.145   5.447  -6.571  1.00  0.00     0.049 A 
ATOM     52  H   UNL     1       8.515   4.980  -4.493  1.00  0.00     0.167 HD
ATOM     53  C   UNL     1       8.716  -0.499  -9.290  1.00  0.00     0.037 A 
ATOM     54  C   UNL     1       9.119   6.273  -7.052  1.00  0.00     0.037 A 
ATOM     55  C   UNL     1       8.372   0.699 -10.050  1.00  0.00     0.049 A 
ATOM     56  C   UNL     1       9.581   5.960  -8.459  1.00  0.00     0.074 A 
ATOM     57  C   UNL     1       7.188   1.363 -10.326  1.00  0.00     0.029 A 
ATOM     58  N   UNL     1       9.389   1.561 -10.414  1.00  0.00    -0.354 N 
ATOM     59  N   UNL     1       9.213   4.909  -9.137  1.00  0.00    -0.248 NA
ATOM     60  C   UNL     1      10.584   6.758  -9.167  1.00  0.00     0.031 C 
ATOM     61  C   UNL     1       7.512   2.653 -10.834  1.00  0.00     0.029 A 
ATOM     62  C   UNL     1       8.890   2.766 -10.866  1.00  0.00     0.049 A 
ATOM     63  H   UNL     1      10.348   1.344 -10.357  1.00  0.00     0.167 HD
ATOM     64  C   UNL     1       9.928   4.855 -10.302  1.00  0.00     0.074 A 
ATOM     65  C   UNL     1      10.774   6.031 -10.280  1.00  0.00     0.031 C 
ATOM     66  C   UNL     1       9.814   3.832 -11.192  1.00  0.00     0.037 A 
BRANCH  53  67
ATOM     67  C   UNL     1       8.427  -1.899  -9.774  1.00  0.00     0.064 A 
ATOM     68  C   UNL     1       7.416  -2.136 -10.731  1.00  0.00     0.173 A 
ATOM     69  C   UNL     1       9.081  -3.053  -9.308  1.00  0.00     0.173 A 
ATOM     70  F   UNL     1       6.774  -1.128 -11.336  1.00  0.00    -0.203 F 
ATOM     71  C   UNL     1       7.016  -3.424 -11.096  1.00  0.00     0.198 A 
ATOM     72  C   UNL     1       8.641  -4.342  -9.624  1.00  0.00     0.198 A 
ATOM     73  F   UNL     1      10.199  -2.969  -8.575  1.00  0.00    -0.203 F 
ATOM     74  F   UNL     1       6.047  -3.586 -12.008  1.00  0.00    -0.200 F 
ATOM     75  C   UNL     1       7.600  -4.528 -10.511  1.00  0.00     0.200 A 
ATOM     76  F   UNL     1       9.235  -5.405  -9.062  1.00  0.00    -0.200 F 
ATOM     77  F   UNL     1       7.180  -5.762 -10.818  1.00  0.00    -0.200 F 
ENDBRANCH  53  67
BRANCH  54  78
ATOM     78  C   UNL     1       9.993   6.824  -5.981  1.00  0.00     0.064 A 
ATOM     79  C   UNL     1       9.401   7.581  -4.950  1.00  0.00     0.173 A 
ATOM     80  C   UNL     1      11.285   6.334  -5.764  1.00  0.00     0.173 A 
ATOM     81  F   UNL     1       8.162   8.074  -5.106  1.00  0.00    -0.203 F 
ATOM     82  C   UNL     1      10.024   7.729  -3.713  1.00  0.00     0.198 A 
ATOM     83  C   UNL     1      11.916   6.507  -4.532  1.00  0.00     0.198 A 
ATOM     84  F   UNL     1      11.897   5.590  -6.697  1.00  0.00    -0.203 F 
ATOM     85  F   UNL     1       9.381   8.346  -2.712  1.00  0.00    -0.200 F 
ATOM     86  C   UNL     1      11.271   7.170  -3.498  1.00  0.00     0.200 A 
ATOM     87  F   UNL     1      13.113   5.943  -4.315  1.00  0.00    -0.200 F 
ATOM     88  F   UNL     1      11.834   7.230  -2.284  1.00  0.00    -0.200 F 
ENDBRANCH  54  78
BRANCH  66  89
ATOM     89  C   UNL     1      10.588   3.785 -12.467  1.00  0.00     0.064 A 
ATOM     90  C   UNL     1      10.574   4.850 -13.378  1.00  0.00     0.173 A 
ATOM     91  C   UNL     1      11.269   2.618 -12.862  1.00  0.00     0.173 A 
ATOM     92  F   UNL     1       9.921   5.986 -13.088  1.00  0.00    -0.203 F 
ATOM     93  C   UNL     1      11.223   4.761 -14.609  1.00  0.00     0.198 A 
ATOM     94  C   UNL     1      11.880   2.516 -14.109  1.00  0.00     0.198 A 
ATOM     95  F   UNL     1      11.370   1.564 -12.039  1.00  0.00    -0.203 F 
ATOM     96  F   UNL     1      11.222   5.812 -15.440  1.00  0.00    -0.200 F 
ATOM     97  C   UNL     1      11.863   3.590 -14.980  1.00  0.00     0.200 A 
ATOM     98  F   UNL     1      12.486   1.373 -14.462  1.00  0.00    -0.200 F 
ATOM     99  F   UNL     1      12.467   3.498 -16.172  1.00  0.00    -0.200 F 
ENDBRANCH  66  89
ENDBRANCH  40  41
ENDBRANCH  32  35
ENDBRANCH  30  31
ENDBRANCH  29  30
ENDBRANCH  28  29
ENDBRANCH   1  28
TORSDOF 16
