REMARK SMILES O=C(Cc1csc(NC(=O)CS[C@@H]2CCS(=O)(=O)C2)n1)NCCCCCCNC(=O)c1ccc(-c2c3nc(c(-c4c(F)c(F)c(F)c(F)c4F)c4ccc([nH]4)c(-c4c(F)c(F)c(F)c(F)c4F)c4nc(c(-c5c(F)c(F)c(F)c(F)c5F)c5ccc2[nH]5)C=C4)C=C3)cc1
REMARK SMILES IDX 23 1 22 2 21 3 1 4 2 5 3 7 4 8 5 9 20 10 6 11 7 12 8 13 9 14
REMARK SMILES IDX 10 16 11 17 12 18 13 19 14 20 19 21 15 22 16 23 17 24 18 25
REMARK SMILES IDX 24 26 25 27 26 28 27 29 28 30 29 31 30 33 31 34 32 35 93 36
REMARK SMILES IDX 33 37 92 38 34 39 35 40 36 41 86 42 37 43 91 44 85 45 87 46
REMARK SMILES IDX 38 47 90 48 84 49 83 50 39 52 71 53 51 54 70 55 52 56 55 57
REMARK SMILES IDX 69 58 88 59 53 60 54 61 68 63 89 64 56 65 40 66 41 67 49 68
REMARK SMILES IDX 42 69 43 70 47 71 50 72 44 73 45 74 48 75 46 76 72 77 73 78
REMARK SMILES IDX 81 79 74 80 75 81 79 82 82 83 76 84 77 85 80 86 78 87 57 88
REMARK SMILES IDX 58 89 66 90 59 91 60 92 64 93 67 94 61 95 62 96 65 97 63 98
REMARK H PARENT 21 6 8 15 28 32 87 51 55 62
REMARK Flexibility Score: inf
ROOT
ATOM      1  C   UNL     1       2.735  -2.029  -2.864  1.00  0.00     0.021 C 
ENDROOT
BRANCH   1   2
ATOM      2  C   UNL     1       2.141  -1.796  -1.478  1.00  0.00     0.116 C 
BRANCH   2   3
ATOM      3  N   UNL     1       2.774  -0.684  -0.800  1.00  0.00    -0.356 N 
ATOM      4  O   UNL     1       0.884   0.108   0.241  1.00  0.00    -0.275 OA
ATOM      5  C   UNL     1       2.103   0.122   0.100  1.00  0.00     0.226 C 
ATOM      6  H   UNL     1       3.722  -0.495  -0.988  1.00  0.00     0.163 HD
BRANCH   5   7
ATOM      7  C   UNL     1       3.018   1.006   0.937  1.00  0.00     0.157 C 
BRANCH   7   8
ATOM      8  C   UNL     1       3.961   0.204   1.791  1.00  0.00     0.063 A 
ATOM      9  C   UNL     1       4.016  -1.174   1.914  1.00  0.00     0.093 A 
ATOM     10  N   UNL     1       4.920   0.871   2.551  1.00  0.00    -0.224 NA
ATOM     11  S   UNL     1       5.428  -1.623   2.752  1.00  0.00    -0.105 S 
ATOM     12  C   UNL     1       5.635   0.001   3.231  1.00  0.00     0.189 A 
BRANCH  12  13
ATOM     13  N   UNL     1       6.581   0.363   4.151  1.00  0.00    -0.301 N 
ATOM     14  C   UNL     1       7.170  -0.351   5.151  1.00  0.00     0.236 C 
ATOM     15  H   UNL     1       6.888   1.295   4.077  1.00  0.00     0.172 HD
ATOM     16  O   UNL     1       8.216   0.089   5.643  1.00  0.00    -0.274 OA
BRANCH  14  17
ATOM     17  C   UNL     1       6.611  -1.653   5.712  1.00  0.00     0.170 C 
BRANCH  17  18
ATOM     18  S   UNL     1       4.819  -1.629   6.067  1.00  0.00    -0.148 SA
BRANCH  18  19
ATOM     19  C   UNL     1       4.608  -0.734   7.653  1.00  0.00     0.063 C 
ATOM     20  C   UNL     1       3.425   0.244   7.492  1.00  0.00     0.031 C 
ATOM     21  C   UNL     1       5.758   0.048   8.280  1.00  0.00     0.151 C 
ATOM     22  C   UNL     1       3.993   1.552   6.964  1.00  0.00     0.138 C 
ATOM     23  S   UNL     1       5.514   1.765   7.855  1.00  0.00     0.151 S 
ATOM     24  O   UNL     1       6.529   2.195   6.918  1.00  0.00    -0.229 OA
ATOM     25  O   UNL     1       5.230   2.494   9.073  1.00  0.00    -0.229 OA
ENDBRANCH  18  19
ENDBRANCH  17  18
ENDBRANCH  14  17
ENDBRANCH  12  13
ENDBRANCH   7   8
ENDBRANCH   5   7
ENDBRANCH   2   3
ENDBRANCH   1   2
BRANCH   1  26
ATOM     26  C   UNL     1       4.236  -2.353  -2.882  1.00  0.00     0.002 C 
BRANCH  26  27
ATOM     27  C   UNL     1       4.646  -3.646  -2.171  1.00  0.00     0.002 C 
BRANCH  27  28
ATOM     28  C   UNL     1       3.982  -4.920  -2.694  1.00  0.00     0.021 C 
BRANCH  28  29
ATOM     29  C   UNL     1       4.146  -5.168  -4.190  1.00  0.00     0.116 C 
BRANCH  29  30
ATOM     30  N   UNL     1       5.529  -5.398  -4.577  1.00  0.00    -0.352 N 
ATOM     31  C   UNL     1       6.050  -6.393  -5.369  1.00  0.00     0.251 C 
ATOM     32  H   UNL     1       6.182  -4.752  -4.223  1.00  0.00     0.163 HD
ATOM     33  O   UNL     1       7.264  -6.530  -5.481  1.00  0.00    -0.269 OA
BRANCH  31  34
ATOM     34  C   UNL     1       5.137  -7.324  -6.068  1.00  0.00     0.039 A 
ATOM     35  C   UNL     1       5.390  -8.697  -6.007  1.00  0.00     0.014 A 
ATOM     36  C   UNL     1       4.026  -6.845  -6.767  1.00  0.00     0.014 A 
ATOM     37  C   UNL     1       4.490  -9.594  -6.590  1.00  0.00     0.010 A 
ATOM     38  C   UNL     1       3.094  -7.741  -7.282  1.00  0.00     0.010 A 
ATOM     39  C   UNL     1       3.316  -9.125  -7.200  1.00  0.00    -0.014 A 
BRANCH  39  40
ATOM     40  C   UNL     1       2.307 -10.056  -7.770  1.00  0.00     0.031 A 
ATOM     41  C   UNL     1       2.006 -10.021  -9.244  1.00  0.00     0.074 A 
ATOM     42  C   UNL     1       1.607 -10.872  -6.957  1.00  0.00     0.049 A 
ATOM     43  N   UNL     1       1.081 -10.656  -9.917  1.00  0.00    -0.248 NA
ATOM     44  C   UNL     1       2.839  -9.129 -10.068  1.00  0.00     0.031 C 
ATOM     45  C   UNL     1       1.779 -10.976  -5.508  1.00  0.00     0.029 A 
ATOM     46  N   UNL     1       0.593 -11.757  -7.233  1.00  0.00    -0.354 N 
ATOM     47  C   UNL     1       1.205 -10.225 -11.232  1.00  0.00     0.074 A 
ATOM     48  C   UNL     1       2.265  -9.241 -11.257  1.00  0.00     0.031 C 
ATOM     49  C   UNL     1       0.911 -11.880  -5.024  1.00  0.00     0.029 A 
ATOM     50  C   UNL     1       0.090 -12.386  -6.119  1.00  0.00     0.049 A 
ATOM     51  H   UNL     1       0.258 -11.926  -8.144  1.00  0.00     0.167 HD
ATOM     52  C   UNL     1       0.510 -10.628 -12.321  1.00  0.00     0.037 A 
ATOM     53  C   UNL     1      -0.931 -13.257  -5.994  1.00  0.00     0.037 A 
ATOM     54  C   UNL     1      -0.517 -11.636 -12.299  1.00  0.00     0.049 A 
ATOM     55  C   UNL     1      -1.693 -13.677  -7.225  1.00  0.00     0.074 A 
ATOM     56  C   UNL     1      -1.230 -12.160 -13.363  1.00  0.00     0.029 A 
ATOM     57  N   UNL     1      -0.976 -12.271 -11.156  1.00  0.00    -0.354 N 
ATOM     58  N   UNL     1      -1.519 -13.313  -8.472  1.00  0.00    -0.248 NA
ATOM     59  C   UNL     1      -2.792 -14.634  -7.031  1.00  0.00     0.031 C 
ATOM     60  C   UNL     1      -2.159 -13.073 -12.857  1.00  0.00     0.029 A 
ATOM     61  C   UNL     1      -1.981 -13.165 -11.486  1.00  0.00     0.049 A 
ATOM     62  H   UNL     1      -0.639 -12.110 -10.245  1.00  0.00     0.167 HD
ATOM     63  C   UNL     1      -2.452 -14.028  -9.212  1.00  0.00     0.074 A 
ATOM     64  C   UNL     1      -3.186 -14.852  -8.277  1.00  0.00     0.031 C 
ATOM     65  C   UNL     1      -2.679 -14.004 -10.548  1.00  0.00     0.037 A 
BRANCH  52  66
ATOM     66  C   UNL     1       0.834  -9.988 -13.640  1.00  0.00     0.064 A 
ATOM     67  C   UNL     1       2.036 -10.252 -14.312  1.00  0.00     0.173 A 
ATOM     68  C   UNL     1      -0.106  -9.162 -14.276  1.00  0.00     0.173 A 
ATOM     69  F   UNL     1       2.972 -11.027 -13.744  1.00  0.00    -0.203 F 
ATOM     70  C   UNL     1       2.293  -9.699 -15.564  1.00  0.00     0.198 A 
ATOM     71  C   UNL     1       0.141  -8.636 -15.541  1.00  0.00     0.198 A 
ATOM     72  F   UNL     1      -1.275  -8.882 -13.679  1.00  0.00    -0.203 F 
ATOM     73  F   UNL     1       3.463  -9.936 -16.172  1.00  0.00    -0.200 F 
ATOM     74  C   UNL     1       1.341  -8.901 -16.182  1.00  0.00     0.200 A 
ATOM     75  F   UNL     1      -0.786  -7.878 -16.142  1.00  0.00    -0.200 F 
ATOM     76  F   UNL     1       1.582  -8.386 -17.396  1.00  0.00    -0.200 F 
ENDBRANCH  52  66
BRANCH  53  77
ATOM     77  C   UNL     1      -1.302 -13.799  -4.658  1.00  0.00     0.064 A 
ATOM     78  C   UNL     1      -1.145 -15.162  -4.365  1.00  0.00     0.173 A 
ATOM     79  C   UNL     1      -1.865 -12.982  -3.667  1.00  0.00     0.173 A 
ATOM     80  F   UNL     1      -0.631 -15.990  -5.286  1.00  0.00    -0.203 F 
ATOM     81  C   UNL     1      -1.573 -15.692  -3.149  1.00  0.00     0.198 A 
ATOM     82  C   UNL     1      -2.259 -13.507  -2.438  1.00  0.00     0.198 A 
ATOM     83  F   UNL     1      -2.033 -11.670  -3.892  1.00  0.00    -0.203 F 
ATOM     84  F   UNL     1      -1.474 -17.009  -2.924  1.00  0.00    -0.200 F 
ATOM     85  C   UNL     1      -2.127 -14.864  -2.185  1.00  0.00     0.200 A 
ATOM     86  F   UNL     1      -2.780 -12.700  -1.503  1.00  0.00    -0.200 F 
ATOM     87  F   UNL     1      -2.545 -15.374  -1.019  1.00  0.00    -0.200 F 
ENDBRANCH  53  77
BRANCH  65  88
ATOM     88  C   UNL     1      -3.715 -14.943 -11.095  1.00  0.00     0.064 A 
ATOM     89  C   UNL     1      -5.086 -14.744 -10.877  1.00  0.00     0.173 A 
ATOM     90  C   UNL     1      -3.328 -16.024 -11.903  1.00  0.00     0.173 A 
ATOM     91  F   UNL     1      -5.507 -13.733 -10.101  1.00  0.00    -0.203 F 
ATOM     92  C   UNL     1      -6.030 -15.607 -11.428  1.00  0.00     0.198 A 
ATOM     93  C   UNL     1      -4.276 -16.864 -12.480  1.00  0.00     0.198 A 
ATOM     94  F   UNL     1      -2.030 -16.253 -12.150  1.00  0.00    -0.203 F 
ATOM     95  F   UNL     1      -7.332 -15.425 -11.170  1.00  0.00    -0.200 F 
ATOM     96  C   UNL     1      -5.625 -16.659 -12.237  1.00  0.00     0.200 A 
ATOM     97  F   UNL     1      -3.883 -17.869 -13.274  1.00  0.00    -0.200 F 
ATOM     98  F   UNL     1      -6.536 -17.479 -12.778  1.00  0.00    -0.200 F 
ENDBRANCH  65  88
ENDBRANCH  39  40
ENDBRANCH  31  34
ENDBRANCH  29  30
ENDBRANCH  28  29
ENDBRANCH  27  28
ENDBRANCH  26  27
ENDBRANCH   1  26
TORSDOF 18
