REMARK SMILES COc1ccccc1CNC(=O)[C@@H]1[C@H]2CC[C@H](CC2)[C@@H]1C(=O)NCCCCCCNC(=O)c1ccc(-c2c3nc(c(-c4c(F)c(F)c(F)c(F)c4F)c4ccc([nH]4)c(-c4c(F)c(F)c(F)c(F)c4F)c4nc(c(-c5c(F)c(F)c(F)c(F)c5F)c5ccc2[nH]5)C=C4)C=C3)cc1
REMARK SMILES IDX 25 1 24 2 23 3 21 4 22 5 20 7 13 8 14 9 15 10 19 11 17 12
REMARK SMILES IDX 16 13 18 14 11 15 10 16 12 18 9 19 8 20 3 21 4 22 5 23 7 24
REMARK SMILES IDX 6 25 2 26 1 27 26 28 27 29 28 30 29 31 30 32 31 33 32 35
REMARK SMILES IDX 33 36 34 37 95 38 35 39 94 40 36 41 37 42 38 43 88 44 39 45
REMARK SMILES IDX 93 46 87 47 89 48 40 49 92 50 86 51 85 52 41 54 73 55 53 56
REMARK SMILES IDX 72 57 54 58 57 59 71 60 90 61 55 62 56 63 70 65 91 66 58 67
REMARK SMILES IDX 42 68 43 69 51 70 44 71 45 72 49 73 52 74 46 75 47 76 50 77
REMARK SMILES IDX 48 78 74 79 75 80 83 81 76 82 77 83 81 84 84 85 78 86 79 87
REMARK SMILES IDX 82 88 80 89 59 90 60 91 68 92 61 93 62 94 66 95 69 96 63 97
REMARK SMILES IDX 64 98 67 99 65 100
REMARK H PARENT 23 6 10 17 30 34 89 53 57 64
REMARK Flexibility Score: inf
ROOT
ATOM      1  C   UNL     1       8.290   2.212   3.687  1.00  0.00     0.021 C 
ENDROOT
BRANCH   1   2
ATOM      2  C   UNL     1       7.483   1.712   2.509  1.00  0.00     0.116 C 
BRANCH   2   3
ATOM      3  N   UNL     1       6.180   1.174   2.781  1.00  0.00    -0.356 N 
ATOM      4  C   UNL     1       5.144   1.032   1.913  1.00  0.00     0.224 C 
ATOM      5  O   UNL     1       4.280   0.203   2.229  1.00  0.00    -0.275 OA
ATOM      6  H   UNL     1       6.018   0.874   3.704  1.00  0.00     0.163 HD
BRANCH   4   7
ATOM      7  C   UNL     1       4.905   1.901   0.659  1.00  0.00     0.094 C 
ATOM      8  C   UNL     1       5.938   2.162  -0.469  1.00  0.00     0.094 C 
ATOM      9  C   UNL     1       6.019   3.699  -0.750  1.00  0.00     0.002 C 
ATOM     10  C   UNL     1       4.644   4.153  -1.271  1.00  0.00     0.005 C 
ATOM     11  C   UNL     1       6.298   4.520   0.527  1.00  0.00     0.005 C 
ATOM     12  C   UNL     1       4.202   3.236   1.048  1.00  0.00     0.002 C 
ATOM     13  C   UNL     1       3.565   3.849  -0.222  1.00  0.00     0.005 C 
ATOM     14  C   UNL     1       5.222   4.249   1.585  1.00  0.00     0.005 C 
BRANCH   8  15
ATOM     15  C   UNL     1       7.319   1.532  -0.389  1.00  0.00     0.224 C 
ATOM     16  N   UNL     1       7.462   0.186  -0.329  1.00  0.00    -0.352 N 
ATOM     17  H   UNL     1       8.348  -0.119  -0.029  1.00  0.00     0.163 HD
ATOM     18  O   UNL     1       8.351   2.207  -0.368  1.00  0.00    -0.275 OA
BRANCH  16  19
ATOM     19  C   UNL     1       6.528  -0.878  -0.634  1.00  0.00     0.155 C 
BRANCH  19  20
ATOM     20  C   UNL     1       7.063  -1.661  -1.807  1.00  0.00     0.013 A 
ATOM     21  C   UNL     1       7.233  -3.050  -1.780  1.00  0.00     0.123 A 
ATOM     22  C   UNL     1       7.899  -3.700  -2.825  1.00  0.00     0.047 A 
ATOM     23  C   UNL     1       8.367  -2.977  -3.924  1.00  0.00     0.004 A 
ATOM     24  C   UNL     1       7.496  -0.956  -2.950  1.00  0.00     0.009 A 
ATOM     25  C   UNL     1       8.157  -1.605  -3.991  1.00  0.00     0.001 A 
BRANCH  21  26
ATOM     26  O   UNL     1       6.896  -3.820  -0.699  1.00  0.00    -0.496 OA
ATOM     27  C   UNL     1       5.483  -3.985  -0.571  1.00  0.00     0.278 C 
ENDBRANCH  21  26
ENDBRANCH  19  20
ENDBRANCH  16  19
ENDBRANCH   8  15
ENDBRANCH   4   7
ENDBRANCH   2   3
ENDBRANCH   1   2
BRANCH   1  28
ATOM     28  C   UNL     1       8.940   1.123   4.538  1.00  0.00     0.002 C 
BRANCH  28  29
ATOM     29  C   UNL     1       9.677   0.006   3.786  1.00  0.00     0.002 C 
BRANCH  29  30
ATOM     30  C   UNL     1      10.712   0.434   2.740  1.00  0.00     0.021 C 
BRANCH  30  31
ATOM     31  C   UNL     1      11.768   1.422   3.217  1.00  0.00     0.116 C 
BRANCH  31  32
ATOM     32  N   UNL     1      12.472   0.961   4.401  1.00  0.00    -0.352 N 
ATOM     33  C   UNL     1      13.819   0.887   4.649  1.00  0.00     0.251 C 
ATOM     34  H   UNL     1      11.895   0.656   5.137  1.00  0.00     0.163 HD
ATOM     35  O   UNL     1      14.229   0.329   5.659  1.00  0.00    -0.269 OA
BRANCH  33  36
ATOM     36  C   UNL     1      14.781   1.463   3.685  1.00  0.00     0.039 A 
ATOM     37  C   UNL     1      15.925   0.730   3.361  1.00  0.00     0.014 A 
ATOM     38  C   UNL     1      14.568   2.721   3.116  1.00  0.00     0.014 A 
ATOM     39  C   UNL     1      16.829   1.235   2.425  1.00  0.00     0.010 A 
ATOM     40  C   UNL     1      15.429   3.188   2.127  1.00  0.00     0.010 A 
ATOM     41  C   UNL     1      16.572   2.454   1.776  1.00  0.00    -0.014 A 
BRANCH  41  42
ATOM     42  C   UNL     1      17.495   2.990   0.745  1.00  0.00     0.031 A 
ATOM     43  C   UNL     1      18.212   4.291   0.985  1.00  0.00     0.074 A 
ATOM     44  C   UNL     1      17.645   2.340  -0.425  1.00  0.00     0.049 A 
ATOM     45  N   UNL     1      18.980   4.977   0.177  1.00  0.00    -0.248 NA
ATOM     46  C   UNL     1      18.020   4.918   2.304  1.00  0.00     0.031 C 
ATOM     47  C   UNL     1      16.985   1.084  -0.787  1.00  0.00     0.029 A 
ATOM     48  N   UNL     1      18.394   2.651  -1.534  1.00  0.00    -0.354 N 
ATOM     49  C   UNL     1      19.354   6.112   0.884  1.00  0.00     0.074 A 
ATOM     50  C   UNL     1      18.681   6.056   2.163  1.00  0.00     0.031 C 
ATOM     51  C   UNL     1      17.373   0.722  -2.021  1.00  0.00     0.029 A 
ATOM     52  C   UNL     1      18.270   1.742  -2.556  1.00  0.00     0.049 A 
ATOM     53  H   UNL     1      18.966   3.450  -1.590  1.00  0.00     0.167 HD
ATOM     54  C   UNL     1      20.206   7.097   0.512  1.00  0.00     0.037 A 
ATOM     55  C   UNL     1      18.807   1.742  -3.791  1.00  0.00     0.037 A 
ATOM     56  C   UNL     1      20.885   7.141  -0.756  1.00  0.00     0.049 A 
ATOM     57  C   UNL     1      19.712   2.877  -4.195  1.00  0.00     0.074 A 
ATOM     58  C   UNL     1      21.785   8.084  -1.220  1.00  0.00     0.029 A 
ATOM     59  N   UNL     1      20.739   6.197  -1.762  1.00  0.00    -0.354 N 
ATOM     60  N   UNL     1      20.098   3.919  -3.499  1.00  0.00    -0.248 NA
ATOM     61  C   UNL     1      20.262   2.833  -5.557  1.00  0.00     0.031 C 
ATOM     62  C   UNL     1      22.147   7.737  -2.525  1.00  0.00     0.029 A 
ATOM     63  C   UNL     1      21.522   6.545  -2.851  1.00  0.00     0.049 A 
ATOM     64  H   UNL     1      20.164   5.400  -1.710  1.00  0.00     0.167 HD
ATOM     65  C   UNL     1      20.968   4.625  -4.319  1.00  0.00     0.074 A 
ATOM     66  C   UNL     1      21.062   3.888  -5.561  1.00  0.00     0.031 C 
ATOM     67  C   UNL     1      21.630   5.781  -4.067  1.00  0.00     0.037 A 
BRANCH  54  68
ATOM     68  C   UNL     1      20.465   8.204   1.493  1.00  0.00     0.064 A 
ATOM     69  C   UNL     1      21.190   7.981   2.674  1.00  0.00     0.173 A 
ATOM     70  C   UNL     1      20.034   9.512   1.226  1.00  0.00     0.173 A 
ATOM     71  F   UNL     1      21.615   6.746   2.982  1.00  0.00    -0.203 F 
ATOM     72  C   UNL     1      21.456   9.021   3.560  1.00  0.00     0.198 A 
ATOM     73  C   UNL     1      20.330  10.556   2.099  1.00  0.00     0.198 A 
ATOM     74  F   UNL     1      19.342   9.783   0.110  1.00  0.00    -0.203 F 
ATOM     75  F   UNL     1      22.113   8.775   4.702  1.00  0.00    -0.200 F 
ATOM     76  C   UNL     1      21.035  10.309   3.267  1.00  0.00     0.200 A 
ATOM     77  F   UNL     1      19.937  11.804   1.807  1.00  0.00    -0.200 F 
ATOM     78  F   UNL     1      21.305  11.312   4.114  1.00  0.00    -0.200 F 
ENDBRANCH  54  68
BRANCH  55  79
ATOM     79  C   UNL     1      18.520   0.633  -4.742  1.00  0.00     0.064 A 
ATOM     80  C   UNL     1      19.540  -0.231  -5.169  1.00  0.00     0.173 A 
ATOM     81  C   UNL     1      17.240   0.442  -5.282  1.00  0.00     0.173 A 
ATOM     82  F   UNL     1      20.787  -0.078  -4.698  1.00  0.00    -0.203 F 
ATOM     83  C   UNL     1      19.300  -1.212  -6.128  1.00  0.00     0.198 A 
ATOM     84  C   UNL     1      16.993  -0.563  -6.214  1.00  0.00     0.198 A 
ATOM     85  F   UNL     1      16.226   1.235  -4.905  1.00  0.00    -0.203 F 
ATOM     86  F   UNL     1      20.310  -1.974  -6.571  1.00  0.00    -0.200 F 
ATOM     87  C   UNL     1      18.026  -1.379  -6.649  1.00  0.00     0.200 A 
ATOM     88  F   UNL     1      15.756  -0.732  -6.703  1.00  0.00    -0.200 F 
ATOM     89  F   UNL     1      17.797  -2.317  -7.579  1.00  0.00    -0.200 F 
ENDBRANCH  55  79
BRANCH  67  90
ATOM     90  C   UNL     1      22.573   6.285  -5.123  1.00  0.00     0.064 A 
ATOM     91  C   UNL     1      22.114   6.812  -6.338  1.00  0.00     0.173 A 
ATOM     92  C   UNL     1      23.957   6.281  -4.889  1.00  0.00     0.173 A 
ATOM     93  F   UNL     1      20.801   6.826  -6.616  1.00  0.00    -0.203 F 
ATOM     94  C   UNL     1      23.007   7.291  -7.293  1.00  0.00     0.198 A 
ATOM     95  C   UNL     1      24.845   6.793  -5.831  1.00  0.00     0.198 A 
ATOM     96  F   UNL     1      24.449   5.795  -3.740  1.00  0.00    -0.203 F 
ATOM     97  F   UNL     1      22.549   7.743  -8.468  1.00  0.00    -0.200 F 
ATOM     98  C   UNL     1      24.370   7.290  -7.035  1.00  0.00     0.200 A 
ATOM     99  F   UNL     1      26.160   6.808  -5.571  1.00  0.00    -0.200 F 
ATOM    100  F   UNL     1      25.227   7.763  -7.950  1.00  0.00    -0.200 F 
ENDBRANCH  67  90
ENDBRANCH  41  42
ENDBRANCH  33  36
ENDBRANCH  31  32
ENDBRANCH  30  31
ENDBRANCH  29  30
ENDBRANCH  28  29
ENDBRANCH   1  28
TORSDOF 17
