REMARK SMILES O=C(NCCCCCCNC(=O)[C@@H]1C=C[C@@H]([NH+]2CC3(CCOCC3)C2)C1)c1ccc(-c2c3nc(c(-c4c(F)c(F)c(F)c(F)c4F)c4ccc([nH]4)c(-c4c(F)c(F)c(F)c(F)c4F)c4nc(c(-c5c(F)c(F)c(F)c(F)c5F)c5ccc2[nH]5)C=C4)C=C3)cc1
REMARK SMILES IDX 6 1 5 2 4 3 3 4 1 5 2 6 27 8 28 9 89 10 29 11 88 12 30 13
REMARK SMILES IDX 31 14 32 15 82 16 33 17 87 18 81 19 83 20 34 21 86 22 80 23
REMARK SMILES IDX 79 24 35 26 67 27 47 28 66 29 48 30 51 31 65 32 84 33 49 34
REMARK SMILES IDX 50 35 64 37 85 38 52 39 36 40 37 41 45 42 38 43 39 44 43 45
REMARK SMILES IDX 46 46 40 47 41 48 44 49 42 50 68 51 69 52 77 53 70 54 71 55
REMARK SMILES IDX 75 56 78 57 72 58 73 59 76 60 74 61 53 62 54 63 62 64 55 65
REMARK SMILES IDX 56 66 60 67 63 68 57 69 58 70 61 71 59 72 7 73 8 74 9 75
REMARK SMILES IDX 10 76 11 77 12 79 13 80 14 81 26 82 15 83 16 84 17 85 18 86
REMARK SMILES IDX 25 87 19 89 20 90 24 91 21 92 23 93 22 94
REMARK H PARENT 3 7 83 25 51 36 10 78 17 88
REMARK Flexibility Score: inf
ROOT
ATOM      1  C   UNL     1       6.674  -7.304   1.015  1.00  0.00     0.002 C 
ENDROOT
BRANCH   1   2
ATOM      2  C   UNL     1       5.823  -8.457   1.552  1.00  0.00     0.021 C 
BRANCH   2   3
ATOM      3  C   UNL     1       4.329  -8.342   1.263  1.00  0.00     0.116 C 
BRANCH   3   4
ATOM      4  N   UNL     1       4.043  -8.344  -0.163  1.00  0.00    -0.352 N 
ATOM      5  O   UNL     1       3.296  -9.164  -2.125  1.00  0.00    -0.269 OA
ATOM      6  C   UNL     1       3.270  -9.206  -0.900  1.00  0.00     0.251 C 
ATOM      7  H   UNL     1       4.467  -7.619  -0.676  1.00  0.00     0.163 HD
BRANCH   6   8
ATOM      8  C   UNL     1       2.416 -10.201  -0.219  1.00  0.00     0.039 A 
ATOM      9  C   UNL     1       1.617  -9.841   0.870  1.00  0.00     0.014 A 
ATOM     10  C   UNL     1       2.393 -11.511  -0.705  1.00  0.00     0.014 A 
ATOM     11  C   UNL     1       0.884 -10.813   1.546  1.00  0.00     0.010 A 
ATOM     12  C   UNL     1       1.602 -12.470  -0.070  1.00  0.00     0.010 A 
ATOM     13  C   UNL     1       0.860 -12.134   1.075  1.00  0.00    -0.014 A 
BRANCH  13  14
ATOM     14  C   UNL     1       0.025 -13.159   1.747  1.00  0.00     0.031 A 
ATOM     15  C   UNL     1       0.659 -14.344   2.413  1.00  0.00     0.074 A 
ATOM     16  C   UNL     1      -1.315 -13.040   1.711  1.00  0.00     0.049 A 
ATOM     17  N   UNL     1       0.092 -15.395   2.950  1.00  0.00    -0.248 NA
ATOM     18  C   UNL     1       2.127 -14.355   2.474  1.00  0.00     0.031 C 
ATOM     19  C   UNL     1      -2.044 -11.932   1.093  1.00  0.00     0.029 A 
ATOM     20  N   UNL     1      -2.302 -13.868   2.183  1.00  0.00    -0.354 N 
ATOM     21  C   UNL     1       1.131 -16.204   3.389  1.00  0.00     0.074 A 
ATOM     22  C   UNL     1       2.365 -15.534   3.032  1.00  0.00     0.031 C 
ATOM     23  C   UNL     1      -3.361 -12.148   1.222  1.00  0.00     0.029 A 
ATOM     24  C   UNL     1      -3.568 -13.437   1.873  1.00  0.00     0.049 A 
ATOM     25  H   UNL     1      -2.120 -14.689   2.695  1.00  0.00     0.167 HD
ATOM     26  C   UNL     1       1.059 -17.395   4.032  1.00  0.00     0.037 A 
ATOM     27  C   UNL     1      -4.762 -14.032   2.053  1.00  0.00     0.037 A 
ATOM     28  C   UNL     1      -0.177 -18.051   4.379  1.00  0.00     0.049 A 
ATOM     29  C   UNL     1      -4.819 -15.375   2.722  1.00  0.00     0.074 A 
ATOM     30  C   UNL     1      -0.360 -19.238   5.066  1.00  0.00     0.029 A 
ATOM     31  N   UNL     1      -1.441 -17.582   4.048  1.00  0.00    -0.354 N 
ATOM     32  N   UNL     1      -3.835 -16.116   3.169  1.00  0.00    -0.248 NA
ATOM     33  C   UNL     1      -6.150 -15.965   2.915  1.00  0.00     0.031 C 
ATOM     34  C   UNL     1      -1.730 -19.520   5.093  1.00  0.00     0.029 A 
ATOM     35  C   UNL     1      -2.408 -18.473   4.489  1.00  0.00     0.049 A 
ATOM     36  H   UNL     1      -1.625 -16.740   3.571  1.00  0.00     0.167 HD
ATOM     37  C   UNL     1      -4.425 -17.243   3.724  1.00  0.00     0.074 A 
ATOM     38  C   UNL     1      -5.856 -17.089   3.556  1.00  0.00     0.031 C 
ATOM     39  C   UNL     1      -3.831 -18.302   4.326  1.00  0.00     0.037 A 
BRANCH  26  40
ATOM     40  C   UNL     1       2.353 -18.085   4.362  1.00  0.00     0.064 A 
ATOM     41  C   UNL     1       3.252 -17.569   5.308  1.00  0.00     0.173 A 
ATOM     42  C   UNL     1       2.697 -19.288   3.725  1.00  0.00     0.173 A 
ATOM     43  F   UNL     1       2.979 -16.419   5.943  1.00  0.00    -0.203 F 
ATOM     44  C   UNL     1       4.465 -18.205   5.568  1.00  0.00     0.198 A 
ATOM     45  C   UNL     1       3.893 -19.941   4.014  1.00  0.00     0.198 A 
ATOM     46  F   UNL     1       1.871 -19.835   2.820  1.00  0.00    -0.203 F 
ATOM     47  F   UNL     1       5.337 -17.655   6.425  1.00  0.00    -0.200 F 
ATOM     48  C   UNL     1       4.782 -19.391   4.925  1.00  0.00     0.200 A 
ATOM     49  F   UNL     1       4.189 -21.096   3.404  1.00  0.00    -0.200 F 
ATOM     50  F   UNL     1       5.950 -20.000   5.173  1.00  0.00    -0.200 F 
ENDBRANCH  26  40
BRANCH  27  51
ATOM     51  C   UNL     1      -5.989 -13.347   1.573  1.00  0.00     0.064 A 
ATOM     52  C   UNL     1      -6.906 -12.793   2.475  1.00  0.00     0.173 A 
ATOM     53  C   UNL     1      -6.237 -13.182   0.202  1.00  0.00     0.173 A 
ATOM     54  F   UNL     1      -6.718 -12.939   3.795  1.00  0.00    -0.203 F 
ATOM     55  C   UNL     1      -8.028 -12.102   2.023  1.00  0.00     0.198 A 
ATOM     56  C   UNL     1      -7.343 -12.466  -0.248  1.00  0.00     0.198 A 
ATOM     57  F   UNL     1      -5.383 -13.686  -0.701  1.00  0.00    -0.203 F 
ATOM     58  F   UNL     1      -8.904 -11.603   2.906  1.00  0.00    -0.200 F 
ATOM     59  C   UNL     1      -8.240 -11.930   0.663  1.00  0.00     0.200 A 
ATOM     60  F   UNL     1      -7.532 -12.284  -1.562  1.00  0.00    -0.200 F 
ATOM     61  F   UNL     1      -9.309 -11.246   0.231  1.00  0.00    -0.200 F 
ENDBRANCH  27  51
BRANCH  39  62
ATOM     62  C   UNL     1      -4.722 -19.363   4.907  1.00  0.00     0.064 A 
ATOM     63  C   UNL     1      -5.419 -20.271   4.099  1.00  0.00     0.173 A 
ATOM     64  C   UNL     1      -4.811 -19.519   6.299  1.00  0.00     0.173 A 
ATOM     65  F   UNL     1      -5.381 -20.155   2.763  1.00  0.00    -0.203 F 
ATOM     66  C   UNL     1      -6.180 -21.293   4.664  1.00  0.00     0.198 A 
ATOM     67  C   UNL     1      -5.546 -20.558   6.860  1.00  0.00     0.198 A 
ATOM     68  F   UNL     1      -4.159 -18.677   7.117  1.00  0.00    -0.203 F 
ATOM     69  F   UNL     1      -6.864 -22.132   3.874  1.00  0.00    -0.200 F 
ATOM     70  C   UNL     1      -6.232 -21.443   6.042  1.00  0.00     0.200 A 
ATOM     71  F   UNL     1      -5.582 -20.710   8.191  1.00  0.00    -0.200 F 
ATOM     72  F   UNL     1      -6.946 -22.440   6.583  1.00  0.00    -0.200 F 
ENDBRANCH  39  62
ENDBRANCH  13  14
ENDBRANCH   6   8
ENDBRANCH   3   4
ENDBRANCH   2   3
ENDBRANCH   1   2
BRANCH   1  73
ATOM     73  C   UNL     1       6.253  -5.905   1.478  1.00  0.00     0.002 C 
BRANCH  73  74
ATOM     74  C   UNL     1       6.256  -5.693   2.993  1.00  0.00     0.021 C 
BRANCH  74  75
ATOM     75  C   UNL     1       7.630  -5.824   3.642  1.00  0.00     0.116 C 
BRANCH  75  76
ATOM     76  N   UNL     1       8.547  -4.772   3.220  1.00  0.00    -0.356 N 
ATOM     77  C   UNL     1       9.222  -3.842   3.980  1.00  0.00     0.227 C 
ATOM     78  H   UNL     1       8.707  -4.718   2.250  1.00  0.00     0.163 HD
ATOM     79  O   UNL     1       9.932  -3.013   3.416  1.00  0.00    -0.274 OA
BRANCH  77  80
ATOM     80  C   UNL     1       9.049  -3.916   5.497  1.00  0.00     0.107 C 
ATOM     81  C   UNL     1       9.717  -2.906   6.369  1.00  0.00    -0.012 C 
ATOM     82  C   UNL     1       9.644  -5.230   5.999  1.00  0.00     0.087 C 
ATOM     83  C   UNL     1      10.553  -3.465   7.255  1.00  0.00     0.033 C 
ATOM     84  C   UNL     1      10.732  -4.938   7.037  1.00  0.00     0.208 C 
BRANCH  84  85
ATOM     85  N   UNL     1      10.790  -5.742   8.265  1.00  0.00    -0.328 N 
ATOM     86  C   UNL     1      11.281  -7.119   8.044  1.00  0.00     0.275 C 
ATOM     87  C   UNL     1       9.506  -6.248   8.763  1.00  0.00     0.275 C 
ATOM     88  H   UNL     1      11.313  -5.087   8.846  1.00  0.00     0.348 HD
ATOM     89  C   UNL     1       9.845  -7.690   8.245  1.00  0.00     0.073 C 
ATOM     90  C   UNL     1       9.603  -8.705   9.376  1.00  0.00     0.047 C 
ATOM     91  C   UNL     1       9.177  -8.194   6.952  1.00  0.00     0.047 C 
ATOM     92  C   UNL     1       9.936 -10.119   8.921  1.00  0.00     0.161 C 
ATOM     93  C   UNL     1       9.521  -9.647   6.668  1.00  0.00     0.161 C 
ATOM     94  O   UNL     1       9.163 -10.464   7.772  1.00  0.00    -0.381 OA
ENDBRANCH  84  85
ENDBRANCH  77  80
ENDBRANCH  75  76
ENDBRANCH  74  75
ENDBRANCH  73  74
ENDBRANCH   1  73
TORSDOF 14
