REMARK SMILES CC(=O)N[C@@H](CSCc1ccnc2ccccc12)C(=O)NCCCCCCNC(=O)c1ccc(-c2c3nc(c(-c4c(F)c(F)c(F)c(F)c4F)c4ccc([nH]4)c(-c4c(F)c(F)c(F)c(F)c4F)c4nc(c(-c5c(F)c(F)c(F)c(F)c5F)c5ccc2[nH]5)C=C4)C=C3)cc1
REMARK SMILES IDX 23 1 22 2 21 3 19 4 20 5 5 7 4 8 1 9 2 10 3 11 6 13 7 14
REMARK SMILES IDX 8 15 9 16 10 17 18 18 11 19 13 20 17 21 12 22 14 23 16 24
REMARK SMILES IDX 15 25 24 26 25 27 26 28 27 29 28 30 29 31 30 33 31 34 32 35
REMARK SMILES IDX 93 36 33 37 92 38 34 39 35 40 36 41 86 42 37 43 91 44 85 45
REMARK SMILES IDX 87 46 38 47 90 48 84 49 83 50 39 52 71 53 51 54 70 55 52 56
REMARK SMILES IDX 55 57 69 58 88 59 53 60 54 61 68 63 89 64 56 65 40 66 41 67
REMARK SMILES IDX 49 68 42 69 43 70 47 71 50 72 44 73 45 74 48 75 46 76 72 77
REMARK SMILES IDX 73 78 81 79 74 80 75 81 79 82 82 83 76 84 77 85 80 86 78 87
REMARK SMILES IDX 57 88 58 89 66 90 59 91 60 92 64 93 67 94 61 95 62 96 65 97
REMARK SMILES IDX 63 98
REMARK H PARENT 21 6 4 12 28 32 87 51 55 62
REMARK Flexibility Score: inf
ROOT
ATOM      1  C   UNL     1      -1.147   1.457   5.934  1.00  0.00     0.021 C 
ENDROOT
BRANCH   1   2
ATOM      2  C   UNL     1       0.200   0.803   5.690  1.00  0.00     0.116 C 
BRANCH   2   3
ATOM      3  N   UNL     1       0.102  -0.553   5.213  1.00  0.00    -0.354 N 
ATOM      4  C   UNL     1       0.778  -1.130   4.176  1.00  0.00     0.243 C 
ATOM      5  O   UNL     1       0.671  -2.347   4.009  1.00  0.00    -0.273 OA
ATOM      6  H   UNL     1      -0.530  -1.136   5.694  1.00  0.00     0.163 HD
BRANCH   4   7
ATOM      7  C   UNL     1       1.651  -0.275   3.237  1.00  0.00     0.181 C 
BRANCH   7   8
ATOM      8  N   UNL     1       0.790   0.657   2.513  1.00  0.00    -0.344 N 
ATOM      9  C   UNL     1       1.077  -0.261   0.235  1.00  0.00     0.114 C 
ATOM     10  C   UNL     1       0.431   0.684   1.203  1.00  0.00     0.217 C 
ATOM     11  O   UNL     1      -0.433   1.488   0.857  1.00  0.00    -0.275 OA
ATOM     12  H   UNL     1       0.410   1.380   3.062  1.00  0.00     0.164 HD
ENDBRANCH   7   8
BRANCH   7  13
ATOM     13  C   UNL     1       2.933   0.266   3.939  1.00  0.00     0.105 C 
BRANCH  13  14
ATOM     14  S   UNL     1       3.304   1.958   4.637  1.00  0.00    -0.154 SA
BRANCH  14  15
ATOM     15  C   UNL     1       2.243   3.153   3.766  1.00  0.00     0.105 C 
BRANCH  15  16
ATOM     16  C   UNL     1       2.871   4.061   2.734  1.00  0.00    -0.027 A 
ATOM     17  C   UNL     1       2.651   5.440   2.878  1.00  0.00     0.025 A 
ATOM     18  C   UNL     1       3.561   3.618   1.575  1.00  0.00     0.004 A 
ATOM     19  C   UNL     1       3.151   6.306   1.925  1.00  0.00     0.112 A 
ATOM     20  C   UNL     1       4.074   4.593   0.691  1.00  0.00     0.070 A 
ATOM     21  C   UNL     1       3.756   2.265   1.234  1.00  0.00     0.010 A 
ATOM     22  N   UNL     1       3.870   5.908   0.860  1.00  0.00    -0.256 NA
ATOM     23  C   UNL     1       4.811   4.179  -0.413  1.00  0.00     0.029 A 
ATOM     24  C   UNL     1       4.505   1.866   0.134  1.00  0.00     0.001 A 
ATOM     25  C   UNL     1       5.049   2.832  -0.689  1.00  0.00     0.002 A 
ENDBRANCH  15  16
ENDBRANCH  14  15
ENDBRANCH  13  14
ENDBRANCH   7  13
ENDBRANCH   4   7
ENDBRANCH   2   3
ENDBRANCH   1   2
BRANCH   1  26
ATOM     26  C   UNL     1      -1.750   1.107   7.290  1.00  0.00     0.002 C 
BRANCH  26  27
ATOM     27  C   UNL     1      -0.850   1.430   8.490  1.00  0.00     0.002 C 
BRANCH  27  28
ATOM     28  C   UNL     1      -0.343   2.875   8.558  1.00  0.00     0.021 C 
BRANCH  28  29
ATOM     29  C   UNL     1      -1.442   3.933   8.541  1.00  0.00     0.116 C 
BRANCH  29  30
ATOM     30  N   UNL     1      -2.432   3.700   9.579  1.00  0.00    -0.352 N 
ATOM     31  C   UNL     1      -2.856   4.520  10.591  1.00  0.00     0.251 C 
ATOM     32  H   UNL     1      -2.866   2.817   9.550  1.00  0.00     0.163 HD
ATOM     33  O   UNL     1      -3.533   4.068  11.506  1.00  0.00    -0.269 OA
BRANCH  31  34
ATOM     34  C   UNL     1      -2.488   5.949  10.581  1.00  0.00     0.039 A 
ATOM     35  C   UNL     1      -2.089   6.548  11.777  1.00  0.00     0.014 A 
ATOM     36  C   UNL     1      -2.566   6.700   9.405  1.00  0.00     0.014 A 
ATOM     37  C   UNL     1      -1.720   7.893  11.784  1.00  0.00     0.010 A 
ATOM     38  C   UNL     1      -2.128   8.020   9.398  1.00  0.00     0.010 A 
ATOM     39  C   UNL     1      -1.708   8.631  10.589  1.00  0.00    -0.014 A 
BRANCH  39  40
ATOM     40  C   UNL     1      -1.264  10.046  10.569  1.00  0.00     0.031 A 
ATOM     41  C   UNL     1      -2.232  11.136  10.207  1.00  0.00     0.074 A 
ATOM     42  C   UNL     1       0.026  10.338  10.822  1.00  0.00     0.049 A 
ATOM     43  N   UNL     1      -2.019  12.421  10.075  1.00  0.00    -0.248 NA
ATOM     44  C   UNL     1      -3.617  10.726   9.930  1.00  0.00     0.031 C 
ATOM     45  C   UNL     1       1.067   9.359  11.141  1.00  0.00     0.029 A 
ATOM     46  N   UNL     1       0.685  11.541  10.840  1.00  0.00    -0.354 N 
ATOM     47  C   UNL     1      -3.237  12.967   9.691  1.00  0.00     0.074 A 
ATOM     48  C   UNL     1      -4.169  11.870   9.554  1.00  0.00     0.031 C 
ATOM     49  C   UNL     1       2.227  10.002  11.347  1.00  0.00     0.029 A 
ATOM     50  C   UNL     1       2.022  11.431  11.134  1.00  0.00     0.049 A 
ATOM     51  H   UNL     1       0.241  12.401  10.660  1.00  0.00     0.167 HD
ATOM     52  C   UNL     1      -3.553  14.270   9.495  1.00  0.00     0.037 A 
ATOM     53  C   UNL     1       2.975  12.378  11.214  1.00  0.00     0.037 A 
ATOM     54  C   UNL     1      -2.624  15.358   9.653  1.00  0.00     0.049 A 
ATOM     55  C   UNL     1       2.600  13.816  10.974  1.00  0.00     0.074 A 
ATOM     56  C   UNL     1      -2.859  16.717   9.534  1.00  0.00     0.029 A 
ATOM     57  N   UNL     1      -1.279  15.210   9.959  1.00  0.00    -0.354 N 
ATOM     58  N   UNL     1       1.430  14.329  10.681  1.00  0.00    -0.248 NA
ATOM     59  C   UNL     1       3.680  14.807  11.081  1.00  0.00     0.031 C 
ATOM     60  C   UNL     1      -1.645  17.388   9.717  1.00  0.00     0.029 A 
ATOM     61  C   UNL     1      -0.665  16.452  10.007  1.00  0.00     0.049 A 
ATOM     62  H   UNL     1      -0.828  14.350  10.120  1.00  0.00     0.167 HD
ATOM     63  C   UNL     1       1.625  15.700  10.597  1.00  0.00     0.074 A 
ATOM     64  C   UNL     1       3.023  15.941  10.887  1.00  0.00     0.031 C 
ATOM     65  C   UNL     1       0.728  16.674  10.303  1.00  0.00     0.037 A 
BRANCH  52  66
ATOM     66  C   UNL     1      -4.963  14.590   9.088  1.00  0.00     0.064 A 
ATOM     67  C   UNL     1      -6.040  14.424   9.972  1.00  0.00     0.173 A 
ATOM     68  C   UNL     1      -5.237  15.103   7.811  1.00  0.00     0.173 A 
ATOM     69  F   UNL     1      -5.836  13.926  11.200  1.00  0.00    -0.203 F 
ATOM     70  C   UNL     1      -7.342  14.732   9.583  1.00  0.00     0.198 A 
ATOM     71  C   UNL     1      -6.535  15.441   7.437  1.00  0.00     0.198 A 
ATOM     72  F   UNL     1      -4.244  15.287   6.928  1.00  0.00    -0.203 F 
ATOM     73  F   UNL     1      -8.360  14.516  10.427  1.00  0.00    -0.200 F 
ATOM     74  C   UNL     1      -7.587  15.247   8.319  1.00  0.00     0.200 A 
ATOM     75  F   UNL     1      -6.769  15.952   6.220  1.00  0.00    -0.200 F 
ATOM     76  F   UNL     1      -8.839  15.550   7.949  1.00  0.00    -0.200 F 
ENDBRANCH  52  66
BRANCH  53  77
ATOM     77  C   UNL     1       4.372  12.000  11.555  1.00  0.00     0.064 A 
ATOM     78  C   UNL     1       4.943  12.379  12.778  1.00  0.00     0.173 A 
ATOM     79  C   UNL     1       5.167  11.262  10.665  1.00  0.00     0.173 A 
ATOM     80  F   UNL     1       4.229  13.102  13.653  1.00  0.00    -0.203 F 
ATOM     81  C   UNL     1       6.262  12.056  13.088  1.00  0.00     0.198 A 
ATOM     82  C   UNL     1       6.476  10.912  10.990  1.00  0.00     0.198 A 
ATOM     83  F   UNL     1       4.666  10.868   9.485  1.00  0.00    -0.203 F 
ATOM     84  F   UNL     1       6.797  12.474  14.243  1.00  0.00    -0.200 F 
ATOM     85  C   UNL     1       7.025  11.318  12.197  1.00  0.00     0.200 A 
ATOM     86  F   UNL     1       7.204  10.184  10.133  1.00  0.00    -0.200 F 
ATOM     87  F   UNL     1       8.293  11.004  12.497  1.00  0.00    -0.200 F 
ENDBRANCH  53  77
BRANCH  65  88
ATOM     88  C   UNL     1       1.223  18.091  10.313  1.00  0.00     0.064 A 
ATOM     89  C   UNL     1       2.085  18.578   9.319  1.00  0.00     0.173 A 
ATOM     90  C   UNL     1       0.800  18.984  11.309  1.00  0.00     0.173 A 
ATOM     91  F   UNL     1       2.531  17.761   8.353  1.00  0.00    -0.203 F 
ATOM     92  C   UNL     1       2.527  19.898   9.339  1.00  0.00     0.198 A 
ATOM     93  C   UNL     1       1.216  20.312  11.307  1.00  0.00     0.198 A 
ATOM     94  F   UNL     1      -0.030  18.571  12.279  1.00  0.00    -0.203 F 
ATOM     95  F   UNL     1       3.391  20.327   8.409  1.00  0.00    -0.200 F 
ATOM     96  C   UNL     1       2.086  20.765  10.327  1.00  0.00     0.200 A 
ATOM     97  F   UNL     1       0.777  21.152  12.254  1.00  0.00    -0.200 F 
ATOM     98  F   UNL     1       2.506  22.038  10.339  1.00  0.00    -0.200 F 
ENDBRANCH  65  88
ENDBRANCH  39  40
ENDBRANCH  31  34
ENDBRANCH  29  30
ENDBRANCH  28  29
ENDBRANCH  27  28
ENDBRANCH  26  27
ENDBRANCH   1  26
TORSDOF 18
