REMARK SMILES O=C(NCCCCCCNC(=O)c1cncc(OCCCc2ccccc2)n1)c1ccc(-c2c3nc(c(-c4c(F)c(F)c(F)c(F)c4F)c4ccc([nH]4)c(-c4c(F)c(F)c(F)c(F)c4F)c4nc(c(-c5c(F)c(F)c(F)c(F)c5F)c5ccc2[nH]5)C=C4)C=C3)cc1
REMARK SMILES IDX 8 1 7 2 6 3 5 4 4 5 3 6 1 7 2 8 29 10 30 11 91 12 31 13
REMARK SMILES IDX 90 14 32 15 33 16 34 17 84 18 35 19 89 20 83 21 85 22 36 23
REMARK SMILES IDX 88 24 82 25 81 26 37 28 69 29 49 30 68 31 50 32 53 33 67 34
REMARK SMILES IDX 86 35 51 36 52 37 66 39 87 40 54 41 38 42 39 43 47 44 40 45
REMARK SMILES IDX 41 46 45 47 48 48 42 49 43 50 46 51 44 52 70 53 71 54 79 55
REMARK SMILES IDX 72 56 73 57 77 58 80 59 74 60 75 61 78 62 76 63 55 64 56 65
REMARK SMILES IDX 64 66 57 67 58 68 62 69 65 70 59 71 60 72 63 73 61 74 9 75
REMARK SMILES IDX 10 76 11 77 12 79 13 80 14 81 28 82 15 83 17 84 16 85 18 86
REMARK SMILES IDX 19 87 20 88 21 89 22 90 23 91 27 92 24 93 26 94 25 95
REMARK H PARENT 3 9 85 27 53 38 10 78
REMARK Flexibility Score: inf
ROOT
ATOM      1  C   UNL     1       6.615  -2.969   3.118  1.00  0.00     0.021 C 
ENDROOT
BRANCH   1   2
ATOM      2  C   UNL     1       5.090  -2.955   3.269  1.00  0.00     0.002 C 
BRANCH   2   3
ATOM      3  C   UNL     1       4.439  -1.585   3.486  1.00  0.00     0.002 C 
BRANCH   3   4
ATOM      4  C   UNL     1       4.823  -0.495   2.484  1.00  0.00     0.021 C 
BRANCH   4   5
ATOM      5  C   UNL     1       4.561  -0.833   1.020  1.00  0.00     0.116 C 
BRANCH   5   6
ATOM      6  N   UNL     1       3.144  -0.923   0.719  1.00  0.00    -0.352 N 
ATOM      7  O   UNL     1       1.159  -0.282  -0.132  1.00  0.00    -0.269 OA
ATOM      8  C   UNL     1       2.382  -0.175  -0.143  1.00  0.00     0.251 C 
ATOM      9  H   UNL     1       2.656  -1.626   1.206  1.00  0.00     0.163 HD
BRANCH   8  10
ATOM     10  C   UNL     1       3.021   0.780  -1.077  1.00  0.00     0.039 A 
ATOM     11  C   UNL     1       4.142   0.423  -1.832  1.00  0.00     0.014 A 
ATOM     12  C   UNL     1       2.449   2.046  -1.232  1.00  0.00     0.014 A 
ATOM     13  C   UNL     1       4.754   1.363  -2.660  1.00  0.00     0.010 A 
ATOM     14  C   UNL     1       3.026   2.968  -2.108  1.00  0.00     0.010 A 
ATOM     15  C   UNL     1       4.196   2.641  -2.812  1.00  0.00    -0.014 A 
BRANCH  15  16
ATOM     16  C   UNL     1       4.803   3.624  -3.744  1.00  0.00     0.031 A 
ATOM     17  C   UNL     1       5.418   4.891  -3.225  1.00  0.00     0.074 A 
ATOM     18  C   UNL     1       4.752   3.392  -5.068  1.00  0.00     0.049 A 
ATOM     19  N   UNL     1       5.902   5.910  -3.890  1.00  0.00    -0.248 NA
ATOM     20  C   UNL     1       5.491   5.037  -1.764  1.00  0.00     0.031 C 
ATOM     21  C   UNL     1       4.172   2.203  -5.691  1.00  0.00     0.029 A 
ATOM     22  N   UNL     1       5.175   4.154  -6.129  1.00  0.00    -0.354 N 
ATOM     23  C   UNL     1       6.313   6.827  -2.933  1.00  0.00     0.074 A 
ATOM     24  C   UNL     1       6.004   6.253  -1.640  1.00  0.00     0.031 C 
ATOM     25  C   UNL     1       4.271   2.313  -7.024  1.00  0.00     0.029 A 
ATOM     26  C   UNL     1       4.873   3.603  -7.349  1.00  0.00     0.049 A 
ATOM     27  H   UNL     1       5.649   5.010  -6.024  1.00  0.00     0.167 HD
ATOM     28  C   UNL     1       6.896   8.036  -3.120  1.00  0.00     0.037 A 
ATOM     29  C   UNL     1       5.028   4.096  -8.592  1.00  0.00     0.037 A 
ATOM     30  C   UNL     1       7.210   8.595  -4.410  1.00  0.00     0.049 A 
ATOM     31  C   UNL     1       5.650   5.449  -8.777  1.00  0.00     0.074 A 
ATOM     32  C   UNL     1       7.848   9.788  -4.702  1.00  0.00     0.029 A 
ATOM     33  N   UNL     1       6.896   8.002  -5.625  1.00  0.00    -0.354 N 
ATOM     34  N   UNL     1       6.075   6.291  -7.866  1.00  0.00    -0.248 NA
ATOM     35  C   UNL     1       5.815   5.923 -10.157  1.00  0.00     0.031 C 
ATOM     36  C   UNL     1       7.878   9.940  -6.093  1.00  0.00     0.029 A 
ATOM     37  C   UNL     1       7.303   8.818  -6.669  1.00  0.00     0.049 A 
ATOM     38  H   UNL     1       6.450   7.131  -5.730  1.00  0.00     0.167 HD
ATOM     39  C   UNL     1       6.578   7.382  -8.560  1.00  0.00     0.074 A 
ATOM     40  C   UNL     1       6.408   7.095  -9.970  1.00  0.00     0.031 C 
ATOM     41  C   UNL     1       7.134   8.516  -8.069  1.00  0.00     0.037 A 
BRANCH  28  42
ATOM     42  C   UNL     1       7.207   8.851  -1.898  1.00  0.00     0.064 A 
ATOM     43  C   UNL     1       8.231   8.492  -1.010  1.00  0.00     0.173 A 
ATOM     44  C   UNL     1       6.482  10.021  -1.624  1.00  0.00     0.173 A 
ATOM     45  F   UNL     1       8.947   7.377  -1.220  1.00  0.00    -0.203 F 
ATOM     46  C   UNL     1       8.495   9.254   0.126  1.00  0.00     0.198 A 
ATOM     47  C   UNL     1       6.767  10.796  -0.503  1.00  0.00     0.198 A 
ATOM     48  F   UNL     1       5.497  10.415  -2.445  1.00  0.00    -0.203 F 
ATOM     49  F   UNL     1       9.443   8.862   0.989  1.00  0.00    -0.200 F 
ATOM     50  C   UNL     1       7.766  10.408   0.376  1.00  0.00     0.200 A 
ATOM     51  F   UNL     1       6.069  11.917  -0.269  1.00  0.00    -0.200 F 
ATOM     52  F   UNL     1       8.021  11.139   1.470  1.00  0.00    -0.200 F 
ENDBRANCH  28  42
BRANCH  29  53
ATOM     53  C   UNL     1       4.569   3.288  -9.749  1.00  0.00     0.064 A 
ATOM     54  C   UNL     1       5.487   2.653 -10.595  1.00  0.00     0.173 A 
ATOM     55  C   UNL     1       3.202   3.084  -9.993  1.00  0.00     0.173 A 
ATOM     56  F   UNL     1       6.803   2.832 -10.409  1.00  0.00    -0.203 F 
ATOM     57  C   UNL     1       5.055   1.842 -11.642  1.00  0.00     0.198 A 
ATOM     58  C   UNL     1       2.772   2.254 -11.025  1.00  0.00     0.198 A 
ATOM     59  F   UNL     1       2.286   3.666  -9.205  1.00  0.00    -0.203 F 
ATOM     60  F   UNL     1       5.952   1.260 -12.449  1.00  0.00    -0.200 F 
ATOM     61  C   UNL     1       3.699   1.635 -11.850  1.00  0.00     0.200 A 
ATOM     62  F   UNL     1       1.462   2.043 -11.210  1.00  0.00    -0.200 F 
ATOM     63  F   UNL     1       3.285   0.838 -12.844  1.00  0.00    -0.200 F 
ENDBRANCH  29  53
BRANCH  41  64
ATOM     64  C   UNL     1       7.638   9.524  -9.059  1.00  0.00     0.064 A 
ATOM     65  C   UNL     1       6.763  10.353  -9.774  1.00  0.00     0.173 A 
ATOM     66  C   UNL     1       9.017   9.707  -9.240  1.00  0.00     0.173 A 
ATOM     67  F   UNL     1       5.436  10.204  -9.646  1.00  0.00    -0.203 F 
ATOM     68  C   UNL     1       7.252  11.326 -10.642  1.00  0.00     0.198 A 
ATOM     69  C   UNL     1       9.502  10.697 -10.090  1.00  0.00     0.198 A 
ATOM     70  F   UNL     1       9.894   8.940  -8.575  1.00  0.00    -0.203 F 
ATOM     71  F   UNL     1       6.398  12.091 -11.337  1.00  0.00    -0.200 F 
ATOM     72  C   UNL     1       8.619  11.504 -10.792  1.00  0.00     0.200 A 
ATOM     73  F   UNL     1      10.824  10.874 -10.225  1.00  0.00    -0.200 F 
ATOM     74  F   UNL     1       9.087  12.451 -11.616  1.00  0.00    -0.200 F 
ENDBRANCH  41  64
ENDBRANCH  15  16
ENDBRANCH   8  10
ENDBRANCH   5   6
ENDBRANCH   4   5
ENDBRANCH   3   4
ENDBRANCH   2   3
ENDBRANCH   1   2
BRANCH   1  75
ATOM     75  C   UNL     1       7.409  -2.246   4.204  1.00  0.00     0.116 C 
BRANCH  75  76
ATOM     76  N   UNL     1       7.125  -2.730   5.540  1.00  0.00    -0.351 N 
ATOM     77  C   UNL     1       8.008  -3.111   6.522  1.00  0.00     0.271 C 
ATOM     78  H   UNL     1       6.171  -2.796   5.775  1.00  0.00     0.163 HD
ATOM     79  O   UNL     1       7.589  -3.447   7.627  1.00  0.00    -0.267 OA
BRANCH  77  80
ATOM     80  C   UNL     1       9.457  -3.141   6.240  1.00  0.00     0.150 A 
ATOM     81  C   UNL     1      10.180  -1.962   6.152  1.00  0.00     0.145 A 
ATOM     82  N   UNL     1      10.023  -4.367   6.111  1.00  0.00    -0.205 NA
ATOM     83  N   UNL     1      11.515  -1.958   5.919  1.00  0.00    -0.257 NA
ATOM     84  C   UNL     1      11.354  -4.369   5.918  1.00  0.00     0.233 A 
ATOM     85  C   UNL     1      12.085  -3.190   5.826  1.00  0.00     0.179 A 
BRANCH  84  86
ATOM     86  O   UNL     1      12.037  -5.561   5.887  1.00  0.00    -0.477 OA
BRANCH  86  87
ATOM     87  C   UNL     1      11.238  -6.704   5.548  1.00  0.00     0.232 C 
BRANCH  87  88
ATOM     88  C   UNL     1      10.720  -7.454   6.782  1.00  0.00     0.046 C 
BRANCH  88  89
ATOM     89  C   UNL     1       9.230  -7.257   7.103  1.00  0.00     0.039 C 
BRANCH  89  90
ATOM     90  C   UNL     1       8.285  -7.664   5.996  1.00  0.00    -0.048 A 
ATOM     91  C   UNL     1       7.609  -6.691   5.248  1.00  0.00     0.004 A 
ATOM     92  C   UNL     1       8.057  -9.013   5.701  1.00  0.00     0.004 A 
ATOM     93  C   UNL     1       6.731  -7.051   4.226  1.00  0.00     0.000 A 
ATOM     94  C   UNL     1       7.173  -9.375   4.681  1.00  0.00     0.000 A 
ATOM     95  C   UNL     1       6.512  -8.395   3.943  1.00  0.00     0.000 A 
ENDBRANCH  89  90
ENDBRANCH  88  89
ENDBRANCH  87  88
ENDBRANCH  86  87
ENDBRANCH  84  86
ENDBRANCH  77  80
ENDBRANCH  75  76
ENDBRANCH   1  75
TORSDOF 18
