REMARK SMILES O=C(CSc1nc(-c2cccc(Br)c2)c[nH]1)NCCCCCCNC(=O)c1ccc(-c2c3nc(c(-c4c(F)c(F)c(F)c(F)c4F)c4ccc([nH]4)c(-c4c(F)c(F)c(F)c(F)c4F)c4nc(c(-c5c(F)c(F)c(F)c(F)c5F)c5ccc2[nH]5)C=C4)C=C3)cc1
REMARK SMILES IDX 20 1 19 2 18 3 17 4 1 5 2 6 3 8 4 9 5 10 6 11 16 12 7 13
REMARK SMILES IDX 15 14 8 16 9 17 14 18 10 19 12 20 11 21 13 22 21 23 22 24
REMARK SMILES IDX 23 25 24 26 25 27 26 29 27 30 28 31 89 32 29 33 88 34 30 35
REMARK SMILES IDX 31 36 32 37 82 38 33 39 87 40 81 41 83 42 34 43 86 44 80 45
REMARK SMILES IDX 79 46 35 48 67 49 47 50 66 51 48 52 51 53 65 54 84 55 49 56
REMARK SMILES IDX 50 57 64 59 85 60 52 61 36 62 37 63 45 64 38 65 39 66 43 67
REMARK SMILES IDX 46 68 40 69 41 70 44 71 42 72 68 73 69 74 77 75 70 76 71 77
REMARK SMILES IDX 75 78 78 79 72 80 73 81 76 82 74 83 53 84 54 85 62 86 55 87
REMARK SMILES IDX 56 88 60 89 63 90 57 91 58 92 61 93 59 94
REMARK H PARENT 17 7 16 15 24 28 83 47 51 58
REMARK Flexibility Score: inf
ROOT
ATOM      1  C   UNL     1       4.101  -0.637  -3.556  1.00  0.00     0.002 C 
ENDROOT
BRANCH   1   2
ATOM      2  C   UNL     1       2.597  -0.431  -3.332  1.00  0.00     0.021 C 
BRANCH   2   3
ATOM      3  C   UNL     1       2.034  -1.115  -2.087  1.00  0.00     0.116 C 
BRANCH   3   4
ATOM      4  N   UNL     1       2.638  -0.608  -0.875  1.00  0.00    -0.355 N 
ATOM      5  O   UNL     1       0.713   0.245   0.034  1.00  0.00    -0.274 OA
ATOM      6  C   UNL     1       1.916   0.011   0.128  1.00  0.00     0.230 C 
ATOM      7  H   UNL     1       3.611  -0.708  -0.758  1.00  0.00     0.163 HD
BRANCH   6   8
ATOM      8  C   UNL     1       2.748   0.503   1.304  1.00  0.00     0.178 C 
BRANCH   8   9
ATOM      9  S   UNL     1       3.983  -0.726   1.827  1.00  0.00    -0.078 SA
BRANCH   9  10
ATOM     10  C   UNL     1       2.967  -1.923   2.534  1.00  0.00     0.166 A 
ATOM     11  N   UNL     1       1.819  -1.756   3.141  1.00  0.00    -0.223 NA
ATOM     12  N   UNL     1       3.363  -3.228   2.530  1.00  0.00    -0.339 N 
ATOM     13  C   UNL     1       1.480  -3.009   3.599  1.00  0.00     0.089 A 
ATOM     14  C   UNL     1       2.416  -3.944   3.207  1.00  0.00     0.113 A 
ATOM     15  H   UNL     1       4.181  -3.588   2.117  1.00  0.00     0.168 HD
BRANCH  13  16
ATOM     16  C   UNL     1       0.305  -3.304   4.391  1.00  0.00     0.003 A 
ATOM     17  C   UNL     1      -0.955  -2.852   3.981  1.00  0.00     0.010 A 
ATOM     18  C   UNL     1       0.417  -4.056   5.568  1.00  0.00     0.026 A 
ATOM     19  C   UNL     1      -2.095  -3.175   4.723  1.00  0.00     0.002 A 
ATOM     20  C   UNL     1      -0.723  -4.363   6.310  1.00  0.00     0.018 A 
ATOM     21  C   UNL     1      -1.980  -3.934   5.889  1.00  0.00     0.016 A 
ATOM     22  Br  UNL     1      -0.558  -5.373   7.901  1.00  0.00    -0.051 Br
ENDBRANCH  13  16
ENDBRANCH   9  10
ENDBRANCH   8   9
ENDBRANCH   6   8
ENDBRANCH   3   4
ENDBRANCH   2   3
ENDBRANCH   1   2
BRANCH   1  23
ATOM     23  C   UNL     1       4.561  -2.094  -3.671  1.00  0.00     0.002 C 
BRANCH  23  24
ATOM     24  C   UNL     1       3.871  -2.915  -4.762  1.00  0.00     0.021 C 
BRANCH  24  25
ATOM     25  C   UNL     1       4.021  -2.361  -6.176  1.00  0.00     0.116 C 
BRANCH  25  26
ATOM     26  N   UNL     1       5.399  -2.389  -6.644  1.00  0.00    -0.352 N 
ATOM     27  C   UNL     1       5.915  -2.926  -7.798  1.00  0.00     0.251 C 
ATOM     28  H   UNL     1       6.056  -1.961  -6.048  1.00  0.00     0.163 HD
ATOM     29  O   UNL     1       7.131  -3.006  -7.956  1.00  0.00    -0.269 OA
BRANCH  27  30
ATOM     30  C   UNL     1       5.004  -3.438  -8.843  1.00  0.00     0.039 A 
ATOM     31  C   UNL     1       5.262  -4.685  -9.420  1.00  0.00     0.014 A 
ATOM     32  C   UNL     1       3.891  -2.696  -9.248  1.00  0.00     0.014 A 
ATOM     33  C   UNL     1       4.364  -5.220 -10.347  1.00  0.00     0.010 A 
ATOM     34  C   UNL     1       2.961  -3.262 -10.115  1.00  0.00     0.010 A 
ATOM     35  C   UNL     1       3.185  -4.531 -10.672  1.00  0.00    -0.014 A 
BRANCH  35  36
ATOM     36  C   UNL     1       2.168  -5.115 -11.587  1.00  0.00     0.031 A 
ATOM     37  C   UNL     1       1.842  -4.428 -12.885  1.00  0.00     0.074 A 
ATOM     38  C   UNL     1       1.480  -6.212 -11.212  1.00  0.00     0.049 A 
ATOM     39  N   UNL     1       0.912  -4.711 -13.762  1.00  0.00    -0.248 NA
ATOM     40  C   UNL     1       2.652  -3.249 -13.234  1.00  0.00     0.031 C 
ATOM     41  C   UNL     1       1.676  -6.950  -9.963  1.00  0.00     0.029 A 
ATOM     42  N   UNL     1       0.461  -6.889 -11.838  1.00  0.00    -0.354 N 
ATOM     43  C   UNL     1       1.007  -3.735 -14.745  1.00  0.00     0.074 A 
ATOM     44  C   UNL     1       2.060  -2.829 -14.342  1.00  0.00     0.031 C 
ATOM     45  C   UNL     1       0.818  -7.982  -9.920  1.00  0.00     0.029 A 
ATOM     46  C   UNL     1      -0.022  -7.953 -11.113  1.00  0.00     0.049 A 
ATOM     47  H   UNL     1       0.110  -6.636 -12.722  1.00  0.00     0.167 HD
ATOM     48  C   UNL     1       0.290  -3.615 -15.887  1.00  0.00     0.037 A 
ATOM     49  C   UNL     1      -1.041  -8.796 -11.373  1.00  0.00     0.037 A 
ATOM     50  C   UNL     1      -0.728  -4.543 -16.305  1.00  0.00     0.049 A 
ATOM     51  C   UNL     1      -1.829  -8.625 -12.647  1.00  0.00     0.074 A 
ATOM     52  C   UNL     1      -1.448  -4.554 -17.487  1.00  0.00     0.029 A 
ATOM     53  N   UNL     1      -1.173  -5.620 -15.554  1.00  0.00    -0.354 N 
ATOM     54  N   UNL     1      -1.671  -7.749 -13.608  1.00  0.00    -0.248 NA
ATOM     55  C   UNL     1      -2.937  -9.565 -12.873  1.00  0.00     0.031 C 
ATOM     56  C   UNL     1      -2.374  -5.598 -17.425  1.00  0.00     0.029 A 
ATOM     57  C   UNL     1      -2.184  -6.280 -16.234  1.00  0.00     0.049 A 
ATOM     58  H   UNL     1      -0.824  -5.877 -14.670  1.00  0.00     0.167 HD
ATOM     59  C   UNL     1      -2.626  -8.059 -14.568  1.00  0.00     0.074 A 
ATOM     60  C   UNL     1      -3.353  -9.210 -14.079  1.00  0.00     0.031 C 
ATOM     61  C   UNL     1      -2.878  -7.444 -15.749  1.00  0.00     0.037 A 
BRANCH  48  62
ATOM     62  C   UNL     1       0.569  -2.441 -16.780  1.00  0.00     0.064 A 
ATOM     63  C   UNL     1       1.751  -2.345 -17.528  1.00  0.00     0.173 A 
ATOM     64  C   UNL     1      -0.402  -1.442 -16.955  1.00  0.00     0.173 A 
ATOM     65  F   UNL     1       2.715  -3.269 -17.391  1.00  0.00    -0.203 F 
ATOM     66  C   UNL     1       1.957  -1.286 -18.408  1.00  0.00     0.198 A 
ATOM     67  C   UNL     1      -0.205  -0.402 -17.858  1.00  0.00     0.198 A 
ATOM     68  F   UNL     1      -1.553  -1.491 -16.268  1.00  0.00    -0.203 F 
ATOM     69  F   UNL     1       3.108  -1.197 -19.089  1.00  0.00    -0.200 F 
ATOM     70  C   UNL     1       0.975  -0.322 -18.581  1.00  0.00     0.200 A 
ATOM     71  F   UNL     1      -1.163   0.519 -18.036  1.00  0.00    -0.200 F 
ATOM     72  F   UNL     1       1.165   0.684 -19.445  1.00  0.00    -0.200 F 
ENDBRANCH  48  62
BRANCH  49  73
ATOM     73  C   UNL     1      -1.389  -9.883 -10.416  1.00  0.00     0.064 A 
ATOM     74  C   UNL     1      -1.246 -11.231 -10.775  1.00  0.00     0.173 A 
ATOM     75  C   UNL     1      -1.925  -9.601  -9.151  1.00  0.00     0.173 A 
ATOM     76  F   UNL     1      -0.758 -11.554 -11.982  1.00  0.00    -0.203 F 
ATOM     77  C   UNL     1      -1.665 -12.253  -9.925  1.00  0.00     0.198 A 
ATOM     78  C   UNL     1      -2.310 -10.625  -8.287  1.00  0.00     0.198 A 
ATOM     79  F   UNL     1      -2.080  -8.330  -8.753  1.00  0.00    -0.203 F 
ATOM     80  F   UNL     1      -1.584 -13.529 -10.326  1.00  0.00    -0.200 F 
ATOM     81  C   UNL     1      -2.194 -11.950  -8.681  1.00  0.00     0.200 A 
ATOM     82  F   UNL     1      -2.806 -10.328  -7.078  1.00  0.00    -0.200 F 
ATOM     83  F   UNL     1      -2.606 -12.931  -7.867  1.00  0.00    -0.200 F 
ENDBRANCH  49  73
BRANCH  61  84
ATOM     84  C   UNL     1      -3.939  -8.038 -16.631  1.00  0.00     0.064 A 
ATOM     85  C   UNL     1      -5.301  -7.959 -16.308  1.00  0.00     0.173 A 
ATOM     86  C   UNL     1      -3.587  -8.646 -17.846  1.00  0.00     0.173 A 
ATOM     87  F   UNL     1      -5.690  -7.401 -15.151  1.00  0.00    -0.203 F 
ATOM     88  C   UNL     1      -6.270  -8.488 -17.157  1.00  0.00     0.198 A 
ATOM     89  C   UNL     1      -4.559  -9.142 -18.709  1.00  0.00     0.198 A 
ATOM     90  F   UNL     1      -2.298  -8.740 -18.207  1.00  0.00    -0.203 F 
ATOM     91  F   UNL     1      -7.562  -8.444 -16.806  1.00  0.00    -0.200 F 
ATOM     92  C   UNL     1      -5.899  -9.069 -18.361  1.00  0.00     0.200 A 
ATOM     93  F   UNL     1      -4.199  -9.686 -19.880  1.00  0.00    -0.200 F 
ATOM     94  F   UNL     1      -6.834  -9.564 -19.184  1.00  0.00    -0.200 F 
ENDBRANCH  61  84
ENDBRANCH  35  36
ENDBRANCH  27  30
ENDBRANCH  25  26
ENDBRANCH  24  25
ENDBRANCH  23  24
ENDBRANCH   1  23
TORSDOF 16
