REMARK SMILES O=C(NCCCCCCNC(=O)[C@H]1C[N@H+](Cc2cccc(Cl)c2)CC12CCCCC2)c1ccc(-c2c3nc(c(-c4c(F)c(F)c(F)c(F)c4F)c4ccc([nH]4)c(-c4c(F)c(F)c(F)c(F)c4F)c4nc(c(-c5c(F)c(F)c(F)c(F)c5F)c5ccc2[nH]5)C=C4)C=C3)cc1
REMARK SMILES IDX 6 1 5 2 4 3 3 4 1 5 2 6 31 8 32 9 93 10 33 11 92 12 34 13
REMARK SMILES IDX 35 14 36 15 86 16 37 17 91 18 85 19 87 20 38 21 90 22 84 23
REMARK SMILES IDX 83 24 39 26 71 27 51 28 70 29 52 30 55 31 69 32 88 33 53 34
REMARK SMILES IDX 54 35 68 37 89 38 56 39 40 40 41 41 49 42 42 43 43 44 47 45
REMARK SMILES IDX 50 46 44 47 45 48 48 49 46 50 72 51 73 52 81 53 74 54 75 55
REMARK SMILES IDX 79 56 82 57 76 58 77 59 80 60 78 61 57 62 58 63 66 64 59 65
REMARK SMILES IDX 60 66 64 67 67 68 61 69 62 70 65 71 63 72 7 73 8 74 9 75
REMARK SMILES IDX 10 76 11 77 12 79 13 80 14 81 25 82 15 83 24 84 26 85 30 86
REMARK SMILES IDX 27 88 29 89 28 90 16 91 17 92 18 93 23 94 19 95 21 96 20 97
REMARK SMILES IDX 22 98
REMARK H PARENT 3 7 87 25 55 36 10 78 15 87
REMARK Flexibility Score: inf
ROOT
ATOM      1  C   UNL     1       3.911   3.518   1.399  1.00  0.00     0.002 C 
ENDROOT
BRANCH   1   2
ATOM      2  C   UNL     1       4.481   2.557   0.357  1.00  0.00     0.021 C 
BRANCH   2   3
ATOM      3  C   UNL     1       4.257   1.084   0.659  1.00  0.00     0.116 C 
BRANCH   3   4
ATOM      4  N   UNL     1       2.848   0.742   0.710  1.00  0.00    -0.352 N 
ATOM      5  O   UNL     1       0.961  -0.287   0.011  1.00  0.00    -0.269 OA
ATOM      6  C   UNL     1       2.188  -0.231   0.007  1.00  0.00     0.251 C 
ATOM      7  H   UNL     1       2.297   1.277   1.326  1.00  0.00     0.163 HD
BRANCH   6   8
ATOM      8  C   UNL     1       2.974  -1.214  -0.763  1.00  0.00     0.039 A 
ATOM      9  C   UNL     1       4.081  -1.837  -0.178  1.00  0.00     0.014 A 
ATOM     10  C   UNL     1       2.593  -1.522  -2.070  1.00  0.00     0.014 A 
ATOM     11  C   UNL     1       4.864  -2.700  -0.932  1.00  0.00     0.010 A 
ATOM     12  C   UNL     1       3.327  -2.461  -2.796  1.00  0.00     0.010 A 
ATOM     13  C   UNL     1       4.463  -3.059  -2.228  1.00  0.00    -0.014 A 
BRANCH  13  14
ATOM     14  C   UNL     1       5.150  -4.184  -2.904  1.00  0.00     0.031 A 
ATOM     15  C   UNL     1       5.925  -3.985  -4.171  1.00  0.00     0.074 A 
ATOM     16  C   UNL     1       5.037  -5.406  -2.347  1.00  0.00     0.049 A 
ATOM     17  N   UNL     1       6.545  -4.879  -4.899  1.00  0.00    -0.248 NA
ATOM     18  C   UNL     1       6.016  -2.614  -4.696  1.00  0.00     0.031 C 
ATOM     19  C   UNL     1       4.282  -5.706  -1.125  1.00  0.00     0.029 A 
ATOM     20  N   UNL     1       5.546  -6.621  -2.725  1.00  0.00    -0.354 N 
ATOM     21  C   UNL     1       7.080  -4.187  -5.977  1.00  0.00     0.074 A 
ATOM     22  C   UNL     1       6.704  -2.798  -5.816  1.00  0.00     0.031 C 
ATOM     23  C   UNL     1       4.400  -7.009  -0.841  1.00  0.00     0.029 A 
ATOM     24  C   UNL     1       5.168  -7.651  -1.898  1.00  0.00     0.049 A 
ATOM     25  H   UNL     1       6.125  -6.744  -3.511  1.00  0.00     0.167 HD
ATOM     26  C   UNL     1       7.816  -4.680  -7.001  1.00  0.00     0.037 A 
ATOM     27  C   UNL     1       5.378  -8.975  -2.003  1.00  0.00     0.037 A 
ATOM     28  C   UNL     1       8.194  -6.065  -7.133  1.00  0.00     0.049 A 
ATOM     29  C   UNL     1       6.166  -9.486  -3.174  1.00  0.00     0.074 A 
ATOM     30  C   UNL     1       9.003  -6.648  -8.092  1.00  0.00     0.029 A 
ATOM     31  N   UNL     1       7.776  -7.085  -6.290  1.00  0.00    -0.354 N 
ATOM     32  N   UNL     1       6.733  -8.812  -4.145  1.00  0.00    -0.248 NA
ATOM     33  C   UNL     1       6.338 -10.941  -3.270  1.00  0.00     0.031 C 
ATOM     34  C   UNL     1       9.019  -8.028  -7.871  1.00  0.00     0.029 A 
ATOM     35  C   UNL     1       8.271  -8.300  -6.737  1.00  0.00     0.049 A 
ATOM     36  H   UNL     1       7.211  -6.963  -5.492  1.00  0.00     0.167 HD
ATOM     37  C   UNL     1       7.336  -9.757  -4.960  1.00  0.00     0.074 A 
ATOM     38  C   UNL     1       7.097 -11.049  -4.350  1.00  0.00     0.031 C 
ATOM     39  C   UNL     1       8.016  -9.575  -6.118  1.00  0.00     0.037 A 
BRANCH  26  40
ATOM     40  C   UNL     1       8.256  -3.738  -8.084  1.00  0.00     0.064 A 
ATOM     41  C   UNL     1       9.278  -2.801  -7.880  1.00  0.00     0.173 A 
ATOM     42  C   UNL     1       7.722  -3.857  -9.378  1.00  0.00     0.173 A 
ATOM     43  F   UNL     1       9.816  -2.643  -6.661  1.00  0.00    -0.203 F 
ATOM     44  C   UNL     1       9.748  -2.015  -8.930  1.00  0.00     0.198 A 
ATOM     45  C   UNL     1       8.212  -3.088 -10.430  1.00  0.00     0.198 A 
ATOM     46  F   UNL     1       6.747  -4.744  -9.628  1.00  0.00    -0.203 F 
ATOM     47  F   UNL     1      10.715  -1.113  -8.709  1.00  0.00    -0.200 F 
ATOM     48  C   UNL     1       9.224  -2.168 -10.205  1.00  0.00     0.200 A 
ATOM     49  F   UNL     1       7.715  -3.249 -11.664  1.00  0.00    -0.200 F 
ATOM     50  F   UNL     1       9.697  -1.429 -11.219  1.00  0.00    -0.200 F 
ENDBRANCH  26  40
BRANCH  27  51
ATOM     51  C   UNL     1       4.791  -9.907  -1.004  1.00  0.00     0.064 A 
ATOM     52  C   UNL     1       5.605 -10.678  -0.165  1.00  0.00     0.173 A 
ATOM     53  C   UNL     1       3.400 -10.064  -0.888  1.00  0.00     0.173 A 
ATOM     54  F   UNL     1       6.939 -10.576  -0.248  1.00  0.00    -0.203 F 
ATOM     55  C   UNL     1       5.053 -11.596   0.727  1.00  0.00     0.198 A 
ATOM     56  C   UNL     1       2.849 -10.952   0.032  1.00  0.00     0.198 A 
ATOM     57  F   UNL     1       2.575  -9.344  -1.662  1.00  0.00    -0.203 F 
ATOM     58  F   UNL     1       5.856 -12.367   1.471  1.00  0.00    -0.200 F 
ATOM     59  C   UNL     1       3.676 -11.728   0.828  1.00  0.00     0.200 A 
ATOM     60  F   UNL     1       1.518 -11.060   0.140  1.00  0.00    -0.200 F 
ATOM     61  F   UNL     1       3.147 -12.613   1.684  1.00  0.00    -0.200 F 
ENDBRANCH  27  51
BRANCH  39  62
ATOM     62  C   UNL     1       8.556 -10.803  -6.789  1.00  0.00     0.064 A 
ATOM     63  C   UNL     1       7.707 -11.727  -7.415  1.00  0.00     0.173 A 
ATOM     64  C   UNL     1       9.937 -11.044  -6.832  1.00  0.00     0.173 A 
ATOM     65  F   UNL     1       6.377 -11.552  -7.382  1.00  0.00    -0.203 F 
ATOM     66  C   UNL     1       8.219 -12.862  -8.037  1.00  0.00     0.198 A 
ATOM     67  C   UNL     1      10.448 -12.161  -7.485  1.00  0.00     0.198 A 
ATOM     68  F   UNL     1      10.792 -10.188  -6.252  1.00  0.00    -0.203 F 
ATOM     69  F   UNL     1       7.385 -13.759  -8.580  1.00  0.00    -0.200 F 
ATOM     70  C   UNL     1       9.589 -13.073  -8.079  1.00  0.00     0.200 A 
ATOM     71  F   UNL     1      11.773 -12.356  -7.538  1.00  0.00    -0.200 F 
ATOM     72  F   UNL     1      10.081 -14.161  -8.686  1.00  0.00    -0.200 F 
ENDBRANCH  39  62
ENDBRANCH  13  14
ENDBRANCH   6   8
ENDBRANCH   3   4
ENDBRANCH   2   3
ENDBRANCH   1   2
BRANCH   1  73
ATOM     73  C   UNL     1       4.314   3.238   2.849  1.00  0.00     0.002 C 
BRANCH  73  74
ATOM     74  C   UNL     1       5.808   3.035   3.092  1.00  0.00     0.021 C 
BRANCH  74  75
ATOM     75  C   UNL     1       6.713   4.134   2.557  1.00  0.00     0.116 C 
BRANCH  75  76
ATOM     76  N   UNL     1       6.553   5.385   3.267  1.00  0.00    -0.356 N 
ATOM     77  C   UNL     1       7.415   6.346   3.675  1.00  0.00     0.229 C 
ATOM     78  H   UNL     1       5.617   5.578   3.504  1.00  0.00     0.163 HD
ATOM     79  O   UNL     1       6.905   7.259   4.337  1.00  0.00    -0.275 OA
BRANCH  77  80
ATOM     80  C   UNL     1       8.928   6.341   3.439  1.00  0.00     0.145 C 
ATOM     81  C   UNL     1       9.540   5.205   2.637  1.00  0.00     0.276 C 
ATOM     82  C   UNL     1       9.539   7.635   2.796  1.00  0.00     0.037 C 
ATOM     83  N   UNL     1      10.831   5.653   2.156  1.00  0.00    -0.330 N 
ATOM     84  C   UNL     1      10.657   7.072   1.859  1.00  0.00     0.270 C 
ATOM     85  C   UNL     1       8.507   8.482   2.007  1.00  0.00     0.014 C 
ATOM     86  C   UNL     1      10.134   8.565   3.880  1.00  0.00     0.014 C 
ATOM     87  H   UNL     1      11.104   5.168   1.301  1.00  0.00     0.348 HD
ATOM     88  C   UNL     1       9.090   9.776   1.431  1.00  0.00     0.001 C 
ATOM     89  C   UNL     1      10.795   9.814   3.298  1.00  0.00     0.001 C 
ATOM     90  C   UNL     1       9.795  10.624   2.488  1.00  0.00     0.000 C 
BRANCH  83  91
ATOM     91  C   UNL     1      12.014   5.212   2.900  1.00  0.00     0.299 C 
BRANCH  91  92
ATOM     92  C   UNL     1      12.264   5.806   4.268  1.00  0.00     0.008 A 
ATOM     93  C   UNL     1      11.530   5.395   5.393  1.00  0.00     0.009 A 
ATOM     94  C   UNL     1      13.211   6.832   4.423  1.00  0.00     0.030 A 
ATOM     95  C   UNL     1      11.638   6.081   6.606  1.00  0.00     0.002 A 
ATOM     96  C   UNL     1      13.334   7.497   5.644  1.00  0.00     0.041 A 
ATOM     97  C   UNL     1      12.530   7.146   6.727  1.00  0.00     0.020 A 
ATOM     98  Cl  UNL     1      14.431   8.814   5.787  1.00  0.00    -0.084 Cl
ENDBRANCH  91  92
ENDBRANCH  83  91
ENDBRANCH  77  80
ENDBRANCH  75  76
ENDBRANCH  74  75
ENDBRANCH  73  74
ENDBRANCH   1  73
TORSDOF 15
