REMARK SMILES C[C@H](NC(=O)N1CC[C@@H](C(=O)NCCCCCCNC(=O)c2ccc(-c3c4nc(c(-c5c(F)c(F)c(F)c(F)c5F)c5ccc([nH]5)c(-c5c(F)c(F)c(F)c(F)c5F)c5nc(c(-c6c(F)c(F)c(F)c(F)c6F)c6ccc3[nH]6)C=C5)C=C4)cc2)[C@H]1C)c1ccc(Cl)cc1
REMARK SMILES IDX 15 1 14 2 13 3 12 4 10 5 11 6 9 8 6 9 7 10 85 11 8 12 86 13
REMARK SMILES IDX 4 14 3 15 5 17 2 18 1 19 87 20 88 21 93 22 89 23 92 24 90 25
REMARK SMILES IDX 91 26 16 27 17 28 18 29 19 30 20 31 21 33 22 34 23 35 84 36
REMARK SMILES IDX 24 37 83 38 25 39 26 40 27 41 77 42 28 43 82 44 76 45 78 46
REMARK SMILES IDX 29 47 81 48 75 49 74 50 30 52 62 53 42 54 61 55 43 56 46 57
REMARK SMILES IDX 60 58 79 59 44 60 45 61 59 63 80 64 47 65 31 66 32 67 40 68
REMARK SMILES IDX 33 69 34 70 38 71 41 72 35 73 36 74 39 75 37 76 63 77 64 78
REMARK SMILES IDX 72 79 65 80 66 81 70 82 73 83 67 84 68 85 71 86 69 87 48 88
REMARK SMILES IDX 49 89 57 90 50 91 51 92 55 93 58 94 52 95 53 96 56 97 54 98
REMARK H PARENT 12 7 3 16 19 32 78 51 46 62
REMARK Flexibility Score: inf
ROOT
ATOM      1  C   UNL     1      -1.565  -6.691  -0.292  1.00  0.00     0.002 C 
ENDROOT
BRANCH   1   2
ATOM      2  C   UNL     1      -0.866  -5.334  -0.393  1.00  0.00     0.021 C 
BRANCH   2   3
ATOM      3  C   UNL     1       0.323  -5.261  -1.351  1.00  0.00     0.116 C 
BRANCH   3   4
ATOM      4  N   UNL     1      -0.105  -5.241  -2.734  1.00  0.00    -0.356 N 
ATOM      5  C   UNL     1       0.118  -4.355  -3.738  1.00  0.00     0.225 C 
ATOM      6  O   UNL     1      -0.442  -4.589  -4.814  1.00  0.00    -0.275 OA
ATOM      7  H   UNL     1      -0.660  -6.011  -2.994  1.00  0.00     0.163 HD
BRANCH   5   8
ATOM      8  C   UNL     1       0.998  -3.119  -3.606  1.00  0.00     0.102 C 
ATOM      9  N   UNL     1       1.578  -1.638  -1.808  1.00  0.00    -0.321 N 
ATOM     10  C   UNL     1       2.814  -2.124  -2.397  1.00  0.00     0.122 C 
ATOM     11  C   UNL     1       0.490  -1.937  -2.753  1.00  0.00     0.096 C 
ATOM     12  C   UNL     1       2.433  -3.386  -3.146  1.00  0.00     0.037 C 
ATOM     13  C   UNL     1      -0.888  -2.082  -2.141  1.00  0.00     0.032 C 
BRANCH   9  14
ATOM     14  C   UNL     1       1.636  -0.396  -1.216  1.00  0.00     0.318 C 
ATOM     15  N   UNL     1       0.951  -0.199  -0.064  1.00  0.00    -0.331 N 
ATOM     16  H   UNL     1       0.796   0.744   0.173  1.00  0.00     0.165 HD
ATOM     17  O   UNL     1       2.316   0.526  -1.663  1.00  0.00    -0.249 OA
BRANCH  15  18
ATOM     18  C   UNL     1       0.410  -1.169   0.876  1.00  0.00     0.111 C 
ATOM     19  C   UNL     1       1.091  -1.000   2.236  1.00  0.00     0.036 C 
BRANCH  18  20
ATOM     20  C   UNL     1      -1.102  -1.066   1.026  1.00  0.00    -0.026 A 
ATOM     21  C   UNL     1      -1.810   0.121   0.775  1.00  0.00     0.007 A 
ATOM     22  C   UNL     1      -1.833  -2.211   1.390  1.00  0.00     0.007 A 
ATOM     23  C   UNL     1      -3.208   0.139   0.808  1.00  0.00     0.021 A 
ATOM     24  C   UNL     1      -3.229  -2.197   1.412  1.00  0.00     0.021 A 
ATOM     25  C   UNL     1      -3.911  -1.024   1.107  1.00  0.00     0.041 A 
ATOM     26  Cl  UNL     1      -5.631  -1.017   1.088  1.00  0.00    -0.084 Cl
ENDBRANCH  18  20
ENDBRANCH  15  18
ENDBRANCH   9  14
ENDBRANCH   5   8
ENDBRANCH   3   4
ENDBRANCH   2   3
ENDBRANCH   1   2
BRANCH   1  27
ATOM     27  C   UNL     1      -0.726  -7.826   0.298  1.00  0.00     0.002 C 
BRANCH  27  28
ATOM     28  C   UNL     1      -0.034  -7.521   1.629  1.00  0.00     0.021 C 
BRANCH  28  29
ATOM     29  C   UNL     1      -0.947  -7.008   2.742  1.00  0.00     0.116 C 
BRANCH  29  30
ATOM     30  N   UNL     1      -1.952  -7.982   3.129  1.00  0.00    -0.352 N 
ATOM     31  C   UNL     1      -2.157  -8.599   4.338  1.00  0.00     0.251 C 
ATOM     32  H   UNL     1      -2.582  -8.238   2.417  1.00  0.00     0.163 HD
ATOM     33  O   UNL     1      -2.941  -9.538   4.425  1.00  0.00    -0.269 OA
BRANCH  31  34
ATOM     34  C   UNL     1      -1.421  -8.148   5.540  1.00  0.00     0.039 A 
ATOM     35  C   UNL     1      -0.856  -9.109   6.383  1.00  0.00     0.014 A 
ATOM     36  C   UNL     1      -1.315  -6.791   5.856  1.00  0.00     0.014 A 
ATOM     37  C   UNL     1      -0.135  -8.707   7.511  1.00  0.00     0.010 A 
ATOM     38  C   UNL     1      -0.540  -6.389   6.942  1.00  0.00     0.010 A 
ATOM     39  C   UNL     1       0.055  -7.343   7.783  1.00  0.00    -0.014 A 
BRANCH  39  40
ATOM     40  C   UNL     1       0.861  -6.896   8.948  1.00  0.00     0.031 A 
ATOM     41  C   UNL     1       0.209  -6.140  10.073  1.00  0.00     0.074 A 
ATOM     42  C   UNL     1       2.189  -7.124   8.970  1.00  0.00     0.049 A 
ATOM     43  N   UNL     1       0.753  -5.599  11.134  1.00  0.00    -0.248 NA
ATOM     44  C   UNL     1      -1.247  -5.947   9.982  1.00  0.00     0.031 C 
ATOM     45  C   UNL     1       2.946  -7.817   7.926  1.00  0.00     0.029 A 
ATOM     46  N   UNL     1       3.141  -6.787   9.901  1.00  0.00    -0.354 N 
ATOM     47  C   UNL     1      -0.288  -4.998  11.829  1.00  0.00     0.074 A 
ATOM     48  C   UNL     1      -1.488  -5.191  11.044  1.00  0.00     0.031 C 
ATOM     49  C   UNL     1       4.239  -7.872   8.284  1.00  0.00     0.029 A 
ATOM     50  C   UNL     1       4.411  -7.186   9.560  1.00  0.00     0.049 A 
ATOM     51  H   UNL     1       2.933  -6.306  10.734  1.00  0.00     0.167 HD
ATOM     52  C   UNL     1      -0.252  -4.364  13.026  1.00  0.00     0.037 A 
ATOM     53  C   UNL     1       5.582  -7.008  10.201  1.00  0.00     0.037 A 
ATOM     54  C   UNL     1       0.938  -4.191  13.817  1.00  0.00     0.049 A 
ATOM     55  C   UNL     1       5.595  -6.278  11.518  1.00  0.00     0.074 A 
ATOM     56  C   UNL     1       1.070  -3.594  15.059  1.00  0.00     0.029 A 
ATOM     57  N   UNL     1       2.203  -4.621  13.444  1.00  0.00    -0.354 N 
ATOM     58  N   UNL     1       4.596  -5.759  12.188  1.00  0.00    -0.248 NA
ATOM     59  C   UNL     1       6.902  -6.114  12.171  1.00  0.00     0.031 C 
ATOM     60  C   UNL     1       2.421  -3.626  15.419  1.00  0.00     0.029 A 
ATOM     61  C   UNL     1       3.123  -4.288  14.425  1.00  0.00     0.049 A 
ATOM     62  H   UNL     1       2.415  -5.092  12.606  1.00  0.00     0.167 HD
ATOM     63  C   UNL     1       5.145  -5.242  13.354  1.00  0.00     0.074 A 
ATOM     64  C   UNL     1       6.565  -5.520  13.306  1.00  0.00     0.031 C 
ATOM     65  C   UNL     1       4.529  -4.592  14.372  1.00  0.00     0.037 A 
BRANCH  52  66
ATOM     66  C   UNL     1      -1.544  -3.820  13.565  1.00  0.00     0.064 A 
ATOM     67  C   UNL     1      -2.558  -4.669  14.033  1.00  0.00     0.173 A 
ATOM     68  C   UNL     1      -1.750  -2.436  13.663  1.00  0.00     0.173 A 
ATOM     69  F   UNL     1      -2.414  -6.001  13.950  1.00  0.00    -0.203 F 
ATOM     70  C   UNL     1      -3.740  -4.154  14.558  1.00  0.00     0.198 A 
ATOM     71  C   UNL     1      -2.921  -1.924  14.217  1.00  0.00     0.198 A 
ATOM     72  F   UNL     1      -0.811  -1.579  13.236  1.00  0.00    -0.203 F 
ATOM     73  F   UNL     1      -4.711  -4.986  14.959  1.00  0.00    -0.200 F 
ATOM     74  C   UNL     1      -3.917  -2.782  14.658  1.00  0.00     0.200 A 
ATOM     75  F   UNL     1      -3.086  -0.598  14.325  1.00  0.00    -0.200 F 
ATOM     76  F   UNL     1      -5.050  -2.288  15.175  1.00  0.00    -0.200 F 
ENDBRANCH  52  66
BRANCH  53  77
ATOM     77  C   UNL     1       6.843  -7.543   9.623  1.00  0.00     0.064 A 
ATOM     78  C   UNL     1       7.530  -8.595  10.247  1.00  0.00     0.173 A 
ATOM     79  C   UNL     1       7.404  -6.998   8.459  1.00  0.00     0.173 A 
ATOM     80  F   UNL     1       7.045  -9.135  11.374  1.00  0.00    -0.203 F 
ATOM     81  C   UNL     1       8.745  -9.059   9.746  1.00  0.00     0.198 A 
ATOM     82  C   UNL     1       8.603  -7.485   7.942  1.00  0.00     0.198 A 
ATOM     83  F   UNL     1       6.785  -5.995   7.820  1.00  0.00    -0.203 F 
ATOM     84  F   UNL     1       9.409 -10.025  10.396  1.00  0.00    -0.200 F 
ATOM     85  C   UNL     1       9.278  -8.507   8.592  1.00  0.00     0.200 A 
ATOM     86  F   UNL     1       9.108  -6.957   6.818  1.00  0.00    -0.200 F 
ATOM     87  F   UNL     1      10.448  -8.951   8.113  1.00  0.00    -0.200 F 
ENDBRANCH  53  77
BRANCH  65  88
ATOM     88  C   UNL     1       5.377  -4.183  15.540  1.00  0.00     0.064 A 
ATOM     89  C   UNL     1       6.303  -3.134  15.449  1.00  0.00     0.173 A 
ATOM     90  C   UNL     1       5.233  -4.827  16.779  1.00  0.00     0.173 A 
ATOM     91  F   UNL     1       6.489  -2.497  14.283  1.00  0.00    -0.203 F 
ATOM     92  C   UNL     1       7.072  -2.761  16.548  1.00  0.00     0.198 A 
ATOM     93  C   UNL     1       5.981  -4.431  17.884  1.00  0.00     0.198 A 
ATOM     94  F   UNL     1       4.356  -5.832  16.921  1.00  0.00    -0.203 F 
ATOM     95  F   UNL     1       7.986  -1.788  16.425  1.00  0.00    -0.200 F 
ATOM     96  C   UNL     1       6.906  -3.405  17.766  1.00  0.00     0.200 A 
ATOM     97  F   UNL     1       5.809  -5.045  19.063  1.00  0.00    -0.200 F 
ATOM     98  F   UNL     1       7.642  -3.040  18.824  1.00  0.00    -0.200 F 
ENDBRANCH  65  88
ENDBRANCH  39  40
ENDBRANCH  31  34
ENDBRANCH  29  30
ENDBRANCH  28  29
ENDBRANCH  27  28
ENDBRANCH   1  27
TORSDOF 16
