REMARK SMILES COc1cccc(-n2cc(C(=O)NCCCCCCNC(=O)c3ccc(-c4c5nc(c(-c6c(F)c(F)c(F)c(F)c6F)c6ccc([nH]6)c(-c6c(F)c(F)c(F)c(F)c6F)c6nc(c(-c7c(F)c(F)c(F)c(F)c7F)c7ccc4[nH]7)C=C6)C=C5)cc3)c3c2[C@H](c2cc(OC)c(OC)c(OC)c2)CC(=O)N3)c1
REMARK SMILES IDX 16 1 15 2 14 3 13 4 11 5 12 6 10 8 8 9 9 10 87 11 86 12
REMARK SMILES IDX 88 13 104 14 101 15 102 16 103 18 7 19 3 20 4 21 105 22 5 23
REMARK SMILES IDX 6 24 2 25 1 26 89 27 90 28 100 29 91 30 97 31 94 32 92 33
REMARK SMILES IDX 93 34 98 35 99 36 95 37 96 38 17 39 18 40 19 41 20 42 21 43
REMARK SMILES IDX 22 45 23 46 24 47 85 48 25 49 84 50 26 51 27 52 28 53 78 54
REMARK SMILES IDX 29 55 83 56 77 57 79 58 30 59 82 60 76 61 75 62 31 64 63 65
REMARK SMILES IDX 43 66 62 67 44 68 47 69 61 70 80 71 45 72 46 73 60 75 81 76
REMARK SMILES IDX 48 77 32 78 33 79 41 80 34 81 35 82 39 83 42 84 36 85 37 86
REMARK SMILES IDX 40 87 38 88 64 89 65 90 73 91 66 92 67 93 71 94 74 95 68 96
REMARK SMILES IDX 69 97 72 98 70 99 49 100 50 101 58 102 51 103 52 104 56 105
REMARK SMILES IDX 59 106 53 107 54 108 57 109 55 110
REMARK H PARENT 13 7 104 17 20 44 79 63 47 74
REMARK Flexibility Score: inf
ROOT
ATOM      1  C   UNL     1      11.009   2.378  -4.543  1.00  0.00     0.002 C 
ENDROOT
BRANCH   1   2
ATOM      2  C   UNL     1       9.487   2.507  -4.631  1.00  0.00     0.021 C 
BRANCH   2   3
ATOM      3  C   UNL     1       8.844   1.455  -5.542  1.00  0.00     0.116 C 
BRANCH   3   4
ATOM      4  N   UNL     1       8.464   0.312  -4.761  1.00  0.00    -0.352 N 
ATOM      5  C   UNL     1       7.290  -0.059  -4.178  1.00  0.00     0.254 C 
ATOM      6  O   UNL     1       7.339  -1.118  -3.544  1.00  0.00    -0.269 OA
ATOM      7  H   UNL     1       9.197  -0.330  -4.618  1.00  0.00     0.163 HD
BRANCH   5   8
ATOM      8  C   UNL     1       6.022   0.669  -4.317  1.00  0.00     0.081 A 
ATOM      9  N   UNL     1       3.752   0.771  -4.205  1.00  0.00    -0.317 N 
ATOM     10  C   UNL     1       4.853  -0.013  -3.996  1.00  0.00     0.107 A 
ATOM     11  C   UNL     1       4.176   1.999  -4.665  1.00  0.00     0.055 A 
ATOM     12  C   UNL     1       5.563   1.988  -4.636  1.00  0.00     0.076 A 
ATOM     13  C   UNL     1       3.330   3.216  -4.991  1.00  0.00     0.078 C 
ATOM     14  N   UNL     1       6.221   3.171  -4.885  1.00  0.00    -0.324 N 
ATOM     15  C   UNL     1       4.139   4.460  -4.583  1.00  0.00     0.115 C 
ATOM     16  C   UNL     1       5.593   4.381  -5.011  1.00  0.00     0.225 C 
ATOM     17  H   UNL     1       7.201   3.146  -4.977  1.00  0.00     0.170 HD
ATOM     18  O   UNL     1       6.227   5.374  -5.369  1.00  0.00    -0.275 OA
BRANCH   9  19
ATOM     19  C   UNL     1       2.451   0.340  -3.905  1.00  0.00     0.049 A 
ATOM     20  C   UNL     1       0.758  -0.201  -2.281  1.00  0.00     0.120 A 
ATOM     21  C   UNL     1      -0.114  -0.507  -3.333  1.00  0.00     0.046 A 
ATOM     22  C   UNL     1       2.054   0.228  -2.567  1.00  0.00     0.073 A 
ATOM     23  C   UNL     1       0.314  -0.449  -4.660  1.00  0.00     0.006 A 
ATOM     24  C   UNL     1       1.620  -0.070  -4.944  1.00  0.00     0.027 A 
BRANCH  20  25
ATOM     25  O   UNL     1       0.226  -0.393  -1.037  1.00  0.00    -0.497 OA
ATOM     26  C   UNL     1       0.935   0.155   0.065  1.00  0.00     0.278 C 
ENDBRANCH  20  25
ENDBRANCH   9  19
BRANCH  13  27
ATOM     27  C   UNL     1       2.843   3.259  -6.446  1.00  0.00    -0.031 A 
ATOM     28  C   UNL     1       1.710   2.524  -6.794  1.00  0.00     0.055 A 
ATOM     29  C   UNL     1       3.456   3.983  -7.479  1.00  0.00     0.055 A 
ATOM     30  C   UNL     1       1.325   2.325  -8.123  1.00  0.00     0.164 A 
ATOM     31  C   UNL     1       2.987   3.933  -8.812  1.00  0.00     0.164 A 
ATOM     32  C   UNL     1       1.935   3.059  -9.151  1.00  0.00     0.203 A 
BRANCH  30  33
ATOM     33  O   UNL     1       0.308   1.412  -8.267  1.00  0.00    -0.493 OA
ATOM     34  C   UNL     1       0.436   0.528  -9.381  1.00  0.00     0.278 C 
ENDBRANCH  30  33
BRANCH  31  35
ATOM     35  O   UNL     1       3.564   4.670  -9.816  1.00  0.00    -0.493 OA
ATOM     36  C   UNL     1       4.360   5.791  -9.446  1.00  0.00     0.278 C 
ENDBRANCH  31  35
BRANCH  32  37
ATOM     37  O   UNL     1       1.433   2.830 -10.404  1.00  0.00    -0.490 OA
ATOM     38  C   UNL     1       1.573   3.826 -11.402  1.00  0.00     0.278 C 
ENDBRANCH  32  37
ENDBRANCH  13  27
ENDBRANCH   5   8
ENDBRANCH   3   4
ENDBRANCH   2   3
ENDBRANCH   1   2
BRANCH   1  39
ATOM     39  C   UNL     1      11.736   2.539  -5.888  1.00  0.00     0.002 C 
BRANCH  39  40
ATOM     40  C   UNL     1      11.415   3.821  -6.673  1.00  0.00     0.021 C 
BRANCH  40  41
ATOM     41  C   UNL     1      12.020   5.059  -6.034  1.00  0.00     0.116 C 
BRANCH  41  42
ATOM     42  N   UNL     1      13.484   5.014  -6.075  1.00  0.00    -0.352 N 
ATOM     43  C   UNL     1      14.394   5.931  -5.608  1.00  0.00     0.251 C 
ATOM     44  H   UNL     1      13.871   4.214  -6.499  1.00  0.00     0.163 HD
ATOM     45  O   UNL     1      15.560   5.927  -6.007  1.00  0.00    -0.269 OA
BRANCH  43  46
ATOM     46  C   UNL     1      13.961   6.912  -4.607  1.00  0.00     0.039 A 
ATOM     47  C   UNL     1      14.423   8.232  -4.622  1.00  0.00     0.014 A 
ATOM     48  C   UNL     1      13.058   6.481  -3.640  1.00  0.00     0.014 A 
ATOM     49  C   UNL     1      13.921   9.124  -3.681  1.00  0.00     0.010 A 
ATOM     50  C   UNL     1      12.423   7.395  -2.851  1.00  0.00     0.010 A 
ATOM     51  C   UNL     1      12.914   8.692  -2.805  1.00  0.00    -0.014 A 
BRANCH  51  52
ATOM     52  C   UNL     1      12.255   9.600  -1.881  1.00  0.00     0.031 A 
ATOM     53  C   UNL     1      11.543  10.713  -2.558  1.00  0.00     0.074 A 
ATOM     54  C   UNL     1      12.099   9.286  -0.576  1.00  0.00     0.049 A 
ATOM     55  N   UNL     1      11.825  11.971  -2.514  1.00  0.00    -0.248 NA
ATOM     56  C   UNL     1      10.493  10.375  -3.537  1.00  0.00     0.031 C 
ATOM     57  C   UNL     1      12.489   8.046   0.112  1.00  0.00     0.029 A 
ATOM     58  N   UNL     1      11.454   9.971   0.406  1.00  0.00    -0.354 N 
ATOM     59  C   UNL     1      10.851  12.605  -3.280  1.00  0.00     0.074 A 
ATOM     60  C   UNL     1      10.210  11.574  -4.049  1.00  0.00     0.031 C 
ATOM     61  C   UNL     1      11.878   7.976   1.316  1.00  0.00     0.029 A 
ATOM     62  C   UNL     1      11.195   9.232   1.559  1.00  0.00     0.049 A 
ATOM     63  H   UNL     1      11.190  10.915   0.310  1.00  0.00     0.167 HD
ATOM     64  C   UNL     1      10.467  13.879  -2.986  1.00  0.00     0.037 A 
ATOM     65  C   UNL     1      10.451   9.630   2.622  1.00  0.00     0.037 A 
ATOM     66  C   UNL     1      11.432  14.507  -2.116  1.00  0.00     0.049 A 
ATOM     67  C   UNL     1      10.349  11.106   2.545  1.00  0.00     0.074 A 
ATOM     68  C   UNL     1      12.765  14.852  -2.214  1.00  0.00     0.029 A 
ATOM     69  N   UNL     1      11.138  14.503  -0.776  1.00  0.00    -0.354 N 
ATOM     70  N   UNL     1      11.362  11.910   2.709  1.00  0.00    -0.248 NA
ATOM     71  C   UNL     1       9.214  11.667   1.831  1.00  0.00     0.031 C 
ATOM     72  C   UNL     1      13.310  14.610  -0.916  1.00  0.00     0.029 A 
ATOM     73  C   UNL     1      12.274  14.206  -0.073  1.00  0.00     0.049 A 
ATOM     74  H   UNL     1      10.254  14.686  -0.384  1.00  0.00     0.167 HD
ATOM     75  C   UNL     1      11.182  12.899   1.754  1.00  0.00     0.074 A 
ATOM     76  C   UNL     1       9.794  12.756   1.319  1.00  0.00     0.031 C 
ATOM     77  C   UNL     1      12.262  13.529   1.204  1.00  0.00     0.037 A 
BRANCH  64  78
ATOM     78  C   UNL     1       9.045  14.395  -3.091  1.00  0.00     0.064 A 
ATOM     79  C   UNL     1       8.796  15.749  -2.780  1.00  0.00     0.173 A 
ATOM     80  C   UNL     1       7.896  13.576  -3.163  1.00  0.00     0.173 A 
ATOM     81  F   UNL     1       9.809  16.623  -2.677  1.00  0.00    -0.203 F 
ATOM     82  C   UNL     1       7.517  16.216  -2.463  1.00  0.00     0.198 A 
ATOM     83  C   UNL     1       6.615  14.058  -2.898  1.00  0.00     0.198 A 
ATOM     84  F   UNL     1       7.961  12.259  -3.379  1.00  0.00    -0.203 F 
ATOM     85  F   UNL     1       7.356  17.475  -2.036  1.00  0.00    -0.200 F 
ATOM     86  C   UNL     1       6.429  15.367  -2.512  1.00  0.00     0.200 A 
ATOM     87  F   UNL     1       5.574  13.213  -2.935  1.00  0.00    -0.200 F 
ATOM     88  F   UNL     1       5.214  15.791  -2.143  1.00  0.00    -0.200 F 
ENDBRANCH  64  78
BRANCH  65  89
ATOM     89  C   UNL     1       9.578   8.833   3.516  1.00  0.00     0.064 A 
ATOM     90  C   UNL     1       9.138   9.349   4.748  1.00  0.00     0.173 A 
ATOM     91  C   UNL     1       8.912   7.685   3.047  1.00  0.00     0.173 A 
ATOM     92  F   UNL     1       9.690  10.466   5.245  1.00  0.00    -0.203 F 
ATOM     93  C   UNL     1       8.073   8.773   5.449  1.00  0.00     0.198 A 
ATOM     94  C   UNL     1       7.849   7.110   3.748  1.00  0.00     0.198 A 
ATOM     95  F   UNL     1       9.210   7.162   1.849  1.00  0.00    -0.203 F 
ATOM     96  F   UNL     1       7.637   9.336   6.585  1.00  0.00    -0.200 F 
ATOM     97  C   UNL     1       7.420   7.663   4.941  1.00  0.00     0.200 A 
ATOM     98  F   UNL     1       7.199   6.060   3.226  1.00  0.00    -0.200 F 
ATOM     99  F   UNL     1       6.354   7.153   5.574  1.00  0.00    -0.200 F 
ENDBRANCH  65  89
BRANCH  77 100
ATOM    100  C   UNL     1      13.590  13.341   1.886  1.00  0.00     0.064 A 
ATOM    101  C   UNL     1      14.271  12.114   1.983  1.00  0.00     0.173 A 
ATOM    102  C   UNL     1      14.250  14.480   2.360  1.00  0.00     0.173 A 
ATOM    103  F   UNL     1      13.751  10.992   1.473  1.00  0.00    -0.203 F 
ATOM    104  C   UNL     1      15.535  12.031   2.569  1.00  0.00     0.198 A 
ATOM    105  C   UNL     1      15.526  14.402   2.909  1.00  0.00     0.198 A 
ATOM    106  F   UNL     1      13.671  15.686   2.248  1.00  0.00    -0.203 F 
ATOM    107  F   UNL     1      16.157  10.846   2.664  1.00  0.00    -0.200 F 
ATOM    108  C   UNL     1      16.163  13.177   3.025  1.00  0.00     0.200 A 
ATOM    109  F   UNL     1      16.149  15.520   3.305  1.00  0.00    -0.200 F 
ATOM    110  F   UNL     1      17.393  13.106   3.554  1.00  0.00    -0.200 F 
ENDBRANCH  77 100
ENDBRANCH  51  52
ENDBRANCH  43  46
ENDBRANCH  41  42
ENDBRANCH  40  41
ENDBRANCH  39  40
ENDBRANCH   1  39
TORSDOF 19
