REMARK SMILES CCc1ccc(C(=O)NCc2ccc(C(=O)NCCCCCCNC(=O)c3ccc(-c4c5nc(c(-c6c(F)c(F)c(F)c(F)c6F)c6ccc([nH]6)c(-c6c(F)c(F)c(F)c(F)c6F)c6nc(c(-c7c(F)c(F)c(F)c(F)c7F)c7ccc4[nH]7)C=C6)C=C5)cc3)cc2)cc1
REMARK SMILES IDX 19 1 18 2 17 3 15 4 16 5 14 7 11 8 12 9 91 10 13 11 90 12
REMARK SMILES IDX 10 13 9 14 7 15 8 16 6 18 3 19 4 20 93 21 5 22 92 23 2 24
REMARK SMILES IDX 1 25 20 26 21 27 22 28 23 29 24 30 25 31 26 33 27 34 28 35
REMARK SMILES IDX 89 36 29 37 88 38 30 39 31 40 32 41 82 42 33 43 87 44 81 45
REMARK SMILES IDX 83 46 34 47 86 48 80 49 79 50 35 52 67 53 47 54 66 55 48 56
REMARK SMILES IDX 51 57 65 58 84 59 49 60 50 61 64 63 85 64 52 65 36 66 37 67
REMARK SMILES IDX 45 68 38 69 39 70 43 71 46 72 40 73 41 74 44 75 42 76 68 77
REMARK SMILES IDX 69 78 77 79 70 80 71 81 75 82 78 83 72 84 73 85 76 86 74 87
REMARK SMILES IDX 53 88 54 89 62 90 55 91 56 92 60 93 63 94 57 95 58 96 61 97
REMARK SMILES IDX 59 98
REMARK H PARENT 17 6 9 17 24 32 83 51 51 62
REMARK Flexibility Score: inf
ROOT
ATOM      1  C   UNL     1      -1.990   1.284  11.929  1.00  0.00     0.021 C 
ENDROOT
BRANCH   1   2
ATOM      2  C   UNL     1      -2.341   1.854  10.552  1.00  0.00     0.116 C 
BRANCH   2   3
ATOM      3  N   UNL     1      -1.742   3.163  10.374  1.00  0.00    -0.352 N 
ATOM      4  C   UNL     1      -0.643   3.594   9.676  1.00  0.00     0.251 C 
ATOM      5  O   UNL     1      -0.411   4.803   9.671  1.00  0.00    -0.269 OA
ATOM      6  H   UNL     1      -2.218   3.884  10.848  1.00  0.00     0.163 HD
BRANCH   4   7
ATOM      7  C   UNL     1       0.252   2.687   8.902  1.00  0.00     0.039 A 
ATOM      8  C   UNL     1       2.016   1.107   7.333  1.00  0.00    -0.029 A 
ATOM      9  C   UNL     1       1.831   2.465   7.050  1.00  0.00     0.006 A 
ATOM     10  C   UNL     1       1.337   0.567   8.437  1.00  0.00     0.006 A 
ATOM     11  C   UNL     1       0.954   3.241   7.820  1.00  0.00     0.014 A 
ATOM     12  C   UNL     1       0.486   1.352   9.223  1.00  0.00     0.014 A 
BRANCH   8  13
ATOM     13  C   UNL     1       3.001   0.288   6.524  1.00  0.00     0.152 C 
BRANCH  13  14
ATOM     14  N   UNL     1       2.754  -1.135   6.647  1.00  0.00    -0.348 N 
ATOM     15  C   UNL     1       2.097  -2.052   5.875  1.00  0.00     0.251 C 
ATOM     16  O   UNL     1       1.986  -3.191   6.332  1.00  0.00    -0.269 OA
ATOM     17  H   UNL     1       3.143  -1.526   7.462  1.00  0.00     0.164 HD
BRANCH  15  18
ATOM     18  C   UNL     1       1.587  -1.773   4.506  1.00  0.00     0.039 A 
ATOM     19  C   UNL     1       0.776  -1.439   1.815  1.00  0.00    -0.048 A 
ATOM     20  C   UNL     1       1.166  -2.696   2.291  1.00  0.00     0.004 A 
ATOM     21  C   UNL     1       0.719  -0.373   2.724  1.00  0.00     0.004 A 
ATOM     22  C   UNL     1       1.572  -2.858   3.617  1.00  0.00     0.014 A 
ATOM     23  C   UNL     1       1.107  -0.541   4.062  1.00  0.00     0.014 A 
BRANCH  19  24
ATOM     24  C   UNL     1       0.373  -1.291   0.367  1.00  0.00     0.032 C 
ATOM     25  C   UNL     1       0.902  -0.033  -0.311  1.00  0.00     0.009 C 
ENDBRANCH  19  24
ENDBRANCH  15  18
ENDBRANCH  13  14
ENDBRANCH   8  13
ENDBRANCH   4   7
ENDBRANCH   2   3
ENDBRANCH   1   2
BRANCH   1  26
ATOM     26  C   UNL     1      -2.830   1.871  13.072  1.00  0.00     0.002 C 
BRANCH  26  27
ATOM     27  C   UNL     1      -4.332   1.568  12.996  1.00  0.00     0.002 C 
BRANCH  27  28
ATOM     28  C   UNL     1      -4.691   0.082  12.910  1.00  0.00     0.021 C 
BRANCH  28  29
ATOM     29  C   UNL     1      -4.249  -0.746  14.113  1.00  0.00     0.116 C 
BRANCH  29  30
ATOM     30  N   UNL     1      -4.951  -0.354  15.325  1.00  0.00    -0.352 N 
ATOM     31  C   UNL     1      -5.705  -1.118  16.180  1.00  0.00     0.251 C 
ATOM     32  H   UNL     1      -4.874   0.597  15.567  1.00  0.00     0.163 HD
ATOM     33  O   UNL     1      -6.409  -0.585  17.030  1.00  0.00    -0.269 OA
BRANCH  31  34
ATOM     34  C   UNL     1      -5.676  -2.592  16.069  1.00  0.00     0.039 A 
ATOM     35  C   UNL     1      -6.879  -3.300  16.134  1.00  0.00     0.014 A 
ATOM     36  C   UNL     1      -4.465  -3.273  15.922  1.00  0.00     0.014 A 
ATOM     37  C   UNL     1      -6.872  -4.689  15.996  1.00  0.00     0.010 A 
ATOM     38  C   UNL     1      -4.465  -4.650  15.720  1.00  0.00     0.010 A 
ATOM     39  C   UNL     1      -5.668  -5.372  15.758  1.00  0.00    -0.014 A 
BRANCH  39  40
ATOM     40  C   UNL     1      -5.644  -6.840  15.543  1.00  0.00     0.031 A 
ATOM     41  C   UNL     1      -4.945  -7.736  16.526  1.00  0.00     0.074 A 
ATOM     42  C   UNL     1      -6.190  -7.356  14.425  1.00  0.00     0.049 A 
ATOM     43  N   UNL     1      -4.742  -9.028  16.471  1.00  0.00    -0.248 NA
ATOM     44  C   UNL     1      -4.374  -7.088  17.717  1.00  0.00     0.031 C 
ATOM     45  C   UNL     1      -6.857  -6.584  13.376  1.00  0.00     0.029 A 
ATOM     46  N   UNL     1      -6.257  -8.652  13.977  1.00  0.00    -0.354 N 
ATOM     47  C   UNL     1      -4.010  -9.344  17.607  1.00  0.00     0.074 A 
ATOM     48  C   UNL     1      -3.760  -8.103  18.308  1.00  0.00     0.031 C 
ATOM     49  C   UNL     1      -7.279  -7.421  12.415  1.00  0.00     0.029 A 
ATOM     50  C   UNL     1      -6.881  -8.782  12.761  1.00  0.00     0.049 A 
ATOM     51  H   UNL     1      -5.892  -9.415  14.481  1.00  0.00     0.167 HD
ATOM     52  C   UNL     1      -3.601 -10.562  18.036  1.00  0.00     0.037 A 
ATOM     53  C   UNL     1      -7.097  -9.875  12.005  1.00  0.00     0.037 A 
ATOM     54  C   UNL     1      -3.872 -11.796  17.347  1.00  0.00     0.049 A 
ATOM     55  C   UNL     1      -6.627 -11.215  12.502  1.00  0.00     0.074 A 
ATOM     56  C   UNL     1      -3.555 -13.087  17.730  1.00  0.00     0.029 A 
ATOM     57  N   UNL     1      -4.524 -11.890  16.125  1.00  0.00    -0.354 N 
ATOM     58  N   UNL     1      -5.994 -11.511  13.611  1.00  0.00    -0.248 NA
ATOM     59  C   UNL     1      -6.907 -12.374  11.643  1.00  0.00     0.031 C 
ATOM     60  C   UNL     1      -3.975 -13.959  16.720  1.00  0.00     0.029 A 
ATOM     61  C   UNL     1      -4.599 -13.216  15.730  1.00  0.00     0.049 A 
ATOM     62  H   UNL     1      -4.881 -11.127  15.615  1.00  0.00     0.167 HD
ATOM     63  C   UNL     1      -5.823 -12.888  13.597  1.00  0.00     0.074 A 
ATOM     64  C   UNL     1      -6.433 -13.372  12.376  1.00  0.00     0.031 C 
ATOM     65  C   UNL     1      -5.215 -13.681  14.514  1.00  0.00     0.037 A 
BRANCH  52  66
ATOM     66  C   UNL     1      -2.815 -10.619  19.315  1.00  0.00     0.064 A 
ATOM     67  C   UNL     1      -3.412 -10.355  20.557  1.00  0.00     0.173 A 
ATOM     68  C   UNL     1      -1.459 -10.976  19.303  1.00  0.00     0.173 A 
ATOM     69  F   UNL     1      -4.704  -9.998  20.624  1.00  0.00    -0.203 F 
ATOM     70  C   UNL     1      -2.672 -10.416  21.736  1.00  0.00     0.198 A 
ATOM     71  C   UNL     1      -0.730 -11.066  20.486  1.00  0.00     0.198 A 
ATOM     72  F   UNL     1      -0.840 -11.246  18.143  1.00  0.00    -0.203 F 
ATOM     73  F   UNL     1      -3.252 -10.110  22.905  1.00  0.00    -0.200 F 
ATOM     74  C   UNL     1      -1.334 -10.778  21.700  1.00  0.00     0.200 A 
ATOM     75  F   UNL     1       0.560 -11.430  20.451  1.00  0.00    -0.200 F 
ATOM     76  F   UNL     1      -0.626 -10.843  22.835  1.00  0.00    -0.200 F 
ENDBRANCH  52  66
BRANCH  53  77
ATOM     77  C   UNL     1      -7.813  -9.750  10.710  1.00  0.00     0.064 A 
ATOM     78  C   UNL     1      -9.108 -10.264  10.552  1.00  0.00     0.173 A 
ATOM     79  C   UNL     1      -7.224  -9.115   9.607  1.00  0.00     0.173 A 
ATOM     80  F   UNL     1      -9.705 -10.897  11.573  1.00  0.00    -0.203 F 
ATOM     81  C   UNL     1      -9.779 -10.165   9.335  1.00  0.00     0.198 A 
ATOM     82  C   UNL     1      -7.907  -8.992   8.398  1.00  0.00     0.198 A 
ATOM     83  F   UNL     1      -5.989  -8.602   9.707  1.00  0.00    -0.203 F 
ATOM     84  F   UNL     1     -10.998 -10.703   9.200  1.00  0.00    -0.200 F 
ATOM     85  C   UNL     1      -9.180  -9.524   8.261  1.00  0.00     0.200 A 
ATOM     86  F   UNL     1      -7.331  -8.359   7.367  1.00  0.00    -0.200 F 
ATOM     87  F   UNL     1      -9.828  -9.425   7.093  1.00  0.00    -0.200 F 
ENDBRANCH  53  77
BRANCH  65  88
ATOM     88  C   UNL     1      -5.209 -15.158  14.247  1.00  0.00     0.064 A 
ATOM     89  C   UNL     1      -4.405 -15.722  13.246  1.00  0.00     0.173 A 
ATOM     90  C   UNL     1      -5.990 -16.023  15.029  1.00  0.00     0.173 A 
ATOM     91  F   UNL     1      -3.653 -14.936  12.461  1.00  0.00    -0.203 F 
ATOM     92  C   UNL     1      -4.403 -17.096  13.020  1.00  0.00     0.198 A 
ATOM     93  C   UNL     1      -5.962 -17.399  14.821  1.00  0.00     0.198 A 
ATOM     94  F   UNL     1      -6.771 -15.534  16.003  1.00  0.00    -0.203 F 
ATOM     95  F   UNL     1      -3.663 -17.609  12.027  1.00  0.00    -0.200 F 
ATOM     96  C   UNL     1      -5.174 -17.933  13.812  1.00  0.00     0.200 A 
ATOM     97  F   UNL     1      -6.698 -18.208  15.595  1.00  0.00    -0.200 F 
ATOM     98  F   UNL     1      -5.165 -19.256  13.598  1.00  0.00    -0.200 F 
ENDBRANCH  65  88
ENDBRANCH  39  40
ENDBRANCH  31  34
ENDBRANCH  29  30
ENDBRANCH  28  29
ENDBRANCH  27  28
ENDBRANCH  26  27
ENDBRANCH   1  26
TORSDOF 17
