REMARK SMILES Cc1ccccc1OCC[NH+]1CCC(CC(=O)NCCCCCCNC(=O)c2ccc(-c3c4nc(c(-c5c(F)c(F)c(F)c(F)c5F)c5ccc([nH]5)c(-c5c(F)c(F)c(F)c(F)c5F)c5nc(c(-c6c(F)c(F)c(F)c(F)c6F)c6ccc3[nH]6)C=C5)C=C4)cc2)CC1
REMARK SMILES IDX 20 1 19 2 18 3 16 4 17 5 15 7 14 8 11 9 12 10 92 11 13 13
REMARK SMILES IDX 91 14 10 15 9 16 8 17 7 18 1 19 2 20 3 21 4 22 6 23 5 24
REMARK SMILES IDX 21 25 22 26 23 27 24 28 25 29 26 30 27 32 28 33 29 34 90 35
REMARK SMILES IDX 30 36 89 37 31 38 32 39 33 40 83 41 34 42 88 43 82 44 84 45
REMARK SMILES IDX 35 46 87 47 81 48 80 49 36 51 68 52 48 53 67 54 49 55 52 56
REMARK SMILES IDX 66 57 85 58 50 59 51 60 65 62 86 63 53 64 37 65 38 66 46 67
REMARK SMILES IDX 39 68 40 69 44 70 47 71 41 72 42 73 45 74 43 75 69 76 70 77
REMARK SMILES IDX 78 78 71 79 72 80 76 81 79 82 73 83 74 84 77 85 75 86 54 87
REMARK SMILES IDX 55 88 63 89 56 90 57 91 61 92 64 93 58 94 59 95 62 96 60 97
REMARK H PARENT 18 6 11 12 25 31 84 50 52 61
REMARK Flexibility Score: inf
ROOT
ATOM      1  C   UNL     1      -1.203  -1.477  -2.479  1.00  0.00     0.021 C 
ENDROOT
BRANCH   1   2
ATOM      2  C   UNL     1      -1.311  -2.688  -1.542  1.00  0.00     0.116 C 
BRANCH   2   3
ATOM      3  N   UNL     1      -0.339  -3.716  -1.884  1.00  0.00    -0.356 N 
ATOM      4  C   UNL     1       0.723  -4.203  -1.177  1.00  0.00     0.220 C 
ATOM      5  O   UNL     1       1.440  -5.054  -1.705  1.00  0.00    -0.275 OA
ATOM      6  H   UNL     1      -0.467  -4.127  -2.769  1.00  0.00     0.163 HD
BRANCH   4   7
ATOM      7  C   UNL     1       0.999  -3.716   0.236  1.00  0.00     0.104 C 
BRANCH   7   8
ATOM      8  C   UNL     1       2.038  -2.560   0.288  1.00  0.00     0.009 C 
ATOM      9  N   UNL     1       3.361   1.068   0.811  1.00  0.00    -0.332 N 
ATOM     10  C   UNL     1       2.718   0.535  -0.879  1.00  0.00     0.262 C 
ATOM     11  C   UNL     1       3.271  -0.105   2.245  1.00  0.00     0.262 C 
ATOM     12  H   UNL     1       4.332   0.999   0.507  1.00  0.00     0.348 HD
ATOM     13  C   UNL     1       1.787  -1.186  -1.089  1.00  0.00     0.066 C 
ATOM     14  C   UNL     1       2.691  -1.971   2.067  1.00  0.00     0.066 C 
BRANCH   9  15
ATOM     15  C   UNL     1       3.185   2.435   1.219  1.00  0.00     0.304 C 
BRANCH  15  16
ATOM     16  C   UNL     1       2.153   3.083   0.352  1.00  0.00     0.290 C 
BRANCH  16  17
ATOM     17  O   UNL     1       1.091   2.210  -0.030  1.00  0.00    -0.487 OA
BRANCH  17  18
ATOM     18  C   UNL     1       0.782   1.063   0.702  1.00  0.00     0.122 A 
ATOM     19  C   UNL     1       3.378  -0.965   0.324  1.00  0.00     0.048 C 
ATOM     20  C   UNL     1       1.507  -0.280   0.907  1.00  0.00    -0.009 A 
ATOM     21  C   UNL     1       0.460  -1.091   1.579  1.00  0.00     0.007 A 
ATOM     22  C   UNL     1      -0.895  -0.790   1.913  1.00  0.00     0.001 A 
ATOM     23  C   UNL     1      -0.593   1.344   1.060  1.00  0.00     0.047 A 
ATOM     24  C   UNL     1      -1.433   0.428   1.638  1.00  0.00     0.004 A 
ENDBRANCH  17  18
ENDBRANCH  16  17
ENDBRANCH  15  16
ENDBRANCH   9  15
ENDBRANCH   7   8
ENDBRANCH   4   7
ENDBRANCH   2   3
ENDBRANCH   1   2
BRANCH   1  25
ATOM     25  C   UNL     1      -2.306  -1.340  -3.524  1.00  0.00     0.002 C 
BRANCH  25  26
ATOM     26  C   UNL     1      -3.723  -1.180  -2.966  1.00  0.00     0.002 C 
BRANCH  26  27
ATOM     27  C   UNL     1      -3.899  -0.096  -1.905  1.00  0.00     0.021 C 
BRANCH  27  28
ATOM     28  C   UNL     1      -3.704   1.323  -2.414  1.00  0.00     0.116 C 
BRANCH  28  29
ATOM     29  N   UNL     1      -4.857   1.797  -3.173  1.00  0.00    -0.352 N 
ATOM     30  C   UNL     1      -5.246   3.066  -3.549  1.00  0.00     0.251 C 
ATOM     31  H   UNL     1      -5.467   1.084  -3.469  1.00  0.00     0.163 HD
ATOM     32  O   UNL     1      -6.360   3.239  -4.036  1.00  0.00    -0.269 OA
BRANCH  30  33
ATOM     33  C   UNL     1      -4.255   4.165  -3.583  1.00  0.00     0.039 A 
ATOM     34  C   UNL     1      -4.231   4.934  -4.758  1.00  0.00     0.014 A 
ATOM     35  C   UNL     1      -3.170   4.165  -2.721  1.00  0.00     0.014 A 
ATOM     36  C   UNL     1      -3.019   5.425  -5.218  1.00  0.00     0.010 A 
ATOM     37  C   UNL     1      -1.948   4.495  -3.243  1.00  0.00     0.010 A 
ATOM     38  C   UNL     1      -1.878   5.067  -4.516  1.00  0.00    -0.014 A 
BRANCH  38  39
ATOM     39  C   UNL     1      -0.530   5.306  -4.971  1.00  0.00     0.031 A 
ATOM     40  C   UNL     1       0.157   6.486  -4.428  1.00  0.00     0.074 A 
ATOM     41  C   UNL     1       0.097   4.348  -5.685  1.00  0.00     0.049 A 
ATOM     42  N   UNL     1       1.211   7.002  -4.945  1.00  0.00    -0.248 NA
ATOM     43  C   UNL     1      -0.328   7.223  -3.265  1.00  0.00     0.031 C 
ATOM     44  C   UNL     1       1.530   4.196  -5.906  1.00  0.00     0.029 A 
ATOM     45  N   UNL     1      -0.483   3.372  -6.512  1.00  0.00    -0.354 N 
ATOM     46  C   UNL     1       1.716   7.908  -4.040  1.00  0.00     0.074 A 
ATOM     47  C   UNL     1       0.669   8.088  -3.067  1.00  0.00     0.031 C 
ATOM     48  C   UNL     1       1.726   3.434  -6.995  1.00  0.00     0.029 A 
ATOM     49  C   UNL     1       0.422   3.207  -7.590  1.00  0.00     0.049 A 
ATOM     50  H   UNL     1      -1.337   2.903  -6.373  1.00  0.00     0.167 HD
ATOM     51  C   UNL     1       3.025   8.265  -4.169  1.00  0.00     0.037 A 
ATOM     52  C   UNL     1       0.073   3.565  -8.862  1.00  0.00     0.037 A 
ATOM     53  C   UNL     1       3.588   7.636  -5.363  1.00  0.00     0.049 A 
ATOM     54  C   UNL     1       0.958   4.651  -9.428  1.00  0.00     0.074 A 
ATOM     55  C   UNL     1       4.327   6.479  -5.547  1.00  0.00     0.029 A 
ATOM     56  N   UNL     1       3.098   7.999  -6.610  1.00  0.00    -0.354 N 
ATOM     57  N   UNL     1       1.604   5.513  -8.692  1.00  0.00    -0.248 NA
ATOM     58  C   UNL     1       1.210   4.834 -10.853  1.00  0.00     0.031 C 
ATOM     59  C   UNL     1       4.266   6.138  -6.921  1.00  0.00     0.029 A 
ATOM     60  C   UNL     1       3.505   7.096  -7.569  1.00  0.00     0.049 A 
ATOM     61  H   UNL     1       2.539   8.790  -6.785  1.00  0.00     0.167 HD
ATOM     62  C   UNL     1       2.363   6.328  -9.495  1.00  0.00     0.074 A 
ATOM     63  C   UNL     1       2.076   5.864 -10.839  1.00  0.00     0.031 C 
ATOM     64  C   UNL     1       3.171   7.300  -8.970  1.00  0.00     0.037 A 
BRANCH  51  65
ATOM     65  C   UNL     1       3.883   8.936  -3.122  1.00  0.00     0.064 A 
ATOM     66  C   UNL     1       5.292   8.820  -3.187  1.00  0.00     0.173 A 
ATOM     67  C   UNL     1       3.411   9.665  -2.015  1.00  0.00     0.173 A 
ATOM     68  F   UNL     1       5.902   8.222  -4.218  1.00  0.00    -0.203 F 
ATOM     69  C   UNL     1       6.139   9.312  -2.192  1.00  0.00     0.198 A 
ATOM     70  C   UNL     1       4.257  10.133  -1.004  1.00  0.00     0.198 A 
ATOM     71  F   UNL     1       2.125  10.001  -1.886  1.00  0.00    -0.203 F 
ATOM     72  F   UNL     1       7.465   9.152  -2.311  1.00  0.00    -0.200 F 
ATOM     73  C   UNL     1       5.621   9.951  -1.088  1.00  0.00     0.200 A 
ATOM     74  F   UNL     1       3.734  10.771   0.054  1.00  0.00    -0.200 F 
ATOM     75  F   UNL     1       6.429  10.407  -0.123  1.00  0.00    -0.200 F 
ENDBRANCH  51  65
BRANCH  52  76
ATOM     76  C   UNL     1      -1.390   3.404  -9.100  1.00  0.00     0.064 A 
ATOM     77  C   UNL     1      -1.913   2.098  -8.985  1.00  0.00     0.173 A 
ATOM     78  C   UNL     1      -2.274   4.474  -8.915  1.00  0.00     0.173 A 
ATOM     79  F   UNL     1      -1.111   1.038  -9.176  1.00  0.00    -0.203 F 
ATOM     80  C   UNL     1      -3.202   1.878  -8.506  1.00  0.00     0.198 A 
ATOM     81  C   UNL     1      -3.579   4.245  -8.468  1.00  0.00     0.198 A 
ATOM     82  F   UNL     1      -1.843   5.738  -9.028  1.00  0.00    -0.203 F 
ATOM     83  F   UNL     1      -3.611   0.629  -8.238  1.00  0.00    -0.200 F 
ATOM     84  C   UNL     1      -4.020   2.954  -8.210  1.00  0.00     0.200 A 
ATOM     85  F   UNL     1      -4.378   5.285  -8.185  1.00  0.00    -0.200 F 
ATOM     86  F   UNL     1      -5.213   2.751  -7.634  1.00  0.00    -0.200 F 
ENDBRANCH  52  76
BRANCH  64  87
ATOM     87  C   UNL     1       3.818   8.473  -9.687  1.00  0.00     0.064 A 
ATOM     88  C   UNL     1       3.449   8.931 -10.960  1.00  0.00     0.173 A 
ATOM     89  C   UNL     1       4.768   9.293  -9.014  1.00  0.00     0.173 A 
ATOM     90  F   UNL     1       2.482   8.339 -11.668  1.00  0.00    -0.203 F 
ATOM     91  C   UNL     1       4.021  10.072 -11.536  1.00  0.00     0.198 A 
ATOM     92  C   UNL     1       5.278  10.470  -9.560  1.00  0.00     0.198 A 
ATOM     93  F   UNL     1       5.219   9.005  -7.785  1.00  0.00    -0.203 F 
ATOM     94  F   UNL     1       3.666  10.433 -12.777  1.00  0.00    -0.200 F 
ATOM     95  C   UNL     1       4.920  10.849 -10.832  1.00  0.00     0.200 A 
ATOM     96  F   UNL     1       6.098  11.239  -8.830  1.00  0.00    -0.200 F 
ATOM     97  F   UNL     1       5.422  11.969 -11.368  1.00  0.00    -0.200 F 
ENDBRANCH  64  87
ENDBRANCH  38  39
ENDBRANCH  30  33
ENDBRANCH  28  29
ENDBRANCH  27  28
ENDBRANCH  26  27
ENDBRANCH  25  26
ENDBRANCH   1  25
TORSDOF 18
