REMARK SMILES O=C1C[C@H](C(=O)NCCCCCCNC(=O)c2ccc(-c3c4nc(c(-c5c(F)c(F)c(F)c(F)c5F)c5ccc([nH]5)c(-c5c(F)c(F)c(F)c(F)c5F)c5nc(c(-c6c(F)c(F)c(F)c(F)c6F)c6ccc3[nH]6)C=C5)C=C4)cc2)c2c(nc(Nc3ccc(Oc4ccccc4)cc3)[nH]c2=O)N1
REMARK SMILES IDX 9 1 8 2 7 3 5 4 6 5 4 7 1 8 2 9 3 10 101 11 81 12 80 14
REMARK SMILES IDX 82 15 99 16 83 17 98 18 100 19 84 21 85 23 86 24 97 25 87 26
REMARK SMILES IDX 96 27 88 28 89 29 90 30 91 31 95 32 92 33 94 34 93 35 10 36
REMARK SMILES IDX 11 37 12 38 13 39 14 40 15 41 16 43 17 44 18 45 79 46 19 47
REMARK SMILES IDX 78 48 20 49 21 50 22 51 72 52 23 53 77 54 71 55 73 56 24 57
REMARK SMILES IDX 76 58 70 59 69 60 25 62 57 63 37 64 56 65 38 66 41 67 55 68
REMARK SMILES IDX 74 69 39 70 40 71 54 73 75 74 42 75 26 76 27 77 35 78 28 79
REMARK SMILES IDX 29 80 33 81 36 82 30 83 31 84 34 85 32 86 58 87 59 88 67 89
REMARK SMILES IDX 60 90 61 91 65 92 68 93 62 94 63 95 66 96 64 97 43 98 44 99
REMARK SMILES IDX 52 100 45 101 46 102 50 103 53 104 47 105 48 106 51 107
REMARK SMILES IDX 49 108
REMARK H PARENT 7 6 101 13 98 20 84 22 14 42 73 61 41 72
REMARK Flexibility Score: inf
ROOT
ATOM      1  C   UNL     1       6.107  -1.448   2.284  1.00  0.00     0.021 C 
ENDROOT
BRANCH   1   2
ATOM      2  C   UNL     1       6.011  -1.112   0.798  1.00  0.00     0.116 C 
BRANCH   2   3
ATOM      3  N   UNL     1       5.747  -2.303   0.014  1.00  0.00    -0.356 N 
ATOM      4  C   UNL     1       4.738  -2.603  -0.850  1.00  0.00     0.228 C 
ATOM      5  O   UNL     1       4.662  -3.766  -1.253  1.00  0.00    -0.274 OA
ATOM      6  H   UNL     1       6.413  -3.019   0.125  1.00  0.00     0.163 HD
BRANCH   4   7
ATOM      7  C   UNL     1       3.696  -1.566  -1.269  1.00  0.00     0.127 C 
ATOM      8  O   UNL     1       1.421   0.453   0.863  1.00  0.00    -0.275 OA
ATOM      9  C   UNL     1       2.324   0.141   0.090  1.00  0.00     0.226 C 
ATOM     10  C   UNL     1       2.736  -1.300  -0.103  1.00  0.00     0.119 C 
ATOM     11  N   UNL     1       3.035   1.095  -0.571  1.00  0.00    -0.310 N 
ATOM     12  C   UNL     1       4.019   0.887  -1.482  1.00  0.00     0.146 A 
ATOM     13  H   UNL     1       2.812   2.031  -0.366  1.00  0.00     0.171 HD
ATOM     14  C   UNL     1       4.343  -0.351  -1.855  1.00  0.00     0.073 A 
ATOM     15  N   UNL     1       4.588   2.026  -1.948  1.00  0.00    -0.196 NA
ATOM     16  C   UNL     1       5.379  -0.460  -2.898  1.00  0.00     0.258 A 
ATOM     17  C   UNL     1       5.509   1.940  -2.858  1.00  0.00     0.209 A 
ATOM     18  N   UNL     1       5.907   0.721  -3.333  1.00  0.00    -0.292 N 
ATOM     19  O   UNL     1       5.749  -1.531  -3.360  1.00  0.00    -0.269 OA
ATOM     20  H   UNL     1       6.609   0.695  -4.023  1.00  0.00     0.173 HD
BRANCH  17  21
ATOM     21  N   UNL     1       6.113   3.036  -3.419  1.00  0.00    -0.326 N 
ATOM     22  H   UNL     1       6.729   2.900  -4.175  1.00  0.00     0.170 HD
BRANCH  21  23
ATOM     23  C   UNL     1       5.888   4.347  -2.961  1.00  0.00     0.041 A 
ATOM     24  C   UNL     1       5.356   5.308  -3.825  1.00  0.00     0.030 A 
ATOM     25  C   UNL     1       6.039   4.669  -1.607  1.00  0.00     0.030 A 
ATOM     26  C   UNL     1       4.949   6.553  -3.334  1.00  0.00     0.049 A 
ATOM     27  C   UNL     1       5.652   5.917  -1.117  1.00  0.00     0.049 A 
ATOM     28  C   UNL     1       5.087   6.859  -1.978  1.00  0.00     0.127 A 
BRANCH  28  29
ATOM     29  O   UNL     1       4.594   8.091  -1.597  1.00  0.00    -0.457 OA
BRANCH  29  30
ATOM     30  C   UNL     1       4.816   8.485  -0.302  1.00  0.00     0.127 A 
ATOM     31  C   UNL     1       3.805   8.326   0.647  1.00  0.00     0.047 A 
ATOM     32  C   UNL     1       6.032   9.069   0.042  1.00  0.00     0.047 A 
ATOM     33  C   UNL     1       4.039   8.704   1.970  1.00  0.00     0.004 A 
ATOM     34  C   UNL     1       6.253   9.456   1.362  1.00  0.00     0.004 A 
ATOM     35  C   UNL     1       5.266   9.261   2.328  1.00  0.00     0.000 A 
ENDBRANCH  29  30
ENDBRANCH  28  29
ENDBRANCH  21  23
ENDBRANCH  17  21
ENDBRANCH   4   7
ENDBRANCH   2   3
ENDBRANCH   1   2
BRANCH   1  36
ATOM     36  C   UNL     1       7.318  -2.311   2.660  1.00  0.00     0.002 C 
BRANCH  36  37
ATOM     37  C   UNL     1       8.683  -1.693   2.338  1.00  0.00     0.002 C 
BRANCH  37  38
ATOM     38  C   UNL     1       8.909  -0.291   2.907  1.00  0.00     0.021 C 
BRANCH  38  39
ATOM     39  C   UNL     1       8.709  -0.181   4.415  1.00  0.00     0.116 C 
BRANCH  39  40
ATOM     40  N   UNL     1       9.696  -0.951   5.154  1.00  0.00    -0.352 N 
ATOM     41  C   UNL     1      10.614  -0.508   6.072  1.00  0.00     0.251 C 
ATOM     42  H   UNL     1       9.707  -1.919   4.972  1.00  0.00     0.163 HD
ATOM     43  O   UNL     1      11.506  -1.243   6.481  1.00  0.00    -0.269 OA
BRANCH  41  44
ATOM     44  C   UNL     1      10.528   0.884   6.551  1.00  0.00     0.039 A 
ATOM     45  C   UNL     1      11.658   1.699   6.465  1.00  0.00     0.014 A 
ATOM     46  C   UNL     1       9.323   1.383   7.058  1.00  0.00     0.014 A 
ATOM     47  C   UNL     1      11.565   3.038   6.844  1.00  0.00     0.010 A 
ATOM     48  C   UNL     1       9.218   2.732   7.380  1.00  0.00     0.010 A 
ATOM     49  C   UNL     1      10.340   3.568   7.281  1.00  0.00    -0.014 A 
BRANCH  49  50
ATOM     50  C   UNL     1      10.231   4.994   7.671  1.00  0.00     0.031 A 
ATOM     51  C   UNL     1      10.053   5.355   9.116  1.00  0.00     0.074 A 
ATOM     52  C   UNL     1      10.305   5.953   6.729  1.00  0.00     0.049 A 
ATOM     53  N   UNL     1       9.962   6.539   9.666  1.00  0.00    -0.248 NA
ATOM     54  C   UNL     1       9.966   4.239  10.073  1.00  0.00     0.031 C 
ATOM     55  C   UNL     1      10.499   5.711   5.300  1.00  0.00     0.029 A 
ATOM     56  N   UNL     1      10.250   7.321   6.830  1.00  0.00    -0.354 N 
ATOM     57  C   UNL     1       9.828   6.309  11.028  1.00  0.00     0.074 A 
ATOM     58  C   UNL     1       9.780   4.877  11.219  1.00  0.00     0.031 C 
ATOM     59  C   UNL     1      10.610   6.889   4.667  1.00  0.00     0.029 A 
ATOM     60  C   UNL     1      10.440   7.972   5.633  1.00  0.00     0.049 A 
ATOM     61  H   UNL     1      10.091   7.793   7.679  1.00  0.00     0.167 HD
ATOM     62  C   UNL     1       9.789   7.215  12.032  1.00  0.00     0.037 A 
ATOM     63  C   UNL     1      10.476   9.291   5.357  1.00  0.00     0.037 A 
ATOM     64  C   UNL     1       9.851   8.638  11.838  1.00  0.00     0.049 A 
ATOM     65  C   UNL     1      10.270  10.270   6.487  1.00  0.00     0.074 A 
ATOM     66  C   UNL     1       9.848   9.638  12.793  1.00  0.00     0.029 A 
ATOM     67  N   UNL     1       9.927   9.261  10.601  1.00  0.00    -0.354 N 
ATOM     68  N   UNL     1      10.198  10.044   7.776  1.00  0.00    -0.248 NA
ATOM     69  C   UNL     1      10.138  11.688   6.121  1.00  0.00     0.031 C 
ATOM     70  C   UNL     1       9.878  10.869  12.132  1.00  0.00     0.029 A 
ATOM     71  C   UNL     1       9.942  10.635  10.767  1.00  0.00     0.049 A 
ATOM     72  H   UNL     1       9.965   8.795   9.734  1.00  0.00     0.167 HD
ATOM     73  C   UNL     1      10.080  11.290   8.377  1.00  0.00     0.074 A 
ATOM     74  C   UNL     1      10.077  12.270   7.311  1.00  0.00     0.031 C 
ATOM     75  C   UNL     1       9.990  11.596   9.695  1.00  0.00     0.037 A 
BRANCH  62  76
ATOM     76  C   UNL     1       9.702   6.696  13.435  1.00  0.00     0.064 A 
ATOM     77  C   UNL     1      10.805   6.090  14.054  1.00  0.00     0.173 A 
ATOM     78  C   UNL     1       8.533   6.865  14.191  1.00  0.00     0.173 A 
ATOM     79  F   UNL     1      11.941   5.895  13.367  1.00  0.00    -0.203 F 
ATOM     80  C   UNL     1      10.738   5.662  15.376  1.00  0.00     0.198 A 
ATOM     81  C   UNL     1       8.477   6.458  15.521  1.00  0.00     0.198 A 
ATOM     82  F   UNL     1       7.452   7.442  13.645  1.00  0.00    -0.203 F 
ATOM     83  F   UNL     1      11.795   5.060  15.938  1.00  0.00    -0.200 F 
ATOM     84  C   UNL     1       9.578   5.855  16.111  1.00  0.00     0.200 A 
ATOM     85  F   UNL     1       7.360   6.655  16.234  1.00  0.00    -0.200 F 
ATOM     86  F   UNL     1       9.520   5.458  17.390  1.00  0.00    -0.200 F 
ENDBRANCH  62  76
BRANCH  63  87
ATOM     87  C   UNL     1      10.759   9.773   3.974  1.00  0.00     0.064 A 
ATOM     88  C   UNL     1      11.886  10.565   3.705  1.00  0.00     0.173 A 
ATOM     89  C   UNL     1       9.919   9.468   2.894  1.00  0.00     0.173 A 
ATOM     90  F   UNL     1      12.719  10.903   4.701  1.00  0.00    -0.203 F 
ATOM     91  C   UNL     1      12.146  11.048   2.423  1.00  0.00     0.198 A 
ATOM     92  C   UNL     1      10.204   9.914   1.603  1.00  0.00     0.198 A 
ATOM     93  F   UNL     1       8.823   8.720   3.088  1.00  0.00    -0.203 F 
ATOM     94  F   UNL     1      13.201  11.846   2.211  1.00  0.00    -0.200 F 
ATOM     95  C   UNL     1      11.309  10.716   1.371  1.00  0.00     0.200 A 
ATOM     96  F   UNL     1       9.405   9.570   0.584  1.00  0.00    -0.200 F 
ATOM     97  F   UNL     1      11.559  11.173   0.137  1.00  0.00    -0.200 F 
ENDBRANCH  63  87
BRANCH  75  98
ATOM     98  C   UNL     1       9.957  13.046  10.075  1.00  0.00     0.064 A 
ATOM     99  C   UNL     1       8.813  13.833   9.881  1.00  0.00     0.173 A 
ATOM    100  C   UNL     1      11.057  13.631  10.723  1.00  0.00     0.173 A 
ATOM    101  F   UNL     1       7.742  13.323   9.255  1.00  0.00    -0.203 F 
ATOM    102  C   UNL     1       8.776  15.156  10.312  1.00  0.00     0.198 A 
ATOM    103  C   UNL     1      11.005  14.944  11.178  1.00  0.00     0.198 A 
ATOM    104  F   UNL     1      12.171  12.916  10.941  1.00  0.00    -0.203 F 
ATOM    105  F   UNL     1       7.684  15.900  10.089  1.00  0.00    -0.200 F 
ATOM    106  C   UNL     1       9.867  15.707  10.970  1.00  0.00     0.200 A 
ATOM    107  F   UNL     1      12.053  15.469  11.829  1.00  0.00    -0.200 F 
ATOM    108  F   UNL     1       9.820  16.974  11.402  1.00  0.00    -0.200 F 
ENDBRANCH  75  98
ENDBRANCH  49  50
ENDBRANCH  41  44
ENDBRANCH  39  40
ENDBRANCH  38  39
ENDBRANCH  37  38
ENDBRANCH  36  37
ENDBRANCH   1  36
TORSDOF 17
