REMARK SMILES COc1ccc(C(=O)NCCCCCCNC(=O)c2ccc(-c3c4nc(c(-c5c(F)c(F)c(F)c(F)c5F)c5ccc([nH]5)c(-c5c(F)c(F)c(F)c(F)c5F)c5nc(c(-c6c(F)c(F)c(F)c(F)c6F)c6ccc3[nH]6)C=C5)C=C4)cc2)cc1S(=O)(=O)N(C)Cc1cccc(F)c1
REMARK SMILES IDX 11 1 10 2 9 3 7 4 8 5 6 7 3 8 4 9 83 10 5 11 82 12 2 13 1 14
REMARK SMILES IDX 84 15 85 16 86 17 87 18 88 19 89 20 90 21 91 22 96 23 92 24
REMARK SMILES IDX 94 25 93 26 95 27 12 28 13 29 14 30 15 31 16 32 17 33 18 35
REMARK SMILES IDX 19 36 20 37 81 38 21 39 80 40 22 41 23 42 24 43 74 44 25 45
REMARK SMILES IDX 79 46 73 47 75 48 26 49 78 50 72 51 71 52 27 54 59 55 39 56
REMARK SMILES IDX 58 57 40 58 43 59 57 60 76 61 41 62 42 63 56 65 77 66 44 67
REMARK SMILES IDX 28 68 29 69 37 70 30 71 31 72 35 73 38 74 32 75 33 76 36 77
REMARK SMILES IDX 34 78 60 79 61 80 69 81 62 82 63 83 67 84 70 85 64 86 65 87
REMARK SMILES IDX 68 88 66 89 45 90 46 91 54 92 47 93 48 94 52 95 55 96 49 97
REMARK SMILES IDX 50 98 53 99 51 100
REMARK H PARENT 9 6 16 34 75 53 43 64
REMARK Flexibility Score: inf
ROOT
ATOM      1  C   UNL     1       5.396   0.671  -6.010  1.00  0.00     0.021 C 
ENDROOT
BRANCH   1   2
ATOM      2  C   UNL     1       4.202   1.587  -5.729  1.00  0.00     0.116 C 
BRANCH   2   3
ATOM      3  N   UNL     1       3.058   1.164  -6.521  1.00  0.00    -0.352 N 
ATOM      4  C   UNL     1       1.883   0.537  -6.198  1.00  0.00     0.251 C 
ATOM      5  O   UNL     1       1.083   0.300  -7.102  1.00  0.00    -0.269 OA
ATOM      6  H   UNL     1       3.146   1.369  -7.480  1.00  0.00     0.163 HD
BRANCH   4   7
ATOM      7  C   UNL     1       1.504   0.210  -4.798  1.00  0.00     0.041 A 
ATOM      8  C   UNL     1       0.672  -0.139  -2.131  1.00  0.00     0.138 A 
ATOM      9  C   UNL     1      -0.268   0.081  -3.140  1.00  0.00     0.049 A 
ATOM     10  C   UNL     1       2.017  -0.276  -2.471  1.00  0.00     0.125 A 
ATOM     11  C   UNL     1       0.147   0.278  -4.461  1.00  0.00     0.018 A 
ATOM     12  C   UNL     1       2.419  -0.154  -3.813  1.00  0.00     0.039 A 
BRANCH   8  13
ATOM     13  O   UNL     1       0.188  -0.313  -0.868  1.00  0.00    -0.495 OA
ATOM     14  C   UNL     1       0.228   0.900  -0.117  1.00  0.00     0.278 C 
ENDBRANCH   8  13
BRANCH  10  15
ATOM     15  S   UNL     1       3.337  -0.490  -1.308  1.00  0.00     0.246 S 
ATOM     16  O   UNL     1       4.249  -1.448  -1.902  1.00  0.00    -0.207 OA
ATOM     17  O   UNL     1       3.787   0.849  -0.987  1.00  0.00    -0.207 OA
BRANCH  15  18
ATOM     18  N   UNL     1       2.715  -1.186   0.105  1.00  0.00    -0.196 NA
ATOM     19  C   UNL     1       2.142  -2.540  -0.037  1.00  0.00     0.125 C 
BRANCH  18  20
ATOM     20  C   UNL     1       3.588  -1.029   1.304  1.00  0.00     0.137 C 
BRANCH  20  21
ATOM     21  C   UNL     1       4.881  -1.812   1.268  1.00  0.00    -0.030 A 
ATOM     22  C   UNL     1       4.894  -3.183   1.572  1.00  0.00     0.005 A 
ATOM     23  C   UNL     1       6.075  -1.202   0.857  1.00  0.00     0.044 A 
ATOM     24  C   UNL     1       6.056  -3.941   1.413  1.00  0.00     0.003 A 
ATOM     25  C   UNL     1       7.231  -1.964   0.715  1.00  0.00     0.123 A 
ATOM     26  C   UNL     1       7.228  -3.329   0.977  1.00  0.00     0.039 A 
ATOM     27  F   UNL     1       8.362  -1.376   0.304  1.00  0.00    -0.207 F 
ENDBRANCH  20  21
ENDBRANCH  18  20
ENDBRANCH  15  18
ENDBRANCH  10  15
ENDBRANCH   4   7
ENDBRANCH   2   3
ENDBRANCH   1   2
BRANCH   1  28
ATOM     28  C   UNL     1       6.128   1.027  -7.312  1.00  0.00     0.002 C 
BRANCH  28  29
ATOM     29  C   UNL     1       6.823   2.395  -7.301  1.00  0.00     0.002 C 
BRANCH  29  30
ATOM     30  C   UNL     1       7.843   2.593  -6.176  1.00  0.00     0.021 C 
BRANCH  30  31
ATOM     31  C   UNL     1       9.008   1.610  -6.204  1.00  0.00     0.116 C 
BRANCH  31  32
ATOM     32  N   UNL     1       9.835   1.788  -7.387  1.00  0.00    -0.352 N 
ATOM     33  C   UNL     1      11.185   2.014  -7.478  1.00  0.00     0.251 C 
ATOM     34  H   UNL     1       9.357   1.739  -8.247  1.00  0.00     0.163 HD
ATOM     35  O   UNL     1      11.685   2.360  -8.543  1.00  0.00    -0.269 OA
BRANCH  33  36
ATOM     36  C   UNL     1      12.039   1.851  -6.283  1.00  0.00     0.039 A 
ATOM     37  C   UNL     1      13.015   2.813  -6.013  1.00  0.00     0.014 A 
ATOM     38  C   UNL     1      11.893   0.742  -5.444  1.00  0.00     0.014 A 
ATOM     39  C   UNL     1      13.811   2.690  -4.873  1.00  0.00     0.010 A 
ATOM     40  C   UNL     1      12.640   0.655  -4.273  1.00  0.00     0.010 A 
ATOM     41  C   UNL     1      13.611   1.624  -3.980  1.00  0.00    -0.014 A 
BRANCH  41  42
ATOM     42  C   UNL     1      14.419   1.499  -2.741  1.00  0.00     0.031 A 
ATOM     43  C   UNL     1      15.363   0.342  -2.572  1.00  0.00     0.074 A 
ATOM     44  C   UNL     1      14.266   2.400  -1.752  1.00  0.00     0.049 A 
ATOM     45  N   UNL     1      16.105   0.021  -1.542  1.00  0.00    -0.248 NA
ATOM     46  C   UNL     1      15.470  -0.594  -3.702  1.00  0.00     0.031 C 
ATOM     47  C   UNL     1      13.356   3.546  -1.785  1.00  0.00     0.029 A 
ATOM     48  N   UNL     1      14.867   2.489  -0.522  1.00  0.00    -0.354 N 
ATOM     49  C   UNL     1      16.761  -1.150  -1.899  1.00  0.00     0.074 A 
ATOM     50  C   UNL     1      16.286  -1.517  -3.215  1.00  0.00     0.031 C 
ATOM     51  C   UNL     1      13.475   4.235  -0.638  1.00  0.00     0.029 A 
ATOM     52  C   UNL     1      14.440   3.560   0.224  1.00  0.00     0.049 A 
ATOM     53  H   UNL     1      15.541   1.845  -0.204  1.00  0.00     0.167 HD
ATOM     54  C   UNL     1      17.695  -1.841  -1.203  1.00  0.00     0.037 A 
ATOM     55  C   UNL     1      14.784   3.947   1.467  1.00  0.00     0.037 A 
ATOM     56  C   UNL     1      18.175  -1.466   0.101  1.00  0.00     0.049 A 
ATOM     57  C   UNL     1      15.803   3.142   2.229  1.00  0.00     0.074 A 
ATOM     58  C   UNL     1      19.138  -2.085   0.879  1.00  0.00     0.029 A 
ATOM     59  N   UNL     1      17.725  -0.368   0.820  1.00  0.00    -0.354 N 
ATOM     60  N   UNL     1      16.456   2.068   1.859  1.00  0.00    -0.248 NA
ATOM     61  C   UNL     1      16.137   3.611   3.581  1.00  0.00     0.031 C 
ATOM     62  C   UNL     1      19.246  -1.383   2.084  1.00  0.00     0.029 A 
ATOM     63  C   UNL     1      18.383  -0.299   2.038  1.00  0.00     0.049 A 
ATOM     64  H   UNL     1      17.040   0.267   0.511  1.00  0.00     0.167 HD
ATOM     65  C   UNL     1      17.301   1.753   2.915  1.00  0.00     0.074 A 
ATOM     66  C   UNL     1      17.088   2.759   3.934  1.00  0.00     0.031 C 
ATOM     67  C   UNL     1      18.173   0.722   3.031  1.00  0.00     0.037 A 
BRANCH  54  68
ATOM     68  C   UNL     1      18.272  -3.067  -1.848  1.00  0.00     0.064 A 
ATOM     69  C   UNL     1      19.132  -2.975  -2.954  1.00  0.00     0.173 A 
ATOM     70  C   UNL     1      17.999  -4.344  -1.335  1.00  0.00     0.173 A 
ATOM     71  F   UNL     1      19.416  -1.778  -3.489  1.00  0.00    -0.203 F 
ATOM     72  C   UNL     1      19.675  -4.116  -3.538  1.00  0.00     0.198 A 
ATOM     73  C   UNL     1      18.567  -5.481  -1.903  1.00  0.00     0.198 A 
ATOM     74  F   UNL     1      17.188  -4.489  -0.276  1.00  0.00    -0.203 F 
ATOM     75  F   UNL     1      20.457  -4.005  -4.620  1.00  0.00    -0.200 F 
ATOM     76  C   UNL     1      19.399  -5.367  -3.008  1.00  0.00     0.200 A 
ATOM     77  F   UNL     1      18.311  -6.689  -1.382  1.00  0.00    -0.200 F 
ATOM     78  F   UNL     1      19.930  -6.464  -3.565  1.00  0.00    -0.200 F 
ENDBRANCH  54  68
BRANCH  55  79
ATOM     79  C   UNL     1      14.182   5.167   2.065  1.00  0.00     0.064 A 
ATOM     80  C   UNL     1      14.962   6.309   2.303  1.00  0.00     0.173 A 
ATOM     81  C   UNL     1      12.831   5.212   2.438  1.00  0.00     0.173 A 
ATOM     82  F   UNL     1      16.265   6.307   1.984  1.00  0.00    -0.203 F 
ATOM     83  C   UNL     1      14.421   7.436   2.918  1.00  0.00     0.198 A 
ATOM     84  C   UNL     1      12.284   6.351   3.025  1.00  0.00     0.198 A 
ATOM     85  F   UNL     1      12.041   4.149   2.229  1.00  0.00    -0.203 F 
ATOM     86  F   UNL     1      15.203   8.490   3.185  1.00  0.00    -0.200 F 
ATOM     87  C   UNL     1      13.081   7.457   3.275  1.00  0.00     0.200 A 
ATOM     88  F   UNL     1      10.986   6.372   3.357  1.00  0.00    -0.200 F 
ATOM     89  F   UNL     1      12.562   8.540   3.870  1.00  0.00    -0.200 F 
ENDBRANCH  55  79
BRANCH  67  90
ATOM     90  C   UNL     1      18.998   0.659   4.283  1.00  0.00     0.064 A 
ATOM     91  C   UNL     1      18.438   0.308   5.519  1.00  0.00     0.173 A 
ATOM     92  C   UNL     1      20.376   0.924   4.236  1.00  0.00     0.173 A 
ATOM     93  F   UNL     1      17.123   0.062   5.619  1.00  0.00    -0.203 F 
ATOM     94  C   UNL     1      19.221   0.251   6.669  1.00  0.00     0.198 A 
ATOM     95  C   UNL     1      21.161   0.836   5.382  1.00  0.00     0.198 A 
ATOM     96  F   UNL     1      20.962   1.257   3.077  1.00  0.00    -0.203 F 
ATOM     97  F   UNL     1      18.655  -0.037   7.849  1.00  0.00    -0.200 F 
ATOM     98  C   UNL     1      20.582   0.507   6.598  1.00  0.00     0.200 A 
ATOM     99  F   UNL     1      22.479   1.071   5.309  1.00  0.00    -0.200 F 
ATOM    100  F   UNL     1      21.335   0.446   7.705  1.00  0.00    -0.200 F 
ENDBRANCH  67  90
ENDBRANCH  41  42
ENDBRANCH  33  36
ENDBRANCH  31  32
ENDBRANCH  30  31
ENDBRANCH  29  30
ENDBRANCH  28  29
ENDBRANCH   1  28
TORSDOF 18
