REMARK SMILES N#Cc1cc(F)ccc1N1[C@@H]2CC[C@H]1C[C@H](CC(=O)NCCCCCCNC(=O)c1ccc(-c3c4nc(c(-c5c(F)c(F)c(F)c(F)c5F)c5ccc([nH]5)c(-c5c(F)c(F)c(F)c(F)c5F)c5nc(c(-c6c(F)c(F)c(F)c(F)c6F)c6ccc3[nH]6)C=C5)C=C4)cc1)C2
REMARK SMILES IDX 23 1 22 2 21 3 20 4 18 5 19 6 17 8 16 9 10 10 11 11 14 12
REMARK SMILES IDX 12 13 93 14 13 15 15 16 9 17 3 18 4 19 5 20 8 21 6 22 7 23
REMARK SMILES IDX 2 24 1 25 24 26 25 27 26 28 27 29 28 30 29 32 30 33 31 34
REMARK SMILES IDX 92 35 32 36 91 37 33 38 34 39 35 40 85 41 36 42 90 43 84 44
REMARK SMILES IDX 86 45 37 46 89 47 83 48 82 49 38 51 70 52 50 53 69 54 51 55
REMARK SMILES IDX 54 56 68 57 87 58 52 59 53 60 67 62 88 63 55 64 39 65 40 66
REMARK SMILES IDX 48 67 41 68 42 69 46 70 49 71 43 72 44 73 47 74 45 75 71 76
REMARK SMILES IDX 72 77 80 78 73 79 74 80 78 81 81 82 75 83 76 84 79 85 77 86
REMARK SMILES IDX 56 87 57 88 65 89 58 90 59 91 63 92 66 93 60 94 61 95 64 96
REMARK SMILES IDX 62 97
REMARK H PARENT 20 7 27 31 86 50 54 61
REMARK Flexibility Score: inf
ROOT
ATOM      1  C   UNL     1      -7.767   2.747   1.317  1.00  0.00     0.002 C 
ENDROOT
BRANCH   1   2
ATOM      2  C   UNL     1      -6.477   2.490   0.545  1.00  0.00     0.021 C 
BRANCH   2   3
ATOM      3  C   UNL     1      -6.532   1.304  -0.427  1.00  0.00     0.116 C 
BRANCH   3   4
ATOM      4  N   UNL     1      -6.826   1.763  -1.773  1.00  0.00    -0.356 N 
ATOM      5  C   UNL     1      -6.032   1.892  -2.872  1.00  0.00     0.220 C 
ATOM      6  O   UNL     1      -6.529   2.397  -3.882  1.00  0.00    -0.275 OA
ATOM      7  H   UNL     1      -7.764   2.028  -1.917  1.00  0.00     0.163 HD
BRANCH   5   8
ATOM      8  C   UNL     1      -4.582   1.433  -2.876  1.00  0.00     0.103 C 
BRANCH   8   9
ATOM      9  C   UNL     1      -3.578   2.515  -2.425  1.00  0.00     0.002 C 
ATOM     10  N   UNL     1      -1.169   2.543  -0.822  1.00  0.00    -0.364 N 
ATOM     11  C   UNL     1      -1.055   2.986  -2.207  1.00  0.00     0.083 C 
ATOM     12  C   UNL     1      -2.311   3.232  -0.256  1.00  0.00     0.083 C 
ATOM     13  C   UNL     1      -1.324   4.498  -2.082  1.00  0.00     0.027 C 
ATOM     14  C   UNL     1      -2.158   2.236  -2.981  1.00  0.00     0.029 C 
ATOM     15  C   UNL     1      -2.099   4.667  -0.766  1.00  0.00     0.027 C 
ATOM     16  C   UNL     1      -3.582   2.675  -0.890  1.00  0.00     0.029 C 
BRANCH  10  17
ATOM     17  C   UNL     1      -0.367   1.557  -0.319  1.00  0.00     0.055 A 
ATOM     18  C   UNL     1      -0.754   0.225  -0.059  1.00  0.00     0.078 A 
ATOM     19  C   UNL     1       0.214  -0.757   0.225  1.00  0.00     0.060 A 
ATOM     20  C   UNL     1       1.553  -0.414   0.307  1.00  0.00     0.124 A 
ATOM     21  C   UNL     1       1.000   1.868  -0.166  1.00  0.00     0.030 A 
ATOM     22  F   UNL     1       2.465  -1.366   0.539  1.00  0.00    -0.207 F 
ATOM     23  C   UNL     1       1.954   0.898   0.146  1.00  0.00     0.041 A 
BRANCH  18  24
ATOM     24  C   UNL     1      -2.104  -0.239  -0.104  1.00  0.00     0.101 C 
ATOM     25  N   UNL     1      -3.176  -0.702  -0.088  1.00  0.00    -0.192 NA
ENDBRANCH  18  24
ENDBRANCH  10  17
ENDBRANCH   8   9
ENDBRANCH   5   8
ENDBRANCH   3   4
ENDBRANCH   2   3
ENDBRANCH   1   2
BRANCH   1  26
ATOM     26  C   UNL     1      -8.119   1.668   2.340  1.00  0.00     0.002 C 
BRANCH  26  27
ATOM     27  C   UNL     1      -7.050   1.404   3.404  1.00  0.00     0.021 C 
BRANCH  27  28
ATOM     28  C   UNL     1      -6.614   2.637   4.192  1.00  0.00     0.116 C 
BRANCH  28  29
ATOM     29  N   UNL     1      -7.737   3.269   4.869  1.00  0.00    -0.352 N 
ATOM     30  C   UNL     1      -7.992   3.392   6.210  1.00  0.00     0.251 C 
ATOM     31  H   UNL     1      -8.413   3.668   4.275  1.00  0.00     0.163 HD
ATOM     32  O   UNL     1      -9.110   3.710   6.603  1.00  0.00    -0.269 OA
BRANCH  30  33
ATOM     33  C   UNL     1      -6.913   3.140   7.186  1.00  0.00     0.039 A 
ATOM     34  C   UNL     1      -7.197   2.403   8.338  1.00  0.00     0.014 A 
ATOM     35  C   UNL     1      -5.631   3.655   6.976  1.00  0.00     0.014 A 
ATOM     36  C   UNL     1      -6.179   2.138   9.254  1.00  0.00     0.010 A 
ATOM     37  C   UNL     1      -4.600   3.321   7.848  1.00  0.00     0.010 A 
ATOM     38  C   UNL     1      -4.865   2.568   9.001  1.00  0.00    -0.014 A 
BRANCH  38  39
ATOM     39  C   UNL     1      -3.760   2.240   9.936  1.00  0.00     0.031 A 
ATOM     40  C   UNL     1      -3.024   3.337  10.653  1.00  0.00     0.074 A 
ATOM     41  C   UNL     1      -3.385   0.957  10.095  1.00  0.00     0.049 A 
ATOM     42  N   UNL     1      -2.004   3.254  11.470  1.00  0.00    -0.248 NA
ATOM     43  C   UNL     1      -3.474   4.714  10.396  1.00  0.00     0.031 C 
ATOM     44  C   UNL     1      -3.989  -0.189   9.413  1.00  0.00     0.029 A 
ATOM     45  N   UNL     1      -2.401   0.400  10.873  1.00  0.00    -0.354 N 
ATOM     46  C   UNL     1      -1.690   4.561  11.817  1.00  0.00     0.074 A 
ATOM     47  C   UNL     1      -2.582   5.422  11.070  1.00  0.00     0.031 C 
ATOM     48  C   UNL     1      -3.378  -1.313   9.819  1.00  0.00     0.029 A 
ATOM     49  C   UNL     1      -2.314  -0.965  10.755  1.00  0.00     0.049 A 
ATOM     50  H   UNL     1      -1.814   0.929  11.460  1.00  0.00     0.167 HD
ATOM     51  C   UNL     1      -0.761   5.003  12.698  1.00  0.00     0.037 A 
ATOM     52  C   UNL     1      -1.464  -1.837  11.330  1.00  0.00     0.037 A 
ATOM     53  C   UNL     1       0.118   4.138  13.443  1.00  0.00     0.049 A 
ATOM     54  C   UNL     1      -0.427  -1.321  12.291  1.00  0.00     0.074 A 
ATOM     55  C   UNL     1       1.059   4.480  14.398  1.00  0.00     0.029 A 
ATOM     56  N   UNL     1       0.170   2.758  13.307  1.00  0.00    -0.354 N 
ATOM     57  N   UNL     1      -0.189  -0.089  12.670  1.00  0.00    -0.248 NA
ATOM     58  C   UNL     1       0.454  -2.320  12.911  1.00  0.00     0.031 C 
ATOM     59  C   UNL     1       1.723   3.314  14.794  1.00  0.00     0.029 A 
ATOM     60  C   UNL     1       1.149   2.236  14.139  1.00  0.00     0.049 A 
ATOM     61  H   UNL     1      -0.404   2.227  12.708  1.00  0.00     0.167 HD
ATOM     62  C   UNL     1       0.846  -0.166  13.592  1.00  0.00     0.074 A 
ATOM     63  C   UNL     1       1.177  -1.569  13.729  1.00  0.00     0.031 C 
ATOM     64  C   UNL     1       1.467   0.836  14.264  1.00  0.00     0.037 A 
BRANCH  51  65
ATOM     65  C   UNL     1      -0.645   6.488  12.898  1.00  0.00     0.064 A 
ATOM     66  C   UNL     1      -1.670   7.236  13.500  1.00  0.00     0.173 A 
ATOM     67  C   UNL     1       0.515   7.173  12.504  1.00  0.00     0.173 A 
ATOM     68  F   UNL     1      -2.805   6.635  13.888  1.00  0.00    -0.203 F 
ATOM     69  C   UNL     1      -1.555   8.614  13.662  1.00  0.00     0.198 A 
ATOM     70  C   UNL     1       0.642   8.545  12.702  1.00  0.00     0.198 A 
ATOM     71  F   UNL     1       1.530   6.510  11.930  1.00  0.00    -0.203 F 
ATOM     72  F   UNL     1      -2.574   9.313  14.182  1.00  0.00    -0.200 F 
ATOM     73  C   UNL     1      -0.397   9.267  13.270  1.00  0.00     0.200 A 
ATOM     74  F   UNL     1       1.769   9.172  12.336  1.00  0.00    -0.200 F 
ATOM     75  F   UNL     1      -0.285  10.592  13.430  1.00  0.00    -0.200 F 
ENDBRANCH  51  65
BRANCH  52  76
ATOM     76  C   UNL     1      -1.569  -3.288  11.019  1.00  0.00     0.064 A 
ATOM     77  C   UNL     1      -1.980  -4.209  11.991  1.00  0.00     0.173 A 
ATOM     78  C   UNL     1      -1.260  -3.782   9.742  1.00  0.00     0.173 A 
ATOM     79  F   UNL     1      -2.269  -3.790  13.232  1.00  0.00    -0.203 F 
ATOM     80  C   UNL     1      -2.055  -5.572  11.707  1.00  0.00     0.198 A 
ATOM     81  C   UNL     1      -1.368  -5.139   9.449  1.00  0.00     0.198 A 
ATOM     82  F   UNL     1      -0.868  -2.942   8.773  1.00  0.00    -0.203 F 
ATOM     83  F   UNL     1      -2.402  -6.436  12.669  1.00  0.00    -0.200 F 
ATOM     84  C   UNL     1      -1.756  -6.035  10.434  1.00  0.00     0.200 A 
ATOM     85  F   UNL     1      -1.095  -5.579   8.213  1.00  0.00    -0.200 F 
ATOM     86  F   UNL     1      -1.834  -7.344  10.159  1.00  0.00    -0.200 F 
ENDBRANCH  52  76
BRANCH  64  87
ATOM     87  C   UNL     1       2.545   0.446  15.237  1.00  0.00     0.064 A 
ATOM     88  C   UNL     1       3.778  -0.069  14.809  1.00  0.00     0.173 A 
ATOM     89  C   UNL     1       2.352   0.623  16.616  1.00  0.00     0.173 A 
ATOM     90  F   UNL     1       4.010  -0.270  13.503  1.00  0.00    -0.203 F 
ATOM     91  C   UNL     1       4.763  -0.424  15.727  1.00  0.00     0.198 A 
ATOM     92  C   UNL     1       3.353   0.302  17.528  1.00  0.00     0.198 A 
ATOM     93  F   UNL     1       1.195   1.119  17.079  1.00  0.00    -0.203 F 
ATOM     94  F   UNL     1       5.910  -0.968  15.299  1.00  0.00    -0.200 F 
ATOM     95  C   UNL     1       4.553  -0.230  17.084  1.00  0.00     0.200 A 
ATOM     96  F   UNL     1       3.155   0.507  18.838  1.00  0.00    -0.200 F 
ATOM     97  F   UNL     1       5.506  -0.565  17.966  1.00  0.00    -0.200 F 
ENDBRANCH  64  87
ENDBRANCH  38  39
ENDBRANCH  30  33
ENDBRANCH  28  29
ENDBRANCH  27  28
ENDBRANCH  26  27
ENDBRANCH   1  26
TORSDOF 16
