REMARK SMILES Cc1nnc(SCC2=C(C(=O)NCCCCCCNC(=O)c3ccc(-c4c5nc(c(-c6c(F)c(F)c(F)c(F)c6F)c6ccc([nH]6)c(-c6c(F)c(F)c(F)c(F)c6F)c6nc(c(-c7c(F)c(F)c(F)c(F)c7F)c7ccc4[nH]7)C=C6)C=C5)cc3)N3C(=O)[C@H](NC(=O)c4ccc(F)cc4F)[C@H]3SC2)s1
REMARK SMILES IDX 15 1 14 2 13 3 12 4 10 5 11 6 9 8 8 9 102 10 85 11 101 12
REMARK SMILES IDX 86 13 100 14 87 15 88 16 7 17 6 18 5 19 1 20 2 21 3 22
REMARK SMILES IDX 103 23 4 24 89 25 90 26 91 28 92 29 93 30 98 31 94 32 97 33
REMARK SMILES IDX 99 34 95 35 96 36 16 37 17 38 18 39 19 40 20 41 21 43 22 44
REMARK SMILES IDX 23 45 84 46 24 47 83 48 25 49 26 50 27 51 77 52 28 53 82 54
REMARK SMILES IDX 76 55 78 56 29 57 81 58 75 59 74 60 30 62 62 63 42 64 61 65
REMARK SMILES IDX 43 66 46 67 60 68 79 69 44 70 45 71 59 73 80 74 47 75 31 76
REMARK SMILES IDX 32 77 40 78 33 79 34 80 38 81 41 82 35 83 36 84 39 85 37 86
REMARK SMILES IDX 63 87 64 88 72 89 65 90 66 91 70 92 73 93 67 94 68 95 71 96
REMARK SMILES IDX 69 97 48 98 49 99 57 100 50 101 51 102 55 103 58 104 52 105
REMARK SMILES IDX 53 106 56 107 54 108
REMARK H PARENT 12 7 89 27 19 42 78 61 46 72
REMARK Flexibility Score: inf
ROOT
ATOM      1  C   UNL     1       4.598  -1.501  -4.197  1.00  0.00     0.002 C 
ENDROOT
BRANCH   1   2
ATOM      2  C   UNL     1       4.756  -1.489  -2.676  1.00  0.00     0.021 C 
BRANCH   2   3
ATOM      3  C   UNL     1       3.415  -1.703  -1.977  1.00  0.00     0.116 C 
BRANCH   3   4
ATOM      4  N   UNL     1       3.387  -2.922  -1.218  1.00  0.00    -0.351 N 
ATOM      5  C   UNL     1       3.398  -3.309   0.069  1.00  0.00     0.268 C 
ATOM      6  O   UNL     1       2.794  -4.383   0.206  1.00  0.00    -0.268 OA
ATOM      7  H   UNL     1       3.348  -3.704  -1.815  1.00  0.00     0.163 HD
BRANCH   5   8
ATOM      8  C   UNL     1       4.044  -2.667   1.307  1.00  0.00     0.111 C 
ATOM      9  C   UNL     1       4.487  -1.396   1.585  1.00  0.00    -0.020 C 
ATOM     10  C   UNL     1       5.124  -0.962   2.926  1.00  0.00     0.106 C 
ATOM     11  N   UNL     1       4.069  -3.552   2.373  1.00  0.00    -0.290 N 
ATOM     12  S   UNL     1       5.468  -2.255   4.127  1.00  0.00    -0.129 SA
ATOM     13  C   UNL     1       3.922  -4.866   2.678  1.00  0.00     0.253 C 
ATOM     14  C   UNL     1       3.922  -3.067   3.716  1.00  0.00     0.181 C 
ATOM     15  O   UNL     1       3.959  -5.905   2.057  1.00  0.00    -0.272 OA
ATOM     16  C   UNL     1       3.785  -4.516   4.206  1.00  0.00     0.206 C 
BRANCH   9  17
ATOM     17  C   UNL     1       4.502  -0.182   0.694  1.00  0.00     0.111 C 
BRANCH  17  18
ATOM     18  S   UNL     1       3.264   1.082   1.093  1.00  0.00    -0.089 SA
BRANCH  18  19
ATOM     19  C   UNL     1       1.721   0.367   0.703  1.00  0.00     0.174 A 
ATOM     20  C   UNL     1      -2.013  -0.173  -0.018  1.00  0.00     0.081 C 
ATOM     21  C   UNL     1      -0.548  -0.166   0.229  1.00  0.00     0.115 A 
ATOM     22  N   UNL     1       0.206  -1.239   0.338  1.00  0.00    -0.143 NA
ATOM     23  S   UNL     1       0.313   1.309   0.419  1.00  0.00    -0.091 S 
ATOM     24  N   UNL     1       1.518  -0.926   0.634  1.00  0.00    -0.132 NA
ENDBRANCH  18  19
ENDBRANCH  17  18
ENDBRANCH   9  17
BRANCH  16  25
ATOM     25  N   UNL     1       2.489  -4.894   4.852  1.00  0.00    -0.338 N 
ATOM     26  C   UNL     1       1.838  -4.329   5.930  1.00  0.00     0.254 C 
ATOM     27  H   UNL     1       2.031  -5.665   4.446  1.00  0.00     0.164 HD
ATOM     28  O   UNL     1       0.885  -4.893   6.457  1.00  0.00    -0.269 OA
BRANCH  26  29
ATOM     29  C   UNL     1       2.292  -3.049   6.497  1.00  0.00     0.075 A 
ATOM     30  C   UNL     1       2.975  -3.025   7.715  1.00  0.00     0.020 A 
ATOM     31  C   UNL     1       1.975  -1.847   5.861  1.00  0.00     0.138 A 
ATOM     32  C   UNL     1       3.434  -1.803   8.220  1.00  0.00     0.040 A 
ATOM     33  C   UNL     1       2.481  -0.638   6.324  1.00  0.00     0.079 A 
ATOM     34  F   UNL     1       1.220  -1.838   4.753  1.00  0.00    -0.206 F 
ATOM     35  C   UNL     1       3.216  -0.629   7.500  1.00  0.00     0.126 A 
ATOM     36  F   UNL     1       3.710   0.528   7.956  1.00  0.00    -0.207 F 
ENDBRANCH  26  29
ENDBRANCH  16  25
ENDBRANCH   5   8
ENDBRANCH   3   4
ENDBRANCH   2   3
ENDBRANCH   1   2
BRANCH   1  37
ATOM     37  C   UNL     1       3.692  -0.383  -4.730  1.00  0.00     0.002 C 
BRANCH  37  38
ATOM     38  C   UNL     1       4.184   1.033  -4.429  1.00  0.00     0.021 C 
BRANCH  38  39
ATOM     39  C   UNL     1       5.580   1.323  -4.962  1.00  0.00     0.116 C 
BRANCH  39  40
ATOM     40  N   UNL     1       5.657   1.091  -6.396  1.00  0.00    -0.352 N 
ATOM     41  C   UNL     1       5.931   1.977  -7.403  1.00  0.00     0.251 C 
ATOM     42  H   UNL     1       5.487   0.165  -6.684  1.00  0.00     0.163 HD
ATOM     43  O   UNL     1       5.661   1.701  -8.567  1.00  0.00    -0.269 OA
BRANCH  41  44
ATOM     44  C   UNL     1       6.564   3.267  -7.074  1.00  0.00     0.039 A 
ATOM     45  C   UNL     1       6.138   4.424  -7.728  1.00  0.00     0.014 A 
ATOM     46  C   UNL     1       7.601   3.321  -6.138  1.00  0.00     0.014 A 
ATOM     47  C   UNL     1       6.735   5.645  -7.417  1.00  0.00     0.010 A 
ATOM     48  C   UNL     1       8.130   4.548  -5.763  1.00  0.00     0.010 A 
ATOM     49  C   UNL     1       7.721   5.718  -6.419  1.00  0.00    -0.014 A 
BRANCH  49  50
ATOM     50  C   UNL     1       8.376   7.003  -6.077  1.00  0.00     0.031 A 
ATOM     51  C   UNL     1       9.852   7.171  -6.308  1.00  0.00     0.074 A 
ATOM     52  C   UNL     1       7.655   7.991  -5.515  1.00  0.00     0.049 A 
ATOM     53  N   UNL     1      10.626   8.185  -6.018  1.00  0.00    -0.248 NA
ATOM     54  C   UNL     1      10.560   6.034  -6.920  1.00  0.00     0.031 C 
ATOM     55  C   UNL     1       6.225   7.925  -5.207  1.00  0.00     0.029 A 
ATOM     56  N   UNL     1       8.028   9.242  -5.096  1.00  0.00    -0.354 N 
ATOM     57  C   UNL     1      11.906   7.803  -6.399  1.00  0.00     0.074 A 
ATOM     58  C   UNL     1      11.819   6.441  -6.876  1.00  0.00     0.031 C 
ATOM     59  C   UNL     1       5.837   9.095  -4.675  1.00  0.00     0.029 A 
ATOM     60  C   UNL     1       6.996   9.975  -4.564  1.00  0.00     0.049 A 
ATOM     61  H   UNL     1       8.949   9.583  -5.170  1.00  0.00     0.167 HD
ATOM     62  C   UNL     1      13.046   8.534  -6.381  1.00  0.00     0.037 A 
ATOM     63  C   UNL     1       6.992  11.214  -4.040  1.00  0.00     0.037 A 
ATOM     64  C   UNL     1      13.118   9.896  -5.925  1.00  0.00     0.049 A 
ATOM     65  C   UNL     1       8.278  11.997  -4.011  1.00  0.00     0.074 A 
ATOM     66  C   UNL     1      14.211  10.743  -5.907  1.00  0.00     0.029 A 
ATOM     67  N   UNL     1      12.049  10.610  -5.401  1.00  0.00    -0.354 N 
ATOM     68  N   UNL     1       9.470  11.650  -4.433  1.00  0.00    -0.248 NA
ATOM     69  C   UNL     1       8.215  13.349  -3.440  1.00  0.00     0.031 C 
ATOM     70  C   UNL     1      13.818  11.950  -5.319  1.00  0.00     0.029 A 
ATOM     71  C   UNL     1      12.463  11.880  -5.034  1.00  0.00     0.049 A 
ATOM     72  H   UNL     1      11.132  10.265  -5.304  1.00  0.00     0.167 HD
ATOM     73  C   UNL     1      10.288  12.751  -4.215  1.00  0.00     0.074 A 
ATOM     74  C   UNL     1       9.452  13.782  -3.635  1.00  0.00     0.031 C 
ATOM     75  C   UNL     1      11.612  12.898  -4.473  1.00  0.00     0.037 A 
BRANCH  62  76
ATOM     76  C   UNL     1      14.303   7.874  -6.871  1.00  0.00     0.064 A 
ATOM     77  C   UNL     1      14.479   7.527  -8.221  1.00  0.00     0.173 A 
ATOM     78  C   UNL     1      15.361   7.613  -5.987  1.00  0.00     0.173 A 
ATOM     79  F   UNL     1      13.495   7.743  -9.107  1.00  0.00    -0.203 F 
ATOM     80  C   UNL     1      15.650   6.914  -8.659  1.00  0.00     0.198 A 
ATOM     81  C   UNL     1      16.545   7.033  -6.436  1.00  0.00     0.198 A 
ATOM     82  F   UNL     1      15.251   7.926  -4.688  1.00  0.00    -0.203 F 
ATOM     83  F   UNL     1      15.769   6.540  -9.940  1.00  0.00    -0.200 F 
ATOM     84  C   UNL     1      16.685   6.676  -7.768  1.00  0.00     0.200 A 
ATOM     85  F   UNL     1      17.551   6.817  -5.577  1.00  0.00    -0.200 F 
ATOM     86  F   UNL     1      17.815   6.094  -8.193  1.00  0.00    -0.200 F 
ENDBRANCH  62  76
BRANCH  63  87
ATOM     87  C   UNL     1       5.728  11.802  -3.522  1.00  0.00     0.064 A 
ATOM     88  C   UNL     1       5.130  12.900  -4.157  1.00  0.00     0.173 A 
ATOM     89  C   UNL     1       5.101  11.293  -2.375  1.00  0.00     0.173 A 
ATOM     90  F   UNL     1       5.700  13.434  -5.247  1.00  0.00    -0.203 F 
ATOM     91  C   UNL     1       3.973  13.486  -3.647  1.00  0.00     0.198 A 
ATOM     92  C   UNL     1       3.925  11.858  -1.886  1.00  0.00     0.198 A 
ATOM     93  F   UNL     1       5.625  10.238  -1.734  1.00  0.00    -0.203 F 
ATOM     94  F   UNL     1       3.457  14.570  -4.241  1.00  0.00    -0.200 F 
ATOM     95  C   UNL     1       3.368  12.961  -2.515  1.00  0.00     0.200 A 
ATOM     96  F   UNL     1       3.333  11.335  -0.803  1.00  0.00    -0.200 F 
ATOM     97  F   UNL     1       2.255  13.524  -2.026  1.00  0.00    -0.200 F 
ENDBRANCH  63  87
BRANCH  75  98
ATOM     98  C   UNL     1      12.227  14.237  -4.182  1.00  0.00     0.064 A 
ATOM     99  C   UNL     1      12.414  14.700  -2.872  1.00  0.00     0.173 A 
ATOM    100  C   UNL     1      12.675  15.050  -5.235  1.00  0.00     0.173 A 
ATOM    101  F   UNL     1      11.992  13.967  -1.830  1.00  0.00    -0.203 F 
ATOM    102  C   UNL     1      12.995  15.942  -2.627  1.00  0.00     0.198 A 
ATOM    103  C   UNL     1      13.290  16.273  -4.986  1.00  0.00     0.198 A 
ATOM    104  F   UNL     1      12.530  14.651  -6.508  1.00  0.00    -0.203 F 
ATOM    105  F   UNL     1      13.111  16.389  -1.369  1.00  0.00    -0.200 F 
ATOM    106  C   UNL     1      13.441  16.723  -3.683  1.00  0.00     0.200 A 
ATOM    107  F   UNL     1      13.737  17.017  -6.008  1.00  0.00    -0.200 F 
ATOM    108  F   UNL     1      14.009  17.912  -3.446  1.00  0.00    -0.200 F 
ENDBRANCH  75  98
ENDBRANCH  49  50
ENDBRANCH  41  44
ENDBRANCH  39  40
ENDBRANCH  38  39
ENDBRANCH  37  38
ENDBRANCH   1  37
TORSDOF 18
