REMARK SMILES C[C@@H]1[C@H](C(=O)NCCCCCCNC(=O)c2ccc(-c3c4nc(c(-c5c(F)c(F)c(F)c(F)c5F)c5ccc([nH]5)c(-c5c(F)c(F)c(F)c(F)c5F)c5nc(c(-c6c(F)c(F)c(F)c(F)c6F)c6ccc3[nH]6)C=C5)C=C4)cc2)CCN1c1ccc(C(F)(F)F)cc1
REMARK SMILES IDX 9 1 8 2 7 3 6 4 4 5 5 6 3 8 1 9 2 10 81 11 79 12 80 13 82 14
REMARK SMILES IDX 83 15 91 16 84 17 90 18 85 19 86 20 87 21 88 22 89 23 10 24
REMARK SMILES IDX 11 25 12 26 13 27 14 28 15 30 16 31 17 32 78 33 18 34 77 35
REMARK SMILES IDX 19 36 20 37 21 38 71 39 22 40 76 41 70 42 72 43 23 44 75 45
REMARK SMILES IDX 69 46 68 47 24 49 56 50 36 51 55 52 37 53 40 54 54 55 73 56
REMARK SMILES IDX 38 57 39 58 53 60 74 61 41 62 25 63 26 64 34 65 27 66 28 67
REMARK SMILES IDX 32 68 35 69 29 70 30 71 33 72 31 73 57 74 58 75 66 76 59 77
REMARK SMILES IDX 60 78 64 79 67 80 61 81 62 82 65 83 63 84 42 85 43 86 51 87
REMARK SMILES IDX 44 88 45 89 49 90 52 91 46 92 47 93 50 94 48 95
REMARK H PARENT 6 7 13 29 72 48 40 59
REMARK Flexibility Score: inf
ROOT
ATOM      1  C   UNL     1       3.512   2.728   3.088  1.00  0.00     0.002 C 
ENDROOT
BRANCH   1   2
ATOM      2  C   UNL     1       2.834   1.506   2.463  1.00  0.00     0.021 C 
BRANCH   2   3
ATOM      3  C   UNL     1       1.364   1.701   2.088  1.00  0.00     0.116 C 
BRANCH   3   4
ATOM      4  N   UNL     1       1.236   2.533   0.907  1.00  0.00    -0.356 N 
ATOM      5  C   UNL     1       0.679   2.296  -0.307  1.00  0.00     0.225 C 
ATOM      6  O   UNL     1       0.831   3.173  -1.165  1.00  0.00    -0.275 OA
ATOM      7  H   UNL     1       1.622   3.433   1.004  1.00  0.00     0.163 HD
BRANCH   5   8
ATOM      8  C   UNL     1      -0.114   1.047  -0.648  1.00  0.00     0.102 C 
ATOM      9  C   UNL     1       2.104  -0.352  -0.457  1.00  0.00     0.032 C 
ATOM     10  C   UNL     1       0.636  -0.290  -0.848  1.00  0.00     0.091 C 
ATOM     11  N   UNL     1      -0.189  -1.270  -0.106  1.00  0.00    -0.368 N 
ATOM     12  C   UNL     1      -1.295   0.754   0.280  1.00  0.00     0.037 C 
ATOM     13  C   UNL     1      -1.534  -0.737   0.098  1.00  0.00     0.118 C 
BRANCH  11  14
ATOM     14  C   UNL     1      -0.025  -2.622  -0.363  1.00  0.00     0.037 A 
ATOM     15  C   UNL     1      -0.816  -3.322  -1.281  1.00  0.00     0.026 A 
ATOM     16  C   UNL     1       0.976  -3.335   0.307  1.00  0.00     0.026 A 
ATOM     17  C   UNL     1      -0.612  -4.686  -1.524  1.00  0.00     0.015 A 
ATOM     18  C   UNL     1       1.190  -4.698   0.070  1.00  0.00     0.015 A 
ATOM     19  C   UNL     1       0.397  -5.388  -0.853  1.00  0.00     0.056 A 
BRANCH  19  20
ATOM     20  C   UNL     1       0.608  -6.857  -1.123  1.00  0.00     0.416 C 
ATOM     21  F   UNL     1      -0.465  -7.613  -0.759  1.00  0.00    -0.166 F 
ATOM     22  F   UNL     1       0.820  -7.120  -2.442  1.00  0.00    -0.166 F 
ATOM     23  F   UNL     1       1.677  -7.386  -0.463  1.00  0.00    -0.166 F 
ENDBRANCH  19  20
ENDBRANCH  11  14
ENDBRANCH   5   8
ENDBRANCH   3   4
ENDBRANCH   2   3
ENDBRANCH   1   2
BRANCH   1  24
ATOM     24  C   UNL     1       2.945   3.180   4.436  1.00  0.00     0.002 C 
BRANCH  24  25
ATOM     25  C   UNL     1       2.824   2.090   5.504  1.00  0.00     0.021 C 
BRANCH  25  26
ATOM     26  C   UNL     1       4.097   1.293   5.778  1.00  0.00     0.116 C 
BRANCH  26  27
ATOM     27  N   UNL     1       5.187   2.128   6.249  1.00  0.00    -0.352 N 
ATOM     28  C   UNL     1       5.966   2.003   7.371  1.00  0.00     0.251 C 
ATOM     29  H   UNL     1       5.400   2.900   5.677  1.00  0.00     0.163 HD
ATOM     30  O   UNL     1       6.740   2.903   7.683  1.00  0.00    -0.269 OA
BRANCH  28  31
ATOM     31  C   UNL     1       5.867   0.798   8.224  1.00  0.00     0.039 A 
ATOM     32  C   UNL     1       5.847   0.965   9.612  1.00  0.00     0.014 A 
ATOM     33  C   UNL     1       5.841  -0.487   7.674  1.00  0.00     0.014 A 
ATOM     34  C   UNL     1       5.758  -0.151  10.446  1.00  0.00     0.010 A 
ATOM     35  C   UNL     1       5.689  -1.597   8.504  1.00  0.00     0.010 A 
ATOM     36  C   UNL     1       5.658  -1.441   9.898  1.00  0.00    -0.014 A 
BRANCH  36  37
ATOM     37  C   UNL     1       5.544  -2.631  10.778  1.00  0.00     0.031 A 
ATOM     38  C   UNL     1       6.660  -3.636  10.842  1.00  0.00     0.074 A 
ATOM     39  C   UNL     1       4.420  -2.824  11.495  1.00  0.00     0.049 A 
ATOM     40  N   UNL     1       6.737  -4.745  11.535  1.00  0.00    -0.248 NA
ATOM     41  C   UNL     1       7.836  -3.373   9.999  1.00  0.00     0.031 C 
ATOM     42  C   UNL     1       3.249  -1.946  11.483  1.00  0.00     0.029 A 
ATOM     43  N   UNL     1       4.077  -3.825  12.369  1.00  0.00    -0.354 N 
ATOM     44  C   UNL     1       7.960  -5.313  11.203  1.00  0.00     0.074 A 
ATOM     45  C   UNL     1       8.570  -4.455  10.210  1.00  0.00     0.031 C 
ATOM     46  C   UNL     1       2.327  -2.433  12.328  1.00  0.00     0.029 A 
ATOM     47  C   UNL     1       2.829  -3.670  12.920  1.00  0.00     0.049 A 
ATOM     48  H   UNL     1       4.670  -4.582  12.582  1.00  0.00     0.167 HD
ATOM     49  C   UNL     1       8.533  -6.435  11.700  1.00  0.00     0.037 A 
ATOM     50  C   UNL     1       2.166  -4.439  13.804  1.00  0.00     0.037 A 
ATOM     51  C   UNL     1       7.939  -7.272  12.709  1.00  0.00     0.049 A 
ATOM     52  C   UNL     1       2.828  -5.677  14.346  1.00  0.00     0.074 A 
ATOM     53  C   UNL     1       8.468  -8.394  13.323  1.00  0.00     0.029 A 
ATOM     54  N   UNL     1       6.678  -7.075  13.253  1.00  0.00    -0.354 N 
ATOM     55  N   UNL     1       4.014  -6.165  14.078  1.00  0.00    -0.248 NA
ATOM     56  C   UNL     1       2.061  -6.465  15.320  1.00  0.00     0.031 C 
ATOM     57  C   UNL     1       7.512  -8.899  14.211  1.00  0.00     0.029 A 
ATOM     58  C   UNL     1       6.404  -8.067  14.181  1.00  0.00     0.049 A 
ATOM     59  H   UNL     1       6.069  -6.340  13.015  1.00  0.00     0.167 HD
ATOM     60  C   UNL     1       4.146  -7.301  14.864  1.00  0.00     0.074 A 
ATOM     61  C   UNL     1       2.925  -7.421  15.633  1.00  0.00     0.031 C 
ATOM     62  C   UNL     1       5.184  -8.169  14.941  1.00  0.00     0.037 A 
BRANCH  49  63
ATOM     63  C   UNL     1       9.881  -6.821  11.163  1.00  0.00     0.064 A 
ATOM     64  C   UNL     1      11.034  -6.086  11.478  1.00  0.00     0.173 A 
ATOM     65  C   UNL     1      10.028  -7.957  10.354  1.00  0.00     0.173 A 
ATOM     66  F   UNL     1      10.945  -4.984  12.239  1.00  0.00    -0.203 F 
ATOM     67  C   UNL     1      12.280  -6.459  10.981  1.00  0.00     0.198 A 
ATOM     68  C   UNL     1      11.280  -8.343   9.882  1.00  0.00     0.198 A 
ATOM     69  F   UNL     1       8.959  -8.698  10.028  1.00  0.00    -0.203 F 
ATOM     70  F   UNL     1      13.360  -5.715  11.258  1.00  0.00    -0.200 F 
ATOM     71  C   UNL     1      12.403  -7.590  10.189  1.00  0.00     0.200 A 
ATOM     72  F   UNL     1      11.399  -9.444   9.126  1.00  0.00    -0.200 F 
ATOM     73  F   UNL     1      13.604  -7.951   9.716  1.00  0.00    -0.200 F 
ENDBRANCH  49  63
BRANCH  50  74
ATOM     74  C   UNL     1       0.808  -4.043  14.259  1.00  0.00     0.064 A 
ATOM     75  C   UNL     1       0.595  -3.583  15.566  1.00  0.00     0.173 A 
ATOM     76  C   UNL     1      -0.299  -4.119  13.403  1.00  0.00     0.173 A 
ATOM     77  F   UNL     1       1.620  -3.513  16.427  1.00  0.00    -0.203 F 
ATOM     78  C   UNL     1      -0.680  -3.229  16.005  1.00  0.00     0.198 A 
ATOM     79  C   UNL     1      -1.569  -3.741  13.835  1.00  0.00     0.198 A 
ATOM     80  F   UNL     1      -0.146  -4.549  12.142  1.00  0.00    -0.203 F 
ATOM     81  F   UNL     1      -0.863  -2.833  17.271  1.00  0.00    -0.200 F 
ATOM     82  C   UNL     1      -1.759  -3.304  15.138  1.00  0.00     0.200 A 
ATOM     83  F   UNL     1      -2.608  -3.802  12.991  1.00  0.00    -0.200 F 
ATOM     84  F   UNL     1      -2.984  -2.961  15.559  1.00  0.00    -0.200 F 
ENDBRANCH  50  74
BRANCH  62  85
ATOM     85  C   UNL     1       5.054  -9.310  15.906  1.00  0.00     0.064 A 
ATOM     86  C   UNL     1       4.201 -10.393  15.649  1.00  0.00     0.173 A 
ATOM     87  C   UNL     1       5.817  -9.337  17.083  1.00  0.00     0.173 A 
ATOM     88  F   UNL     1       3.439 -10.405  14.544  1.00  0.00    -0.203 F 
ATOM     89  C   UNL     1       4.098 -11.450  16.549  1.00  0.00     0.198 A 
ATOM     90  C   UNL     1       5.731 -10.408  17.967  1.00  0.00     0.198 A 
ATOM     91  F   UNL     1       6.652  -8.327  17.371  1.00  0.00    -0.203 F 
ATOM     92  F   UNL     1       3.242 -12.453  16.306  1.00  0.00    -0.200 F 
ATOM     93  C   UNL     1       4.867 -11.460  17.703  1.00  0.00     0.200 A 
ATOM     94  F   UNL     1       6.484 -10.422  19.076  1.00  0.00    -0.200 F 
ATOM     95  F   UNL     1       4.770 -12.482  18.565  1.00  0.00    -0.200 F 
ENDBRANCH  62  85
ENDBRANCH  36  37
ENDBRANCH  28  31
ENDBRANCH  26  27
ENDBRANCH  25  26
ENDBRANCH  24  25
ENDBRANCH   1  24
TORSDOF 15
