REMARK SMILES N#CCNC(=O)Cn1ccc(C(=O)NCCCCCCNC(=O)c2ccc(-c3c4nc(c(-c5c(F)c(F)c(F)c(F)c5F)c5ccc([nH]5)c(-c5c(F)c(F)c(F)c(F)c5F)c5nc(c(-c6c(F)c(F)c(F)c(F)c6F)c6ccc3[nH]6)C=C5)C=C4)cc2)c1
REMARK SMILES IDX 16 1 15 2 14 3 12 4 13 5 11 7 8 8 9 9 87 10 10 11 7 12 5 13
REMARK SMILES IDX 4 14 6 16 3 17 2 18 1 19 17 20 18 21 19 22 20 23 21 24 22 25
REMARK SMILES IDX 23 27 24 28 25 29 86 30 26 31 85 32 27 33 28 34 29 35 79 36
REMARK SMILES IDX 30 37 84 38 78 39 80 40 31 41 83 42 77 43 76 44 32 46 64 47
REMARK SMILES IDX 44 48 63 49 45 50 48 51 62 52 81 53 46 54 47 55 61 57 82 58
REMARK SMILES IDX 49 59 33 60 34 61 42 62 35 63 36 64 40 65 43 66 37 67 38 68
REMARK SMILES IDX 41 69 39 70 65 71 66 72 74 73 67 74 68 75 72 76 75 77 69 78
REMARK SMILES IDX 70 79 73 80 71 81 50 82 51 83 59 84 52 85 53 86 57 87 60 88
REMARK SMILES IDX 54 89 55 90 58 91 56 92
REMARK H PARENT 14 6 4 15 21 26 80 45 48 56
REMARK Flexibility Score: inf
ROOT
ATOM      1  C   UNL     1       2.035   1.159  -4.069  1.00  0.00     0.021 C 
ENDROOT
BRANCH   1   2
ATOM      2  C   UNL     1       1.834  -0.061  -3.180  1.00  0.00     0.116 C 
BRANCH   2   3
ATOM      3  N   UNL     1       1.331  -1.255  -3.815  1.00  0.00    -0.352 N 
ATOM      4  C   UNL     1       1.429  -2.566  -3.379  1.00  0.00     0.252 C 
ATOM      5  O   UNL     1       0.565  -3.351  -3.759  1.00  0.00    -0.269 OA
ATOM      6  H   UNL     1       0.857  -1.120  -4.667  1.00  0.00     0.163 HD
BRANCH   4   7
ATOM      7  C   UNL     1       2.498  -3.003  -2.470  1.00  0.00     0.057 A 
ATOM      8  N   UNL     1       4.324  -3.091  -1.178  1.00  0.00    -0.344 N 
ATOM      9  C   UNL     1       3.627  -4.233  -0.907  1.00  0.00     0.087 A 
ATOM     10  C   UNL     1       3.763  -2.474  -2.269  1.00  0.00     0.100 A 
ATOM     11  C   UNL     1       2.476  -4.191  -1.665  1.00  0.00     0.033 A 
BRANCH   8  12
ATOM     12  C   UNL     1       5.469  -2.600  -0.429  1.00  0.00     0.221 C 
BRANCH  12  13
ATOM     13  C   UNL     1       5.066  -1.993   0.905  1.00  0.00     0.240 C 
ATOM     14  N   UNL     1       4.375  -0.819   0.978  1.00  0.00    -0.341 N 
ATOM     15  H   UNL     1       4.213  -0.493   1.893  1.00  0.00     0.164 HD
ATOM     16  O   UNL     1       5.405  -2.516   1.970  1.00  0.00    -0.273 OA
BRANCH  14  17
ATOM     17  C   UNL     1       3.840   0.031  -0.075  1.00  0.00     0.236 C 
BRANCH  17  18
ATOM     18  C   UNL     1       2.320   0.031  -0.075  1.00  0.00     0.084 C 
ATOM     19  N   UNL     1       1.059   0.031  -0.075  1.00  0.00    -0.196 NA
ENDBRANCH  17  18
ENDBRANCH  14  17
ENDBRANCH  12  13
ENDBRANCH   8  12
ENDBRANCH   4   7
ENDBRANCH   2   3
ENDBRANCH   1   2
BRANCH   1  20
ATOM     20  C   UNL     1       0.815   2.080  -4.170  1.00  0.00     0.002 C 
BRANCH  20  21
ATOM     21  C   UNL     1       0.250   2.639  -2.851  1.00  0.00     0.002 C 
BRANCH  21  22
ATOM     22  C   UNL     1       1.223   3.393  -1.932  1.00  0.00     0.021 C 
BRANCH  22  23
ATOM     23  C   UNL     1       1.861   4.631  -2.558  1.00  0.00     0.116 C 
BRANCH  23  24
ATOM     24  N   UNL     1       0.859   5.602  -2.962  1.00  0.00    -0.352 N 
ATOM     25  C   UNL     1       0.995   6.801  -3.614  1.00  0.00     0.251 C 
ATOM     26  H   UNL     1      -0.067   5.361  -2.731  1.00  0.00     0.163 HD
ATOM     27  O   UNL     1       0.089   7.625  -3.551  1.00  0.00    -0.269 OA
BRANCH  25  28
ATOM     28  C   UNL     1       2.211   7.126  -4.387  1.00  0.00     0.039 A 
ATOM     29  C   UNL     1       2.647   8.458  -4.398  1.00  0.00     0.014 A 
ATOM     30  C   UNL     1       2.859   6.167  -5.171  1.00  0.00     0.014 A 
ATOM     31  C   UNL     1       3.763   8.815  -5.146  1.00  0.00     0.010 A 
ATOM     32  C   UNL     1       3.998   6.508  -5.887  1.00  0.00     0.010 A 
ATOM     33  C   UNL     1       4.450   7.831  -5.867  1.00  0.00    -0.014 A 
BRANCH  33  34
ATOM     34  C   UNL     1       5.762   8.157  -6.459  1.00  0.00     0.031 A 
ATOM     35  C   UNL     1       6.861   8.194  -5.373  1.00  0.00     0.074 A 
ATOM     36  C   UNL     1       5.790   8.357  -7.814  1.00  0.00     0.049 A 
ATOM     37  N   UNL     1       7.994   8.821  -5.365  1.00  0.00    -0.248 NA
ATOM     38  C   UNL     1       6.653   7.479  -4.079  1.00  0.00     0.031 C 
ATOM     39  C   UNL     1       4.610   8.245  -8.702  1.00  0.00     0.029 A 
ATOM     40  N   UNL     1       6.777   8.686  -8.728  1.00  0.00    -0.354 N 
ATOM     41  C   UNL     1       8.701   8.438  -4.201  1.00  0.00     0.074 A 
ATOM     42  C   UNL     1       7.775   7.711  -3.391  1.00  0.00     0.031 C 
ATOM     43  C   UNL     1       4.921   8.574  -9.975  1.00  0.00     0.029 A 
ATOM     44  C   UNL     1       6.328   8.913 -10.062  1.00  0.00     0.049 A 
ATOM     45  H   UNL     1       7.725   8.758  -8.473  1.00  0.00     0.167 HD
ATOM     46  C   UNL     1      10.051   8.621  -4.071  1.00  0.00     0.037 A 
ATOM     47  C   UNL     1       7.030   9.380 -11.146  1.00  0.00     0.037 A 
ATOM     48  C   UNL     1      10.550   9.247  -5.248  1.00  0.00     0.049 A 
ATOM     49  C   UNL     1       8.431   9.377 -10.714  1.00  0.00     0.074 A 
ATOM     50  C   UNL     1      10.377  10.512  -5.744  1.00  0.00     0.029 A 
ATOM     51  N   UNL     1      10.964   8.407  -6.253  1.00  0.00    -0.354 N 
ATOM     52  N   UNL     1       9.150   8.306 -10.559  1.00  0.00    -0.248 NA
ATOM     53  C   UNL     1       9.060  10.653 -10.356  1.00  0.00     0.031 C 
ATOM     54  C   UNL     1      10.177  10.272  -7.115  1.00  0.00     0.029 A 
ATOM     55  C   UNL     1      10.544   8.958  -7.432  1.00  0.00     0.049 A 
ATOM     56  H   UNL     1      11.468   7.568  -6.146  1.00  0.00     0.167 HD
ATOM     57  C   UNL     1      10.162   8.765  -9.755  1.00  0.00     0.074 A 
ATOM     58  C   UNL     1      10.242  10.198  -9.953  1.00  0.00     0.031 C 
ATOM     59  C   UNL     1      10.403   8.111  -8.590  1.00  0.00     0.037 A 
BRANCH  46  60
ATOM     60  C   UNL     1      11.093   8.075  -3.133  1.00  0.00     0.064 A 
ATOM     61  C   UNL     1      12.364   8.711  -3.116  1.00  0.00     0.173 A 
ATOM     62  C   UNL     1      11.040   6.787  -2.592  1.00  0.00     0.173 A 
ATOM     63  F   UNL     1      12.510   9.968  -3.567  1.00  0.00    -0.203 F 
ATOM     64  C   UNL     1      13.524   8.038  -2.741  1.00  0.00     0.198 A 
ATOM     65  C   UNL     1      12.203   6.134  -2.166  1.00  0.00     0.198 A 
ATOM     66  F   UNL     1       9.895   6.094  -2.566  1.00  0.00    -0.203 F 
ATOM     67  F   UNL     1      14.720   8.625  -2.899  1.00  0.00    -0.200 F 
ATOM     68  C   UNL     1      13.444   6.739  -2.284  1.00  0.00     0.200 A 
ATOM     69  F   UNL     1      12.123   4.874  -1.716  1.00  0.00    -0.200 F 
ATOM     70  F   UNL     1      14.561   6.058  -1.995  1.00  0.00    -0.200 F 
ENDBRANCH  46  60
BRANCH  47  71
ATOM     71  C   UNL     1       6.785   9.928 -12.542  1.00  0.00     0.064 A 
ATOM     72  C   UNL     1       5.556   9.996 -13.204  1.00  0.00     0.173 A 
ATOM     73  C   UNL     1       7.855  10.557 -13.252  1.00  0.00     0.173 A 
ATOM     74  F   UNL     1       4.485   9.345 -12.740  1.00  0.00    -0.203 F 
ATOM     75  C   UNL     1       5.387  10.741 -14.391  1.00  0.00     0.198 A 
ATOM     76  C   UNL     1       7.678  11.350 -14.385  1.00  0.00     0.198 A 
ATOM     77  F   UNL     1       9.132  10.435 -12.864  1.00  0.00    -0.203 F 
ATOM     78  F   UNL     1       4.187  10.781 -14.986  1.00  0.00    -0.200 F 
ATOM     79  C   UNL     1       6.433  11.459 -14.948  1.00  0.00     0.200 A 
ATOM     80  F   UNL     1       8.721  12.019 -14.898  1.00  0.00    -0.200 F 
ATOM     81  F   UNL     1       6.248  12.235 -16.024  1.00  0.00    -0.200 F 
ENDBRANCH  47  71
BRANCH  59  82
ATOM     82  C   UNL     1      10.075   6.629  -8.619  1.00  0.00     0.064 A 
ATOM     83  C   UNL     1      10.672   5.808  -9.593  1.00  0.00     0.173 A 
ATOM     84  C   UNL     1       9.119   6.005  -7.801  1.00  0.00     0.173 A 
ATOM     85  F   UNL     1      11.622   6.310 -10.398  1.00  0.00    -0.203 F 
ATOM     86  C   UNL     1      10.312   4.467  -9.757  1.00  0.00     0.198 A 
ATOM     87  C   UNL     1       8.759   4.662  -7.957  1.00  0.00     0.198 A 
ATOM     88  F   UNL     1       8.515   6.678  -6.823  1.00  0.00    -0.203 F 
ATOM     89  F   UNL     1      10.906   3.727 -10.703  1.00  0.00    -0.200 F 
ATOM     90  C   UNL     1       9.353   3.895  -8.941  1.00  0.00     0.200 A 
ATOM     91  F   UNL     1       7.842   4.113  -7.145  1.00  0.00    -0.200 F 
ATOM     92  F   UNL     1       9.018   2.604  -9.086  1.00  0.00    -0.200 F 
ENDBRANCH  59  82
ENDBRANCH  33  34
ENDBRANCH  25  28
ENDBRANCH  23  24
ENDBRANCH  22  23
ENDBRANCH  21  22
ENDBRANCH  20  21
ENDBRANCH   1  20
TORSDOF 17
