REMARK SMILES O=C(NCCCCCCNC(=O)[C@@H]1Nc2ccc(NC(=O)c3ccccc3)cc2[C@@H]2C=CC[C@H]12)c1ccc(-c2c3nc(c(-c4c(F)c(F)c(F)c(F)c4F)c4ccc([nH]4)c(-c4c(F)c(F)c(F)c(F)c4F)c4nc(c(-c5c(F)c(F)c(F)c(F)c5F)c5ccc2[nH]5)C=C4)C=C3)cc1
REMARK SMILES IDX 6 1 5 2 4 3 3 4 1 5 2 6 35 8 36 9 97 10 37 11 96 12 38 13
REMARK SMILES IDX 39 14 40 15 90 16 41 17 95 18 89 19 91 20 42 21 94 22 88 23
REMARK SMILES IDX 87 24 43 26 75 27 55 28 74 29 56 30 59 31 73 32 92 33 57 34
REMARK SMILES IDX 58 35 72 37 93 38 60 39 44 40 45 41 53 42 46 43 47 44 51 45
REMARK SMILES IDX 54 46 48 47 49 48 52 49 50 50 76 51 77 52 85 53 78 54 79 55
REMARK SMILES IDX 83 56 86 57 80 58 81 59 84 60 82 61 61 62 62 63 70 64 63 65
REMARK SMILES IDX 64 66 68 67 71 68 65 69 66 70 69 71 67 72 7 73 8 74 9 75
REMARK SMILES IDX 10 76 11 77 12 79 13 80 14 81 34 82 15 83 30 85 33 86 16 87
REMARK SMILES IDX 29 88 31 89 32 90 17 91 28 92 18 93 19 94 20 95 21 97 22 98
REMARK SMILES IDX 23 99 27 100 24 101 26 102 25 103
REMARK H PARENT 3 7 91 25 59 36 10 78 14 84 19 96
REMARK Flexibility Score: inf
ROOT
ATOM      1  C   UNL     1       6.242  -8.424   5.262  1.00  0.00     0.002 C 
ENDROOT
BRANCH   1   2
ATOM      2  C   UNL     1       4.774  -8.293   5.671  1.00  0.00     0.021 C 
BRANCH   2   3
ATOM      3  C   UNL     1       3.795  -8.323   4.505  1.00  0.00     0.116 C 
BRANCH   3   4
ATOM      4  N   UNL     1       3.830  -9.597   3.806  1.00  0.00    -0.352 N 
ATOM      5  O   UNL     1       3.083 -11.643   3.215  1.00  0.00    -0.269 OA
ATOM      6  C   UNL     1       2.829 -10.515   3.635  1.00  0.00     0.251 C 
ATOM      7  H   UNL     1       4.695  -9.833   3.398  1.00  0.00     0.163 HD
BRANCH   6   8
ATOM      8  C   UNL     1       1.439 -10.150   3.969  1.00  0.00     0.039 A 
ATOM      9  C   UNL     1       0.904  -8.927   3.552  1.00  0.00     0.014 A 
ATOM     10  C   UNL     1       0.655 -11.058   4.684  1.00  0.00     0.014 A 
ATOM     11  C   UNL     1      -0.380  -8.564   3.943  1.00  0.00     0.010 A 
ATOM     12  C   UNL     1      -0.659 -10.723   5.011  1.00  0.00     0.010 A 
ATOM     13  C   UNL     1      -1.179  -9.467   4.658  1.00  0.00    -0.014 A 
BRANCH  13  14
ATOM     14  C   UNL     1      -2.586  -9.128   4.979  1.00  0.00     0.031 A 
ATOM     15  C   UNL     1      -3.034  -8.989   6.402  1.00  0.00     0.074 A 
ATOM     16  C   UNL     1      -3.469  -9.000   3.972  1.00  0.00     0.049 A 
ATOM     17  N   UNL     1      -4.241  -8.809   6.876  1.00  0.00    -0.248 NA
ATOM     18  C   UNL     1      -1.989  -9.076   7.432  1.00  0.00     0.031 C 
ATOM     19  C   UNL     1      -3.144  -9.121   2.550  1.00  0.00     0.029 A 
ATOM     20  N   UNL     1      -4.820  -8.764   3.988  1.00  0.00    -0.354 N 
ATOM     21  C   UNL     1      -4.107  -8.787   8.257  1.00  0.00     0.074 A 
ATOM     22  C   UNL     1      -2.703  -8.997   8.546  1.00  0.00     0.031 C 
ATOM     23  C   UNL     1      -4.263  -8.962   1.830  1.00  0.00     0.029 A 
ATOM     24  C   UNL     1      -5.391  -8.795   2.740  1.00  0.00     0.049 A 
ATOM     25  H   UNL     1      -5.329  -8.591   4.812  1.00  0.00     0.167 HD
ATOM     26  C   UNL     1      -5.070  -8.606   9.193  1.00  0.00     0.037 A 
ATOM     27  C   UNL     1      -6.683  -8.741   2.369  1.00  0.00     0.037 A 
ATOM     28  C   UNL     1      -6.463  -8.401   8.886  1.00  0.00     0.049 A 
ATOM     29  C   UNL     1      -7.740  -8.588   3.423  1.00  0.00     0.074 A 
ATOM     30  C   UNL     1      -7.512  -8.160   9.756  1.00  0.00     0.029 A 
ATOM     31  N   UNL     1      -7.004  -8.434   7.607  1.00  0.00    -0.354 N 
ATOM     32  N   UNL     1      -7.601  -8.520   4.725  1.00  0.00    -0.248 NA
ATOM     33  C   UNL     1      -9.132  -8.501   2.962  1.00  0.00     0.031 C 
ATOM     34  C   UNL     1      -8.695  -8.116   9.011  1.00  0.00     0.029 A 
ATOM     35  C   UNL     1      -8.377  -8.254   7.669  1.00  0.00     0.049 A 
ATOM     36  H   UNL     1      -6.489  -8.566   6.779  1.00  0.00     0.167 HD
ATOM     37  C   UNL     1      -8.880  -8.355   5.238  1.00  0.00     0.074 A 
ATOM     38  C   UNL     1      -9.783  -8.332   4.105  1.00  0.00     0.031 C 
ATOM     39  C   UNL     1      -9.265  -8.226   6.531  1.00  0.00     0.037 A 
BRANCH  26  40
ATOM     40  C   UNL     1      -4.654  -8.668  10.637  1.00  0.00     0.064 A 
ATOM     41  C   UNL     1      -3.830  -7.692  11.217  1.00  0.00     0.173 A 
ATOM     42  C   UNL     1      -5.095  -9.720  11.455  1.00  0.00     0.173 A 
ATOM     43  F   UNL     1      -3.374  -6.667  10.481  1.00  0.00    -0.203 F 
ATOM     44  C   UNL     1      -3.424  -7.793  12.546  1.00  0.00     0.198 A 
ATOM     45  C   UNL     1      -4.716  -9.798  12.793  1.00  0.00     0.198 A 
ATOM     46  F   UNL     1      -5.894 -10.676  10.958  1.00  0.00    -0.203 F 
ATOM     47  F   UNL     1      -2.579  -6.886  13.057  1.00  0.00    -0.200 F 
ATOM     48  C   UNL     1      -3.870  -8.843  13.334  1.00  0.00     0.200 A 
ATOM     49  F   UNL     1      -5.162 -10.806  13.556  1.00  0.00    -0.200 F 
ATOM     50  F   UNL     1      -3.474  -8.941  14.610  1.00  0.00    -0.200 F 
ENDBRANCH  26  40
BRANCH  27  51
ATOM     51  C   UNL     1      -7.023  -8.853   0.928  1.00  0.00     0.064 A 
ATOM     52  C   UNL     1      -7.482  -7.745   0.206  1.00  0.00     0.173 A 
ATOM     53  C   UNL     1      -6.831 -10.056   0.231  1.00  0.00     0.173 A 
ATOM     54  F   UNL     1      -7.693  -6.578   0.832  1.00  0.00    -0.203 F 
ATOM     55  C   UNL     1      -7.737  -7.835  -1.161  1.00  0.00     0.198 A 
ATOM     56  C   UNL     1      -7.059 -10.137  -1.140  1.00  0.00     0.198 A 
ATOM     57  F   UNL     1      -6.381 -11.142   0.877  1.00  0.00    -0.203 F 
ATOM     58  F   UNL     1      -8.197  -6.767  -1.826  1.00  0.00    -0.200 F 
ATOM     59  C   UNL     1      -7.515  -9.028  -1.835  1.00  0.00     0.200 A 
ATOM     60  F   UNL     1      -6.820 -11.284  -1.790  1.00  0.00    -0.200 F 
ATOM     61  F   UNL     1      -7.739  -9.107  -3.153  1.00  0.00    -0.200 F 
ENDBRANCH  27  51
BRANCH  39  62
ATOM     62  C   UNL     1     -10.723  -7.998   6.803  1.00  0.00     0.064 A 
ATOM     63  C   UNL     1     -11.670  -9.024   6.674  1.00  0.00     0.173 A 
ATOM     64  C   UNL     1     -11.162  -6.754   7.282  1.00  0.00     0.173 A 
ATOM     65  F   UNL     1     -11.305 -10.226   6.204  1.00  0.00    -0.203 F 
ATOM     66  C   UNL     1     -13.005  -8.809   7.009  1.00  0.00     0.198 A 
ATOM     67  C   UNL     1     -12.491  -6.553   7.645  1.00  0.00     0.198 A 
ATOM     68  F   UNL     1     -10.294  -5.741   7.426  1.00  0.00    -0.203 F 
ATOM     69  F   UNL     1     -13.900  -9.794   6.851  1.00  0.00    -0.200 F 
ATOM     70  C   UNL     1     -13.411  -7.579   7.506  1.00  0.00     0.200 A 
ATOM     71  F   UNL     1     -12.876  -5.368   8.139  1.00  0.00    -0.200 F 
ATOM     72  F   UNL     1     -14.691  -7.383   7.851  1.00  0.00    -0.200 F 
ENDBRANCH  39  62
ENDBRANCH  13  14
ENDBRANCH   6   8
ENDBRANCH   3   4
ENDBRANCH   2   3
ENDBRANCH   1   2
BRANCH   1  73
ATOM     73  C   UNL     1       6.731  -7.368   4.265  1.00  0.00     0.002 C 
BRANCH  73  74
ATOM     74  C   UNL     1       6.486  -5.915   4.688  1.00  0.00     0.021 C 
BRANCH  74  75
ATOM     75  C   UNL     1       7.048  -5.561   6.063  1.00  0.00     0.116 C 
BRANCH  75  76
ATOM     76  N   UNL     1       8.494  -5.671   6.082  1.00  0.00    -0.354 N 
ATOM     77  C   UNL     1       9.453  -4.717   6.256  1.00  0.00     0.242 C 
ATOM     78  H   UNL     1       8.840  -6.583   5.947  1.00  0.00     0.163 HD
ATOM     79  O   UNL     1      10.628  -5.062   6.105  1.00  0.00    -0.273 OA
BRANCH  77  80
ATOM     80  C   UNL     1       9.055  -3.271   6.590  1.00  0.00     0.173 C 
ATOM     81  N   UNL     1       9.448  -2.372   5.517  1.00  0.00    -0.373 N 
ATOM     82  C   UNL     1       9.649  -2.808   7.912  1.00  0.00     0.036 C 
ATOM     83  C   UNL     1       9.333  -1.013   5.721  1.00  0.00     0.039 A 
ATOM     84  H   UNL     1       9.789  -2.726   4.664  1.00  0.00     0.161 HD
ATOM     85  C   UNL     1       9.204  -1.361   8.227  1.00  0.00     0.050 C 
ATOM     86  C   UNL     1      11.184  -2.789   7.995  1.00  0.00     0.034 C 
ATOM     87  C   UNL     1       9.429  -0.148   4.640  1.00  0.00     0.028 A 
ATOM     88  C   UNL     1       9.081  -0.479   6.997  1.00  0.00    -0.015 A 
ATOM     89  C   UNL     1      10.331  -0.924   9.129  1.00  0.00    -0.023 C 
ATOM     90  C   UNL     1      11.414  -1.699   8.993  1.00  0.00    -0.030 C 
ATOM     91  C   UNL     1       9.192   1.217   4.799  1.00  0.00     0.028 A 
ATOM     92  C   UNL     1       8.756   0.886   7.128  1.00  0.00     0.032 A 
ATOM     93  C   UNL     1       8.755   1.733   6.016  1.00  0.00     0.041 A 
BRANCH  93  94
ATOM     94  N   UNL     1       8.325   3.062   6.209  1.00  0.00    -0.322 N 
ATOM     95  C   UNL     1       7.990   4.065   5.322  1.00  0.00     0.255 C 
ATOM     96  H   UNL     1       8.249   3.324   7.155  1.00  0.00     0.170 HD
ATOM     97  O   UNL     1       7.777   5.206   5.729  1.00  0.00    -0.269 OA
BRANCH  95  98
ATOM     98  C   UNL     1       7.849   3.796   3.879  1.00  0.00     0.040 A 
ATOM     99  C   UNL     1       8.704   4.459   2.993  1.00  0.00     0.014 A 
ATOM    100  C   UNL     1       6.941   2.836   3.412  1.00  0.00     0.014 A 
ATOM    101  C   UNL     1       8.712   4.095   1.647  1.00  0.00     0.001 A 
ATOM    102  C   UNL     1       6.963   2.470   2.066  1.00  0.00     0.001 A 
ATOM    103  C   UNL     1       7.857   3.088   1.189  1.00  0.00     0.000 A 
ENDBRANCH  95  98
ENDBRANCH  93  94
ENDBRANCH  77  80
ENDBRANCH  75  76
ENDBRANCH  74  75
ENDBRANCH  73  74
ENDBRANCH   1  73
TORSDOF 15
