REMARK SMILES O=C(CC1=c2ccccc2=NC1)NCCCCCCNC(=O)c1ccc(-c2c3nc(c(-c4c(F)c(F)c(F)c(F)c4F)c4ccc([nH]4)c(-c4c(F)c(F)c(F)c(F)c4F)c4nc(c(-c5c(F)c(F)c(F)c(F)c5F)c5ccc2[nH]5)C=C4)C=C3)cc1
REMARK SMILES IDX 17 1 16 2 15 3 14 4 13 5 1 6 2 7 3 9 4 10 5 11 12 12 6 13
REMARK SMILES IDX 10 14 11 15 7 16 9 17 8 18 18 19 19 20 20 21 21 22 22 24
REMARK SMILES IDX 23 25 24 26 85 27 25 28 84 29 26 30 27 31 28 32 78 33 29 34
REMARK SMILES IDX 83 35 77 36 79 37 30 38 82 39 76 40 75 41 31 43 63 44 43 45
REMARK SMILES IDX 62 46 44 47 47 48 61 49 80 50 45 51 46 52 60 54 81 55 48 56
REMARK SMILES IDX 32 57 33 58 41 59 34 60 35 61 39 62 42 63 36 64 37 65 40 66
REMARK SMILES IDX 38 67 64 68 65 69 73 70 66 71 67 72 71 73 74 74 68 75 69 76
REMARK SMILES IDX 72 77 70 78 49 79 50 80 58 81 51 82 52 83 56 84 59 85 53 86
REMARK SMILES IDX 54 87 57 88 55 89
REMARK H PARENT 13 8 20 23 79 42 47 53
REMARK Flexibility Score: inf
ROOT
ATOM      1  C   UNL     1       4.722   1.944   3.780  1.00  0.00     0.002 C 
ENDROOT
BRANCH   1   2
ATOM      2  C   UNL     1       4.260   0.484   3.779  1.00  0.00     0.002 C 
BRANCH   2   3
ATOM      3  C   UNL     1       2.754   0.256   3.599  1.00  0.00     0.021 C 
BRANCH   3   4
ATOM      4  C   UNL     1       2.155   0.858   2.332  1.00  0.00     0.116 C 
BRANCH   4   5
ATOM      5  N   UNL     1       2.798   0.359   1.136  1.00  0.00    -0.356 N 
ATOM      6  O   UNL     1       0.897  -0.452   0.127  1.00  0.00    -0.275 OA
ATOM      7  C   UNL     1       2.102  -0.222   0.097  1.00  0.00     0.224 C 
ATOM      8  H   UNL     1       3.776   0.437   1.061  1.00  0.00     0.163 HD
BRANCH   7   9
ATOM      9  C   UNL     1       2.968  -0.560  -1.112  1.00  0.00     0.133 C 
BRANCH   9  10
ATOM     10  C   UNL     1       3.655   0.615  -1.740  1.00  0.00    -0.030 C 
ATOM     11  C   UNL     1       3.372   1.917  -1.715  1.00  0.00     0.001 A 
ATOM     12  C   UNL     1       4.904   0.369  -2.536  1.00  0.00     0.175 C 
ATOM     13  C   UNL     1       2.340   2.735  -1.158  1.00  0.00     0.010 A 
ATOM     14  C   UNL     1       4.499   2.510  -2.458  1.00  0.00     0.065 A 
ATOM     15  N   UNL     1       5.393   1.705  -2.943  1.00  0.00    -0.280 NA
ATOM     16  C   UNL     1       2.427   4.069  -1.287  1.00  0.00     0.001 A 
ATOM     17  C   UNL     1       4.523   3.985  -2.561  1.00  0.00     0.028 A 
ATOM     18  C   UNL     1       3.535   4.693  -1.987  1.00  0.00     0.002 A 
ENDBRANCH   9  10
ENDBRANCH   7   9
ENDBRANCH   4   5
ENDBRANCH   3   4
ENDBRANCH   2   3
ENDBRANCH   1   2
BRANCH   1  19
ATOM     19  C   UNL     1       4.049   2.853   4.809  1.00  0.00     0.021 C 
BRANCH  19  20
ATOM     20  C   UNL     1       4.121   2.375   6.255  1.00  0.00     0.116 C 
BRANCH  20  21
ATOM     21  N   UNL     1       5.476   2.314   6.779  1.00  0.00    -0.352 N 
ATOM     22  C   UNL     1       5.954   2.723   8.003  1.00  0.00     0.251 C 
ATOM     23  H   UNL     1       6.147   1.925   6.172  1.00  0.00     0.163 HD
ATOM     24  O   UNL     1       7.157   2.688   8.242  1.00  0.00    -0.269 OA
BRANCH  22  25
ATOM     25  C   UNL     1       5.017   3.250   9.022  1.00  0.00     0.039 A 
ATOM     26  C   UNL     1       3.806   2.607   9.286  1.00  0.00     0.014 A 
ATOM     27  C   UNL     1       5.349   4.423   9.707  1.00  0.00     0.014 A 
ATOM     28  C   UNL     1       2.861   3.224  10.099  1.00  0.00     0.010 A 
ATOM     29  C   UNL     1       4.429   5.000  10.589  1.00  0.00     0.010 A 
ATOM     30  C   UNL     1       3.156   4.433  10.752  1.00  0.00    -0.014 A 
BRANCH  30  31
ATOM     31  C   UNL     1       2.111   5.081  11.586  1.00  0.00     0.031 A 
ATOM     32  C   UNL     1       1.510   6.401  11.184  1.00  0.00     0.074 A 
ATOM     33  C   UNL     1       1.647   4.438  12.675  1.00  0.00     0.049 A 
ATOM     34  N   UNL     1       0.541   7.075  11.754  1.00  0.00    -0.248 NA
ATOM     35  C   UNL     1       2.066   7.054   9.989  1.00  0.00     0.031 C 
ATOM     36  C   UNL     1       2.147   3.152  13.165  1.00  0.00     0.029 A 
ATOM     37  N   UNL     1       0.635   4.755  13.545  1.00  0.00    -0.354 N 
ATOM     38  C   UNL     1       0.382   8.229  10.998  1.00  0.00     0.074 A 
ATOM     39  C   UNL     1       1.374   8.184   9.946  1.00  0.00     0.031 C 
ATOM     40  C   UNL     1       1.399   2.759  14.206  1.00  0.00     0.029 A 
ATOM     41  C   UNL     1       0.403   3.788  14.492  1.00  0.00     0.049 A 
ATOM     42  H   UNL     1       0.123   5.595  13.495  1.00  0.00     0.167 HD
ATOM     43  C   UNL     1      -0.520   9.227  11.159  1.00  0.00     0.037 A 
ATOM     44  C   UNL     1      -0.509   3.733  15.480  1.00  0.00     0.037 A 
ATOM     45  C   UNL     1      -1.524   9.260  12.190  1.00  0.00     0.049 A 
ATOM     46  C   UNL     1      -1.476   4.869  15.655  1.00  0.00     0.074 A 
ATOM     47  C   UNL     1      -2.499  10.217  12.413  1.00  0.00     0.029 A 
ATOM     48  N   UNL     1      -1.684   8.291  13.169  1.00  0.00    -0.354 N 
ATOM     49  N   UNL     1      -1.624   5.946  14.924  1.00  0.00    -0.248 NA
ATOM     50  C   UNL     1      -2.395   4.787  16.799  1.00  0.00     0.031 C 
ATOM     51  C   UNL     1      -3.225   9.847  13.549  1.00  0.00     0.029 A 
ATOM     52  C   UNL     1      -2.728   8.639  14.011  1.00  0.00     0.049 A 
ATOM     53  H   UNL     1      -1.137   7.477  13.253  1.00  0.00     0.167 HD
ATOM     54  C   UNL     1      -2.655   6.665  15.510  1.00  0.00     0.074 A 
ATOM     55  C   UNL     1      -3.111   5.894  16.648  1.00  0.00     0.031 C 
ATOM     56  C   UNL     1      -3.171   7.862  15.140  1.00  0.00     0.037 A 
BRANCH  43  57
ATOM     57  C   UNL     1      -0.472  10.377  10.196  1.00  0.00     0.064 A 
ATOM     58  C   UNL     1      -0.925  10.246   8.875  1.00  0.00     0.173 A 
ATOM     59  C   UNL     1      -0.037  11.642  10.619  1.00  0.00     0.173 A 
ATOM     60  F   UNL     1      -1.341   9.055   8.419  1.00  0.00    -0.203 F 
ATOM     61  C   UNL     1      -0.932  11.337   8.009  1.00  0.00     0.198 A 
ATOM     62  C   UNL     1      -0.068  12.736   9.758  1.00  0.00     0.198 A 
ATOM     63  F   UNL     1       0.398  11.822  11.875  1.00  0.00    -0.203 F 
ATOM     64  F   UNL     1      -1.342  11.183   6.743  1.00  0.00    -0.200 F 
ATOM     65  C   UNL     1      -0.512  12.582   8.454  1.00  0.00     0.200 A 
ATOM     66  F   UNL     1       0.326  13.941  10.193  1.00  0.00    -0.200 F 
ATOM     67  F   UNL     1      -0.534  13.634   7.623  1.00  0.00    -0.200 F 
ENDBRANCH  43  57
BRANCH  44  68
ATOM     68  C   UNL     1      -0.555   2.542  16.365  1.00  0.00     0.064 A 
ATOM     69  C   UNL     1      -1.612   1.626  16.281  1.00  0.00     0.173 A 
ATOM     70  C   UNL     1       0.473   2.274  17.281  1.00  0.00     0.173 A 
ATOM     71  F   UNL     1      -2.627   1.851  15.433  1.00  0.00    -0.203 F 
ATOM     72  C   UNL     1      -1.639   0.485  17.080  1.00  0.00     0.198 A 
ATOM     73  C   UNL     1       0.458   1.120  18.061  1.00  0.00     0.198 A 
ATOM     74  F   UNL     1       1.507   3.120  17.396  1.00  0.00    -0.203 F 
ATOM     75  F   UNL     1      -2.672  -0.364  16.997  1.00  0.00    -0.200 F 
ATOM     76  C   UNL     1      -0.600   0.228  17.962  1.00  0.00     0.200 A 
ATOM     77  F   UNL     1       1.471   0.868  18.900  1.00  0.00    -0.200 F 
ATOM     78  F   UNL     1      -0.618  -0.878  18.718  1.00  0.00    -0.200 F 
ENDBRANCH  44  68
BRANCH  56  79
ATOM     79  C   UNL     1      -4.293   8.417  15.964  1.00  0.00     0.064 A 
ATOM     80  C   UNL     1      -4.058   8.984  17.225  1.00  0.00     0.173 A 
ATOM     81  C   UNL     1      -5.601   8.449  15.459  1.00  0.00     0.173 A 
ATOM     82  F   UNL     1      -2.826   8.964  17.755  1.00  0.00    -0.203 F 
ATOM     83  C   UNL     1      -5.096   9.556  17.955  1.00  0.00     0.198 A 
ATOM     84  C   UNL     1      -6.632   9.043  16.181  1.00  0.00     0.198 A 
ATOM     85  F   UNL     1      -5.873   7.925  14.254  1.00  0.00    -0.203 F 
ATOM     86  F   UNL     1      -4.856  10.069  19.169  1.00  0.00    -0.200 F 
ATOM     87  C   UNL     1      -6.379   9.594  17.428  1.00  0.00     0.200 A 
ATOM     88  F   UNL     1      -7.868   9.089  15.666  1.00  0.00    -0.200 F 
ATOM     89  F   UNL     1      -7.374  10.159  18.126  1.00  0.00    -0.200 F 
ENDBRANCH  56  79
ENDBRANCH  30  31
ENDBRANCH  22  25
ENDBRANCH  20  21
ENDBRANCH  19  20
ENDBRANCH   1  19
TORSDOF 14
