REMARK SMILES CC(C)C[NH2+][C@@H](CC(=O)Nc1cccc(Cl)c1)C(=O)NCCCCCCNC(=O)c1ccc(-c2c3nc(c(-c4c(F)c(F)c(F)c(F)c4F)c4ccc([nH]4)c(-c4c(F)c(F)c(F)c(F)c4F)c4nc(c(-c5c(F)c(F)c(F)c(F)c5F)c5ccc2[nH]5)C=C4)C=C3)cc1
REMARK SMILES IDX 23 1 22 2 21 3 20 4 18 5 19 6 6 8 5 9 4 12 2 13 1 14 3 15
REMARK SMILES IDX 7 16 8 17 9 18 10 19 11 21 12 22 17 23 13 24 15 25 14 26
REMARK SMILES IDX 16 27 24 28 25 29 26 30 27 31 28 32 29 34 30 35 31 36 92 37
REMARK SMILES IDX 32 38 91 39 33 40 34 41 35 42 85 43 36 44 90 45 84 46 86 47
REMARK SMILES IDX 37 48 89 49 83 50 82 51 38 53 70 54 50 55 69 56 51 57 54 58
REMARK SMILES IDX 68 59 87 60 52 61 53 62 67 64 88 65 55 66 39 67 40 68 48 69
REMARK SMILES IDX 41 70 42 71 46 72 49 73 43 74 44 75 47 76 45 77 71 78 72 79
REMARK SMILES IDX 80 80 73 81 74 82 78 83 81 84 75 85 76 86 79 87 77 88 56 89
REMARK SMILES IDX 57 90 65 91 58 92 59 93 63 94 66 95 60 96 61 97 64 98 62 99
REMARK H PARENT 20 7 5 10 5 11 10 20 27 33 86 52 54 63
REMARK Flexibility Score: inf
ROOT
ATOM      1  C   UNL     1      -1.880   3.040  -4.511  1.00  0.00     0.002 C 
ENDROOT
BRANCH   1   2
ATOM      2  C   UNL     1      -1.494   2.022  -3.449  1.00  0.00     0.021 C 
BRANCH   2   3
ATOM      3  C   UNL     1      -2.627   1.609  -2.518  1.00  0.00     0.116 C 
BRANCH   3   4
ATOM      4  N   UNL     1      -3.452   0.514  -2.954  1.00  0.00    -0.351 N 
ATOM      5  C   UNL     1      -3.962  -0.526  -2.224  1.00  0.00     0.278 C 
ATOM      6  O   UNL     1      -4.742  -1.279  -2.821  1.00  0.00    -0.268 OA
ATOM      7  H   UNL     1      -3.682   0.513  -3.912  1.00  0.00     0.163 HD
BRANCH   5   8
ATOM      8  C   UNL     1      -3.551  -0.852  -0.743  1.00  0.00     0.281 C 
BRANCH   8   9
ATOM      9  N   UNL     1      -2.267  -1.541  -0.730  1.00  0.00    -0.335 N 
ATOM     10  H   UNL     1      -2.434  -2.478  -1.097  1.00  0.00     0.346 HD
ATOM     11  H   UNL     1      -1.667  -0.919  -1.272  1.00  0.00     0.346 HD
BRANCH   9  12
ATOM     12  C   UNL     1      -1.529  -1.705   0.521  1.00  0.00     0.264 C 
BRANCH  12  13
ATOM     13  C   UNL     1       0.271  -1.423   0.582  1.00  0.00     0.038 C 
ATOM     14  C   UNL     1       1.439   0.282  -0.156  1.00  0.00     0.013 C 
ATOM     15  C   UNL     1       0.394  -2.260   2.100  1.00  0.00     0.013 C 
ENDBRANCH  12  13
ENDBRANCH   9  12
ENDBRANCH   8   9
BRANCH   8  16
ATOM     16  C   UNL     1      -3.805   0.255   0.268  1.00  0.00     0.175 C 
BRANCH  16  17
ATOM     17  C   UNL     1      -2.914   1.471   0.456  1.00  0.00     0.230 C 
ATOM     18  O   UNL     1      -3.461   2.572   0.624  1.00  0.00    -0.274 OA
ATOM     19  N   UNL     1      -1.563   1.458   0.616  1.00  0.00    -0.326 N 
ATOM     20  H   UNL     1      -1.222   2.304   0.988  1.00  0.00     0.169 HD
BRANCH  19  21
ATOM     21  C   UNL     1      -0.539   0.527   0.379  1.00  0.00     0.042 A 
ATOM     22  C   UNL     1      -0.201  -0.349  -1.185  1.00  0.00     0.026 A 
ATOM     23  C   UNL     1       0.611   0.353   1.749  1.00  0.00     0.046 A 
ATOM     24  C   UNL     1       1.255  -1.408  -1.353  1.00  0.00     0.004 A 
ATOM     25  C   UNL     1       2.077  -0.663   1.558  1.00  0.00     0.043 A 
ATOM     26  C   UNL     1       2.371  -1.591   0.042  1.00  0.00     0.020 A 
ATOM     27  Cl  UNL     1       3.293  -0.614   2.778  1.00  0.00    -0.084 Cl
ENDBRANCH  19  21
ENDBRANCH  16  17
ENDBRANCH   8  16
ENDBRANCH   5   8
ENDBRANCH   3   4
ENDBRANCH   2   3
ENDBRANCH   1   2
BRANCH   1  28
ATOM     28  C   UNL     1      -2.509   4.327  -3.969  1.00  0.00     0.002 C 
BRANCH  28  29
ATOM     29  C   UNL     1      -1.668   5.099  -2.947  1.00  0.00     0.021 C 
BRANCH  29  30
ATOM     30  C   UNL     1      -0.281   5.507  -3.434  1.00  0.00     0.116 C 
BRANCH  30  31
ATOM     31  N   UNL     1      -0.341   6.279  -4.666  1.00  0.00    -0.352 N 
ATOM     32  C   UNL     1       0.148   7.526  -4.950  1.00  0.00     0.251 C 
ATOM     33  H   UNL     1      -0.805   5.835  -5.412  1.00  0.00     0.163 HD
ATOM     34  O   UNL     1      -0.196   8.100  -5.979  1.00  0.00    -0.269 OA
BRANCH  32  35
ATOM     35  C   UNL     1       1.088   8.187  -4.022  1.00  0.00     0.039 A 
ATOM     36  C   UNL     1       0.963   9.560  -3.800  1.00  0.00     0.014 A 
ATOM     37  C   UNL     1       2.115   7.468  -3.403  1.00  0.00     0.014 A 
ATOM     38  C   UNL     1       1.845  10.204  -2.931  1.00  0.00     0.010 A 
ATOM     39  C   UNL     1       2.933   8.092  -2.467  1.00  0.00     0.010 A 
ATOM     40  C   UNL     1       2.822   9.471  -2.237  1.00  0.00    -0.014 A 
BRANCH  40  41
ATOM     41  C   UNL     1       3.753  10.141  -1.294  1.00  0.00     0.031 A 
ATOM     42  C   UNL     1       5.234  10.136  -1.562  1.00  0.00     0.074 A 
ATOM     43  C   UNL     1       3.269  10.726  -0.181  1.00  0.00     0.049 A 
ATOM     44  N   UNL     1       6.208  10.641  -0.846  1.00  0.00    -0.248 NA
ATOM     45  C   UNL     1       5.686   9.452  -2.784  1.00  0.00     0.031 C 
ATOM     46  C   UNL     1       1.859  10.762   0.209  1.00  0.00     0.029 A 
ATOM     47  N   UNL     1       3.910  11.401   0.827  1.00  0.00    -0.354 N 
ATOM     48  C   UNL     1       7.378  10.331  -1.526  1.00  0.00     0.074 A 
ATOM     49  C   UNL     1       7.003   9.534  -2.673  1.00  0.00     0.031 C 
ATOM     50  C   UNL     1       1.737  11.455   1.352  1.00  0.00     0.029 A 
ATOM     51  C   UNL     1       3.063  11.869   1.802  1.00  0.00     0.049 A 
ATOM     52  H   UNL     1       4.885  11.538   0.850  1.00  0.00     0.167 HD
ATOM     53  C   UNL     1       8.649  10.701  -1.238  1.00  0.00     0.037 A 
ATOM     54  C   UNL     1       3.327  12.548   2.934  1.00  0.00     0.037 A 
ATOM     55  C   UNL     1       9.016  11.502  -0.099  1.00  0.00     0.049 A 
ATOM     56  C   UNL     1       4.754  12.915   3.250  1.00  0.00     0.074 A 
ATOM     57  C   UNL     1      10.269  11.964   0.263  1.00  0.00     0.029 A 
ATOM     58  N   UNL     1       8.130  11.953   0.869  1.00  0.00    -0.354 N 
ATOM     59  N   UNL     1       5.845  12.670   2.566  1.00  0.00    -0.248 NA
ATOM     60  C   UNL     1       4.982  13.663   4.493  1.00  0.00     0.031 C 
ATOM     61  C   UNL     1      10.153  12.633   1.485  1.00  0.00     0.029 A 
ATOM     62  C   UNL     1       8.815  12.664   1.842  1.00  0.00     0.049 A 
ATOM     63  H   UNL     1       7.159  11.791   0.866  1.00  0.00     0.167 HD
ATOM     64  C   UNL     1       6.881  13.272   3.270  1.00  0.00     0.074 A 
ATOM     65  C   UNL     1       6.283  13.904   4.427  1.00  0.00     0.031 C 
ATOM     66  C   UNL     1       8.206  13.301   2.983  1.00  0.00     0.037 A 
BRANCH  53  67
ATOM     67  C   UNL     1       9.739  10.241  -2.166  1.00  0.00     0.064 A 
ATOM     68  C   UNL     1       9.834  10.709  -3.486  1.00  0.00     0.173 A 
ATOM     69  C   UNL     1      10.726   9.349  -1.718  1.00  0.00     0.173 A 
ATOM     70  F   UNL     1       8.912  11.555  -3.972  1.00  0.00    -0.203 F 
ATOM     71  C   UNL     1      10.854  10.277  -4.330  1.00  0.00     0.198 A 
ATOM     72  C   UNL     1      11.766   8.950  -2.552  1.00  0.00     0.198 A 
ATOM     73  F   UNL     1      10.689   8.873  -0.464  1.00  0.00    -0.203 F 
ATOM     74  F   UNL     1      10.889  10.693  -5.604  1.00  0.00    -0.200 F 
ATOM     75  C   UNL     1      11.824   9.405  -3.860  1.00  0.00     0.200 A 
ATOM     76  F   UNL     1      12.713   8.122  -2.090  1.00  0.00    -0.200 F 
ATOM     77  F   UNL     1      12.812   8.999  -4.670  1.00  0.00    -0.200 F 
ENDBRANCH  53  67
BRANCH  54  78
ATOM     78  C   UNL     1       2.221  12.942   3.848  1.00  0.00     0.064 A 
ATOM     79  C   UNL     1       1.903  14.291   4.062  1.00  0.00     0.173 A 
ATOM     80  C   UNL     1       1.480  11.981   4.553  1.00  0.00     0.173 A 
ATOM     81  F   UNL     1       2.592  15.251   3.426  1.00  0.00    -0.203 F 
ATOM     82  C   UNL     1       0.915  14.665   4.971  1.00  0.00     0.198 A 
ATOM     83  C   UNL     1       0.466  12.355   5.432  1.00  0.00     0.198 A 
ATOM     84  F   UNL     1       1.736  10.676   4.382  1.00  0.00    -0.203 F 
ATOM     85  F   UNL     1       0.681  15.963   5.206  1.00  0.00    -0.200 F 
ATOM     86  C   UNL     1       0.194  13.696   5.652  1.00  0.00     0.200 A 
ATOM     87  F   UNL     1      -0.241  11.414   6.073  1.00  0.00    -0.200 F 
ATOM     88  F   UNL     1      -0.753  14.055   6.529  1.00  0.00    -0.200 F 
ENDBRANCH  54  78
BRANCH  66  89
ATOM     89  C   UNL     1       9.094  14.101   3.896  1.00  0.00     0.064 A 
ATOM     90  C   UNL     1       9.340  13.719   5.224  1.00  0.00     0.173 A 
ATOM     91  C   UNL     1       9.729  15.260   3.422  1.00  0.00     0.173 A 
ATOM     92  F   UNL     1       8.753  12.625   5.733  1.00  0.00    -0.203 F 
ATOM     93  C   UNL     1      10.150  14.491   6.053  1.00  0.00     0.198 A 
ATOM     94  C   UNL     1      10.573  16.005   4.241  1.00  0.00     0.198 A 
ATOM     95  F   UNL     1       9.540  15.667   2.158  1.00  0.00    -0.203 F 
ATOM     96  F   UNL     1      10.312  14.145   7.338  1.00  0.00    -0.200 F 
ATOM     97  C   UNL     1      10.771  15.628   5.559  1.00  0.00     0.200 A 
ATOM     98  F   UNL     1      11.190  17.090   3.753  1.00  0.00    -0.200 F 
ATOM     99  F   UNL     1      11.554  16.367   6.358  1.00  0.00    -0.200 F 
ENDBRANCH  66  89
ENDBRANCH  40  41
ENDBRANCH  32  35
ENDBRANCH  30  31
ENDBRANCH  29  30
ENDBRANCH  28  29
ENDBRANCH   1  28
TORSDOF 19
