REMARK SMILES CCCn1cc(S(=O)(=O)N[C@H]2C=C[C@@H](C(=O)NCCCCCCNC(=O)c3ccc(-c4c5nc(c(-c6c(F)c(F)c(F)c(F)c6F)c6ccc([nH]6)c(-c6c(F)c(F)c(F)c(F)c6F)c6nc(c(-c7c(F)c(F)c(F)c(F)c7F)c7ccc4[nH]7)C=C6)C=C5)cc3)C2)nc1C
REMARK SMILES IDX 19 1 18 2 17 3 15 4 16 5 14 7 11 8 12 9 90 10 13 11 10 12
REMARK SMILES IDX 7 14 8 15 9 16 6 17 4 18 5 19 92 20 91 21 93 22 3 23 2 24
REMARK SMILES IDX 1 25 20 26 21 27 22 28 23 29 24 30 25 31 26 33 27 34 28 35
REMARK SMILES IDX 89 36 29 37 88 38 30 39 31 40 32 41 82 42 33 43 87 44 81 45
REMARK SMILES IDX 83 46 34 47 86 48 80 49 79 50 35 52 67 53 47 54 66 55 48 56
REMARK SMILES IDX 51 57 65 58 84 59 49 60 50 61 64 63 85 64 52 65 36 66 37 67
REMARK SMILES IDX 45 68 38 69 39 70 43 71 46 72 40 73 41 74 44 75 42 76 68 77
REMARK SMILES IDX 69 78 77 79 70 80 71 81 75 82 78 83 72 84 73 85 76 86 74 87
REMARK SMILES IDX 53 88 54 89 62 90 55 91 56 92 60 93 63 94 57 95 58 96 61 97
REMARK SMILES IDX 59 98
REMARK H PARENT 17 6 10 13 24 32 83 51 51 62
REMARK Flexibility Score: inf
ROOT
ATOM      1  C   UNL     1      -5.096  -1.264   6.568  1.00  0.00     0.021 C 
ENDROOT
BRANCH   1   2
ATOM      2  C   UNL     1      -4.128  -1.259   7.747  1.00  0.00     0.116 C 
BRANCH   2   3
ATOM      3  N   UNL     1      -3.428  -2.522   7.870  1.00  0.00    -0.356 N 
ATOM      4  C   UNL     1      -2.097  -2.797   7.934  1.00  0.00     0.226 C 
ATOM      5  O   UNL     1      -1.768  -3.983   8.037  1.00  0.00    -0.274 OA
ATOM      6  H   UNL     1      -4.013  -3.312   7.914  1.00  0.00     0.163 HD
BRANCH   4   7
ATOM      7  C   UNL     1      -1.026  -1.706   7.877  1.00  0.00     0.103 C 
ATOM      8  C   UNL     1      -0.812   0.568   6.961  1.00  0.00     0.093 C 
ATOM      9  C   UNL     1      -1.051   0.574   8.437  1.00  0.00    -0.011 C 
ATOM     10  C   UNL     1      -1.001  -0.909   6.571  1.00  0.00     0.042 C 
ATOM     11  C   UNL     1      -1.165  -0.660   8.940  1.00  0.00    -0.016 C 
BRANCH   8  12
ATOM     12  N   UNL     1      -1.844   1.376   6.300  1.00  0.00    -0.203 NA
ATOM     13  H   UNL     1      -2.423   0.748   5.742  1.00  0.00     0.142 HD
BRANCH  12  14
ATOM     14  S   UNL     1      -1.283   2.610   5.277  1.00  0.00     0.260 S 
ATOM     15  O   UNL     1      -0.373   3.410   6.060  1.00  0.00    -0.205 OA
ATOM     16  O   UNL     1      -2.459   3.170   4.641  1.00  0.00    -0.205 OA
BRANCH  14  17
ATOM     17  C   UNL     1      -0.339   1.913   3.986  1.00  0.00     0.188 A 
ATOM     18  N   UNL     1       0.601   0.475   2.631  1.00  0.00    -0.334 N 
ATOM     19  C   UNL     1      -0.439   0.621   3.514  1.00  0.00     0.129 A 
ATOM     20  C   UNL     1       1.219   1.701   2.507  1.00  0.00     0.107 A 
ATOM     21  N   UNL     1       0.677   2.578   3.331  1.00  0.00    -0.221 NA
ATOM     22  C   UNL     1       2.337   2.009   1.579  1.00  0.00     0.088 C 
BRANCH  18  23
ATOM     23  C   UNL     1       1.042  -0.801   2.097  1.00  0.00     0.123 C 
BRANCH  23  24
ATOM     24  C   UNL     1       0.416  -1.200   0.765  1.00  0.00     0.018 C 
ATOM     25  C   UNL     1       0.881  -0.348  -0.405  1.00  0.00     0.006 C 
ENDBRANCH  23  24
ENDBRANCH  18  23
ENDBRANCH  14  17
ENDBRANCH  12  14
ENDBRANCH   8  12
ENDBRANCH   4   7
ENDBRANCH   2   3
ENDBRANCH   1   2
BRANCH   1  26
ATOM     26  C   UNL     1      -6.291  -2.208   6.734  1.00  0.00     0.002 C 
BRANCH  26  27
ATOM     27  C   UNL     1      -7.101  -2.049   8.031  1.00  0.00     0.002 C 
BRANCH  27  28
ATOM     28  C   UNL     1      -7.588  -0.633   8.375  1.00  0.00     0.021 C 
BRANCH  28  29
ATOM     29  C   UNL     1      -8.560  -0.055   7.364  1.00  0.00     0.116 C 
BRANCH  29  30
ATOM     30  N   UNL     1      -9.846  -0.762   7.327  1.00  0.00    -0.352 N 
ATOM     31  C   UNL     1     -10.932  -0.510   6.502  1.00  0.00     0.251 C 
ATOM     32  H   UNL     1      -9.951  -1.505   7.965  1.00  0.00     0.163 HD
ATOM     33  O   UNL     1     -12.059  -0.899   6.779  1.00  0.00    -0.269 OA
BRANCH  31  34
ATOM     34  C   UNL     1     -10.681   0.227   5.254  1.00  0.00     0.039 A 
ATOM     35  C   UNL     1     -11.523   1.230   4.766  1.00  0.00     0.014 A 
ATOM     36  C   UNL     1      -9.492  -0.080   4.609  1.00  0.00     0.014 A 
ATOM     37  C   UNL     1     -11.107   1.956   3.651  1.00  0.00     0.010 A 
ATOM     38  C   UNL     1      -8.968   0.813   3.728  1.00  0.00     0.010 A 
ATOM     39  C   UNL     1      -9.815   1.739   3.146  1.00  0.00    -0.014 A 
BRANCH  39  40
ATOM     40  C   UNL     1      -9.271   2.470   2.013  1.00  0.00     0.031 A 
ATOM     41  C   UNL     1      -9.258   3.948   2.165  1.00  0.00     0.074 A 
ATOM     42  C   UNL     1      -8.617   1.829   1.016  1.00  0.00     0.049 A 
ATOM     43  N   UNL     1      -9.891   4.820   1.454  1.00  0.00    -0.248 NA
ATOM     44  C   UNL     1      -8.555   4.522   3.324  1.00  0.00     0.031 C 
ATOM     45  C   UNL     1      -8.270   0.402   0.891  1.00  0.00     0.029 A 
ATOM     46  N   UNL     1      -8.031   2.359  -0.087  1.00  0.00    -0.354 N 
ATOM     47  C   UNL     1      -9.542   6.068   1.965  1.00  0.00     0.074 A 
ATOM     48  C   UNL     1      -8.846   5.818   3.200  1.00  0.00     0.031 C 
ATOM     49  C   UNL     1      -7.350   0.234  -0.085  1.00  0.00     0.029 A 
ATOM     50  C   UNL     1      -7.191   1.495  -0.778  1.00  0.00     0.049 A 
ATOM     51  H   UNL     1      -8.190   3.287  -0.376  1.00  0.00     0.167 HD
ATOM     52  C   UNL     1      -9.688   7.199   1.220  1.00  0.00     0.037 A 
ATOM     53  C   UNL     1      -6.408   1.817  -1.837  1.00  0.00     0.037 A 
ATOM     54  C   UNL     1     -10.555   6.962   0.093  1.00  0.00     0.049 A 
ATOM     55  C   UNL     1      -6.947   3.079  -2.402  1.00  0.00     0.074 A 
ATOM     56  C   UNL     1     -11.889   6.629  -0.041  1.00  0.00     0.029 A 
ATOM     57  N   UNL     1      -9.974   6.658  -1.114  1.00  0.00    -0.354 N 
ATOM     58  N   UNL     1      -8.115   3.165  -2.976  1.00  0.00    -0.248 NA
ATOM     59  C   UNL     1      -6.409   4.325  -1.877  1.00  0.00     0.031 C 
ATOM     60  C   UNL     1     -11.926   5.688  -1.113  1.00  0.00     0.029 A 
ATOM     61  C   UNL     1     -10.632   5.566  -1.624  1.00  0.00     0.049 A 
ATOM     62  H   UNL     1      -9.223   7.135  -1.536  1.00  0.00     0.167 HD
ATOM     63  C   UNL     1      -8.645   4.363  -2.520  1.00  0.00     0.074 A 
ATOM     64  C   UNL     1      -7.523   5.063  -1.894  1.00  0.00     0.031 C 
ATOM     65  C   UNL     1      -9.994   4.548  -2.425  1.00  0.00     0.037 A 
BRANCH  52  66
ATOM     66  C   UNL     1      -8.808   8.421   1.308  1.00  0.00     0.064 A 
ATOM     67  C   UNL     1      -9.152   9.572   0.569  1.00  0.00     0.173 A 
ATOM     68  C   UNL     1      -7.503   8.414   1.846  1.00  0.00     0.173 A 
ATOM     69  F   UNL     1     -10.364   9.686   0.004  1.00  0.00    -0.203 F 
ATOM     70  C   UNL     1      -8.232  10.593   0.318  1.00  0.00     0.198 A 
ATOM     71  C   UNL     1      -6.605   9.460   1.637  1.00  0.00     0.198 A 
ATOM     72  F   UNL     1      -7.008   7.358   2.499  1.00  0.00    -0.203 F 
ATOM     73  F   UNL     1      -8.567  11.606  -0.493  1.00  0.00    -0.200 F 
ATOM     74  C   UNL     1      -6.956  10.532   0.845  1.00  0.00     0.200 A 
ATOM     75  F   UNL     1      -5.367   9.376   2.146  1.00  0.00    -0.200 F 
ATOM     76  F   UNL     1      -6.053  11.477   0.555  1.00  0.00    -0.200 F 
ENDBRANCH  52  66
BRANCH  53  77
ATOM     77  C   UNL     1      -5.041   1.335  -2.136  1.00  0.00     0.064 A 
ATOM     78  C   UNL     1      -4.479   1.489  -3.413  1.00  0.00     0.173 A 
ATOM     79  C   UNL     1      -4.156   0.994  -1.096  1.00  0.00     0.173 A 
ATOM     80  F   UNL     1      -5.250   1.852  -4.448  1.00  0.00    -0.203 F 
ATOM     81  C   UNL     1      -3.104   1.340  -3.632  1.00  0.00     0.198 A 
ATOM     82  C   UNL     1      -2.787   0.852  -1.315  1.00  0.00     0.198 A 
ATOM     83  F   UNL     1      -4.588   0.886   0.168  1.00  0.00    -0.203 F 
ATOM     84  F   UNL     1      -2.593   1.548  -4.853  1.00  0.00    -0.200 F 
ATOM     85  C   UNL     1      -2.257   1.037  -2.579  1.00  0.00     0.200 A 
ATOM     86  F   UNL     1      -1.979   0.598  -0.277  1.00  0.00    -0.200 F 
ATOM     87  F   UNL     1      -0.933   0.961  -2.773  1.00  0.00    -0.200 F 
ENDBRANCH  53  77
BRANCH  65  88
ATOM     88  C   UNL     1     -10.891   3.490  -3.014  1.00  0.00     0.064 A 
ATOM     89  C   UNL     1     -10.973   2.168  -2.537  1.00  0.00     0.173 A 
ATOM     90  C   UNL     1     -11.818   3.873  -3.990  1.00  0.00     0.173 A 
ATOM     91  F   UNL     1     -10.191   1.744  -1.540  1.00  0.00    -0.203 F 
ATOM     92  C   UNL     1     -11.915   1.269  -3.038  1.00  0.00     0.198 A 
ATOM     93  C   UNL     1     -12.780   2.985  -4.464  1.00  0.00     0.198 A 
ATOM     94  F   UNL     1     -11.826   5.135  -4.447  1.00  0.00    -0.203 F 
ATOM     95  F   UNL     1     -11.967   0.015  -2.565  1.00  0.00    -0.200 F 
ATOM     96  C   UNL     1     -12.824   1.682  -3.995  1.00  0.00     0.200 A 
ATOM     97  F   UNL     1     -13.689   3.405  -5.355  1.00  0.00    -0.200 F 
ATOM     98  F   UNL     1     -13.760   0.835  -4.446  1.00  0.00    -0.200 F 
ENDBRANCH  65  88
ENDBRANCH  39  40
ENDBRANCH  31  34
ENDBRANCH  29  30
ENDBRANCH  28  29
ENDBRANCH  27  28
ENDBRANCH  26  27
ENDBRANCH   1  26
TORSDOF 18
