REMARK SMILES Cc1cc2[nH]c(C(=O)NCCCCCCNC(=O)c3ccc(-c4c5nc(c(-c6c(F)c(F)c(F)c(F)c6F)c6ccc([nH]6)c(-c6c(F)c(F)c(F)c(F)c6F)c6nc(c(-c7c(F)c(F)c(F)c(F)c7F)c7ccc4[nH]7)C=C6)C=C5)cc3)c(C=O)c2s1
REMARK SMILES IDX 13 1 12 2 11 3 10 4 9 5 7 6 8 7 6 9 1 10 2 11 3 12 86 13
REMARK SMILES IDX 4 14 85 15 5 16 82 17 83 19 84 20 14 21 15 22 16 23 17 24
REMARK SMILES IDX 18 26 19 27 20 28 81 29 21 30 80 31 22 32 23 33 24 34 74 35
REMARK SMILES IDX 25 36 79 37 73 38 75 39 26 40 78 41 72 42 71 43 27 45 59 46
REMARK SMILES IDX 39 47 58 48 40 49 43 50 57 51 76 52 41 53 42 54 56 56 77 57
REMARK SMILES IDX 44 58 28 59 29 60 37 61 30 62 31 63 35 64 38 65 32 66 33 67
REMARK SMILES IDX 36 68 34 69 60 70 61 71 69 72 62 73 63 74 67 75 70 76 64 77
REMARK SMILES IDX 65 78 68 79 66 80 45 81 46 82 54 83 47 84 48 85 52 86 55 87
REMARK SMILES IDX 49 88 50 89 53 90 51 91
REMARK H PARENT 9 8 5 18 16 25 75 44 43 55
REMARK Flexibility Score: inf
ROOT
ATOM      1  C   UNL     1      -2.780   0.410  10.055  1.00  0.00     0.002 C 
ENDROOT
BRANCH   1   2
ATOM      2  C   UNL     1      -3.768  -0.472   9.273  1.00  0.00     0.002 C 
BRANCH   2   3
ATOM      3  C   UNL     1      -3.601  -0.554   7.759  1.00  0.00     0.021 C 
BRANCH   3   4
ATOM      4  C   UNL     1      -2.194  -0.782   7.232  1.00  0.00     0.116 C 
BRANCH   4   5
ATOM      5  N   UNL     1      -1.715  -2.136   7.170  1.00  0.00    -0.351 N 
ATOM      6  C   UNL     1      -0.870  -2.703   6.242  1.00  0.00     0.268 C 
ATOM      7  O   UNL     1      -0.546  -3.877   6.443  1.00  0.00    -0.268 OA
ATOM      8  H   UNL     1      -2.032  -2.736   7.883  1.00  0.00     0.163 HD
BRANCH   6   9
ATOM      9  C   UNL     1      -0.452  -2.024   5.015  1.00  0.00     0.116 A 
ATOM     10  C   UNL     1       1.307  -0.623  -0.453  1.00  0.00     0.056 C 
ATOM     11  C   UNL     1       0.774  -0.949   0.903  1.00  0.00     0.004 A 
ATOM     12  C   UNL     1       0.702  -2.186   1.520  1.00  0.00     0.041 A 
ATOM     13  S   UNL     1       0.186   0.340   1.872  1.00  0.00    -0.138 S 
ATOM     14  C   UNL     1       0.223  -2.040   2.851  1.00  0.00     0.058 A 
ATOM     15  C   UNL     1      -0.029  -0.754   3.191  1.00  0.00     0.064 A 
ATOM     16  N   UNL     1      -0.027  -2.820   3.951  1.00  0.00    -0.349 N 
ATOM     17  C   UNL     1      -0.324  -0.704   4.580  1.00  0.00     0.063 A 
ATOM     18  H   UNL     1       0.079  -3.798   3.985  1.00  0.00     0.167 HD
BRANCH  17  19
ATOM     19  C   UNL     1      -0.391   0.589   5.213  1.00  0.00     0.263 C 
ATOM     20  O   UNL     1       0.003   0.835   6.348  1.00  0.00    -0.298 OA
ENDBRANCH  17  19
ENDBRANCH   6   9
ENDBRANCH   4   5
ENDBRANCH   3   4
ENDBRANCH   2   3
ENDBRANCH   1   2
BRANCH   1  21
ATOM     21  C   UNL     1      -2.556   1.855   9.582  1.00  0.00     0.021 C 
BRANCH  21  22
ATOM     22  C   UNL     1      -3.802   2.723   9.570  1.00  0.00     0.116 C 
BRANCH  22  23
ATOM     23  N   UNL     1      -4.415   2.881  10.891  1.00  0.00    -0.352 N 
ATOM     24  C   UNL     1      -5.557   3.584  11.239  1.00  0.00     0.251 C 
ATOM     25  H   UNL     1      -3.954   2.425  11.632  1.00  0.00     0.163 HD
ATOM     26  O   UNL     1      -5.772   3.919  12.390  1.00  0.00    -0.269 OA
BRANCH  24  27
ATOM     27  C   UNL     1      -6.527   3.914  10.178  1.00  0.00     0.039 A 
ATOM     28  C   UNL     1      -7.223   5.127  10.153  1.00  0.00     0.014 A 
ATOM     29  C   UNL     1      -6.713   2.969   9.177  1.00  0.00     0.014 A 
ATOM     30  C   UNL     1      -8.057   5.395   9.069  1.00  0.00     0.010 A 
ATOM     31  C   UNL     1      -7.340   3.325   8.020  1.00  0.00     0.010 A 
ATOM     32  C   UNL     1      -8.095   4.486   8.002  1.00  0.00    -0.014 A 
BRANCH  32  33
ATOM     33  C   UNL     1      -8.849   4.747   6.787  1.00  0.00     0.031 A 
ATOM     34  C   UNL     1      -8.450   5.987   6.076  1.00  0.00     0.074 A 
ATOM     35  C   UNL     1      -9.641   3.803   6.231  1.00  0.00     0.049 A 
ATOM     36  N   UNL     1      -9.174   7.033   5.863  1.00  0.00    -0.248 NA
ATOM     37  C   UNL     1      -7.041   6.149   5.678  1.00  0.00     0.031 C 
ATOM     38  C   UNL     1      -9.870   2.419   6.669  1.00  0.00     0.029 A 
ATOM     39  N   UNL     1     -10.326   3.852   5.059  1.00  0.00    -0.354 N 
ATOM     40  C   UNL     1      -8.379   7.910   5.131  1.00  0.00     0.074 A 
ATOM     41  C   UNL     1      -7.036   7.399   5.212  1.00  0.00     0.031 C 
ATOM     42  C   UNL     1     -10.427   1.708   5.664  1.00  0.00     0.029 A 
ATOM     43  C   UNL     1     -10.742   2.613   4.577  1.00  0.00     0.049 A 
ATOM     44  H   UNL     1     -10.514   4.696   4.588  1.00  0.00     0.167 HD
ATOM     45  C   UNL     1      -8.943   8.844   4.316  1.00  0.00     0.037 A 
ATOM     46  C   UNL     1     -11.253   2.373   3.342  1.00  0.00     0.037 A 
ATOM     47  C   UNL     1     -10.339   9.029   4.633  1.00  0.00     0.049 A 
ATOM     48  C   UNL     1     -11.735   3.682   2.818  1.00  0.00     0.074 A 
ATOM     49  C   UNL     1     -11.019   9.396   5.780  1.00  0.00     0.029 A 
ATOM     50  N   UNL     1     -11.274   8.419   3.831  1.00  0.00    -0.354 N 
ATOM     51  N   UNL     1     -12.746   4.331   3.333  1.00  0.00    -0.248 NA
ATOM     52  C   UNL     1     -10.780   4.496   2.079  1.00  0.00     0.031 C 
ATOM     53  C   UNL     1     -12.149   8.527   5.826  1.00  0.00     0.029 A 
ATOM     54  C   UNL     1     -12.148   7.761   4.660  1.00  0.00     0.049 A 
ATOM     55  H   UNL     1     -11.310   8.448   2.847  1.00  0.00     0.167 HD
ATOM     56  C   UNL     1     -12.336   5.656   3.361  1.00  0.00     0.074 A 
ATOM     57  C   UNL     1     -11.138   5.705   2.523  1.00  0.00     0.031 C 
ATOM     58  C   UNL     1     -12.808   6.528   4.301  1.00  0.00     0.037 A 
BRANCH  45  59
ATOM     59  C   UNL     1      -8.350   9.307   3.009  1.00  0.00     0.064 A 
ATOM     60  C   UNL     1      -8.966  10.371   2.319  1.00  0.00     0.173 A 
ATOM     61  C   UNL     1      -7.402   8.570   2.266  1.00  0.00     0.173 A 
ATOM     62  F   UNL     1      -9.895  11.129   2.921  1.00  0.00    -0.203 F 
ATOM     63  C   UNL     1      -8.713  10.619   0.968  1.00  0.00     0.198 A 
ATOM     64  C   UNL     1      -7.112   8.856   0.934  1.00  0.00     0.198 A 
ATOM     65  F   UNL     1      -6.804   7.477   2.753  1.00  0.00    -0.203 F 
ATOM     66  F   UNL     1      -9.421  11.555   0.321  1.00  0.00    -0.200 F 
ATOM     67  C   UNL     1      -7.792   9.857   0.274  1.00  0.00     0.200 A 
ATOM     68  F   UNL     1      -6.229   8.093   0.275  1.00  0.00    -0.200 F 
ATOM     69  F   UNL     1      -7.595  10.050  -1.036  1.00  0.00    -0.200 F 
ENDBRANCH  45  59
BRANCH  46  70
ATOM     70  C   UNL     1     -11.050   1.184   2.476  1.00  0.00     0.064 A 
ATOM     71  C   UNL     1     -11.825   0.986   1.320  1.00  0.00     0.173 A 
ATOM     72  C   UNL     1      -9.912   0.361   2.606  1.00  0.00     0.173 A 
ATOM     73  F   UNL     1     -12.900   1.753   1.091  1.00  0.00    -0.203 F 
ATOM     74  C   UNL     1     -11.469   0.045   0.345  1.00  0.00     0.198 A 
ATOM     75  C   UNL     1      -9.562  -0.581   1.636  1.00  0.00     0.198 A 
ATOM     76  F   UNL     1      -9.061   0.516   3.630  1.00  0.00    -0.203 F 
ATOM     77  F   UNL     1     -12.199  -0.069  -0.774  1.00  0.00    -0.200 F 
ATOM     78  C   UNL     1     -10.331  -0.729   0.498  1.00  0.00     0.200 A 
ATOM     79  F   UNL     1      -8.438  -1.297   1.782  1.00  0.00    -0.200 F 
ATOM     80  F   UNL     1      -9.954  -1.583  -0.463  1.00  0.00    -0.200 F 
ENDBRANCH  46  70
BRANCH  58  81
ATOM     81  C   UNL     1     -13.944   6.091   5.186  1.00  0.00     0.064 A 
ATOM     82  C   UNL     1     -13.882   5.000   6.073  1.00  0.00     0.173 A 
ATOM     83  C   UNL     1     -15.072   6.918   5.271  1.00  0.00     0.173 A 
ATOM     84  F   UNL     1     -12.798   4.220   6.135  1.00  0.00    -0.203 F 
ATOM     85  C   UNL     1     -14.916   4.734   6.971  1.00  0.00     0.198 A 
ATOM     86  C   UNL     1     -16.085   6.673   6.194  1.00  0.00     0.198 A 
ATOM     87  F   UNL     1     -15.164   8.007   4.492  1.00  0.00    -0.203 F 
ATOM     88  F   UNL     1     -14.832   3.683   7.802  1.00  0.00    -0.200 F 
ATOM     89  C   UNL     1     -16.012   5.576   7.036  1.00  0.00     0.200 A 
ATOM     90  F   UNL     1     -17.117   7.522   6.288  1.00  0.00    -0.200 F 
ATOM     91  F   UNL     1     -16.985   5.348   7.930  1.00  0.00    -0.200 F 
ENDBRANCH  58  81
ENDBRANCH  32  33
ENDBRANCH  24  27
ENDBRANCH  22  23
ENDBRANCH  21  22
ENDBRANCH   1  21
TORSDOF 14
