REMARK SMILES CCCC[C@H](C(=O)OC)[C@H](O)C(=O)NCCCCCCNC(=O)c1ccc(-c2c3nc(c(-c4c(F)c(F)c(F)c(F)c4F)c4ccc([nH]4)c(-c4c(F)c(F)c(F)c(F)c4F)c4nc(c(-c5c(F)c(F)c(F)c(F)c5F)c5ccc2[nH]5)C=C4)C=C3)cc1
REMARK SMILES IDX 16 1 15 2 14 3 12 4 13 5 10 7 5 8 4 9 3 10 2 11 1 12 6 13
REMARK SMILES IDX 7 14 8 15 9 16 11 17 17 19 18 20 19 21 20 22 21 23 22 24
REMARK SMILES IDX 23 26 24 27 25 28 86 29 26 30 85 31 27 32 28 33 29 34 79 35
REMARK SMILES IDX 30 36 84 37 78 38 80 39 31 40 83 41 77 42 76 43 32 45 64 46
REMARK SMILES IDX 44 47 63 48 45 49 48 50 62 51 81 52 46 53 47 54 61 56 82 57
REMARK SMILES IDX 49 58 33 59 34 60 42 61 35 62 36 63 40 64 43 65 37 66 38 67
REMARK SMILES IDX 41 68 39 69 65 70 66 71 74 72 67 73 68 74 72 75 75 76 69 77
REMARK SMILES IDX 70 78 73 79 71 80 50 81 51 82 59 83 52 84 53 85 57 86 60 87
REMARK SMILES IDX 54 88 55 89 58 90 56 91
REMARK H PARENT 14 6 11 18 21 25 80 44 48 55
REMARK Flexibility Score: inf
ROOT
ATOM      1  C   UNL     1      -3.916  -0.582  -0.021  1.00  0.00     0.021 C 
ENDROOT
BRANCH   1   2
ATOM      2  C   UNL     1      -3.113  -0.105   1.180  1.00  0.00     0.116 C 
BRANCH   2   3
ATOM      3  N   UNL     1      -3.587  -0.616   2.447  1.00  0.00    -0.354 N 
ATOM      4  C   UNL     1      -2.869  -0.966   3.550  1.00  0.00     0.249 C 
ATOM      5  O   UNL     1      -3.485  -1.160   4.602  1.00  0.00    -0.272 OA
ATOM      6  H   UNL     1      -4.563  -0.726   2.522  1.00  0.00     0.163 HD
BRANCH   4   7
ATOM      7  C   UNL     1      -1.340  -1.188   3.487  1.00  0.00     0.217 C 
BRANCH   7   8
ATOM      8  C   UNL     1      -0.455   0.047   3.728  1.00  0.00     0.137 C 
BRANCH   8   9
ATOM      9  C   UNL     1      -0.804   0.818   5.018  1.00  0.00     0.018 C 
BRANCH   9  10
ATOM     10  C   UNL     1       0.402   1.501   5.690  1.00  0.00     0.001 C 
BRANCH  10  11
ATOM     11  C   UNL     1       1.262   2.422   4.820  1.00  0.00    -0.003 C 
ATOM     12  C   UNL     1       0.570   3.712   4.409  1.00  0.00     0.004 C 
ENDBRANCH  10  11
ENDBRANCH   9  10
ENDBRANCH   8   9
BRANCH   8  13
ATOM     13  C   UNL     1      -0.473   0.988   2.542  1.00  0.00     0.311 C 
ATOM     14  O   UNL     1      -1.302   1.873   2.367  1.00  0.00    -0.252 OA
BRANCH  13  15
ATOM     15  O   UNL     1       0.580   0.753   1.712  1.00  0.00    -0.469 OA
ATOM     16  C   UNL     1       0.681   1.666   0.618  1.00  0.00     0.282 C 
ENDBRANCH  13  15
ENDBRANCH   8  13
ENDBRANCH   7   8
BRANCH   7  17
ATOM     17  O   UNL     1      -0.906  -1.914   2.340  1.00  0.00    -0.382 OA
ATOM     18  H   UNL     1      -1.036  -1.372   1.546  1.00  0.00     0.211 HD
ENDBRANCH   7  17
ENDBRANCH   4   7
ENDBRANCH   2   3
ENDBRANCH   1   2
BRANCH   1  19
ATOM     19  C   UNL     1      -5.373  -0.115  -0.059  1.00  0.00     0.002 C 
BRANCH  19  20
ATOM     20  C   UNL     1      -5.611   1.385   0.147  1.00  0.00     0.002 C 
BRANCH  20  21
ATOM     21  C   UNL     1      -4.809   2.328  -0.753  1.00  0.00     0.021 C 
BRANCH  21  22
ATOM     22  C   UNL     1      -4.926   2.059  -2.248  1.00  0.00     0.116 C 
BRANCH  22  23
ATOM     23  N   UNL     1      -6.289   2.175  -2.736  1.00  0.00    -0.352 N 
ATOM     24  C   UNL     1      -6.766   2.879  -3.812  1.00  0.00     0.251 C 
ATOM     25  H   UNL     1      -6.966   1.678  -2.222  1.00  0.00     0.163 HD
ATOM     26  O   UNL     1      -7.975   2.985  -4.001  1.00  0.00    -0.269 OA
BRANCH  24  27
ATOM     27  C   UNL     1      -5.818   3.537  -4.736  1.00  0.00     0.039 A 
ATOM     28  C   UNL     1      -6.049   4.862  -5.111  1.00  0.00     0.014 A 
ATOM     29  C   UNL     1      -4.701   2.852  -5.221  1.00  0.00     0.014 A 
ATOM     30  C   UNL     1      -5.124   5.523  -5.924  1.00  0.00     0.010 A 
ATOM     31  C   UNL     1      -3.746   3.532  -5.971  1.00  0.00     0.010 A 
ATOM     32  C   UNL     1      -3.948   4.874  -6.331  1.00  0.00    -0.014 A 
BRANCH  32  33
ATOM     33  C   UNL     1      -2.916   5.570  -7.143  1.00  0.00     0.031 A 
ATOM     34  C   UNL     1      -2.598   5.078  -8.528  1.00  0.00     0.074 A 
ATOM     35  C   UNL     1      -2.211   6.585  -6.605  1.00  0.00     0.049 A 
ATOM     36  N   UNL     1      -1.652   5.462  -9.347  1.00  0.00    -0.248 NA
ATOM     37  C   UNL     1      -3.438   3.988  -9.053  1.00  0.00     0.031 C 
ATOM     38  C   UNL     1      -2.402   7.131  -5.260  1.00  0.00     0.029 A 
ATOM     39  N   UNL     1      -1.176   7.327  -7.119  1.00  0.00    -0.354 N 
ATOM     40  C   UNL     1      -1.766   4.646 -10.465  1.00  0.00     0.074 A 
ATOM     41  C   UNL     1      -2.846   3.720 -10.208  1.00  0.00     0.031 C 
ATOM     42  C   UNL     1      -1.522   8.126  -5.059  1.00  0.00     0.029 A 
ATOM     43  C   UNL     1      -0.676   8.259  -6.241  1.00  0.00     0.049 A 
ATOM     44  H   UNL     1      -0.825   7.204  -8.030  1.00  0.00     0.167 HD
ATOM     45  C   UNL     1      -1.042   4.679 -11.609  1.00  0.00     0.037 A 
ATOM     46  C   UNL     1       0.362   9.110  -6.369  1.00  0.00     0.037 A 
ATOM     47  C   UNL     1       0.000   5.633 -11.879  1.00  0.00     0.049 A 
ATOM     48  C   UNL     1       1.151   9.115  -7.653  1.00  0.00     0.074 A 
ATOM     49  C   UNL     1       0.734   5.800 -13.041  1.00  0.00     0.029 A 
ATOM     50  N   UNL     1       0.458   6.580 -10.976  1.00  0.00    -0.354 N 
ATOM     51  N   UNL     1       0.984   8.391  -8.732  1.00  0.00    -0.248 NA
ATOM     52  C   UNL     1       2.274  10.061  -7.737  1.00  0.00     0.031 C 
ATOM     53  C   UNL     1       1.673   6.810 -12.822  1.00  0.00     0.029 A 
ATOM     54  C   UNL     1       1.484   7.315 -11.546  1.00  0.00     0.049 A 
ATOM     55  H   UNL     1       0.105   6.711 -10.066  1.00  0.00     0.167 HD
ATOM     56  C   UNL     1       1.946   8.823  -9.635  1.00  0.00     0.074 A 
ATOM     57  C   UNL     1       2.690   9.878  -8.982  1.00  0.00     0.031 C 
ATOM     58  C   UNL     1       2.192   8.385 -10.894  1.00  0.00     0.037 A 
BRANCH  45  59
ATOM     59  C   UNL     1      -1.345   3.660 -12.668  1.00  0.00     0.064 A 
ATOM     60  C   UNL     1      -2.520   3.713 -13.430  1.00  0.00     0.173 A 
ATOM     61  C   UNL     1      -0.404   2.666 -12.980  1.00  0.00     0.173 A 
ATOM     62  F   UNL     1      -3.456   4.638 -13.165  1.00  0.00    -0.203 F 
ATOM     63  C   UNL     1      -2.749   2.802 -14.458  1.00  0.00     0.198 A 
ATOM     64  C   UNL     1      -0.622   1.775 -14.027  1.00  0.00     0.198 A 
ATOM     65  F   UNL     1       0.740   2.575 -12.284  1.00  0.00    -0.203 F 
ATOM     66  F   UNL     1      -3.893   2.852 -15.154  1.00  0.00    -0.200 F 
ATOM     67  C   UNL     1      -1.795   1.842 -14.763  1.00  0.00     0.200 A 
ATOM     68  F   UNL     1       0.308   0.859 -14.330  1.00  0.00    -0.200 F 
ATOM     69  F   UNL     1      -2.007   0.980 -15.767  1.00  0.00    -0.200 F 
ENDBRANCH  45  59
BRANCH  46  70
ATOM     70  C   UNL     1       0.726  10.032  -5.259  1.00  0.00     0.064 A 
ATOM     71  C   UNL     1       0.599  11.421  -5.406  1.00  0.00     0.173 A 
ATOM     72  C   UNL     1       1.258   9.553  -4.053  1.00  0.00     0.173 A 
ATOM     73  F   UNL     1       0.116  11.931  -6.549  1.00  0.00    -0.203 F 
ATOM     74  C   UNL     1       1.027  12.295  -4.409  1.00  0.00     0.198 A 
ATOM     75  C   UNL     1       1.654  10.426  -3.042  1.00  0.00     0.198 A 
ATOM     76  F   UNL     1       1.399   8.233  -3.857  1.00  0.00    -0.203 F 
ATOM     77  F   UNL     1       0.960  13.618  -4.607  1.00  0.00    -0.200 F 
ATOM     78  C   UNL     1       1.553  11.797  -3.227  1.00  0.00     0.200 A 
ATOM     79  F   UNL     1       2.149   9.940  -1.896  1.00  0.00    -0.200 F 
ATOM     80  F   UNL     1       1.975  12.637  -2.272  1.00  0.00    -0.200 F 
ENDBRANCH  46  70
BRANCH  58  81
ATOM     81  C   UNL     1       3.265   9.085 -11.677  1.00  0.00     0.064 A 
ATOM     82  C   UNL     1       4.625   8.924 -11.376  1.00  0.00     0.173 A 
ATOM     83  C   UNL     1       2.925   9.880 -12.782  1.00  0.00     0.173 A 
ATOM     84  F   UNL     1       5.001   8.186 -10.321  1.00  0.00    -0.203 F 
ATOM     85  C   UNL     1       5.604   9.552 -12.141  1.00  0.00     0.198 A 
ATOM     86  C   UNL     1       3.907  10.479 -13.564  1.00  0.00     0.198 A 
ATOM     87  F   UNL     1       1.638  10.058 -13.117  1.00  0.00    -0.203 F 
ATOM     88  F   UNL     1       6.896   9.421 -11.810  1.00  0.00    -0.200 F 
ATOM     89  C   UNL     1       5.246  10.320 -13.240  1.00  0.00     0.200 A 
ATOM     90  F   UNL     1       3.559  11.205 -14.635  1.00  0.00    -0.200 F 
ATOM     91  F   UNL     1       6.191  10.911 -13.983  1.00  0.00    -0.200 F 
ENDBRANCH  58  81
ENDBRANCH  32  33
ENDBRANCH  24  27
ENDBRANCH  22  23
ENDBRANCH  21  22
ENDBRANCH  20  21
ENDBRANCH  19  20
ENDBRANCH   1  19
TORSDOF 20
