REMARK SMILES CC(C)N(CC(F)(F)F)C(=O)N(CC(=O)NCCCCCCNC(=O)c1ccc(-c2c3nc(c(-c4c(F)c(F)c(F)c(F)c4F)c4ccc([nH]4)c(-c4c(F)c(F)c(F)c(F)c4F)c4nc(c(-c5c(F)c(F)c(F)c(F)c5F)c5ccc2[nH]5)C=C4)C=C3)cc1)C(C)(C)C
REMARK SMILES IDX 18 1 17 2 16 3 14 4 15 5 13 7 12 8 10 9 11 10 4 11 2 12 1 13
REMARK SMILES IDX 3 14 5 15 6 16 7 17 8 18 9 19 89 20 90 21 91 22 92 23 19 24
REMARK SMILES IDX 20 25 21 26 22 27 23 28 24 29 25 31 26 32 27 33 88 34 28 35
REMARK SMILES IDX 87 36 29 37 30 38 31 39 81 40 32 41 86 42 80 43 82 44 33 45
REMARK SMILES IDX 85 46 79 47 78 48 34 50 66 51 46 52 65 53 47 54 50 55 64 56
REMARK SMILES IDX 83 57 48 58 49 59 63 61 84 62 51 63 35 64 36 65 44 66 37 67
REMARK SMILES IDX 38 68 42 69 45 70 39 71 40 72 43 73 41 74 67 75 68 76 76 77
REMARK SMILES IDX 69 78 70 79 74 80 77 81 71 82 72 83 75 84 73 85 52 86 53 87
REMARK SMILES IDX 61 88 54 89 55 90 59 91 62 92 56 93 57 94 60 95 58 96
REMARK H PARENT 16 6 23 30 82 49 50 60
REMARK Flexibility Score: inf
ROOT
ATOM      1  C   UNL     1      -2.648  -2.152  -4.727  1.00  0.00     0.021 C 
ENDROOT
BRANCH   1   2
ATOM      2  C   UNL     1      -2.918  -0.808  -4.066  1.00  0.00     0.116 C 
BRANCH   2   3
ATOM      3  N   UNL     1      -4.320  -0.604  -3.782  1.00  0.00    -0.355 N 
ATOM      4  C   UNL     1      -4.926  -0.118  -2.667  1.00  0.00     0.239 C 
ATOM      5  O   UNL     1      -6.109   0.224  -2.775  1.00  0.00    -0.273 OA
ATOM      6  H   UNL     1      -4.932  -0.855  -4.511  1.00  0.00     0.163 HD
BRANCH   4   7
ATOM      7  C   UNL     1      -4.158   0.176  -1.367  1.00  0.00     0.221 C 
BRANCH   7   8
ATOM      8  N   UNL     1      -3.209  -0.810  -0.825  1.00  0.00    -0.311 N 
BRANCH   8   9
ATOM      9  C   UNL     1      -1.816  -0.730  -0.817  1.00  0.00     0.321 C 
ATOM     10  O   UNL     1      -1.171  -1.747  -0.538  1.00  0.00    -0.248 OA
BRANCH   9  11
ATOM     11  N   UNL     1      -1.089   0.406  -1.151  1.00  0.00    -0.313 N 
BRANCH  11  12
ATOM     12  C   UNL     1       0.394   0.250  -1.288  1.00  0.00     0.081 C 
ATOM     13  C   UNL     1       1.086  -0.009   0.056  1.00  0.00     0.031 C 
ATOM     14  C   UNL     1       0.829  -0.745  -2.369  1.00  0.00     0.031 C 
ENDBRANCH  11  12
BRANCH  11  15
ATOM     15  C   UNL     1      -1.509   1.828  -1.240  1.00  0.00     0.237 C 
BRANCH  15  16
ATOM     16  C   UNL     1      -1.656   2.393  -2.668  1.00  0.00     0.406 C 
ATOM     17  F   UNL     1      -2.826   2.056  -3.247  1.00  0.00    -0.169 F 
ATOM     18  F   UNL     1      -1.599   3.745  -2.649  1.00  0.00    -0.169 F 
ATOM     19  F   UNL     1      -0.668   1.964  -3.487  1.00  0.00    -0.169 F 
ENDBRANCH  15  16
ENDBRANCH  11  15
ENDBRANCH   9  11
ENDBRANCH   8   9
BRANCH   8  20
ATOM     20  C   UNL     1      -3.835  -2.130  -0.348  1.00  0.00     0.037 C 
ATOM     21  C   UNL     1      -3.516  -3.289  -1.319  1.00  0.00     0.034 C 
ATOM     22  C   UNL     1      -3.360  -2.493   1.082  1.00  0.00     0.034 C 
ATOM     23  C   UNL     1      -5.389  -2.107  -0.244  1.00  0.00     0.034 C 
ENDBRANCH   8  20
ENDBRANCH   7   8
ENDBRANCH   4   7
ENDBRANCH   2   3
ENDBRANCH   1   2
BRANCH   1  24
ATOM     24  C   UNL     1      -3.215  -2.269  -6.142  1.00  0.00     0.002 C 
BRANCH  24  25
ATOM     25  C   UNL     1      -2.655  -1.249  -7.136  1.00  0.00     0.002 C 
BRANCH  25  26
ATOM     26  C   UNL     1      -1.128  -1.223  -7.237  1.00  0.00     0.021 C 
BRANCH  26  27
ATOM     27  C   UNL     1      -0.484  -2.581  -7.494  1.00  0.00     0.116 C 
BRANCH  27  28
ATOM     28  N   UNL     1      -0.976  -3.200  -8.713  1.00  0.00    -0.352 N 
ATOM     29  C   UNL     1      -0.269  -3.735  -9.759  1.00  0.00     0.251 C 
ATOM     30  H   UNL     1      -1.955  -3.241  -8.800  1.00  0.00     0.163 HD
ATOM     31  O   UNL     1      -0.837  -4.058 -10.794  1.00  0.00    -0.269 OA
BRANCH  29  32
ATOM     32  C   UNL     1       1.193  -3.900  -9.634  1.00  0.00     0.039 A 
ATOM     33  C   UNL     1       2.008  -3.480 -10.687  1.00  0.00     0.014 A 
ATOM     34  C   UNL     1       1.754  -4.463  -8.484  1.00  0.00     0.014 A 
ATOM     35  C   UNL     1       3.394  -3.574 -10.563  1.00  0.00     0.010 A 
ATOM     36  C   UNL     1       3.136  -4.488  -8.332  1.00  0.00     0.010 A 
ATOM     37  C   UNL     1       3.970  -4.049  -9.372  1.00  0.00    -0.014 A 
BRANCH  37  38
ATOM     38  C   UNL     1       5.442  -4.094  -9.200  1.00  0.00     0.031 A 
ATOM     39  C   UNL     1       6.143  -5.414  -9.034  1.00  0.00     0.074 A 
ATOM     40  C   UNL     1       6.140  -2.943  -9.143  1.00  0.00     0.049 A 
ATOM     41  N   UNL     1       7.411  -5.656  -8.820  1.00  0.00    -0.248 NA
ATOM     42  C   UNL     1       5.303  -6.621  -9.091  1.00  0.00     0.031 C 
ATOM     43  C   UNL     1       5.567  -1.601  -9.253  1.00  0.00     0.029 A 
ATOM     44  N   UNL     1       7.483  -2.718  -8.973  1.00  0.00    -0.354 N 
ATOM     45  C   UNL     1       7.518  -7.035  -8.705  1.00  0.00     0.074 A 
ATOM     46  C   UNL     1       6.181  -7.575  -8.819  1.00  0.00     0.031 C 
ATOM     47  C   UNL     1       6.553  -0.694  -9.179  1.00  0.00     0.029 A 
ATOM     48  C   UNL     1       7.822  -1.387  -8.974  1.00  0.00     0.049 A 
ATOM     49  H   UNL     1       8.141  -3.441  -8.861  1.00  0.00     0.167 HD
ATOM     50  C   UNL     1       8.635  -7.784  -8.541  1.00  0.00     0.037 A 
ATOM     51  C   UNL     1       9.021  -0.793  -8.820  1.00  0.00     0.037 A 
ATOM     52  C   UNL     1       9.965  -7.242  -8.452  1.00  0.00     0.049 A 
ATOM     53  C   UNL     1      10.242  -1.650  -8.621  1.00  0.00     0.074 A 
ATOM     54  C   UNL     1      11.166  -7.921  -8.344  1.00  0.00     0.029 A 
ATOM     55  N   UNL     1      10.269  -5.889  -8.457  1.00  0.00    -0.354 N 
ATOM     56  N   UNL     1      10.339  -2.957  -8.579  1.00  0.00    -0.248 NA
ATOM     57  C   UNL     1      11.521  -0.948  -8.452  1.00  0.00     0.031 C 
ATOM     58  C   UNL     1      12.192  -6.978  -8.229  1.00  0.00     0.029 A 
ATOM     59  C   UNL     1      11.638  -5.712  -8.327  1.00  0.00     0.049 A 
ATOM     60  H   UNL     1       9.611  -5.162  -8.540  1.00  0.00     0.167 HD
ATOM     61  C   UNL     1      11.690  -3.233  -8.414  1.00  0.00     0.074 A 
ATOM     62  C   UNL     1      12.375  -1.958  -8.377  1.00  0.00     0.031 C 
ATOM     63  C   UNL     1      12.307  -4.436  -8.303  1.00  0.00     0.037 A 
BRANCH  50  64
ATOM     64  C   UNL     1       8.470  -9.274  -8.449  1.00  0.00     0.064 A 
ATOM     65  C   UNL     1       8.091 -10.043  -9.560  1.00  0.00     0.173 A 
ATOM     66  C   UNL     1       8.746  -9.947  -7.250  1.00  0.00     0.173 A 
ATOM     67  F   UNL     1       7.804  -9.449 -10.728  1.00  0.00    -0.203 F 
ATOM     68  C   UNL     1       7.972 -11.428  -9.466  1.00  0.00     0.198 A 
ATOM     69  C   UNL     1       8.657 -11.334  -7.168  1.00  0.00     0.198 A 
ATOM     70  F   UNL     1       9.117  -9.261  -6.159  1.00  0.00    -0.203 F 
ATOM     71  F   UNL     1       7.566 -12.137 -10.529  1.00  0.00    -0.200 F 
ATOM     72  C   UNL     1       8.264 -12.073  -8.274  1.00  0.00     0.200 A 
ATOM     73  F   UNL     1       8.955 -11.957  -6.019  1.00  0.00    -0.200 F 
ATOM     74  F   UNL     1       8.163 -13.406  -8.190  1.00  0.00    -0.200 F 
ENDBRANCH  50  64
BRANCH  51  75
ATOM     75  C   UNL     1       9.132   0.688  -8.877  1.00  0.00     0.064 A 
ATOM     76  C   UNL     1       9.793   1.318  -9.942  1.00  0.00     0.173 A 
ATOM     77  C   UNL     1       8.595   1.504  -7.870  1.00  0.00     0.173 A 
ATOM     78  F   UNL     1      10.341   0.580 -10.919  1.00  0.00    -0.203 F 
ATOM     79  C   UNL     1       9.933   2.703  -9.985  1.00  0.00     0.198 A 
ATOM     80  C   UNL     1       8.709   2.891  -7.930  1.00  0.00     0.198 A 
ATOM     81  F   UNL     1       7.950   0.953  -6.832  1.00  0.00    -0.203 F 
ATOM     82  F   UNL     1      10.614   3.274 -10.988  1.00  0.00    -0.200 F 
ATOM     83  C   UNL     1       9.387   3.489  -8.982  1.00  0.00     0.200 A 
ATOM     84  F   UNL     1       8.167   3.648  -6.966  1.00  0.00    -0.200 F 
ATOM     85  F   UNL     1       9.520   4.822  -9.024  1.00  0.00    -0.200 F 
ENDBRANCH  51  75
BRANCH  63  86
ATOM     86  C   UNL     1      13.803  -4.435  -8.176  1.00  0.00     0.064 A 
ATOM     87  C   UNL     1      14.446  -3.994  -7.011  1.00  0.00     0.173 A 
ATOM     88  C   UNL     1      14.602  -4.922  -9.222  1.00  0.00     0.173 A 
ATOM     89  F   UNL     1      13.729  -3.505  -5.987  1.00  0.00    -0.203 F 
ATOM     90  C   UNL     1      15.834  -4.014  -6.908  1.00  0.00     0.198 A 
ATOM     91  C   UNL     1      15.988  -4.974  -9.103  1.00  0.00     0.198 A 
ATOM     92  F   UNL     1      14.037  -5.364 -10.356  1.00  0.00    -0.203 F 
ATOM     93  F   UNL     1      16.429  -3.540  -5.805  1.00  0.00    -0.200 F 
ATOM     94  C   UNL     1      16.603  -4.512  -7.949  1.00  0.00     0.200 A 
ATOM     95  F   UNL     1      16.727  -5.470 -10.104  1.00  0.00    -0.200 F 
ATOM     96  F   UNL     1      17.939  -4.540  -7.844  1.00  0.00    -0.200 F 
ENDBRANCH  63  86
ENDBRANCH  37  38
ENDBRANCH  29  32
ENDBRANCH  27  28
ENDBRANCH  26  27
ENDBRANCH  25  26
ENDBRANCH  24  25
ENDBRANCH   1  24
TORSDOF 20
