REMARK SMILES Cn1cc(Cl)cc1C(=O)N[C@H]1C=C[C@H](C(=O)NCCCCCCNC(=O)c2ccc(-c3c4nc(c(-c5c(F)c(F)c(F)c(F)c5F)c5ccc([nH]5)c(-c5c(F)c(F)c(F)c(F)c5F)c5nc(c(-c6c(F)c(F)c(F)c(F)c6F)c6ccc3[nH]6)C=C5)C=C4)cc2)C1
REMARK SMILES IDX 20 1 19 2 18 3 17 4 15 5 16 6 14 8 11 9 12 10 90 11 13 12
REMARK SMILES IDX 10 13 8 14 9 15 7 17 1 18 2 19 3 20 4 21 6 22 5 23 21 24
REMARK SMILES IDX 22 25 23 26 24 27 25 28 26 30 27 31 28 32 89 33 29 34 88 35
REMARK SMILES IDX 30 36 31 37 32 38 82 39 33 40 87 41 81 42 83 43 34 44 86 45
REMARK SMILES IDX 80 46 79 47 35 49 67 50 47 51 66 52 48 53 51 54 65 55 84 56
REMARK SMILES IDX 49 57 50 58 64 60 85 61 52 62 36 63 37 64 45 65 38 66 39 67
REMARK SMILES IDX 43 68 46 69 40 70 41 71 44 72 42 73 68 74 69 75 77 76 70 77
REMARK SMILES IDX 71 78 75 79 78 80 72 81 73 82 76 83 74 84 53 85 54 86 62 87
REMARK SMILES IDX 55 88 56 89 60 90 63 91 57 92 58 93 61 94 59 95
REMARK H PARENT 17 7 10 16 24 29 83 48 51 59
REMARK Flexibility Score: inf
ROOT
ATOM      1  C   UNL     1       6.780  -0.819   1.986  1.00  0.00     0.002 C 
ENDROOT
BRANCH   1   2
ATOM      2  C   UNL     1       5.676  -0.168   1.148  1.00  0.00     0.021 C 
BRANCH   2   3
ATOM      3  C   UNL     1       4.738  -1.200   0.519  1.00  0.00     0.116 C 
BRANCH   3   4
ATOM      4  N   UNL     1       3.978  -1.853   1.567  1.00  0.00    -0.356 N 
ATOM      5  C   UNL     1       2.809  -1.446   2.156  1.00  0.00     0.227 C 
ATOM      6  O   UNL     1       2.495  -1.941   3.237  1.00  0.00    -0.274 OA
ATOM      7  H   UNL     1       4.352  -2.701   1.901  1.00  0.00     0.163 HD
BRANCH   5   8
ATOM      8  C   UNL     1       1.856  -0.587   1.326  1.00  0.00     0.103 C 
ATOM      9  C   UNL     1       1.139   1.718   0.894  1.00  0.00     0.106 C 
ATOM     10  C   UNL     1       0.087   0.955   1.600  1.00  0.00    -0.006 C 
ATOM     11  C   UNL     1       2.330   0.776   0.798  1.00  0.00     0.047 C 
ATOM     12  C   UNL     1       0.520  -0.269   1.938  1.00  0.00    -0.016 C 
BRANCH   9  13
ATOM     13  N   UNL     1       0.746   2.450  -0.301  1.00  0.00    -0.345 N 
ATOM     14  C   UNL     1       0.397   2.444  -1.617  1.00  0.00     0.268 C 
ATOM     15  O   UNL     1       0.372   3.612  -2.039  1.00  0.00    -0.268 OA
ATOM     16  H   UNL     1       0.721   3.396  -0.030  1.00  0.00     0.164 HD
BRANCH  14  17
ATOM     17  C   UNL     1       0.073   1.370  -2.553  1.00  0.00     0.108 A 
ATOM     18  C   UNL     1       0.234  -0.858  -1.377  1.00  0.00     0.150 C 
ATOM     19  N   UNL     1      -0.056  -0.000  -2.481  1.00  0.00    -0.345 N 
ATOM     20  C   UNL     1      -0.446  -0.544  -3.682  1.00  0.00     0.106 A 
ATOM     21  C   UNL     1      -0.563   0.471  -4.584  1.00  0.00     0.059 A 
ATOM     22  C   UNL     1      -0.238   1.653  -3.896  1.00  0.00     0.054 A 
ATOM     23  Cl  UNL     1      -1.007   0.344  -6.212  1.00  0.00    -0.083 Cl
ENDBRANCH  14  17
ENDBRANCH   9  13
ENDBRANCH   5   8
ENDBRANCH   3   4
ENDBRANCH   2   3
ENDBRANCH   1   2
BRANCH   1  24
ATOM     24  C   UNL     1       7.702  -1.758   1.201  1.00  0.00     0.002 C 
BRANCH  24  25
ATOM     25  C   UNL     1       8.383  -1.133  -0.024  1.00  0.00     0.021 C 
BRANCH  25  26
ATOM     26  C   UNL     1       9.305   0.023   0.330  1.00  0.00     0.116 C 
BRANCH  26  27
ATOM     27  N   UNL     1      10.417  -0.413   1.174  1.00  0.00    -0.352 N 
ATOM     28  C   UNL     1      11.406   0.347   1.749  1.00  0.00     0.251 C 
ATOM     29  H   UNL     1      10.462  -1.380   1.354  1.00  0.00     0.163 HD
ATOM     30  O   UNL     1      12.463  -0.165   2.120  1.00  0.00    -0.269 OA
BRANCH  28  31
ATOM     31  C   UNL     1      11.184   1.786   1.925  1.00  0.00     0.039 A 
ATOM     32  C   UNL     1      12.199   2.712   1.673  1.00  0.00     0.014 A 
ATOM     33  C   UNL     1       9.919   2.203   2.335  1.00  0.00     0.014 A 
ATOM     34  C   UNL     1      11.906   4.068   1.767  1.00  0.00     0.010 A 
ATOM     35  C   UNL     1       9.590   3.530   2.274  1.00  0.00     0.010 A 
ATOM     36  C   UNL     1      10.591   4.468   2.051  1.00  0.00    -0.014 A 
BRANCH  36  37
ATOM     37  C   UNL     1      10.203   5.872   1.964  1.00  0.00     0.031 A 
ATOM     38  C   UNL     1      10.477   6.470   0.629  1.00  0.00     0.074 A 
ATOM     39  C   UNL     1       9.449   6.469   2.915  1.00  0.00     0.049 A 
ATOM     40  N   UNL     1      11.309   7.415   0.345  1.00  0.00    -0.248 NA
ATOM     41  C   UNL     1       9.881   5.837  -0.563  1.00  0.00     0.031 C 
ATOM     42  C   UNL     1       8.866   5.833   4.106  1.00  0.00     0.029 A 
ATOM     43  N   UNL     1       8.925   7.730   2.969  1.00  0.00    -0.354 N 
ATOM     44  C   UNL     1      11.143   7.669  -1.016  1.00  0.00     0.074 A 
ATOM     45  C   UNL     1      10.443   6.537  -1.552  1.00  0.00     0.031 C 
ATOM     46  C   UNL     1       7.883   6.610   4.606  1.00  0.00     0.029 A 
ATOM     47  C   UNL     1       7.891   7.872   3.895  1.00  0.00     0.049 A 
ATOM     48  H   UNL     1       9.247   8.470   2.405  1.00  0.00     0.167 HD
ATOM     49  C   UNL     1      11.281   8.941  -1.484  1.00  0.00     0.037 A 
ATOM     50  C   UNL     1       7.083   8.948   4.057  1.00  0.00     0.037 A 
ATOM     51  C   UNL     1      11.926   9.762  -0.490  1.00  0.00     0.049 A 
ATOM     52  C   UNL     1       7.773  10.111   3.458  1.00  0.00     0.074 A 
ATOM     53  C   UNL     1      13.200   9.954  -0.008  1.00  0.00     0.029 A 
ATOM     54  N   UNL     1      11.054  10.256   0.443  1.00  0.00    -0.354 N 
ATOM     55  N   UNL     1       8.877  10.612   3.940  1.00  0.00    -0.248 NA
ATOM     56  C   UNL     1       7.449  10.505   2.091  1.00  0.00     0.031 C 
ATOM     57  C   UNL     1      13.052  10.482   1.311  1.00  0.00     0.029 A 
ATOM     58  C   UNL     1      11.696  10.649   1.581  1.00  0.00     0.049 A 
ATOM     59  H   UNL     1      10.081  10.319   0.308  1.00  0.00     0.167 HD
ATOM     60  C   UNL     1       9.583  11.008   2.823  1.00  0.00     0.074 A 
ATOM     61  C   UNL     1       8.602  11.087   1.748  1.00  0.00     0.031 C 
ATOM     62  C   UNL     1      10.941  10.893   2.787  1.00  0.00     0.037 A 
BRANCH  49  63
ATOM     63  C   UNL     1      10.380   9.598  -2.522  1.00  0.00     0.064 A 
ATOM     64  C   UNL     1      10.631  10.947  -2.868  1.00  0.00     0.173 A 
ATOM     65  C   UNL     1       9.114   9.110  -2.912  1.00  0.00     0.173 A 
ATOM     66  F   UNL     1      11.801  11.526  -2.556  1.00  0.00    -0.203 F 
ATOM     67  C   UNL     1       9.655  11.761  -3.452  1.00  0.00     0.198 A 
ATOM     68  C   UNL     1       8.159   9.915  -3.534  1.00  0.00     0.198 A 
ATOM     69  F   UNL     1       8.696   7.875  -2.618  1.00  0.00    -0.203 F 
ATOM     70  F   UNL     1       9.898  13.066  -3.636  1.00  0.00    -0.200 F 
ATOM     71  C   UNL     1       8.414  11.247  -3.772  1.00  0.00     0.200 A 
ATOM     72  F   UNL     1       6.954   9.400  -3.821  1.00  0.00    -0.200 F 
ATOM     73  F   UNL     1       7.453  12.038  -4.265  1.00  0.00    -0.200 F 
ENDBRANCH  49  63
BRANCH  50  74
ATOM     74  C   UNL     1       5.663   8.995   4.478  1.00  0.00     0.064 A 
ATOM     75  C   UNL     1       5.083  10.178   4.966  1.00  0.00     0.173 A 
ATOM     76  C   UNL     1       4.776   7.955   4.141  1.00  0.00     0.173 A 
ATOM     77  F   UNL     1       5.855  11.230   5.274  1.00  0.00    -0.203 F 
ATOM     78  C   UNL     1       3.695  10.322   5.078  1.00  0.00     0.198 A 
ATOM     79  C   UNL     1       3.392   8.099   4.255  1.00  0.00     0.198 A 
ATOM     80  F   UNL     1       5.232   6.814   3.602  1.00  0.00    -0.203 F 
ATOM     81  F   UNL     1       3.174  11.488   5.488  1.00  0.00    -0.200 F 
ATOM     82  C   UNL     1       2.851   9.287   4.709  1.00  0.00     0.200 A 
ATOM     83  F   UNL     1       2.586   7.104   3.858  1.00  0.00    -0.200 F 
ATOM     84  F   UNL     1       1.521   9.449   4.751  1.00  0.00    -0.200 F 
ENDBRANCH  50  74
BRANCH  62  85
ATOM     85  C   UNL     1      11.672  10.867   4.090  1.00  0.00     0.064 A 
ATOM     86  C   UNL     1      11.605   9.823   5.025  1.00  0.00     0.173 A 
ATOM     87  C   UNL     1      12.555  11.922   4.352  1.00  0.00     0.173 A 
ATOM     88  F   UNL     1      10.837   8.748   4.805  1.00  0.00    -0.203 F 
ATOM     89  C   UNL     1      12.373   9.855   6.188  1.00  0.00     0.198 A 
ATOM     90  C   UNL     1      13.345  11.934   5.494  1.00  0.00     0.198 A 
ATOM     91  F   UNL     1      12.681  12.926   3.470  1.00  0.00    -0.203 F 
ATOM     92  F   UNL     1      12.287   8.855   7.078  1.00  0.00    -0.200 F 
ATOM     93  C   UNL     1      13.248  10.906   6.417  1.00  0.00     0.200 A 
ATOM     94  F   UNL     1      14.218  12.932   5.686  1.00  0.00    -0.200 F 
ATOM     95  F   UNL     1      14.014  10.919   7.516  1.00  0.00    -0.200 F 
ENDBRANCH  62  85
ENDBRANCH  36  37
ENDBRANCH  28  31
ENDBRANCH  26  27
ENDBRANCH  25  26
ENDBRANCH  24  25
ENDBRANCH   1  24
TORSDOF 15
