REMARK SMILES O=C(NCCCCCCNC(=O)[C@H]1CC[C@@H]2CCCC[C@H]2N1C(=O)N1CCSCC1)c1ccc(-c2c3nc(c(-c4c(F)c(F)c(F)c(F)c4F)c4ccc([nH]4)c(-c4c(F)c(F)c(F)c(F)c4F)c4nc(c(-c5c(F)c(F)c(F)c(F)c5F)c5ccc2[nH]5)C=C4)C=C3)cc1
REMARK SMILES IDX 6 1 5 2 4 3 3 4 1 5 2 6 31 8 32 9 93 10 33 11 92 12 34 13
REMARK SMILES IDX 35 14 36 15 86 16 37 17 91 18 85 19 87 20 38 21 90 22 84 23
REMARK SMILES IDX 83 24 39 26 71 27 51 28 70 29 52 30 55 31 69 32 88 33 53 34
REMARK SMILES IDX 54 35 68 37 89 38 56 39 40 40 41 41 49 42 42 43 43 44 47 45
REMARK SMILES IDX 50 46 44 47 45 48 48 49 46 50 72 51 73 52 81 53 74 54 75 55
REMARK SMILES IDX 79 56 82 57 76 58 77 59 80 60 78 61 57 62 58 63 66 64 59 65
REMARK SMILES IDX 60 66 64 67 67 68 61 69 62 70 65 71 63 72 7 73 8 74 9 75
REMARK SMILES IDX 10 76 11 77 12 79 13 80 14 81 22 82 15 83 21 84 16 85 20 86
REMARK SMILES IDX 17 87 19 88 18 89 23 90 24 91 25 92 26 93 30 94 27 95 29 96
REMARK SMILES IDX 28 97
REMARK H PARENT 3 7 87 25 55 36 10 78
REMARK Flexibility Score: inf
ROOT
ATOM      1  C   UNL     1       6.705   7.821  -2.693  1.00  0.00     0.002 C 
ENDROOT
BRANCH   1   2
ATOM      2  C   UNL     1       5.706   8.649  -3.497  1.00  0.00     0.021 C 
BRANCH   2   3
ATOM      3  C   UNL     1       4.250   8.459  -3.107  1.00  0.00     0.116 C 
BRANCH   3   4
ATOM      4  N   UNL     1       3.922   9.064  -1.827  1.00  0.00    -0.352 N 
ATOM      5  O   UNL     1       2.875  10.493  -0.422  1.00  0.00    -0.269 OA
ATOM      6  C   UNL     1       2.927   9.967  -1.530  1.00  0.00     0.251 C 
ATOM      7  H   UNL     1       4.489   8.792  -1.070  1.00  0.00     0.163 HD
BRANCH   6   8
ATOM      8  C   UNL     1       1.930  10.325  -2.564  1.00  0.00     0.039 A 
ATOM      9  C   UNL     1       1.355   9.337  -3.364  1.00  0.00     0.014 A 
ATOM     10  C   UNL     1       1.575  11.666  -2.746  1.00  0.00     0.014 A 
ATOM     11  C   UNL     1       0.560   9.700  -4.443  1.00  0.00     0.010 A 
ATOM     12  C   UNL     1       0.689  12.021  -3.769  1.00  0.00     0.010 A 
ATOM     13  C   UNL     1       0.199  11.043  -4.647  1.00  0.00    -0.014 A 
BRANCH  13  14
ATOM     14  C   UNL     1      -0.757  11.360  -5.740  1.00  0.00     0.031 A 
ATOM     15  C   UNL     1      -0.361  12.203  -6.920  1.00  0.00     0.074 A 
ATOM     16  C   UNL     1      -1.986  10.808  -5.685  1.00  0.00     0.049 A 
ATOM     17  N   UNL     1      -1.056  12.492  -7.993  1.00  0.00    -0.248 NA
ATOM     18  C   UNL     1       0.979  12.806  -6.896  1.00  0.00     0.031 C 
ATOM     19  C   UNL     1      -2.491   9.998  -4.574  1.00  0.00     0.029 A 
ATOM     20  N   UNL     1      -3.017  10.809  -6.589  1.00  0.00    -0.354 N 
ATOM     21  C   UNL     1      -0.246  13.316  -8.764  1.00  0.00     0.074 A 
ATOM     22  C   UNL     1       0.984  13.505  -8.024  1.00  0.00     0.031 C 
ATOM     23  C   UNL     1      -3.704   9.526  -4.888  1.00  0.00     0.029 A 
ATOM     24  C   UNL     1      -4.090  10.050  -6.192  1.00  0.00     0.049 A 
ATOM     25  H   UNL     1      -2.990  11.305  -7.439  1.00  0.00     0.167 HD
ATOM     26  C   UNL     1      -0.505  13.854  -9.981  1.00  0.00     0.037 A 
ATOM     27  C   UNL     1      -5.262   9.805  -6.806  1.00  0.00     0.037 A 
ATOM     28  C   UNL     1      -1.730  13.657 -10.715  1.00  0.00     0.049 A 
ATOM     29  C   UNL     1      -5.512  10.405  -8.158  1.00  0.00     0.074 A 
ATOM     30  C   UNL     1      -2.083  14.155 -11.958  1.00  0.00     0.029 A 
ATOM     31  N   UNL     1      -2.804  12.897 -10.273  1.00  0.00    -0.354 N 
ATOM     32  N   UNL     1      -4.726  11.163  -8.883  1.00  0.00    -0.248 NA
ATOM     33  C   UNL     1      -6.812  10.117  -8.777  1.00  0.00     0.031 C 
ATOM     34  C   UNL     1      -3.382  13.725 -12.252  1.00  0.00     0.029 A 
ATOM     35  C   UNL     1      -3.823  12.923 -11.213  1.00  0.00     0.049 A 
ATOM     36  H   UNL     1      -2.837  12.412  -9.417  1.00  0.00     0.167 HD
ATOM     37  C   UNL     1      -5.434  11.444 -10.041  1.00  0.00     0.074 A 
ATOM     38  C   UNL     1      -6.697  10.741  -9.940  1.00  0.00     0.031 C 
ATOM     39  C   UNL     1      -5.077  12.227 -11.088  1.00  0.00     0.037 A 
BRANCH  26  40
ATOM     40  C   UNL     1       0.556  14.716 -10.604  1.00  0.00     0.064 A 
ATOM     41  C   UNL     1       1.730  14.163 -11.137  1.00  0.00     0.173 A 
ATOM     42  C   UNL     1       0.366  16.100 -10.734  1.00  0.00     0.173 A 
ATOM     43  F   UNL     1       1.964  12.846 -11.030  1.00  0.00    -0.203 F 
ATOM     44  C   UNL     1       2.681  14.965 -11.763  1.00  0.00     0.198 A 
ATOM     45  C   UNL     1       1.308  16.896 -11.382  1.00  0.00     0.198 A 
ATOM     46  F   UNL     1      -0.742  16.679 -10.248  1.00  0.00    -0.203 F 
ATOM     47  F   UNL     1       3.809  14.419 -12.236  1.00  0.00    -0.200 F 
ATOM     48  C   UNL     1       2.465  16.329 -11.892  1.00  0.00     0.200 A 
ATOM     49  F   UNL     1       1.092  18.212 -11.517  1.00  0.00    -0.200 F 
ATOM     50  F   UNL     1       3.376  17.098 -12.507  1.00  0.00    -0.200 F 
ENDBRANCH  26  40
BRANCH  27  51
ATOM     51  C   UNL     1      -6.281   8.959  -6.136  1.00  0.00     0.064 A 
ATOM     52  C   UNL     1      -6.616   7.693  -6.634  1.00  0.00     0.173 A 
ATOM     53  C   UNL     1      -6.931   9.395  -4.971  1.00  0.00     0.173 A 
ATOM     54  F   UNL     1      -6.033   7.238  -7.753  1.00  0.00    -0.203 F 
ATOM     55  C   UNL     1      -7.574   6.903  -6.003  1.00  0.00     0.198 A 
ATOM     56  C   UNL     1      -7.865   8.592  -4.323  1.00  0.00     0.198 A 
ATOM     57  F   UNL     1      -6.639  10.596  -4.450  1.00  0.00    -0.203 F 
ATOM     58  F   UNL     1      -7.907   5.714  -6.524  1.00  0.00    -0.200 F 
ATOM     59  C   UNL     1      -8.192   7.349  -4.844  1.00  0.00     0.200 A 
ATOM     60  F   UNL     1      -8.443   9.019  -3.193  1.00  0.00    -0.200 F 
ATOM     61  F   UNL     1      -9.107   6.585  -4.232  1.00  0.00    -0.200 F 
ENDBRANCH  27  51
BRANCH  39  62
ATOM     62  C   UNL     1      -6.073  12.354 -12.203  1.00  0.00     0.064 A 
ATOM     63  C   UNL     1      -7.256  13.093 -12.044  1.00  0.00     0.173 A 
ATOM     64  C   UNL     1      -5.846  11.731 -13.438  1.00  0.00     0.173 A 
ATOM     65  F   UNL     1      -7.526  13.691 -10.874  1.00  0.00    -0.203 F 
ATOM     66  C   UNL     1      -8.191  13.173 -13.071  1.00  0.00     0.198 A 
ATOM     67  C   UNL     1      -6.771  11.837 -14.472  1.00  0.00     0.198 A 
ATOM     68  F   UNL     1      -4.729  11.017 -13.640  1.00  0.00    -0.203 F 
ATOM     69  F   UNL     1      -9.341  13.834 -12.877  1.00  0.00    -0.200 F 
ATOM     70  C   UNL     1      -7.947  12.549 -14.285  1.00  0.00     0.200 A 
ATOM     71  F   UNL     1      -6.530  11.240 -15.648  1.00  0.00    -0.200 F 
ATOM     72  F   UNL     1      -8.852  12.621 -15.271  1.00  0.00    -0.200 F 
ENDBRANCH  39  62
ENDBRANCH  13  14
ENDBRANCH   6   8
ENDBRANCH   3   4
ENDBRANCH   2   3
ENDBRANCH   1   2
BRANCH   1  73
ATOM     73  C   UNL     1       6.498   6.302  -2.718  1.00  0.00     0.002 C 
BRANCH  73  74
ATOM     74  C   UNL     1       6.350   5.649  -4.098  1.00  0.00     0.021 C 
BRANCH  74  75
ATOM     75  C   UNL     1       7.392   6.053  -5.138  1.00  0.00     0.116 C 
BRANCH  75  76
ATOM     76  N   UNL     1       8.757   5.813  -4.708  1.00  0.00    -0.354 N 
ATOM     77  C   UNL     1       9.683   4.919  -5.189  1.00  0.00     0.242 C 
ATOM     78  H   UNL     1       9.066   6.375  -3.961  1.00  0.00     0.163 HD
ATOM     79  O   UNL     1      10.859   5.091  -4.868  1.00  0.00    -0.273 OA
BRANCH  77  80
ATOM     80  C   UNL     1       9.210   3.850  -6.204  1.00  0.00     0.176 C 
ATOM     81  C   UNL     1       9.604   4.528  -7.535  1.00  0.00     0.036 C 
ATOM     82  N   UNL     1       9.646   2.425  -6.186  1.00  0.00    -0.309 N 
ATOM     83  C   UNL     1       9.126   3.770  -8.750  1.00  0.00     0.008 C 
ATOM     84  C   UNL     1       9.174   1.642  -7.385  1.00  0.00     0.091 C 
ATOM     85  C   UNL     1       9.634   2.333  -8.696  1.00  0.00     0.012 C 
ATOM     86  C   UNL     1       9.517   0.137  -7.446  1.00  0.00     0.025 C 
ATOM     87  C   UNL     1       9.171   1.609  -9.967  1.00  0.00     0.006 C 
ATOM     88  C   UNL     1       9.033  -0.544  -8.726  1.00  0.00     0.002 C 
ATOM     89  C   UNL     1       9.573   0.145  -9.965  1.00  0.00     0.000 C 
BRANCH  82  90
ATOM     90  C   UNL     1       9.980   1.752  -5.006  1.00  0.00     0.321 C 
ATOM     91  O   UNL     1      10.057   0.531  -4.887  1.00  0.00    -0.248 OA
ATOM     92  N   UNL     1      10.343   2.535  -3.924  1.00  0.00    -0.323 N 
ATOM     93  C   UNL     1      11.706   2.273  -3.444  1.00  0.00     0.132 C 
ATOM     94  C   UNL     1       9.343   2.678  -2.868  1.00  0.00     0.132 C 
ATOM     95  C   UNL     1      12.272   3.333  -2.503  1.00  0.00     0.091 C 
ATOM     96  C   UNL     1       9.655   3.777  -1.851  1.00  0.00     0.091 C 
ATOM     97  S   UNL     1      11.246   3.522  -1.008  1.00  0.00    -0.158 SA
ENDBRANCH  82  90
ENDBRANCH  77  80
ENDBRANCH  75  76
ENDBRANCH  74  75
ENDBRANCH  73  74
ENDBRANCH   1  73
TORSDOF 14
