REMARK SMILES COc1ccccc1-n1nnc(C(=O)NCCCCCCNC(=O)c2ccc(-c3c4nc(c(-c5c(F)c(F)c(F)c(F)c5F)c5ccc([nH]5)c(-c5c(F)c(F)c(F)c(F)c5F)c5nc(c(-c6c(F)c(F)c(F)c(F)c6F)c6ccc3[nH]6)C=C5)C=C4)cc2)c1-c1ccc(Cl)cc1
REMARK SMILES IDX 18 1 17 2 16 3 15 4 13 5 14 6 12 8 9 9 10 10 88 11 11 12
REMARK SMILES IDX 8 13 3 14 4 15 5 16 7 17 6 18 2 19 1 20 89 21 90 22 95 23
REMARK SMILES IDX 91 24 94 25 92 26 93 27 19 28 20 29 21 30 22 31 23 32 24 34
REMARK SMILES IDX 25 35 26 36 87 37 27 38 86 39 28 40 29 41 30 42 80 43 31 44
REMARK SMILES IDX 85 45 79 46 81 47 32 48 84 49 78 50 77 51 33 53 65 54 45 55
REMARK SMILES IDX 64 56 46 57 49 58 63 59 82 60 47 61 48 62 62 64 83 65 50 66
REMARK SMILES IDX 34 67 35 68 43 69 36 70 37 71 41 72 44 73 38 74 39 75 42 76
REMARK SMILES IDX 40 77 66 78 67 79 75 80 68 81 69 82 73 83 76 84 70 85 71 86
REMARK SMILES IDX 74 87 72 88 51 89 52 90 60 91 53 92 54 93 58 94 61 95 55 96
REMARK SMILES IDX 56 97 59 98 57 99
REMARK H PARENT 15 7 22 33 81 52 49 63
REMARK Flexibility Score: inf
ROOT
ATOM      1  C   UNL     1       5.037  -5.899   2.100  1.00  0.00     0.002 C 
ENDROOT
BRANCH   1   2
ATOM      2  C   UNL     1       5.064  -4.946   0.914  1.00  0.00     0.021 C 
BRANCH   2   3
ATOM      3  C   UNL     1       4.425  -3.586   1.090  1.00  0.00     0.116 C 
BRANCH   3   4
ATOM      4  N   UNL     1       5.127  -2.514   1.722  1.00  0.00    -0.351 N 
ATOM      5  C   UNL     1       5.046  -1.167   1.398  1.00  0.00     0.274 C 
ATOM      6  O   UNL     1       5.664  -0.400   2.142  1.00  0.00    -0.267 OA
ATOM      7  H   UNL     1       5.728  -2.755   2.463  1.00  0.00     0.163 HD
BRANCH   5   8
ATOM      8  C   UNL     1       4.311  -0.643   0.222  1.00  0.00     0.178 A 
ATOM      9  N   UNL     1       3.045  -0.054  -1.478  1.00  0.00    -0.208 N 
ATOM     10  N   UNL     1       4.058   0.825  -1.416  1.00  0.00    -0.061 NA
ATOM     11  C   UNL     1       3.226  -1.079  -0.547  1.00  0.00     0.108 A 
ATOM     12  N   UNL     1       4.759   0.550  -0.329  1.00  0.00    -0.124 NA
BRANCH   9  13
ATOM     13  C   UNL     1       2.054   0.009  -2.486  1.00  0.00     0.109 A 
ATOM     14  C   UNL     1       0.706  -0.270  -2.208  1.00  0.00     0.144 A 
ATOM     15  C   UNL     1      -0.137  -0.626  -3.265  1.00  0.00     0.049 A 
ATOM     16  C   UNL     1       0.333  -0.652  -4.578  1.00  0.00     0.004 A 
ATOM     17  C   UNL     1       2.511   0.061  -3.815  1.00  0.00     0.032 A 
ATOM     18  C   UNL     1       1.649  -0.287  -4.856  1.00  0.00     0.003 A 
BRANCH  14  19
ATOM     19  O   UNL     1       0.110  -0.351  -0.979  1.00  0.00    -0.494 OA
ATOM     20  C   UNL     1       0.385   0.687  -0.041  1.00  0.00     0.278 C 
ENDBRANCH  14  19
ENDBRANCH   9  13
BRANCH  11  21
ATOM     21  C   UNL     1       2.408  -2.293  -0.630  1.00  0.00     0.003 A 
ATOM     22  C   UNL     1       1.453  -2.608   0.341  1.00  0.00     0.012 A 
ATOM     23  C   UNL     1       2.578  -3.155  -1.734  1.00  0.00     0.012 A 
ATOM     24  C   UNL     1       0.660  -3.749   0.194  1.00  0.00     0.021 A 
ATOM     25  C   UNL     1       1.806  -4.307  -1.865  1.00  0.00     0.021 A 
ATOM     26  C   UNL     1       0.838  -4.589  -0.907  1.00  0.00     0.041 A 
ATOM     27  Cl  UNL     1      -0.125  -6.004  -1.072  1.00  0.00    -0.084 Cl
ENDBRANCH  11  21
ENDBRANCH   5   8
ENDBRANCH   3   4
ENDBRANCH   2   3
ENDBRANCH   1   2
BRANCH   1  28
ATOM     28  C   UNL     1       3.697  -6.127   2.824  1.00  0.00     0.002 C 
BRANCH  28  29
ATOM     29  C   UNL     1       2.461  -6.496   1.993  1.00  0.00     0.021 C 
BRANCH  29  30
ATOM     30  C   UNL     1       2.620  -7.687   1.069  1.00  0.00     0.116 C 
BRANCH  30  31
ATOM     31  N   UNL     1       2.755  -8.978   1.746  1.00  0.00    -0.352 N 
ATOM     32  C   UNL     1       2.683 -10.241   1.179  1.00  0.00     0.251 C 
ATOM     33  H   UNL     1       2.914  -8.945   2.717  1.00  0.00     0.163 HD
ATOM     34  O   UNL     1       2.418 -11.232   1.873  1.00  0.00    -0.269 OA
BRANCH  32  35
ATOM     35  C   UNL     1       2.969 -10.412  -0.259  1.00  0.00     0.039 A 
ATOM     36  C   UNL     1       2.429 -11.423  -1.061  1.00  0.00     0.014 A 
ATOM     37  C   UNL     1       3.831  -9.496  -0.829  1.00  0.00     0.014 A 
ATOM     38  C   UNL     1       2.828 -11.493  -2.403  1.00  0.00     0.010 A 
ATOM     39  C   UNL     1       3.781  -9.326  -2.173  1.00  0.00     0.010 A 
ATOM     40  C   UNL     1       3.569 -10.434  -2.946  1.00  0.00    -0.014 A 
BRANCH  40  41
ATOM     41  C   UNL     1       3.921 -10.282  -4.350  1.00  0.00     0.031 A 
ATOM     42  C   UNL     1       2.715 -10.308  -5.200  1.00  0.00     0.074 A 
ATOM     43  C   UNL     1       5.166  -9.976  -4.802  1.00  0.00     0.049 A 
ATOM     44  N   UNL     1       2.325 -11.316  -5.898  1.00  0.00    -0.248 NA
ATOM     45  C   UNL     1       1.708  -9.241  -5.080  1.00  0.00     0.031 C 
ATOM     46  C   UNL     1       6.399  -9.706  -4.048  1.00  0.00     0.029 A 
ATOM     47  N   UNL     1       5.590  -9.818  -6.097  1.00  0.00    -0.354 N 
ATOM     48  C   UNL     1       1.149 -10.919  -6.513  1.00  0.00     0.074 A 
ATOM     49  C   UNL     1       0.709  -9.742  -5.813  1.00  0.00     0.031 C 
ATOM     50  C   UNL     1       7.361  -9.223  -4.876  1.00  0.00     0.029 A 
ATOM     51  C   UNL     1       6.880  -9.283  -6.243  1.00  0.00     0.049 A 
ATOM     52  H   UNL     1       5.029 -10.062  -6.869  1.00  0.00     0.167 HD
ATOM     53  C   UNL     1       0.822 -11.447  -7.723  1.00  0.00     0.037 A 
ATOM     54  C   UNL     1       7.503  -8.959  -7.415  1.00  0.00     0.037 A 
ATOM     55  C   UNL     1       1.639 -12.607  -7.999  1.00  0.00     0.049 A 
ATOM     56  C   UNL     1       6.840  -9.754  -8.482  1.00  0.00     0.074 A 
ATOM     57  C   UNL     1       1.796 -13.844  -7.405  1.00  0.00     0.029 A 
ATOM     58  N   UNL     1       2.775 -12.391  -8.740  1.00  0.00    -0.354 N 
ATOM     59  N   UNL     1       6.928 -11.054  -8.547  1.00  0.00    -0.248 NA
ATOM     60  C   UNL     1       5.664  -9.165  -9.103  1.00  0.00     0.031 C 
ATOM     61  C   UNL     1       3.199 -14.102  -7.451  1.00  0.00     0.029 A 
ATOM     62  C   UNL     1       3.815 -13.077  -8.169  1.00  0.00     0.049 A 
ATOM     63  H   UNL     1       2.833 -11.833  -9.550  1.00  0.00     0.167 HD
ATOM     64  C   UNL     1       5.626 -11.473  -8.774  1.00  0.00     0.074 A 
ATOM     65  C   UNL     1       4.896 -10.259  -9.150  1.00  0.00     0.031 C 
ATOM     66  C   UNL     1       5.197 -12.688  -8.324  1.00  0.00     0.037 A 
BRANCH  53  67
ATOM     67  C   UNL     1       0.120 -10.695  -8.822  1.00  0.00     0.064 A 
ATOM     68  C   UNL     1      -0.255 -11.398  -9.985  1.00  0.00     0.173 A 
ATOM     69  C   UNL     1       0.085  -9.288  -8.920  1.00  0.00     0.173 A 
ATOM     70  F   UNL     1      -0.236 -12.739 -10.007  1.00  0.00    -0.203 F 
ATOM     71  C   UNL     1      -0.562 -10.739 -11.177  1.00  0.00     0.198 A 
ATOM     72  C   UNL     1      -0.270  -8.634 -10.098  1.00  0.00     0.198 A 
ATOM     73  F   UNL     1       0.503  -8.490  -7.932  1.00  0.00    -0.203 F 
ATOM     74  F   UNL     1      -0.787 -11.449 -12.290  1.00  0.00    -0.200 F 
ATOM     75  C   UNL     1      -0.564  -9.358 -11.234  1.00  0.00     0.200 A 
ATOM     76  F   UNL     1      -0.239  -7.294 -10.140  1.00  0.00    -0.200 F 
ATOM     77  F   UNL     1      -0.798  -8.724 -12.389  1.00  0.00    -0.200 F 
ENDBRANCH  53  67
BRANCH  54  78
ATOM     78  C   UNL     1       8.355  -7.779  -7.750  1.00  0.00     0.064 A 
ATOM     79  C   UNL     1       9.077  -7.699  -8.961  1.00  0.00     0.173 A 
ATOM     80  C   UNL     1       8.220  -6.574  -7.038  1.00  0.00     0.173 A 
ATOM     81  F   UNL     1       9.213  -8.782  -9.740  1.00  0.00    -0.203 F 
ATOM     82  C   UNL     1       9.604  -6.486  -9.433  1.00  0.00     0.198 A 
ATOM     83  C   UNL     1       8.741  -5.365  -7.512  1.00  0.00     0.198 A 
ATOM     84  F   UNL     1       7.489  -6.526  -5.915  1.00  0.00    -0.203 F 
ATOM     85  F   UNL     1      10.233  -6.441 -10.617  1.00  0.00    -0.200 F 
ATOM     86  C   UNL     1       9.423  -5.318  -8.714  1.00  0.00     0.200 A 
ATOM     87  F   UNL     1       8.517  -4.233  -6.830  1.00  0.00    -0.200 F 
ATOM     88  F   UNL     1       9.863  -4.146  -9.196  1.00  0.00    -0.200 F 
ENDBRANCH  54  78
BRANCH  66  89
ATOM     89  C   UNL     1       6.237 -13.645  -7.804  1.00  0.00     0.064 A 
ATOM     90  C   UNL     1       7.021 -13.434  -6.654  1.00  0.00     0.173 A 
ATOM     91  C   UNL     1       6.348 -14.890  -8.434  1.00  0.00     0.173 A 
ATOM     92  F   UNL     1       6.905 -12.312  -5.936  1.00  0.00    -0.203 F 
ATOM     93  C   UNL     1       7.907 -14.409  -6.192  1.00  0.00     0.198 A 
ATOM     94  C   UNL     1       7.205 -15.874  -7.951  1.00  0.00     0.198 A 
ATOM     95  F   UNL     1       5.583 -15.170  -9.499  1.00  0.00    -0.203 F 
ATOM     96  F   UNL     1       8.654 -14.180  -5.100  1.00  0.00    -0.200 F 
ATOM     97  C   UNL     1       7.995 -15.630  -6.840  1.00  0.00     0.200 A 
ATOM     98  F   UNL     1       7.245 -17.071  -8.551  1.00  0.00    -0.200 F 
ATOM     99  F   UNL     1       8.822 -16.579  -6.381  1.00  0.00    -0.200 F 
ENDBRANCH  66  89
ENDBRANCH  40  41
ENDBRANCH  32  35
ENDBRANCH  30  31
ENDBRANCH  29  30
ENDBRANCH  28  29
ENDBRANCH   1  28
TORSDOF 16
