REMARK SMILES CCC[C@H]1CCc2c(sc(NC(=O)[C@H]3[C@@H](C(=O)NCCCCCCNC(=O)c4ccc(-c5c6nc(c(-c7c(F)c(F)c(F)c(F)c7F)c7ccc([nH]7)c(-c7c(F)c(F)c(F)c(F)c7F)c7nc(c(-c8c(F)c(F)c(F)c(F)c8F)c8ccc5[nH]8)C=C7)C=C6)cc4)[C@H]4CC[C@@H]3O4)c2C(N)=O)C1
REMARK SMILES IDX 20 1 19 2 18 3 16 4 17 5 15 7 14 8 94 9 91 10 93 11 95 12
REMARK SMILES IDX 92 13 12 14 11 15 13 17 10 18 4 19 5 20 100 21 6 22 8 23
REMARK SMILES IDX 7 24 9 25 96 26 3 27 2 28 1 29 97 30 98 31 99 32 21 35 22 36
REMARK SMILES IDX 23 37 24 38 25 39 26 40 27 42 28 43 29 44 90 45 30 46 89 47
REMARK SMILES IDX 31 48 32 49 33 50 83 51 34 52 88 53 82 54 84 55 35 56 87 57
REMARK SMILES IDX 81 58 80 59 36 61 68 62 48 63 67 64 49 65 52 66 66 67 85 68
REMARK SMILES IDX 50 69 51 70 65 72 86 73 53 74 37 75 38 76 46 77 39 78 40 79
REMARK SMILES IDX 44 80 47 81 41 82 42 83 45 84 43 85 69 86 70 87 78 88 71 89
REMARK SMILES IDX 72 90 76 91 79 92 73 93 74 94 77 95 75 96 54 97 55 98 63 99
REMARK SMILES IDX 56 100 57 101 61 102 64 103 58 104 59 105 62 106 60 107
REMARK H PARENT 18 6 11 16 98 33 98 34 25 41 84 60 52 71
REMARK Flexibility Score: inf
ROOT
ATOM      1  C   UNL     1      -3.227  -6.101   7.530  1.00  0.00     0.021 C 
ENDROOT
BRANCH   1   2
ATOM      2  C   UNL     1      -4.214  -5.252   6.728  1.00  0.00     0.116 C 
BRANCH   2   3
ATOM      3  N   UNL     1      -3.617  -4.007   6.306  1.00  0.00    -0.356 N 
ATOM      4  C   UNL     1      -3.238  -3.509   5.109  1.00  0.00     0.226 C 
ATOM      5  O   UNL     1      -2.660  -2.415   5.164  1.00  0.00    -0.275 OA
ATOM      6  H   UNL     1      -3.450  -3.387   7.052  1.00  0.00     0.163 HD
BRANCH   4   7
ATOM      7  C   UNL     1      -3.430  -4.165   3.747  1.00  0.00     0.122 C 
ATOM      8  C   UNL     1      -4.731  -4.818   3.294  1.00  0.00     0.123 C 
ATOM      9  C   UNL     1      -4.281  -6.211   2.852  1.00  0.00     0.132 C 
ATOM     10  C   UNL     1      -2.391  -5.187   3.272  1.00  0.00     0.132 C 
ATOM     11  C   UNL     1      -3.608  -7.136   3.857  1.00  0.00     0.035 C 
ATOM     12  O   UNL     1      -3.078  -5.791   2.127  1.00  0.00    -0.373 OA
ATOM     13  C   UNL     1      -2.281  -6.425   4.140  1.00  0.00     0.035 C 
BRANCH   8  14
ATOM     14  C   UNL     1      -6.007  -4.585   4.052  1.00  0.00     0.231 C 
ATOM     15  N   UNL     1      -6.565  -3.331   4.109  1.00  0.00    -0.317 N 
ATOM     16  H   UNL     1      -7.357  -3.267   4.690  1.00  0.00     0.170 HD
ATOM     17  O   UNL     1      -6.569  -5.509   4.646  1.00  0.00    -0.274 OA
BRANCH  15  18
ATOM     18  C   UNL     1      -6.214  -2.140   3.495  1.00  0.00     0.108 A 
ATOM     19  C   UNL     1      -5.608   2.478   2.279  1.00  0.00    -0.006 C 
ATOM     20  C   UNL     1      -4.190   1.947   1.975  1.00  0.00     0.009 C 
ATOM     21  C   UNL     1      -6.139   1.803   3.571  1.00  0.00     0.050 C 
ATOM     22  C   UNL     1      -4.241   0.456   1.621  1.00  0.00     0.038 C 
ATOM     23  C   UNL     1      -6.012   0.312   3.421  1.00  0.00     0.011 A 
ATOM     24  C   UNL     1      -5.191  -0.309   2.504  1.00  0.00    -0.019 A 
ATOM     25  S   UNL     1      -6.897  -0.804   4.340  1.00  0.00    -0.122 S 
ATOM     26  C   UNL     1      -5.508  -1.711   2.379  1.00  0.00     0.077 A 
BRANCH  19  27
ATOM     27  C   UNL     1      -5.627   4.013   2.361  1.00  0.00     0.004 C 
BRANCH  27  28
ATOM     28  C   UNL     1      -6.086   4.650   1.042  1.00  0.00    -0.003 C 
ATOM     29  C   UNL     1      -7.585   4.495   0.812  1.00  0.00     0.004 C 
ENDBRANCH  27  28
ENDBRANCH  19  27
BRANCH  26  30
ATOM     30  C   UNL     1      -5.111  -2.462   1.193  1.00  0.00     0.251 C 
ATOM     31  N   UNL     1      -6.096  -3.227   0.634  1.00  0.00    -0.365 N 
ATOM     32  O   UNL     1      -4.008  -2.382   0.672  1.00  0.00    -0.269 OA
ATOM     33  H   UNL     1      -6.980  -3.283   1.064  1.00  0.00     0.159 HD
ATOM     34  H   UNL     1      -5.921  -3.723  -0.198  1.00  0.00     0.159 HD
ENDBRANCH  26  30
ENDBRANCH  15  18
ENDBRANCH   8  14
ENDBRANCH   4   7
ENDBRANCH   2   3
ENDBRANCH   1   2
BRANCH   1  35
ATOM     35  C   UNL     1      -3.534  -6.176   9.025  1.00  0.00     0.002 C 
BRANCH  35  36
ATOM     36  C   UNL     1      -4.892  -6.788   9.381  1.00  0.00     0.002 C 
BRANCH  36  37
ATOM     37  C   UNL     1      -5.192  -8.148   8.744  1.00  0.00     0.021 C 
BRANCH  37  38
ATOM     38  C   UNL     1      -4.130  -9.218   8.976  1.00  0.00     0.116 C 
BRANCH  38  39
ATOM     39  N   UNL     1      -3.864  -9.430  10.389  1.00  0.00    -0.352 N 
ATOM     40  C   UNL     1      -3.946 -10.583  11.125  1.00  0.00     0.251 C 
ATOM     41  H   UNL     1      -3.583  -8.630  10.890  1.00  0.00     0.163 HD
ATOM     42  O   UNL     1      -3.877 -10.549  12.349  1.00  0.00    -0.269 OA
BRANCH  40  43
ATOM     43  C   UNL     1      -4.127 -11.873  10.434  1.00  0.00     0.039 A 
ATOM     44  C   UNL     1      -5.099 -12.762  10.899  1.00  0.00     0.014 A 
ATOM     45  C   UNL     1      -3.325 -12.206   9.339  1.00  0.00     0.014 A 
ATOM     46  C   UNL     1      -5.299 -13.973  10.236  1.00  0.00     0.010 A 
ATOM     47  C   UNL     1      -3.567 -13.383   8.642  1.00  0.00     0.010 A 
ATOM     48  C   UNL     1      -4.549 -14.281   9.090  1.00  0.00    -0.014 A 
BRANCH  48  49
ATOM     49  C   UNL     1      -4.741 -15.554   8.357  1.00  0.00     0.031 A 
ATOM     50  C   UNL     1      -3.629 -16.563   8.324  1.00  0.00     0.074 A 
ATOM     51  C   UNL     1      -5.873 -15.761   7.659  1.00  0.00     0.049 A 
ATOM     52  N   UNL     1      -3.533 -17.670   7.635  1.00  0.00    -0.248 NA
ATOM     53  C   UNL     1      -2.451 -16.268   9.157  1.00  0.00     0.031 C 
ATOM     54  C   UNL     1      -7.006 -14.838   7.592  1.00  0.00     0.029 A 
ATOM     55  N   UNL     1      -6.246 -16.807   6.854  1.00  0.00    -0.354 N 
ATOM     56  C   UNL     1      -2.279 -18.189   7.930  1.00  0.00     0.074 A 
ATOM     57  C   UNL     1      -1.632 -17.255   8.826  1.00  0.00     0.031 C 
ATOM     58  C   UNL     1      -7.952 -15.362   6.796  1.00  0.00     0.029 A 
ATOM     59  C   UNL     1      -7.476 -16.636   6.267  1.00  0.00     0.049 A 
ATOM     60  H   UNL     1      -5.686 -17.604   6.711  1.00  0.00     0.167 HD
ATOM     61  C   UNL     1      -1.726 -19.349   7.505  1.00  0.00     0.037 A 
ATOM     62  C   UNL     1      -8.134 -17.416   5.388  1.00  0.00     0.037 A 
ATOM     63  C   UNL     1      -2.391 -20.287   6.640  1.00  0.00     0.049 A 
ATOM     64  C   UNL     1      -7.500 -18.703   4.935  1.00  0.00     0.074 A 
ATOM     65  C   UNL     1      -1.941 -21.516   6.189  1.00  0.00     0.029 A 
ATOM     66  N   UNL     1      -3.654 -20.098   6.097  1.00  0.00    -0.354 N 
ATOM     67  N   UNL     1      -6.334 -19.209   5.256  1.00  0.00    -0.248 NA
ATOM     68  C   UNL     1      -8.276 -19.532   4.002  1.00  0.00     0.031 C 
ATOM     69  C   UNL     1      -2.917 -22.054   5.345  1.00  0.00     0.029 A 
ATOM     70  C   UNL     1      -3.995 -21.183   5.307  1.00  0.00     0.049 A 
ATOM     71  H   UNL     1      -4.223 -19.310   6.251  1.00  0.00     0.167 HD
ATOM     72  C   UNL     1      -6.250 -20.427   4.596  1.00  0.00     0.074 A 
ATOM     73  C   UNL     1      -7.486 -20.587   3.858  1.00  0.00     0.031 C 
ATOM     74  C   UNL     1      -5.242 -21.332   4.601  1.00  0.00     0.037 A 
BRANCH  61  75
ATOM     75  C   UNL     1      -0.336 -19.668   7.970  1.00  0.00     0.064 A 
ATOM     76  C   UNL     1      -0.066 -20.007   9.305  1.00  0.00     0.173 A 
ATOM     77  C   UNL     1       0.737 -19.664   7.066  1.00  0.00     0.173 A 
ATOM     78  F   UNL     1      -1.054 -20.013  10.213  1.00  0.00    -0.203 F 
ATOM     79  C   UNL     1       1.229 -20.301   9.723  1.00  0.00     0.198 A 
ATOM     80  C   UNL     1       2.026 -19.988   7.481  1.00  0.00     0.198 A 
ATOM     81  F   UNL     1       0.534 -19.351   5.777  1.00  0.00    -0.203 F 
ATOM     82  F   UNL     1       1.470 -20.573  11.013  1.00  0.00    -0.200 F 
ATOM     83  C   UNL     1       2.272 -20.298   8.809  1.00  0.00     0.200 A 
ATOM     84  F   UNL     1       3.031 -19.996   6.594  1.00  0.00    -0.200 F 
ATOM     85  F   UNL     1       3.518 -20.587   9.211  1.00  0.00    -0.200 F 
ENDBRANCH  61  75
BRANCH  62  86
ATOM     86  C   UNL     1      -9.478 -17.012   4.900  1.00  0.00     0.064 A 
ATOM     87  C   UNL     1     -10.625 -17.712   5.299  1.00  0.00     0.173 A 
ATOM     88  C   UNL     1      -9.645 -15.925   4.031  1.00  0.00     0.173 A 
ATOM     89  F   UNL     1     -10.514 -18.771   6.114  1.00  0.00    -0.203 F 
ATOM     90  C   UNL     1     -11.887 -17.350   4.832  1.00  0.00     0.198 A 
ATOM     91  C   UNL     1     -10.910 -15.548   3.586  1.00  0.00     0.198 A 
ATOM     92  F   UNL     1      -8.579 -15.219   3.625  1.00  0.00    -0.203 F 
ATOM     93  F   UNL     1     -12.963 -18.062   5.196  1.00  0.00    -0.200 F 
ATOM     94  C   UNL     1     -12.030 -16.265   3.980  1.00  0.00     0.200 A 
ATOM     95  F   UNL     1     -11.045 -14.490   2.774  1.00  0.00    -0.200 F 
ATOM     96  F   UNL     1     -13.244 -15.916   3.534  1.00  0.00    -0.200 F 
ENDBRANCH  62  86
BRANCH  74  97
ATOM     97  C   UNL     1      -5.452 -22.602   3.832  1.00  0.00     0.064 A 
ATOM     98  C   UNL     1      -5.407 -22.632   2.431  1.00  0.00     0.173 A 
ATOM     99  C   UNL     1      -5.643 -23.814   4.513  1.00  0.00     0.173 A 
ATOM    100  F   UNL     1      -5.241 -21.497   1.736  1.00  0.00    -0.203 F 
ATOM    101  C   UNL     1      -5.565 -23.830   1.738  1.00  0.00     0.198 A 
ATOM    102  C   UNL     1      -5.774 -25.012   3.818  1.00  0.00     0.198 A 
ATOM    103  F   UNL     1      -5.687 -23.837   5.853  1.00  0.00    -0.203 F 
ATOM    104  F   UNL     1      -5.558 -23.831   0.398  1.00  0.00    -0.200 F 
ATOM    105  C   UNL     1      -5.739 -25.019   2.432  1.00  0.00     0.200 A 
ATOM    106  F   UNL     1      -5.929 -26.162   4.489  1.00  0.00    -0.200 F 
ATOM    107  F   UNL     1      -5.880 -26.171   1.763  1.00  0.00    -0.200 F 
ENDBRANCH  74  97
ENDBRANCH  48  49
ENDBRANCH  40  43
ENDBRANCH  38  39
ENDBRANCH  37  38
ENDBRANCH  36  37
ENDBRANCH  35  36
ENDBRANCH   1  35
TORSDOF 18
