REMARK SMILES COCCN1C(=O)c2ccccc2[C@@H](C(=O)NCCCCCCNC(=O)c2ccc(-c3c4nc(c(-c5c(F)c(F)c(F)c(F)c5F)c5ccc([nH]5)c(-c5c(F)c(F)c(F)c(F)c5F)c5nc(c(-c6c(F)c(F)c(F)c(F)c6F)c6ccc3[nH]6)C=C5)C=C4)cc2)[C@H]1c1nccn1C
REMARK SMILES IDX 20 1 19 2 18 3 17 4 15 5 16 6 14 8 5 9 6 10 90 11 7 12 8 13
REMARK SMILES IDX 9 14 13 15 10 16 12 17 11 18 4 19 3 20 2 21 1 22 91 23 92 24
REMARK SMILES IDX 95 25 93 26 94 27 96 28 21 29 22 30 23 31 24 32 25 33 26 35
REMARK SMILES IDX 27 36 28 37 89 38 29 39 88 40 30 41 31 42 32 43 82 44 33 45
REMARK SMILES IDX 87 46 81 47 83 48 34 49 86 50 80 51 79 52 35 54 67 55 47 56
REMARK SMILES IDX 66 57 48 58 51 59 65 60 84 61 49 62 50 63 64 65 85 66 52 67
REMARK SMILES IDX 36 68 37 69 45 70 38 71 39 72 43 73 46 74 40 75 41 76 44 77
REMARK SMILES IDX 42 78 68 79 69 80 77 81 70 82 71 83 75 84 78 85 72 86 73 87
REMARK SMILES IDX 76 88 74 89 53 90 54 91 62 92 55 93 56 94 60 95 63 96 57 97
REMARK SMILES IDX 58 98 61 99 59 100
REMARK H PARENT 17 7 24 34 83 53 51 64
REMARK Flexibility Score: inf
ROOT
ATOM      1  C   UNL     1       4.231  -2.118   3.842  1.00  0.00     0.002 C 
ENDROOT
BRANCH   1   2
ATOM      2  C   UNL     1       3.237  -2.478   2.736  1.00  0.00     0.021 C 
BRANCH   2   3
ATOM      3  C   UNL     1       3.901  -3.082   1.502  1.00  0.00     0.116 C 
BRANCH   3   4
ATOM      4  N   UNL     1       3.556  -4.471   1.292  1.00  0.00    -0.355 N 
ATOM      5  C   UNL     1       2.889  -5.068   0.278  1.00  0.00     0.230 C 
ATOM      6  O   UNL     1       3.231  -6.235   0.034  1.00  0.00    -0.274 OA
ATOM      7  H   UNL     1       3.855  -5.082   2.004  1.00  0.00     0.163 HD
BRANCH   5   8
ATOM      8  C   UNL     1       1.783  -4.435  -0.568  1.00  0.00     0.139 C 
ATOM      9  N   UNL     1       0.828  -2.325   0.472  1.00  0.00    -0.325 N 
ATOM     10  C   UNL     1       1.652  -1.552  -0.350  1.00  0.00     0.254 C 
ATOM     11  C   UNL     1       0.574  -3.780   0.130  1.00  0.00     0.169 C 
ATOM     12  O   UNL     1       1.996  -0.400  -0.111  1.00  0.00    -0.269 OA
ATOM     13  C   UNL     1       2.244  -2.174  -1.559  1.00  0.00     0.044 A 
ATOM     14  C   UNL     1       2.792  -1.352  -2.553  1.00  0.00     0.014 A 
ATOM     15  C   UNL     1       2.339  -3.561  -1.665  1.00  0.00    -0.020 A 
ATOM     16  C   UNL     1       3.419  -1.914  -3.663  1.00  0.00     0.001 A 
ATOM     17  C   UNL     1       2.973  -4.120  -2.788  1.00  0.00     0.005 A 
ATOM     18  C   UNL     1       3.506  -3.298  -3.781  1.00  0.00     0.000 A 
BRANCH   9  19
ATOM     19  C   UNL     1      -0.022  -1.672   1.501  1.00  0.00     0.149 C 
BRANCH  19  20
ATOM     20  C   UNL     1       0.130  -0.190   1.907  1.00  0.00     0.181 C 
BRANCH  20  21
ATOM     21  O   UNL     1      -0.805   0.685   1.266  1.00  0.00    -0.383 OA
ATOM     22  C   UNL     1      -0.379   1.154  -0.002  1.00  0.00     0.194 C 
ENDBRANCH  20  21
ENDBRANCH  19  20
ENDBRANCH   9  19
BRANCH  11  23
ATOM     23  C   UNL     1      -0.159  -4.599   1.230  1.00  0.00     0.132 A 
ATOM     24  N   UNL     1      -1.166  -4.080   1.930  1.00  0.00    -0.239 NA
ATOM     25  N   UNL     1      -0.069  -5.944   1.576  1.00  0.00    -0.336 N 
ATOM     26  C   UNL     1      -1.599  -5.009   2.823  1.00  0.00     0.131 A 
ATOM     27  C   UNL     1      -0.908  -6.170   2.647  1.00  0.00     0.107 A 
ATOM     28  C   UNL     1       0.642  -7.055   0.992  1.00  0.00     0.151 C 
ENDBRANCH  11  23
ENDBRANCH   5   8
ENDBRANCH   3   4
ENDBRANCH   2   3
ENDBRANCH   1   2
BRANCH   1  29
ATOM     29  C   UNL     1       5.278  -1.066   3.447  1.00  0.00     0.002 C 
BRANCH  29  30
ATOM     30  C   UNL     1       4.721   0.304   3.045  1.00  0.00     0.021 C 
BRANCH  30  31
ATOM     31  C   UNL     1       3.868   0.989   4.111  1.00  0.00     0.116 C 
BRANCH  31  32
ATOM     32  N   UNL     1       4.573   1.106   5.380  1.00  0.00    -0.352 N 
ATOM     33  C   UNL     1       5.052   2.209   6.037  1.00  0.00     0.251 C 
ATOM     34  H   UNL     1       4.732   0.251   5.843  1.00  0.00     0.163 HD
ATOM     35  O   UNL     1       5.846   2.073   6.964  1.00  0.00    -0.269 OA
BRANCH  33  36
ATOM     36  C   UNL     1       4.626   3.566   5.635  1.00  0.00     0.039 A 
ATOM     37  C   UNL     1       5.580   4.588   5.593  1.00  0.00     0.014 A 
ATOM     38  C   UNL     1       3.289   3.843   5.342  1.00  0.00     0.014 A 
ATOM     39  C   UNL     1       5.205   5.869   5.185  1.00  0.00     0.010 A 
ATOM     40  C   UNL     1       2.929   5.103   4.871  1.00  0.00     0.010 A 
ATOM     41  C   UNL     1       3.885   6.126   4.779  1.00  0.00    -0.014 A 
BRANCH  41  42
ATOM     42  C   UNL     1       3.500   7.441   4.210  1.00  0.00     0.031 A 
ATOM     43  C   UNL     1       2.507   8.321   4.914  1.00  0.00     0.074 A 
ATOM     44  C   UNL     1       3.997   7.806   3.012  1.00  0.00     0.049 A 
ATOM     45  N   UNL     1       2.000   9.466   4.532  1.00  0.00    -0.248 NA
ATOM     46  C   UNL     1       2.002   7.841   6.209  1.00  0.00     0.031 C 
ATOM     47  C   UNL     1       4.934   7.015   2.213  1.00  0.00     0.029 A 
ATOM     48  N   UNL     1       3.772   8.925   2.250  1.00  0.00    -0.354 N 
ATOM     49  C   UNL     1       1.112   9.839   5.532  1.00  0.00     0.074 A 
ATOM     50  C   UNL     1       1.113   8.776   6.515  1.00  0.00     0.031 C 
ATOM     51  C   UNL     1       5.218   7.681   1.083  1.00  0.00     0.029 A 
ATOM     52  C   UNL     1       4.449   8.920   1.055  1.00  0.00     0.049 A 
ATOM     53  H   UNL     1       3.182   9.661   2.533  1.00  0.00     0.167 HD
ATOM     54  C   UNL     1       0.378  10.974   5.628  1.00  0.00     0.037 A 
ATOM     55  C   UNL     1       4.436   9.806   0.041  1.00  0.00     0.037 A 
ATOM     56  C   UNL     1       0.387  12.030   4.648  1.00  0.00     0.049 A 
ATOM     57  C   UNL     1       3.580  11.037   0.155  1.00  0.00     0.074 A 
ATOM     58  C   UNL     1      -0.268  13.249   4.686  1.00  0.00     0.029 A 
ATOM     59  N   UNL     1       1.076  11.985   3.444  1.00  0.00    -0.354 N 
ATOM     60  N   UNL     1       2.808  11.420   1.143  1.00  0.00    -0.248 NA
ATOM     61  C   UNL     1       3.593  11.959  -0.989  1.00  0.00     0.031 C 
ATOM     62  C   UNL     1      -0.025  13.914   3.480  1.00  0.00     0.029 A 
ATOM     63  C   UNL     1       0.828  13.137   2.713  1.00  0.00     0.049 A 
ATOM     64  H   UNL     1       1.655  11.245   3.152  1.00  0.00     0.167 HD
ATOM     65  C   UNL     1       2.256  12.631   0.748  1.00  0.00     0.074 A 
ATOM     66  C   UNL     1       2.803  12.932  -0.558  1.00  0.00     0.031 C 
ATOM     67  C   UNL     1       1.371  13.418   1.407  1.00  0.00     0.037 A 
BRANCH  54  68
ATOM     68  C   UNL     1      -0.505  11.133   6.833  1.00  0.00     0.064 A 
ATOM     69  C   UNL     1       0.028  11.326   8.117  1.00  0.00     0.173 A 
ATOM     70  C   UNL     1      -1.902  11.133   6.699  1.00  0.00     0.173 A 
ATOM     71  F   UNL     1       1.356  11.328   8.304  1.00  0.00    -0.203 F 
ATOM     72  C   UNL     1      -0.804  11.482   9.224  1.00  0.00     0.198 A 
ATOM     73  C   UNL     1      -2.730  11.321   7.802  1.00  0.00     0.198 A 
ATOM     74  F   UNL     1      -2.466  10.962   5.493  1.00  0.00    -0.203 F 
ATOM     75  F   UNL     1      -0.271  11.615  10.447  1.00  0.00    -0.200 F 
ATOM     76  C   UNL     1      -2.181  11.486   9.065  1.00  0.00     0.200 A 
ATOM     77  F   UNL     1      -4.061  11.342   7.644  1.00  0.00    -0.200 F 
ATOM     78  F   UNL     1      -2.980  11.645  10.129  1.00  0.00    -0.200 F 
ENDBRANCH  54  68
BRANCH  55  79
ATOM     79  C   UNL     1       5.266   9.559  -1.167  1.00  0.00     0.064 A 
ATOM     80  C   UNL     1       6.372  10.370  -1.458  1.00  0.00     0.173 A 
ATOM     81  C   UNL     1       4.975   8.511  -2.052  1.00  0.00     0.173 A 
ATOM     82  F   UNL     1       6.677  11.399  -0.654  1.00  0.00    -0.203 F 
ATOM     83  C   UNL     1       7.145  10.151  -2.596  1.00  0.00     0.198 A 
ATOM     84  C   UNL     1       5.767   8.274  -3.174  1.00  0.00     0.198 A 
ATOM     85  F   UNL     1       3.929   7.704  -1.819  1.00  0.00    -0.203 F 
ATOM     86  F   UNL     1       8.169  10.969  -2.874  1.00  0.00    -0.200 F 
ATOM     87  C   UNL     1       6.846   9.099  -3.449  1.00  0.00     0.200 A 
ATOM     88  F   UNL     1       5.484   7.247  -3.986  1.00  0.00    -0.200 F 
ATOM     89  F   UNL     1       7.594   8.885  -4.540  1.00  0.00    -0.200 F 
ENDBRANCH  55  79
BRANCH  67  90
ATOM     90  C   UNL     1       0.942  14.687   0.726  1.00  0.00     0.064 A 
ATOM     91  C   UNL     1       0.103  14.667  -0.398  1.00  0.00     0.173 A 
ATOM     92  C   UNL     1       1.342  15.936   1.225  1.00  0.00     0.173 A 
ATOM     93  F   UNL     1      -0.293  13.499  -0.925  1.00  0.00    -0.203 F 
ATOM     94  C   UNL     1      -0.299  15.851  -1.012  1.00  0.00     0.198 A 
ATOM     95  C   UNL     1       0.911  17.117   0.628  1.00  0.00     0.198 A 
ATOM     96  F   UNL     1       2.140  16.011   2.300  1.00  0.00    -0.203 F 
ATOM     97  F   UNL     1      -1.060  15.806  -2.114  1.00  0.00    -0.200 F 
ATOM     98  C   UNL     1       0.097  17.074  -0.493  1.00  0.00     0.200 A 
ATOM     99  F   UNL     1       1.283  18.299   1.139  1.00  0.00    -0.200 F 
ATOM    100  F   UNL     1      -0.299  18.212  -1.080  1.00  0.00    -0.200 F 
ENDBRANCH  67  90
ENDBRANCH  41  42
ENDBRANCH  33  36
ENDBRANCH  31  32
ENDBRANCH  30  31
ENDBRANCH  29  30
ENDBRANCH   1  29
TORSDOF 17
