REMARK SMILES CS(=O)(=O)c1ccc(N2N=C(C(=O)NCCCCCCNC(=O)c3ccc(-c4c5nc(c(-c6c(F)c(F)c(F)c(F)c6F)c6ccc([nH]6)c(-c6c(F)c(F)c(F)c(F)c6F)c6nc(c(-c7c(F)c(F)c(F)c(F)c7F)c7ccc4[nH]7)C=C6)C=C5)cc3)C[C@H]2c2cccs2)cc1
REMARK SMILES IDX 17 1 16 2 15 3 14 4 12 5 13 6 11 8 9 9 10 10 88 11 87 12
REMARK SMILES IDX 8 13 5 14 6 15 95 16 7 17 94 18 2 19 1 20 3 21 4 22 89 23
REMARK SMILES IDX 90 24 93 25 91 26 92 27 18 28 19 29 20 30 21 31 22 32 23 34
REMARK SMILES IDX 24 35 25 36 86 37 26 38 85 39 27 40 28 41 29 42 79 43 30 44
REMARK SMILES IDX 84 45 78 46 80 47 31 48 83 49 77 50 76 51 32 53 64 54 44 55
REMARK SMILES IDX 63 56 45 57 48 58 62 59 81 60 46 61 47 62 61 64 82 65 49 66
REMARK SMILES IDX 33 67 34 68 42 69 35 70 36 71 40 72 43 73 37 74 38 75 41 76
REMARK SMILES IDX 39 77 65 78 66 79 74 80 67 81 68 82 72 83 75 84 69 85 70 86
REMARK SMILES IDX 73 87 71 88 50 89 51 90 59 91 52 92 53 93 57 94 60 95 54 96
REMARK SMILES IDX 55 97 58 98 56 99
REMARK H PARENT 14 7 21 33 80 52 48 63
REMARK Flexibility Score: inf
ROOT
ATOM      1  C   UNL     1       5.114  -3.399 -13.131  1.00  0.00     0.002 C 
ENDROOT
BRANCH   1   2
ATOM      2  C   UNL     1       5.403  -3.108 -11.659  1.00  0.00     0.021 C 
BRANCH   2   3
ATOM      3  C   UNL     1       4.511  -2.036 -11.046  1.00  0.00     0.116 C 
BRANCH   3   4
ATOM      4  N   UNL     1       3.179  -2.541 -10.797  1.00  0.00    -0.351 N 
ATOM      5  C   UNL     1       2.392  -2.647  -9.680  1.00  0.00     0.267 C 
ATOM      6  O   UNL     1       1.319  -3.235  -9.796  1.00  0.00    -0.268 OA
ATOM      7  H   UNL     1       2.740  -2.883 -11.610  1.00  0.00     0.163 HD
BRANCH   5   8
ATOM      8  C   UNL     1       2.747  -2.037  -8.332  1.00  0.00     0.128 C 
ATOM      9  N   UNL     1       2.441  -1.316  -6.350  1.00  0.00    -0.256 N 
ATOM     10  N   UNL     1       1.911  -2.080  -7.340  1.00  0.00    -0.171 NA
ATOM     11  C   UNL     1       3.777  -0.798  -6.641  1.00  0.00     0.154 C 
ATOM     12  C   UNL     1       4.044  -1.362  -8.038  1.00  0.00     0.097 C 
BRANCH   9  13
ATOM     13  C   UNL     1       1.941  -1.401  -5.058  1.00  0.00     0.060 A 
ATOM     14  C   UNL     1       0.961  -1.509  -2.431  1.00  0.00     0.067 A 
ATOM     15  C   UNL     1       1.328  -2.688  -3.083  1.00  0.00     0.022 A 
ATOM     16  C   UNL     1       1.053  -0.282  -3.084  1.00  0.00     0.022 A 
ATOM     17  C   UNL     1       1.801  -2.630  -4.399  1.00  0.00     0.029 A 
ATOM     18  C   UNL     1       1.544  -0.238  -4.387  1.00  0.00     0.029 A 
BRANCH  14  19
ATOM     19  S   UNL     1       0.381  -1.583  -0.755  1.00  0.00     0.175 S 
ATOM     20  C   UNL     1       1.071  -0.159   0.048  1.00  0.00     0.163 C 
ATOM     21  O   UNL     1       0.989  -2.746  -0.140  1.00  0.00    -0.224 OA
ATOM     22  O   UNL     1      -1.060  -1.420  -0.802  1.00  0.00    -0.224 OA
ENDBRANCH  14  19
ENDBRANCH   9  13
BRANCH  11  23
ATOM     23  C   UNL     1       3.977   0.707  -6.519  1.00  0.00     0.030 A 
ATOM     24  C   UNL     1       4.322   1.403  -5.371  1.00  0.00     0.017 A 
ATOM     25  S   UNL     1       3.757   1.795  -7.833  1.00  0.00    -0.147 S 
ATOM     26  C   UNL     1       4.429   2.807  -5.582  1.00  0.00     0.012 A 
ATOM     27  C   UNL     1       4.198   3.147  -6.894  1.00  0.00     0.065 A 
ENDBRANCH  11  23
ENDBRANCH   5   8
ENDBRANCH   3   4
ENDBRANCH   2   3
ENDBRANCH   1   2
BRANCH   1  28
ATOM     28  C   UNL     1       5.201  -2.184 -14.060  1.00  0.00     0.002 C 
BRANCH  28  29
ATOM     29  C   UNL     1       6.486  -1.360 -13.940  1.00  0.00     0.021 C 
BRANCH  29  30
ATOM     30  C   UNL     1       7.770  -2.154 -14.147  1.00  0.00     0.116 C 
BRANCH  30  31
ATOM     31  N   UNL     1       7.838  -2.744 -15.472  1.00  0.00    -0.352 N 
ATOM     32  C   UNL     1       8.819  -2.631 -16.424  1.00  0.00     0.251 C 
ATOM     33  H   UNL     1       7.070  -3.305 -15.724  1.00  0.00     0.163 HD
ATOM     34  O   UNL     1       8.619  -3.027 -17.568  1.00  0.00    -0.269 OA
BRANCH  32  35
ATOM     35  C   UNL     1      10.114  -2.014 -16.073  1.00  0.00     0.039 A 
ATOM     36  C   UNL     1      10.691  -1.106 -16.964  1.00  0.00     0.014 A 
ATOM     37  C   UNL     1      10.764  -2.338 -14.879  1.00  0.00     0.014 A 
ATOM     38  C   UNL     1      11.896  -0.485 -16.633  1.00  0.00     0.010 A 
ATOM     39  C   UNL     1      11.923  -1.659 -14.515  1.00  0.00     0.010 A 
ATOM     40  C   UNL     1      12.506  -0.733 -15.393  1.00  0.00    -0.014 A 
BRANCH  40  41
ATOM     41  C   UNL     1      13.761  -0.041 -15.003  1.00  0.00     0.031 A 
ATOM     42  C   UNL     1      15.018  -0.832 -14.769  1.00  0.00     0.074 A 
ATOM     43  C   UNL     1      13.754   1.291 -14.806  1.00  0.00     0.049 A 
ATOM     44  N   UNL     1      16.194  -0.420 -14.367  1.00  0.00    -0.248 NA
ATOM     45  C   UNL     1      14.936  -2.285 -14.989  1.00  0.00     0.031 C 
ATOM     46  C   UNL     1      12.587   2.162 -14.959  1.00  0.00     0.029 A 
ATOM     47  N   UNL     1      14.758   2.147 -14.427  1.00  0.00    -0.354 N 
ATOM     48  C   UNL     1      16.983  -1.559 -14.275  1.00  0.00     0.074 A 
ATOM     49  C   UNL     1      16.138  -2.686 -14.604  1.00  0.00     0.031 C 
ATOM     50  C   UNL     1      12.946   3.429 -14.700  1.00  0.00     0.029 A 
ATOM     51  C   UNL     1      14.356   3.456 -14.321  1.00  0.00     0.049 A 
ATOM     52  H   UNL     1      15.680   1.850 -14.248  1.00  0.00     0.167 HD
ATOM     53  C   UNL     1      18.299  -1.653 -13.967  1.00  0.00     0.037 A 
ATOM     54  C   UNL     1      15.044   4.552 -13.950  1.00  0.00     0.037 A 
ATOM     55  C   UNL     1      19.138  -0.525 -13.660  1.00  0.00     0.049 A 
ATOM     56  C   UNL     1      16.501   4.417 -13.597  1.00  0.00     0.074 A 
ATOM     57  C   UNL     1      20.496  -0.508 -13.392  1.00  0.00     0.029 A 
ATOM     58  N   UNL     1      18.698   0.788 -13.573  1.00  0.00    -0.354 N 
ATOM     59  N   UNL     1      17.255   3.345 -13.582  1.00  0.00    -0.248 NA
ATOM     60  C   UNL     1      17.207   5.649 -13.218  1.00  0.00     0.031 C 
ATOM     61  C   UNL     1      20.864   0.805 -13.083  1.00  0.00     0.029 A 
ATOM     62  C   UNL     1      19.752   1.618 -13.227  1.00  0.00     0.049 A 
ATOM     63  H   UNL     1      17.773   1.085 -13.734  1.00  0.00     0.167 HD
ATOM     64  C   UNL     1      18.526   3.775 -13.225  1.00  0.00     0.074 A 
ATOM     65  C   UNL     1      18.445   5.209 -13.048  1.00  0.00     0.031 C 
ATOM     66  C   UNL     1      19.658   3.047 -13.062  1.00  0.00     0.037 A 
BRANCH  53  67
ATOM     67  C   UNL     1      18.913  -3.025 -13.944  1.00  0.00     0.064 A 
ATOM     68  C   UNL     1      19.085  -3.779 -15.115  1.00  0.00     0.173 A 
ATOM     69  C   UNL     1      19.371  -3.578 -12.738  1.00  0.00     0.173 A 
ATOM     70  F   UNL     1      18.656  -3.303 -16.294  1.00  0.00    -0.203 F 
ATOM     71  C   UNL     1      19.662  -5.045 -15.075  1.00  0.00     0.198 A 
ATOM     72  C   UNL     1      19.980  -4.830 -12.707  1.00  0.00     0.198 A 
ATOM     73  F   UNL     1      19.237  -2.899 -11.588  1.00  0.00    -0.203 F 
ATOM     74  F   UNL     1      19.765  -5.768 -16.199  1.00  0.00    -0.200 F 
ATOM     75  C   UNL     1      20.116  -5.566 -13.873  1.00  0.00     0.200 A 
ATOM     76  F   UNL     1      20.432  -5.324 -11.546  1.00  0.00    -0.200 F 
ATOM     77  F   UNL     1      20.680  -6.781 -13.838  1.00  0.00    -0.200 F 
ENDBRANCH  53  67
BRANCH  54  78
ATOM     78  C   UNL     1      14.368   5.876 -13.908  1.00  0.00     0.064 A 
ATOM     79  C   UNL     1      14.714   6.893 -14.809  1.00  0.00     0.173 A 
ATOM     80  C   UNL     1      13.371   6.156 -12.962  1.00  0.00     0.173 A 
ATOM     81  F   UNL     1      15.674   6.681 -15.721  1.00  0.00    -0.203 F 
ATOM     82  C   UNL     1      14.108   8.146 -14.749  1.00  0.00     0.198 A 
ATOM     83  C   UNL     1      12.742   7.399 -12.924  1.00  0.00     0.198 A 
ATOM     84  F   UNL     1      12.997   5.217 -12.080  1.00  0.00    -0.203 F 
ATOM     85  F   UNL     1      14.496   9.116 -15.588  1.00  0.00    -0.200 F 
ATOM     86  C   UNL     1      13.118   8.396 -13.811  1.00  0.00     0.200 A 
ATOM     87  F   UNL     1      11.774   7.630 -12.027  1.00  0.00    -0.200 F 
ATOM     88  F   UNL     1      12.533   9.601 -13.755  1.00  0.00    -0.200 F 
ENDBRANCH  54  78
BRANCH  66  89
ATOM     89  C   UNL     1      20.915   3.794 -12.714  1.00  0.00     0.064 A 
ATOM     90  C   UNL     1      21.100   4.392 -11.459  1.00  0.00     0.173 A 
ATOM     91  C   UNL     1      21.967   3.876 -13.640  1.00  0.00     0.173 A 
ATOM     92  F   UNL     1      20.120   4.354 -10.543  1.00  0.00    -0.203 F 
ATOM     93  C   UNL     1      22.277   5.070 -11.155  1.00  0.00     0.198 A 
ATOM     94  C   UNL     1      23.157   4.523 -13.320  1.00  0.00     0.198 A 
ATOM     95  F   UNL     1      21.847   3.314 -14.853  1.00  0.00    -0.203 F 
ATOM     96  F   UNL     1      22.409   5.681  -9.969  1.00  0.00    -0.200 F 
ATOM     97  C   UNL     1      23.308   5.128 -12.082  1.00  0.00     0.200 A 
ATOM     98  F   UNL     1      24.158   4.562 -14.210  1.00  0.00    -0.200 F 
ATOM     99  F   UNL     1      24.444   5.773 -11.783  1.00  0.00    -0.200 F 
ENDBRANCH  66  89
ENDBRANCH  40  41
ENDBRANCH  32  35
ENDBRANCH  30  31
ENDBRANCH  29  30
ENDBRANCH  28  29
ENDBRANCH   1  28
TORSDOF 16
