REMARK SMILES CC[C@H]1SC[C@H](C(=O)NCCCCCCNC(=O)c2ccc(-c3c4nc(c(-c5c(F)c(F)c(F)c(F)c5F)c5ccc([nH]5)c(-c5c(F)c(F)c(F)c(F)c5F)c5nc(c(-c6c(F)c(F)c(F)c(F)c6F)c6ccc3[nH]6)C=C5)C=C4)cc2)N1C(=O)Cc1ccc(F)c(F)c1
REMARK SMILES IDX 12 1 11 2 10 3 9 4 7 5 8 6 6 8 3 9 4 10 82 11 5 12 2 13 1 14
REMARK SMILES IDX 83 15 84 16 85 17 86 18 87 19 93 20 88 21 91 22 89 23 92 24
REMARK SMILES IDX 90 25 13 26 14 27 15 28 16 29 17 30 18 32 19 33 20 34 81 35
REMARK SMILES IDX 21 36 80 37 22 38 23 39 24 40 74 41 25 42 79 43 73 44 75 45
REMARK SMILES IDX 26 46 78 47 72 48 71 49 27 51 59 52 39 53 58 54 40 55 43 56
REMARK SMILES IDX 57 57 76 58 41 59 42 60 56 62 77 63 44 64 28 65 29 66 37 67
REMARK SMILES IDX 30 68 31 69 35 70 38 71 32 72 33 73 36 74 34 75 60 76 61 77
REMARK SMILES IDX 69 78 62 79 63 80 67 81 70 82 64 83 65 84 68 85 66 86 45 87
REMARK SMILES IDX 46 88 54 89 47 90 48 91 52 92 55 93 49 94 50 95 53 96 51 97
REMARK H PARENT 9 7 16 31 75 50 43 61
REMARK Flexibility Score: inf
ROOT
ATOM      1  C   UNL     1      -1.979  -8.117  -3.374  1.00  0.00     0.002 C 
ENDROOT
BRANCH   1   2
ATOM      2  C   UNL     1      -2.475  -6.761  -2.866  1.00  0.00     0.021 C 
BRANCH   2   3
ATOM      3  C   UNL     1      -1.402  -5.716  -2.591  1.00  0.00     0.116 C 
BRANCH   3   4
ATOM      4  N   UNL     1      -0.600  -5.315  -3.736  1.00  0.00    -0.354 N 
ATOM      5  C   UNL     1       0.224  -4.207  -3.847  1.00  0.00     0.243 C 
ATOM      6  O   UNL     1       1.015  -4.162  -4.790  1.00  0.00    -0.273 OA
ATOM      7  H   UNL     1      -0.649  -5.900  -4.526  1.00  0.00     0.163 HD
BRANCH   5   8
ATOM      8  C   UNL     1       0.119  -3.096  -2.767  1.00  0.00     0.185 C 
ATOM      9  C   UNL     1       1.515  -1.378  -1.702  1.00  0.00     0.143 C 
ATOM     10  S   UNL     1       2.048  -2.891  -0.886  1.00  0.00    -0.134 SA
ATOM     11  N   UNL     1       0.935  -1.864  -2.951  1.00  0.00    -0.318 N 
ATOM     12  C   UNL     1       0.548  -3.737  -1.424  1.00  0.00     0.107 C 
BRANCH   9  13
ATOM     13  C   UNL     1       0.451  -0.718  -0.774  1.00  0.00     0.033 C 
ATOM     14  C   UNL     1       1.060  -0.049   0.451  1.00  0.00     0.007 C 
ENDBRANCH   9  13
BRANCH  11  15
ATOM     15  C   UNL     1       0.866  -1.121  -4.126  1.00  0.00     0.228 C 
ATOM     16  O   UNL     1      -0.085  -1.245  -4.901  1.00  0.00    -0.274 OA
BRANCH  15  17
ATOM     17  C   UNL     1       2.058  -0.209  -4.489  1.00  0.00     0.135 C 
BRANCH  17  18
ATOM     18  C   UNL     1       1.915   1.282  -4.230  1.00  0.00    -0.036 A 
ATOM     19  C   UNL     1       2.619   2.235  -4.987  1.00  0.00     0.007 A 
ATOM     20  C   UNL     1       1.175   1.757  -3.149  1.00  0.00     0.046 A 
ATOM     21  C   UNL     1       2.587   3.598  -4.641  1.00  0.00     0.043 A 
ATOM     22  C   UNL     1       1.181   3.093  -2.770  1.00  0.00     0.159 A 
ATOM     23  C   UNL     1       1.885   4.015  -3.515  1.00  0.00     0.158 A 
ATOM     24  F   UNL     1       0.510   3.458  -1.669  1.00  0.00    -0.204 F 
ATOM     25  F   UNL     1       1.892   5.306  -3.158  1.00  0.00    -0.204 F 
ENDBRANCH  17  18
ENDBRANCH  15  17
ENDBRANCH  11  15
ENDBRANCH   5   8
ENDBRANCH   3   4
ENDBRANCH   2   3
ENDBRANCH   1   2
BRANCH   1  26
ATOM     26  C   UNL     1      -0.849  -8.789  -2.585  1.00  0.00     0.002 C 
BRANCH  26  27
ATOM     27  C   UNL     1      -1.075  -8.989  -1.085  1.00  0.00     0.021 C 
BRANCH  27  28
ATOM     28  C   UNL     1      -2.383  -9.664  -0.689  1.00  0.00     0.116 C 
BRANCH  28  29
ATOM     29  N   UNL     1      -2.547 -10.979  -1.279  1.00  0.00    -0.352 N 
ATOM     30  C   UNL     1      -2.921 -12.164  -0.692  1.00  0.00     0.251 C 
ATOM     31  H   UNL     1      -2.362 -11.031  -2.245  1.00  0.00     0.163 HD
ATOM     32  O   UNL     1      -2.880 -13.206  -1.332  1.00  0.00    -0.269 OA
BRANCH  30  33
ATOM     33  C   UNL     1      -3.348 -12.190   0.726  1.00  0.00     0.039 A 
ATOM     34  C   UNL     1      -2.873 -13.217   1.546  1.00  0.00     0.014 A 
ATOM     35  C   UNL     1      -4.222 -11.230   1.244  1.00  0.00     0.014 A 
ATOM     36  C   UNL     1      -3.231 -13.250   2.896  1.00  0.00     0.010 A 
ATOM     37  C   UNL     1      -4.515 -11.220   2.607  1.00  0.00     0.010 A 
ATOM     38  C   UNL     1      -4.030 -12.235   3.446  1.00  0.00    -0.014 A 
BRANCH  38  39
ATOM     39  C   UNL     1      -4.371 -12.231   4.893  1.00  0.00     0.031 A 
ATOM     40  C   UNL     1      -5.804 -12.363   5.335  1.00  0.00     0.074 A 
ATOM     41  C   UNL     1      -3.396 -12.057   5.807  1.00  0.00     0.049 A 
ATOM     42  N   UNL     1      -6.303 -12.335   6.546  1.00  0.00    -0.248 NA
ATOM     43  C   UNL     1      -6.816 -12.522   4.278  1.00  0.00     0.031 C 
ATOM     44  C   UNL     1      -1.976 -11.866   5.503  1.00  0.00     0.029 A 
ATOM     45  N   UNL     1      -3.449 -12.003   7.179  1.00  0.00    -0.354 N 
ATOM     46  C   UNL     1      -7.678 -12.451   6.393  1.00  0.00     0.074 A 
ATOM     47  C   UNL     1      -7.944 -12.506   4.973  1.00  0.00     0.031 C 
ATOM     48  C   UNL     1      -1.293 -11.733   6.652  1.00  0.00     0.029 A 
ATOM     49  C   UNL     1      -2.227 -11.789   7.771  1.00  0.00     0.049 A 
ATOM     50  H   UNL     1      -4.284 -12.108   7.689  1.00  0.00     0.167 HD
ATOM     51  C   UNL     1      -8.630 -12.524   7.353  1.00  0.00     0.037 A 
ATOM     52  C   UNL     1      -1.900 -11.641   9.070  1.00  0.00     0.037 A 
ATOM     53  C   UNL     1      -8.357 -12.511   8.767  1.00  0.00     0.049 A 
ATOM     54  C   UNL     1      -2.983 -11.740  10.113  1.00  0.00     0.074 A 
ATOM     55  C   UNL     1      -9.247 -12.669   9.816  1.00  0.00     0.029 A 
ATOM     56  N   UNL     1      -7.104 -12.324   9.329  1.00  0.00    -0.354 N 
ATOM     57  N   UNL     1      -4.269 -11.945   9.957  1.00  0.00    -0.248 NA
ATOM     58  C   UNL     1      -2.568 -11.599  11.516  1.00  0.00     0.031 C 
ATOM     59  C   UNL     1      -8.543 -12.512  11.013  1.00  0.00     0.029 A 
ATOM     60  C   UNL     1      -7.203 -12.329  10.711  1.00  0.00     0.049 A 
ATOM     61  H   UNL     1      -6.269 -12.206   8.822  1.00  0.00     0.167 HD
ATOM     62  C   UNL     1      -4.806 -11.996  11.237  1.00  0.00     0.074 A 
ATOM     63  C   UNL     1      -3.704 -11.819  12.159  1.00  0.00     0.031 C 
ATOM     64  C   UNL     1      -6.095 -12.171  11.617  1.00  0.00     0.037 A 
BRANCH  51  65
ATOM     65  C   UNL     1     -10.066 -12.625   6.924  1.00  0.00     0.064 A 
ATOM     66  C   UNL     1     -10.584 -13.788   6.337  1.00  0.00     0.173 A 
ATOM     67  C   UNL     1     -10.955 -11.571   7.187  1.00  0.00     0.173 A 
ATOM     68  F   UNL     1      -9.775 -14.821   6.055  1.00  0.00    -0.203 F 
ATOM     69  C   UNL     1     -11.937 -13.889   6.019  1.00  0.00     0.198 A 
ATOM     70  C   UNL     1     -12.312 -11.687   6.896  1.00  0.00     0.198 A 
ATOM     71  F   UNL     1     -10.512 -10.437   7.751  1.00  0.00    -0.203 F 
ATOM     72  F   UNL     1     -12.404 -14.998   5.430  1.00  0.00    -0.200 F 
ATOM     73  C   UNL     1     -12.801 -12.844   6.310  1.00  0.00     0.200 A 
ATOM     74  F   UNL     1     -13.147 -10.682   7.194  1.00  0.00    -0.200 F 
ATOM     75  F   UNL     1     -14.106 -12.952   6.025  1.00  0.00    -0.200 F 
ENDBRANCH  51  65
BRANCH  52  76
ATOM     76  C   UNL     1      -0.490 -11.379   9.469  1.00  0.00     0.064 A 
ATOM     77  C   UNL     1       0.234 -12.308  10.232  1.00  0.00     0.173 A 
ATOM     78  C   UNL     1       0.145 -10.172   9.144  1.00  0.00     0.173 A 
ATOM     79  F   UNL     1      -0.333 -13.471  10.586  1.00  0.00    -0.203 F 
ATOM     80  C   UNL     1       1.518 -12.020  10.691  1.00  0.00     0.198 A 
ATOM     81  C   UNL     1       1.443  -9.901   9.572  1.00  0.00     0.198 A 
ATOM     82  F   UNL     1      -0.497  -9.250   8.410  1.00  0.00    -0.203 F 
ATOM     83  F   UNL     1       2.155 -12.894  11.483  1.00  0.00    -0.200 F 
ATOM     84  C   UNL     1       2.122 -10.818  10.359  1.00  0.00     0.200 A 
ATOM     85  F   UNL     1       2.030  -8.745   9.233  1.00  0.00    -0.200 F 
ATOM     86  F   UNL     1       3.353 -10.536  10.809  1.00  0.00    -0.200 F 
ENDBRANCH  52  76
BRANCH  64  87
ATOM     87  C   UNL     1      -6.379 -12.237  13.091  1.00  0.00     0.064 A 
ATOM     88  C   UNL     1      -6.261 -11.113  13.921  1.00  0.00     0.173 A 
ATOM     89  C   UNL     1      -6.807 -13.440  13.674  1.00  0.00     0.173 A 
ATOM     90  F   UNL     1      -5.845  -9.941  13.416  1.00  0.00    -0.203 F 
ATOM     91  C   UNL     1      -6.524 -11.200  15.285  1.00  0.00     0.198 A 
ATOM     92  C   UNL     1      -7.106 -13.514  15.031  1.00  0.00     0.198 A 
ATOM     93  F   UNL     1      -6.947 -14.544  12.924  1.00  0.00    -0.203 F 
ATOM     94  F   UNL     1      -6.345 -10.128  16.069  1.00  0.00    -0.200 F 
ATOM     95  C   UNL     1      -6.953 -12.397  15.837  1.00  0.00     0.200 A 
ATOM     96  F   UNL     1      -7.539 -14.668  15.558  1.00  0.00    -0.200 F 
ATOM     97  F   UNL     1      -7.212 -12.477  17.150  1.00  0.00    -0.200 F 
ENDBRANCH  64  87
ENDBRANCH  38  39
ENDBRANCH  30  33
ENDBRANCH  28  29
ENDBRANCH  27  28
ENDBRANCH  26  27
ENDBRANCH   1  26
TORSDOF 17
