REMARK SMILES O=C(Cc1csc(Sc2ncnc3c2CCCC3)n1)NCCCCCCNC(=O)c1ccc(-c2c3nc(c(-c4c(F)c(F)c(F)c(F)c4F)c4ccc([nH]4)c(-c4c(F)c(F)c(F)c(F)c4F)c4nc(c(-c5c(F)c(F)c(F)c(F)c5F)c5ccc2[nH]5)C=C4)C=C3)cc1
REMARK SMILES IDX 23 1 22 2 21 3 20 4 1 5 2 6 3 8 4 9 5 10 19 11 6 12 7 13
REMARK SMILES IDX 8 14 9 15 10 16 14 17 11 18 13 19 15 20 12 21 18 22 16 23
REMARK SMILES IDX 17 24 24 25 25 26 26 27 27 28 28 29 29 31 30 32 31 33 92 34
REMARK SMILES IDX 32 35 91 36 33 37 34 38 35 39 85 40 36 41 90 42 84 43 86 44
REMARK SMILES IDX 37 45 89 46 83 47 82 48 38 50 70 51 50 52 69 53 51 54 54 55
REMARK SMILES IDX 68 56 87 57 52 58 53 59 67 61 88 62 55 63 39 64 40 65 48 66
REMARK SMILES IDX 41 67 42 68 46 69 49 70 43 71 44 72 47 73 45 74 71 75 72 76
REMARK SMILES IDX 80 77 73 78 74 79 78 80 81 81 75 82 76 83 79 84 77 85 56 86
REMARK SMILES IDX 57 87 65 88 58 89 59 90 63 91 66 92 60 93 61 94 64 95 62 96
REMARK H PARENT 20 7 27 30 86 49 54 60
REMARK Flexibility Score: inf
ROOT
ATOM      1  C   UNL     1       4.254  -2.727  -2.510  1.00  0.00     0.002 C 
ENDROOT
BRANCH   1   2
ATOM      2  C   UNL     1       2.756  -2.395  -2.453  1.00  0.00     0.021 C 
BRANCH   2   3
ATOM      3  C   UNL     1       2.230  -2.075  -1.056  1.00  0.00     0.116 C 
BRANCH   3   4
ATOM      4  N   UNL     1       2.914  -0.935  -0.480  1.00  0.00    -0.356 N 
ATOM      5  O   UNL     1       1.033   0.138   0.283  1.00  0.00    -0.275 OA
ATOM      6  C   UNL     1       2.255   0.086   0.176  1.00  0.00     0.226 C 
ATOM      7  H   UNL     1       3.894  -0.886  -0.559  1.00  0.00     0.163 HD
BRANCH   6   8
ATOM      8  C   UNL     1       3.177   1.148   0.753  1.00  0.00     0.157 C 
BRANCH   8   9
ATOM      9  C   UNL     1       3.950   0.683   1.953  1.00  0.00     0.062 A 
ATOM     10  C   UNL     1       4.006  -0.591   2.491  1.00  0.00     0.092 A 
ATOM     11  N   UNL     1       4.730   1.620   2.633  1.00  0.00    -0.234 NA
ATOM     12  S   UNL     1       5.002  -0.613   3.877  1.00  0.00    -0.116 S 
ATOM     13  C   UNL     1       5.272   1.077   3.702  1.00  0.00     0.156 A 
BRANCH  13  14
ATOM     14  S   UNL     1       6.227   1.918   4.900  1.00  0.00    -0.039 SA
BRANCH  14  15
ATOM     15  C   UNL     1       6.283   3.580   4.255  1.00  0.00     0.110 A 
ATOM     16  N   UNL     1       5.127   4.271   4.318  1.00  0.00    -0.229 NA
ATOM     17  C   UNL     1       7.499   4.168   3.904  1.00  0.00     0.006 A 
ATOM     18  C   UNL     1       5.193   5.565   3.994  1.00  0.00     0.223 A 
ATOM     19  C   UNL     1       7.452   5.534   3.649  1.00  0.00     0.048 A 
ATOM     20  C   UNL     1       8.803   3.415   3.901  1.00  0.00     0.040 C 
ATOM     21  N   UNL     1       6.302   6.239   3.668  1.00  0.00    -0.241 NA
ATOM     22  C   UNL     1       8.694   6.324   3.318  1.00  0.00     0.056 C 
ATOM     23  C   UNL     1       9.950   4.172   3.231  1.00  0.00     0.005 C 
ATOM     24  C   UNL     1       9.985   5.614   3.715  1.00  0.00     0.007 C 
ENDBRANCH  14  15
ENDBRANCH  13  14
ENDBRANCH   8   9
ENDBRANCH   6   8
ENDBRANCH   3   4
ENDBRANCH   2   3
ENDBRANCH   1   2
BRANCH   1  25
ATOM     25  C   UNL     1       4.686  -3.947  -1.690  1.00  0.00     0.002 C 
BRANCH  25  26
ATOM     26  C   UNL     1       3.994  -5.257  -2.067  1.00  0.00     0.021 C 
BRANCH  26  27
ATOM     27  C   UNL     1       4.121  -5.645  -3.536  1.00  0.00     0.116 C 
BRANCH  27  28
ATOM     28  N   UNL     1       5.501  -5.888  -3.929  1.00  0.00    -0.352 N 
ATOM     29  C   UNL     1       6.060  -7.005  -4.496  1.00  0.00     0.251 C 
ATOM     30  H   UNL     1       6.123  -5.143  -3.764  1.00  0.00     0.163 HD
ATOM     31  O   UNL     1       7.280  -7.103  -4.604  1.00  0.00    -0.269 OA
BRANCH  29  32
ATOM     32  C   UNL     1       5.191  -8.106  -4.961  1.00  0.00     0.039 A 
ATOM     33  C   UNL     1       5.540  -9.422  -4.646  1.00  0.00     0.014 A 
ATOM     34  C   UNL     1       4.041  -7.842  -5.710  1.00  0.00     0.014 A 
ATOM     35  C   UNL     1       4.705 -10.470  -5.038  1.00  0.00     0.010 A 
ATOM     36  C   UNL     1       3.171  -8.879  -6.032  1.00  0.00     0.010 A 
ATOM     37  C   UNL     1       3.502 -10.204  -5.711  1.00  0.00    -0.014 A 
BRANCH  37  38
ATOM     38  C   UNL     1       2.595 -11.302  -6.124  1.00  0.00     0.031 A 
ATOM     39  C   UNL     1       2.368 -11.574  -7.585  1.00  0.00     0.074 A 
ATOM     40  C   UNL     1       1.949 -12.028  -5.193  1.00  0.00     0.049 A 
ATOM     41  N   UNL     1       1.580 -12.452  -8.152  1.00  0.00    -0.248 NA
ATOM     42  C   UNL     1       3.111 -10.732  -8.535  1.00  0.00     0.031 C 
ATOM     43  C   UNL     1       2.070 -11.844  -3.747  1.00  0.00     0.029 A 
ATOM     44  N   UNL     1       1.062 -13.067  -5.324  1.00  0.00    -0.354 N 
ATOM     45  C   UNL     1       1.733 -12.266  -9.519  1.00  0.00     0.074 A 
ATOM     46  C   UNL     1       2.632 -11.148  -9.697  1.00  0.00     0.031 C 
ATOM     47  C   UNL     1       1.314 -12.762  -3.124  1.00  0.00     0.029 A 
ATOM     48  C   UNL     1       0.623 -13.570  -4.125  1.00  0.00     0.049 A 
ATOM     49  H   UNL     1       0.768 -13.418  -6.196  1.00  0.00     0.167 HD
ATOM     50  C   UNL     1       1.198 -12.985 -10.534  1.00  0.00     0.037 A 
ATOM     51  C   UNL     1      -0.241 -14.571  -3.863  1.00  0.00     0.037 A 
ATOM     52  C   UNL     1       0.312 -14.103 -10.351  1.00  0.00     0.049 A 
ATOM     53  C   UNL     1      -0.866 -15.319  -5.008  1.00  0.00     0.074 A 
ATOM     54  C   UNL     1      -0.258 -14.918 -11.313  1.00  0.00     0.029 A 
ATOM     55  N   UNL     1      -0.137 -14.563  -9.121  1.00  0.00    -0.354 N 
ATOM     56  N   UNL     1      -0.679 -15.168  -6.297  1.00  0.00    -0.248 NA
ATOM     57  C   UNL     1      -1.825 -16.379  -4.662  1.00  0.00     0.031 C 
ATOM     58  C   UNL     1      -1.093 -15.835 -10.669  1.00  0.00     0.029 A 
ATOM     59  C   UNL     1      -1.001 -15.631  -9.302  1.00  0.00     0.049 A 
ATOM     60  H   UNL     1       0.121 -14.187  -8.249  1.00  0.00     0.167 HD
ATOM     61  C   UNL     1      -1.479 -16.119  -6.915  1.00  0.00     0.074 A 
ATOM     62  C   UNL     1      -2.137 -16.860  -5.858  1.00  0.00     0.031 C 
ATOM     63  C   UNL     1      -1.657 -16.354  -8.239  1.00  0.00     0.037 A 
BRANCH  50  64
ATOM     64  C   UNL     1       1.566 -12.584 -11.934  1.00  0.00     0.064 A 
ATOM     65  C   UNL     1       2.868 -12.759 -12.429  1.00  0.00     0.173 A 
ATOM     66  C   UNL     1       0.602 -12.050 -12.803  1.00  0.00     0.173 A 
ATOM     67  F   UNL     1       3.831 -13.253 -11.636  1.00  0.00    -0.203 F 
ATOM     68  C   UNL     1       3.198 -12.386 -13.729  1.00  0.00     0.198 A 
ATOM     69  C   UNL     1       0.928 -11.711 -14.114  1.00  0.00     0.198 A 
ATOM     70  F   UNL     1      -0.659 -11.865 -12.384  1.00  0.00    -0.203 F 
ATOM     71  F   UNL     1       4.461 -12.513 -14.160  1.00  0.00    -0.200 F 
ATOM     72  C   UNL     1       2.227 -11.871 -14.573  1.00  0.00     0.200 A 
ATOM     73  F   UNL     1      -0.015 -11.226 -14.932  1.00  0.00    -0.200 F 
ATOM     74  F   UNL     1       2.544 -11.521 -15.827  1.00  0.00    -0.200 F 
ENDBRANCH  50  64
BRANCH  51  75
ATOM     75  C   UNL     1      -0.527 -14.942  -2.453  1.00  0.00     0.064 A 
ATOM     76  C   UNL     1      -0.057 -16.151  -1.922  1.00  0.00     0.173 A 
ATOM     77  C   UNL     1      -1.238 -14.087  -1.597  1.00  0.00     0.173 A 
ATOM     78  F   UNL     1       0.608 -17.012  -2.707  1.00  0.00    -0.203 F 
ATOM     79  C   UNL     1      -0.288 -16.492  -0.591  1.00  0.00     0.198 A 
ATOM     80  C   UNL     1      -1.444 -14.416  -0.259  1.00  0.00     0.198 A 
ATOM     81  F   UNL     1      -1.707 -12.917  -2.055  1.00  0.00    -0.203 F 
ATOM     82  F   UNL     1       0.150 -17.666  -0.117  1.00  0.00    -0.200 F 
ATOM     83  C   UNL     1      -0.971 -15.620   0.242  1.00  0.00     0.200 A 
ATOM     84  F   UNL     1      -2.091 -13.563   0.547  1.00  0.00    -0.200 F 
ATOM     85  F   UNL     1      -1.176 -15.939   1.527  1.00  0.00    -0.200 F 
ENDBRANCH  51  75
BRANCH  63  86
ATOM     86  C   UNL     1      -2.601 -17.455  -8.628  1.00  0.00     0.064 A 
ATOM     87  C   UNL     1      -3.987 -17.325  -8.458  1.00  0.00     0.173 A 
ATOM     88  C   UNL     1      -2.123 -18.625  -9.239  1.00  0.00     0.173 A 
ATOM     89  F   UNL     1      -4.495 -16.232  -7.869  1.00  0.00    -0.203 F 
ATOM     90  C   UNL     1      -4.857 -18.332  -8.868  1.00  0.00     0.198 A 
ATOM     91  C   UNL     1      -2.998 -19.615  -9.678  1.00  0.00     0.198 A 
ATOM     92  F   UNL     1      -0.806 -18.797  -9.434  1.00  0.00    -0.203 F 
ATOM     93  F   UNL     1      -6.175 -18.203  -8.657  1.00  0.00    -0.200 F 
ATOM     94  C   UNL     1      -4.363 -19.470  -9.486  1.00  0.00     0.200 A 
ATOM     95  F   UNL     1      -2.520 -20.706 -10.293  1.00  0.00    -0.200 F 
ATOM     96  F   UNL     1      -5.204 -20.431  -9.895  1.00  0.00    -0.200 F 
ENDBRANCH  63  86
ENDBRANCH  37  38
ENDBRANCH  29  32
ENDBRANCH  27  28
ENDBRANCH  26  27
ENDBRANCH  25  26
ENDBRANCH   1  25
TORSDOF 16
