REMARK SMILES CC[C@](C)(NS(=O)(=O)c1ccc(C(=O)OC)cc1)C(=O)NCCCCCCNC(=O)c1ccc(-c2c3nc(c(-c4c(F)c(F)c(F)c(F)c4F)c4ccc([nH]4)c(-c4c(F)c(F)c(F)c(F)c4F)c4nc(c(-c5c(F)c(F)c(F)c(F)c5F)c5ccc2[nH]5)C=C4)C=C3)cc1
REMARK SMILES IDX 23 1 22 2 21 3 19 4 20 5 3 7 4 8 2 9 1 10 5 11 6 13 7 14
REMARK SMILES IDX 8 15 9 16 10 17 18 18 11 19 17 20 12 21 13 22 14 23 15 24
REMARK SMILES IDX 16 25 24 26 25 27 26 28 27 29 28 30 29 31 30 33 31 34 32 35
REMARK SMILES IDX 93 36 33 37 92 38 34 39 35 40 36 41 86 42 37 43 91 44 85 45
REMARK SMILES IDX 87 46 38 47 90 48 84 49 83 50 39 52 71 53 51 54 70 55 52 56
REMARK SMILES IDX 55 57 69 58 88 59 53 60 54 61 68 63 89 64 56 65 40 66 41 67
REMARK SMILES IDX 49 68 42 69 43 70 47 71 50 72 44 73 45 74 48 75 46 76 72 77
REMARK SMILES IDX 73 78 81 79 74 80 75 81 79 82 82 83 76 84 77 85 80 86 78 87
REMARK SMILES IDX 57 88 58 89 66 90 59 91 60 92 64 93 67 94 61 95 62 96 65 97
REMARK SMILES IDX 63 98
REMARK H PARENT 21 6 5 12 28 32 87 51 55 62
REMARK Flexibility Score: inf
ROOT
ATOM      1  C   UNL     1       2.704  -3.538   5.044  1.00  0.00     0.021 C 
ENDROOT
BRANCH   1   2
ATOM      2  C   UNL     1       2.084  -2.211   4.609  1.00  0.00     0.116 C 
BRANCH   2   3
ATOM      3  N   UNL     1       2.594  -1.639   3.370  1.00  0.00    -0.354 N 
ATOM      4  C   UNL     1       2.099  -1.363   2.133  1.00  0.00     0.241 C 
ATOM      5  O   UNL     1       2.816  -0.587   1.481  1.00  0.00    -0.273 OA
ATOM      6  H   UNL     1       3.542  -1.385   3.448  1.00  0.00     0.163 HD
BRANCH   4   7
ATOM      7  C   UNL     1       0.825  -1.960   1.480  1.00  0.00     0.108 C 
ATOM      8  C   UNL     1       0.659  -1.293   0.061  1.00  0.00     0.040 C 
BRANCH   7   9
ATOM      9  C   UNL     1      -0.447  -1.589   2.287  1.00  0.00     0.030 C 
ATOM     10  C   UNL     1      -0.861  -0.112   2.156  1.00  0.00     0.006 C 
ENDBRANCH   7   9
BRANCH   7  11
ATOM     11  N   UNL     1       0.865  -3.381   1.049  1.00  0.00    -0.196 NA
ATOM     12  H   UNL     1       1.278  -3.317   0.119  1.00  0.00     0.142 HD
BRANCH  11  13
ATOM     13  S   UNL     1       1.511  -4.779   1.632  1.00  0.00     0.241 S 
ATOM     14  O   UNL     1       0.973  -4.971   2.958  1.00  0.00    -0.207 OA
ATOM     15  O   UNL     1       1.198  -5.743   0.595  1.00  0.00    -0.207 OA
BRANCH  13  16
ATOM     16  C   UNL     1       3.299  -4.747   1.692  1.00  0.00     0.082 A 
ATOM     17  C   UNL     1       3.959  -5.918   2.098  1.00  0.00     0.022 A 
ATOM     18  C   UNL     1       4.068  -3.626   1.397  1.00  0.00     0.022 A 
ATOM     19  C   UNL     1       5.346  -5.914   2.337  1.00  0.00     0.017 A 
ATOM     20  C   UNL     1       5.439  -3.593   1.709  1.00  0.00     0.017 A 
ATOM     21  C   UNL     1       6.082  -4.728   2.214  1.00  0.00     0.060 A 
BRANCH  21  22
ATOM     22  C   UNL     1       7.506  -4.704   2.660  1.00  0.00     0.337 C 
ATOM     23  O   UNL     1       8.139  -5.709   2.960  1.00  0.00    -0.246 OA
BRANCH  22  24
ATOM     24  O   UNL     1       7.957  -3.428   2.750  1.00  0.00    -0.465 OA
ATOM     25  C   UNL     1       9.301  -3.293   3.228  1.00  0.00     0.282 C 
ENDBRANCH  22  24
ENDBRANCH  21  22
ENDBRANCH  13  16
ENDBRANCH  11  13
ENDBRANCH   7  11
ENDBRANCH   4   7
ENDBRANCH   2   3
ENDBRANCH   1   2
BRANCH   1  26
ATOM     26  C   UNL     1       4.220  -3.619   5.172  1.00  0.00     0.002 C 
BRANCH  26  27
ATOM     27  C   UNL     1       4.796  -3.184   6.513  1.00  0.00     0.002 C 
BRANCH  27  28
ATOM     28  C   UNL     1       4.243  -3.927   7.730  1.00  0.00     0.021 C 
BRANCH  28  29
ATOM     29  C   UNL     1       4.334  -5.448   7.657  1.00  0.00     0.116 C 
BRANCH  29  30
ATOM     30  N   UNL     1       5.711  -5.926   7.657  1.00  0.00    -0.352 N 
ATOM     31  C   UNL     1       6.337  -6.713   8.595  1.00  0.00     0.251 C 
ATOM     32  H   UNL     1       6.261  -5.650   6.889  1.00  0.00     0.163 HD
ATOM     33  O   UNL     1       7.550  -6.880   8.586  1.00  0.00    -0.269 OA
BRANCH  31  34
ATOM     34  C   UNL     1       5.507  -7.342   9.639  1.00  0.00     0.039 A 
ATOM     35  C   UNL     1       5.806  -7.118  10.982  1.00  0.00     0.014 A 
ATOM     36  C   UNL     1       4.378  -8.076   9.267  1.00  0.00     0.014 A 
ATOM     37  C   UNL     1       4.926  -7.582  11.961  1.00  0.00     0.010 A 
ATOM     38  C   UNL     1       3.458  -8.451  10.237  1.00  0.00     0.010 A 
ATOM     39  C   UNL     1       3.728  -8.220  11.595  1.00  0.00    -0.014 A 
BRANCH  39  40
ATOM     40  C   UNL     1       2.763  -8.685  12.623  1.00  0.00     0.031 A 
ATOM     41  C   UNL     1       2.457 -10.153  12.743  1.00  0.00     0.074 A 
ATOM     42  C   UNL     1       2.139  -7.793  13.416  1.00  0.00     0.049 A 
ATOM     43  N   UNL     1       1.625 -10.764  13.549  1.00  0.00    -0.248 NA
ATOM     44  C   UNL     1       3.157 -11.055  11.813  1.00  0.00     0.031 C 
ATOM     45  C   UNL     1       2.309  -6.340  13.356  1.00  0.00     0.029 A 
ATOM     46  N   UNL     1       1.232  -7.977  14.430  1.00  0.00    -0.354 N 
ATOM     47  C   UNL     1       1.706 -12.111  13.221  1.00  0.00     0.074 A 
ATOM     48  C   UNL     1       2.597 -12.221  12.089  1.00  0.00     0.031 C 
ATOM     49  C   UNL     1       1.557  -5.768  14.310  1.00  0.00     0.029 A 
ATOM     50  C   UNL     1       0.823  -6.808  15.026  1.00  0.00     0.049 A 
ATOM     51  H   UNL     1       0.904  -8.864  14.704  1.00  0.00     0.167 HD
ATOM     52  C   UNL     1       1.125 -13.168  13.835  1.00  0.00     0.037 A 
ATOM     53  C   UNL     1      -0.047  -6.603  16.033  1.00  0.00     0.037 A 
ATOM     54  C   UNL     1       0.247 -13.055  14.969  1.00  0.00     0.049 A 
ATOM     55  C   UNL     1      -0.699  -7.796  16.685  1.00  0.00     0.074 A 
ATOM     56  C   UNL     1      -0.378 -14.062  15.681  1.00  0.00     0.029 A 
ATOM     57  N   UNL     1      -0.128 -11.855  15.556  1.00  0.00    -0.354 N 
ATOM     58  N   UNL     1      -0.562  -9.071  16.409  1.00  0.00    -0.248 NA
ATOM     59  C   UNL     1      -1.617  -7.521  17.799  1.00  0.00     0.031 C 
ATOM     60  C   UNL     1      -1.171 -13.469  16.669  1.00  0.00     0.029 A 
ATOM     61  C   UNL     1      -0.988 -12.097  16.615  1.00  0.00     0.049 A 
ATOM     62  H   UNL     1       0.172 -10.964  15.264  1.00  0.00     0.167 HD
ATOM     63  C   UNL     1      -1.341  -9.749  17.338  1.00  0.00     0.074 A 
ATOM     64  C   UNL     1      -1.933  -8.745  18.195  1.00  0.00     0.031 C 
ATOM     65  C   UNL     1      -1.551 -11.083  17.470  1.00  0.00     0.037 A 
BRANCH  52  66
ATOM     66  C   UNL     1       1.438 -14.536  13.300  1.00  0.00     0.064 A 
ATOM     67  C   UNL     1       2.724 -15.090  13.412  1.00  0.00     0.173 A 
ATOM     68  C   UNL     1       0.443 -15.314  12.692  1.00  0.00     0.173 A 
ATOM     69  F   UNL     1       3.718 -14.383  13.972  1.00  0.00    -0.203 F 
ATOM     70  C   UNL     1       3.009 -16.355  12.905  1.00  0.00     0.198 A 
ATOM     71  C   UNL     1       0.722 -16.594  12.219  1.00  0.00     0.198 A 
ATOM     72  F   UNL     1      -0.804 -14.837  12.561  1.00  0.00    -0.203 F 
ATOM     73  F   UNL     1       4.258 -16.837  12.972  1.00  0.00    -0.200 F 
ATOM     74  C   UNL     1       2.005 -17.110  12.318  1.00  0.00     0.200 A 
ATOM     75  F   UNL     1      -0.253 -17.329  11.665  1.00  0.00    -0.200 F 
ATOM     76  F   UNL     1       2.277 -18.332  11.839  1.00  0.00    -0.200 F 
ENDBRANCH  52  66
BRANCH  53  77
ATOM     77  C   UNL     1      -0.343  -5.223  16.507  1.00  0.00     0.064 A 
ATOM     78  C   UNL     1       0.019  -4.804  17.796  1.00  0.00     0.173 A 
ATOM     79  C   UNL     1      -1.030  -4.307  15.697  1.00  0.00     0.173 A 
ATOM     80  F   UNL     1       0.663  -5.646  18.617  1.00  0.00    -0.203 F 
ATOM     81  C   UNL     1      -0.330  -3.541  18.270  1.00  0.00     0.198 A 
ATOM     82  C   UNL     1      -1.347  -3.030  16.159  1.00  0.00     0.198 A 
ATOM     83  F   UNL     1      -1.394  -4.650  14.453  1.00  0.00    -0.203 F 
ATOM     84  F   UNL     1      -0.032  -3.195  19.530  1.00  0.00    -0.200 F 
ATOM     85  C   UNL     1      -1.010  -2.654  17.450  1.00  0.00     0.200 A 
ATOM     86  F   UNL     1      -1.988  -2.170  15.357  1.00  0.00    -0.200 F 
ATOM     87  F   UNL     1      -1.351  -1.441  17.908  1.00  0.00    -0.200 F 
ENDBRANCH  53  77
BRANCH  65  88
ATOM     88  C   UNL     1      -2.408 -11.535  18.618  1.00  0.00     0.064 A 
ATOM     89  C   UNL     1      -3.787 -11.284  18.661  1.00  0.00     0.173 A 
ATOM     90  C   UNL     1      -1.840 -12.257  19.680  1.00  0.00     0.173 A 
ATOM     91  F   UNL     1      -4.378 -10.588  17.677  1.00  0.00    -0.203 F 
ATOM     92  C   UNL     1      -4.558 -11.702  19.742  1.00  0.00     0.198 A 
ATOM     93  C   UNL     1      -2.620 -12.708  20.740  1.00  0.00     0.198 A 
ATOM     94  F   UNL     1      -0.527 -12.535  19.684  1.00  0.00    -0.203 F 
ATOM     95  F   UNL     1      -5.861 -11.394  19.792  1.00  0.00    -0.200 F 
ATOM     96  C   UNL     1      -3.975 -12.420  20.776  1.00  0.00     0.200 A 
ATOM     97  F   UNL     1      -2.059 -13.418  21.728  1.00  0.00    -0.200 F 
ATOM     98  F   UNL     1      -4.720 -12.826  21.814  1.00  0.00    -0.200 F 
ENDBRANCH  65  88
ENDBRANCH  39  40
ENDBRANCH  31  34
ENDBRANCH  29  30
ENDBRANCH  28  29
ENDBRANCH  27  28
ENDBRANCH  26  27
ENDBRANCH   1  26
TORSDOF 19
