REMARK SMILES C/C=C/C(=O)N[C@@H](Cc1ccc(F)cc1)C(=O)NCCCCCCNC(=O)c1ccc(-c2c3nc(c(-c4c(F)c(F)c(F)c(F)c4F)c4ccc([nH]4)c(-c4c(F)c(F)c(F)c(F)c4F)c4nc(c(-c5c(F)c(F)c(F)c(F)c5F)c5ccc2[nH]5)C=C4)C=C3)cc1
REMARK SMILES IDX 21 1 20 2 19 3 18 4 16 5 17 6 7 8 6 9 4 10 5 11 3 13 1 14
REMARK SMILES IDX 2 15 8 16 9 17 10 18 15 19 11 20 14 21 12 22 13 23 22 24
REMARK SMILES IDX 23 25 24 26 25 27 26 28 27 30 28 31 29 32 90 33 30 34 89 35
REMARK SMILES IDX 31 36 32 37 33 38 83 39 34 40 88 41 82 42 84 43 35 44 87 45
REMARK SMILES IDX 81 46 80 47 36 49 68 50 48 51 67 52 49 53 52 54 66 55 85 56
REMARK SMILES IDX 50 57 51 58 65 60 86 61 53 62 37 63 38 64 46 65 39 66 40 67
REMARK SMILES IDX 44 68 47 69 41 70 42 71 45 72 43 73 69 74 70 75 78 76 71 77
REMARK SMILES IDX 72 78 76 79 79 80 73 81 74 82 77 83 75 84 54 85 55 86 63 87
REMARK SMILES IDX 56 88 57 89 61 90 64 91 58 92 59 93 62 94 60 95
REMARK H PARENT 18 7 6 12 25 29 84 48 52 59
REMARK Flexibility Score: inf
ROOT
ATOM      1  C   UNL     1      -3.016   7.988   1.186  1.00  0.00     0.002 C 
ENDROOT
BRANCH   1   2
ATOM      2  C   UNL     1      -2.533   7.049   0.080  1.00  0.00     0.021 C 
BRANCH   2   3
ATOM      3  C   UNL     1      -1.108   6.539   0.230  1.00  0.00     0.116 C 
BRANCH   3   4
ATOM      4  N   UNL     1      -0.927   5.488   1.202  1.00  0.00    -0.354 N 
ATOM      5  C   UNL     1      -0.052   4.438   1.182  1.00  0.00     0.242 C 
ATOM      6  O   UNL     1       0.132   3.840   2.249  1.00  0.00    -0.273 OA
ATOM      7  H   UNL     1      -1.517   5.533   1.990  1.00  0.00     0.163 HD
BRANCH   5   8
ATOM      8  C   UNL     1       0.714   3.993  -0.093  1.00  0.00     0.176 C 
BRANCH   8   9
ATOM      9  N   UNL     1      -0.209   3.703  -1.192  1.00  0.00    -0.340 N 
ATOM     10  C   UNL     1      -0.606   2.547  -1.776  1.00  0.00     0.244 C 
ATOM     11  O   UNL     1      -1.452   2.615  -2.669  1.00  0.00    -0.270 OA
ATOM     12  H   UNL     1      -0.622   4.506  -1.584  1.00  0.00     0.164 HD
BRANCH  10  13
ATOM     13  C   UNL     1       0.005   1.227  -1.485  1.00  0.00     0.066 C 
ATOM     14  C   UNL     1       0.970  -0.669  -0.187  1.00  0.00     0.036 C 
ATOM     15  C   UNL     1       0.400   0.709  -0.313  1.00  0.00    -0.025 C 
ENDBRANCH  10  13
ENDBRANCH   8   9
BRANCH   8  16
ATOM     16  C   UNL     1       1.975   4.798  -0.481  1.00  0.00     0.070 C 
BRANCH  16  17
ATOM     17  C   UNL     1       1.877   6.255  -0.864  1.00  0.00    -0.045 A 
ATOM     18  C   UNL     1       1.264   6.660  -2.062  1.00  0.00     0.007 A 
ATOM     19  C   UNL     1       2.431   7.237  -0.023  1.00  0.00     0.007 A 
ATOM     20  C   UNL     1       1.122   8.019  -2.358  1.00  0.00     0.039 A 
ATOM     21  C   UNL     1       2.315   8.592  -0.337  1.00  0.00     0.039 A 
ATOM     22  C   UNL     1       1.643   8.971  -1.491  1.00  0.00     0.123 A 
ATOM     23  F   UNL     1       1.475  10.273  -1.760  1.00  0.00    -0.207 F 
ENDBRANCH  16  17
ENDBRANCH   8  16
ENDBRANCH   5   8
ENDBRANCH   3   4
ENDBRANCH   2   3
ENDBRANCH   1   2
BRANCH   1  24
ATOM     24  C   UNL     1      -2.118   9.192   1.492  1.00  0.00     0.002 C 
BRANCH  24  25
ATOM     25  C   UNL     1      -1.700  10.043   0.291  1.00  0.00     0.021 C 
BRANCH  25  26
ATOM     26  C   UNL     1      -2.844  10.606  -0.542  1.00  0.00     0.116 C 
BRANCH  26  27
ATOM     27  N   UNL     1      -3.708  11.491   0.223  1.00  0.00    -0.352 N 
ATOM     28  C   UNL     1      -4.056  12.795  -0.025  1.00  0.00     0.251 C 
ATOM     29  H   UNL     1      -4.099  11.098   1.036  1.00  0.00     0.163 HD
ATOM     30  O   UNL     1      -4.661  13.450   0.820  1.00  0.00    -0.269 OA
BRANCH  28  31
ATOM     31  C   UNL     1      -3.682  13.421  -1.310  1.00  0.00     0.039 A 
ATOM     32  C   UNL     1      -3.104  14.693  -1.306  1.00  0.00     0.014 A 
ATOM     33  C   UNL     1      -3.890  12.746  -2.516  1.00  0.00     0.014 A 
ATOM     34  C   UNL     1      -2.667  15.258  -2.506  1.00  0.00     0.010 A 
ATOM     35  C   UNL     1      -3.385  13.275  -3.698  1.00  0.00     0.010 A 
ATOM     36  C   UNL     1      -2.767  14.536  -3.705  1.00  0.00    -0.014 A 
BRANCH  36  37
ATOM     37  C   UNL     1      -2.239  15.068  -4.987  1.00  0.00     0.031 A 
ATOM     38  C   UNL     1      -3.177  15.326  -6.132  1.00  0.00     0.074 A 
ATOM     39  C   UNL     1      -0.911  15.234  -5.149  1.00  0.00     0.049 A 
ATOM     40  N   UNL     1      -2.903  15.646  -7.371  1.00  0.00    -0.248 NA
ATOM     41  C   UNL     1      -4.615  15.178  -5.853  1.00  0.00     0.031 C 
ATOM     42  C   UNL     1       0.102  14.995  -4.121  1.00  0.00     0.029 A 
ATOM     43  N   UNL     1      -0.184  15.626  -6.247  1.00  0.00    -0.354 N 
ATOM     44  C   UNL     1      -4.128  15.719  -8.019  1.00  0.00     0.074 A 
ATOM     45  C   UNL     1      -5.144  15.361  -7.054  1.00  0.00     0.031 C 
ATOM     46  C   UNL     1       1.315  15.262  -4.629  1.00  0.00     0.029 A 
ATOM     47  C   UNL     1       1.173  15.638  -6.032  1.00  0.00     0.049 A 
ATOM     48  H   UNL     1      -0.596  15.874  -7.106  1.00  0.00     0.167 HD
ATOM     49  C   UNL     1      -4.381  16.075  -9.300  1.00  0.00     0.037 A 
ATOM     50  C   UNL     1       2.190  15.902  -6.877  1.00  0.00     0.037 A 
ATOM     51  C   UNL     1      -3.368  16.458 -10.246  1.00  0.00     0.049 A 
ATOM     52  C   UNL     1       1.885  16.259  -8.307  1.00  0.00     0.074 A 
ATOM     53  C   UNL     1      -3.530  16.885 -11.552  1.00  0.00     0.029 A 
ATOM     54  N   UNL     1      -2.005  16.460  -9.989  1.00  0.00    -0.354 N 
ATOM     55  N   UNL     1       0.720  16.366  -8.900  1.00  0.00    -0.248 NA
ATOM     56  C   UNL     1       3.031  16.528  -9.188  1.00  0.00     0.031 C 
ATOM     57  C   UNL     1      -2.264  17.091 -12.103  1.00  0.00     0.029 A 
ATOM     58  C   UNL     1      -1.314  16.856 -11.122  1.00  0.00     0.049 A 
ATOM     59  H   UNL     1      -1.591  16.217  -9.129  1.00  0.00     0.167 HD
ATOM     60  C   UNL     1       0.990  16.743 -10.209  1.00  0.00     0.074 A 
ATOM     61  C   UNL     1       2.428  16.851 -10.325  1.00  0.00     0.031 C 
ATOM     62  C   UNL     1       0.119  16.978 -11.220  1.00  0.00     0.037 A 
BRANCH  49  63
ATOM     63  C   UNL     1      -5.810  16.082  -9.761  1.00  0.00     0.064 A 
ATOM     64  C   UNL     1      -6.247  15.171 -10.735  1.00  0.00     0.173 A 
ATOM     65  C   UNL     1      -6.724  17.041  -9.303  1.00  0.00     0.173 A 
ATOM     66  F   UNL     1      -5.411  14.237 -11.213  1.00  0.00    -0.203 F 
ATOM     67  C   UNL     1      -7.542  15.233 -11.244  1.00  0.00     0.198 A 
ATOM     68  C   UNL     1      -8.028  17.079  -9.790  1.00  0.00     0.198 A 
ATOM     69  F   UNL     1      -6.359  17.928  -8.365  1.00  0.00    -0.203 F 
ATOM     70  F   UNL     1      -7.924  14.378 -12.203  1.00  0.00    -0.200 F 
ATOM     71  C   UNL     1      -8.431  16.184 -10.769  1.00  0.00     0.200 A 
ATOM     72  F   UNL     1      -8.894  17.983  -9.312  1.00  0.00    -0.200 F 
ATOM     73  F   UNL     1      -9.680  16.237 -11.254  1.00  0.00    -0.200 F 
ENDBRANCH  49  63
BRANCH  50  74
ATOM     74  C   UNL     1       3.590  15.858  -6.378  1.00  0.00     0.064 A 
ATOM     75  C   UNL     1       4.195  14.651  -5.995  1.00  0.00     0.173 A 
ATOM     76  C   UNL     1       4.340  17.034  -6.243  1.00  0.00     0.173 A 
ATOM     77  F   UNL     1       3.520  13.497  -6.102  1.00  0.00    -0.203 F 
ATOM     78  C   UNL     1       5.487  14.627  -5.474  1.00  0.00     0.198 A 
ATOM     79  C   UNL     1       5.643  17.005  -5.750  1.00  0.00     0.198 A 
ATOM     80  F   UNL     1       3.814  18.210  -6.616  1.00  0.00    -0.203 F 
ATOM     81  F   UNL     1       6.027  13.465  -5.080  1.00  0.00    -0.200 F 
ATOM     82  C   UNL     1       6.212  15.803  -5.356  1.00  0.00     0.200 A 
ATOM     83  F   UNL     1       6.349  18.140  -5.662  1.00  0.00    -0.200 F 
ATOM     84  F   UNL     1       7.459  15.778  -4.866  1.00  0.00    -0.200 F 
ENDBRANCH  50  74
BRANCH  62  85
ATOM     85  C   UNL     1       0.673  17.412 -12.545  1.00  0.00     0.064 A 
ATOM     86  C   UNL     1       0.438  18.714 -13.015  1.00  0.00     0.173 A 
ATOM     87  C   UNL     1       1.319  16.510 -13.401  1.00  0.00     0.173 A 
ATOM     88  F   UNL     1      -0.185  19.612 -12.237  1.00  0.00    -0.203 F 
ATOM     89  C   UNL     1       0.801  19.085 -14.306  1.00  0.00     0.198 A 
ATOM     90  C   UNL     1       1.707  16.894 -14.682  1.00  0.00     0.198 A 
ATOM     91  F   UNL     1       1.577  15.258 -12.993  1.00  0.00    -0.203 F 
ATOM     92  F   UNL     1       0.516  20.317 -14.753  1.00  0.00    -0.200 F 
ATOM     93  C   UNL     1       1.434  18.175 -15.139  1.00  0.00     0.200 A 
ATOM     94  F   UNL     1       2.338  16.020 -15.479  1.00  0.00    -0.200 F 
ATOM     95  F   UNL     1       1.777  18.532 -16.384  1.00  0.00    -0.200 F 
ENDBRANCH  62  85
ENDBRANCH  36  37
ENDBRANCH  28  31
ENDBRANCH  26  27
ENDBRANCH  25  26
ENDBRANCH  24  25
ENDBRANCH   1  24
TORSDOF 17
