REMARK SMILES [NH3+]CCOCC(=O)N1C[C@@H](C(=O)NCCCCCCNC(=O)c2ccc(-c3c4nc(c(-c5c(F)c(F)c(F)c(F)c5F)c5ccc([nH]5)c(-c5c(F)c(F)c(F)c(F)c5F)c5nc(c(-c6c(F)c(F)c(F)c(F)c6F)c6ccc3[nH]6)C=C5)C=C4)cc2)Oc2ccccc21
REMARK SMILES IDX 14 1 13 2 11 3 12 4 10 6 8 7 9 8 92 9 87 10 91 11 86 12
REMARK SMILES IDX 88 13 90 14 89 15 6 16 7 17 5 18 4 19 3 20 2 21 1 22 15 26
REMARK SMILES IDX 16 27 17 28 18 29 19 30 20 31 21 32 22 34 23 35 24 36 85 37
REMARK SMILES IDX 25 38 84 39 26 40 27 41 28 42 78 43 29 44 83 45 77 46 79 47
REMARK SMILES IDX 30 48 82 49 76 50 75 51 31 53 63 54 43 55 62 56 44 57 47 58
REMARK SMILES IDX 61 59 80 60 45 61 46 62 60 64 81 65 48 66 32 67 33 68 41 69
REMARK SMILES IDX 34 70 35 71 39 72 42 73 36 74 37 75 40 76 38 77 64 78 65 79
REMARK SMILES IDX 73 80 66 81 67 82 71 83 74 84 68 85 69 86 72 87 70 88 49 89
REMARK SMILES IDX 50 90 58 91 51 92 52 93 56 94 59 95 53 96 54 97 57 98 55 99
REMARK H PARENT 13 5 1 23 1 24 1 25 20 33 79 52 47 63
REMARK Flexibility Score: inf
ROOT
ATOM      1  C   UNL     1       7.173   3.936  -1.558  1.00  0.00     0.116 C 
ENDROOT
BRANCH   1   2
ATOM      2  N   UNL     1       5.961   3.716  -0.798  1.00  0.00    -0.353 N 
ATOM      3  C   UNL     1       4.657   3.878  -1.139  1.00  0.00     0.262 C 
ATOM      4  O   UNL     1       3.835   3.735  -0.227  1.00  0.00    -0.271 OA
ATOM      5  H   UNL     1       6.107   3.394   0.121  1.00  0.00     0.163 HD
BRANCH   3   6
ATOM      6  C   UNL     1       4.200   4.278  -2.565  1.00  0.00     0.281 C 
ATOM      7  N   UNL     1       3.203   2.087  -3.073  1.00  0.00    -0.303 N 
ATOM      8  C   UNL     1       2.908   3.519  -2.898  1.00  0.00     0.181 C 
ATOM      9  C   UNL     1       4.406   1.826  -3.809  1.00  0.00     0.086 A 
ATOM     10  C   UNL     1       5.266   2.895  -4.122  1.00  0.00     0.144 A 
ATOM     11  C   UNL     1       4.733   0.558  -4.303  1.00  0.00     0.030 A 
ATOM     12  O   UNL     1       5.096   4.178  -3.661  1.00  0.00    -0.477 OA
ATOM     13  C   UNL     1       6.390   2.709  -4.933  1.00  0.00     0.049 A 
ATOM     14  C   UNL     1       5.872   0.367  -5.095  1.00  0.00     0.002 A 
ATOM     15  C   UNL     1       6.696   1.442  -5.416  1.00  0.00     0.004 A 
BRANCH   7  16
ATOM     16  C   UNL     1       2.425   1.082  -2.501  1.00  0.00     0.253 C 
ATOM     17  O   UNL     1       2.856  -0.030  -2.184  1.00  0.00    -0.272 OA
BRANCH  16  18
ATOM     18  C   UNL     1       0.917   1.375  -2.330  1.00  0.00     0.260 C 
BRANCH  18  19
ATOM     19  O   UNL     1       0.435   2.285  -1.367  1.00  0.00    -0.366 OA
BRANCH  19  20
ATOM     20  C   UNL     1       0.988   2.152  -0.057  1.00  0.00     0.222 C 
BRANCH  20  21
ATOM     21  C   UNL     1       0.407   1.000   0.774  1.00  0.00     0.287 C 
BRANCH  21  22
ATOM     22  N   UNL     1       0.983  -0.314   0.479  1.00  0.00    -0.356 N 
ATOM     23  H   UNL     1       0.543  -1.018   1.071  1.00  0.00     0.344 HD
ATOM     24  H   UNL     1       1.986  -0.294   0.661  1.00  0.00     0.344 HD
ATOM     25  H   UNL     1       0.819  -0.544  -0.501  1.00  0.00     0.344 HD
ENDBRANCH  21  22
ENDBRANCH  20  21
ENDBRANCH  19  20
ENDBRANCH  18  19
ENDBRANCH  16  18
ENDBRANCH   7  16
ENDBRANCH   3   6
ENDBRANCH   1   2
BRANCH   1  26
ATOM     26  C   UNL     1       8.244   4.614  -0.708  1.00  0.00     0.021 C 
BRANCH  26  27
ATOM     27  C   UNL     1       8.742   3.801   0.491  1.00  0.00     0.002 C 
BRANCH  27  28
ATOM     28  C   UNL     1       9.350   2.436   0.159  1.00  0.00     0.002 C 
BRANCH  28  29
ATOM     29  C   UNL     1      10.475   2.456  -0.876  1.00  0.00     0.021 C 
BRANCH  29  30
ATOM     30  C   UNL     1      11.626   3.402  -0.557  1.00  0.00     0.116 C 
BRANCH  30  31
ATOM     31  N   UNL     1      12.334   3.037   0.659  1.00  0.00    -0.352 N 
ATOM     32  C   UNL     1      13.685   2.886   0.863  1.00  0.00     0.251 C 
ATOM     33  H   UNL     1      11.766   2.874   1.447  1.00  0.00     0.163 HD
ATOM     34  O   UNL     1      14.111   2.424   1.912  1.00  0.00    -0.269 OA
BRANCH  32  35
ATOM     35  C   UNL     1      14.626   3.262  -0.214  1.00  0.00     0.039 A 
ATOM     36  C   UNL     1      15.645   2.371  -0.563  1.00  0.00     0.014 A 
ATOM     37  C   UNL     1      14.490   4.477  -0.890  1.00  0.00     0.014 A 
ATOM     38  C   UNL     1      16.485   2.670  -1.638  1.00  0.00     0.010 A 
ATOM     39  C   UNL     1      15.277   4.737  -2.007  1.00  0.00     0.010 A 
ATOM     40  C   UNL     1      16.282   3.836  -2.394  1.00  0.00    -0.014 A 
BRANCH  40  41
ATOM     41  C   UNL     1      17.102   4.135  -3.596  1.00  0.00     0.031 A 
ATOM     42  C   UNL     1      17.973   5.360  -3.626  1.00  0.00     0.074 A 
ATOM     43  C   UNL     1      17.002   3.350  -4.686  1.00  0.00     0.049 A 
ATOM     44  N   UNL     1      18.677   5.853  -4.613  1.00  0.00    -0.248 NA
ATOM     45  C   UNL     1      18.039   6.152  -2.388  1.00  0.00     0.031 C 
ATOM     46  C   UNL     1      16.164   2.155  -4.795  1.00  0.00     0.029 A 
ATOM     47  N   UNL     1      17.597   3.450  -5.920  1.00  0.00    -0.354 N 
ATOM     48  C   UNL     1      19.254   7.016  -4.121  1.00  0.00     0.074 A 
ATOM     49  C   UNL     1      18.775   7.186  -2.767  1.00  0.00     0.031 C 
ATOM     50  C   UNL     1      16.311   1.624  -6.019  1.00  0.00     0.029 A 
ATOM     51  C   UNL     1      17.215   2.465  -6.798  1.00  0.00     0.049 A 
ATOM     52  H   UNL     1      18.237   4.161  -6.153  1.00  0.00     0.167 HD
ATOM     53  C   UNL     1      20.121   7.855  -4.737  1.00  0.00     0.037 A 
ATOM     54  C   UNL     1      17.543   2.271  -8.090  1.00  0.00     0.037 A 
ATOM     55  C   UNL     1      20.609   7.671  -6.079  1.00  0.00     0.049 A 
ATOM     56  C   UNL     1      18.489   3.233  -8.759  1.00  0.00     0.074 A 
ATOM     57  C   UNL     1      21.529   8.435  -6.775  1.00  0.00     0.029 A 
ATOM     58  N   UNL     1      20.211   6.651  -6.931  1.00  0.00    -0.354 N 
ATOM     59  N   UNL     1      19.076   4.296  -8.265  1.00  0.00    -0.248 NA
ATOM     60  C   UNL     1      18.823   2.964 -10.165  1.00  0.00     0.031 C 
ATOM     61  C   UNL     1      21.644   7.913  -8.066  1.00  0.00     0.029 A 
ATOM     62  C   UNL     1      20.848   6.782  -8.155  1.00  0.00     0.049 A 
ATOM     63  H   UNL     1      19.571   5.939  -6.701  1.00  0.00     0.167 HD
ATOM     64  C   UNL     1      19.875   4.799  -9.283  1.00  0.00     0.074 A 
ATOM     65  C   UNL     1      19.704   3.920 -10.421  1.00  0.00     0.031 C 
ATOM     66  C   UNL     1      20.682   5.889  -9.273  1.00  0.00     0.037 A 
BRANCH  53  67
ATOM     67  C   UNL     1      20.598   9.053  -3.966  1.00  0.00     0.064 A 
ATOM     68  C   UNL     1      21.443   8.927  -2.853  1.00  0.00     0.173 A 
ATOM     69  C   UNL     1      20.236  10.348  -4.369  1.00  0.00     0.173 A 
ATOM     70  F   UNL     1      21.811   7.712  -2.418  1.00  0.00    -0.203 F 
ATOM     71  C   UNL     1      21.881  10.049  -2.153  1.00  0.00     0.198 A 
ATOM     72  C   UNL     1      20.705  11.469  -3.689  1.00  0.00     0.198 A 
ATOM     73  F   UNL     1      19.436  10.528  -5.430  1.00  0.00    -0.203 F 
ATOM     74  F   UNL     1      22.643   9.900  -1.061  1.00  0.00    -0.200 F 
ATOM     75  C   UNL     1      21.519  11.319  -2.576  1.00  0.00     0.200 A 
ATOM     76  F   UNL     1      20.367  12.696  -4.109  1.00  0.00    -0.200 F 
ATOM     77  F   UNL     1      21.949  12.398  -1.908  1.00  0.00    -0.200 F 
ENDBRANCH  53  67
BRANCH  54  78
ATOM     78  C   UNL     1      16.985   1.111  -8.834  1.00  0.00     0.064 A 
ATOM     79  C   UNL     1      17.810   0.056  -9.248  1.00  0.00     0.173 A 
ATOM     80  C   UNL     1      15.621   1.035  -9.155  1.00  0.00     0.173 A 
ATOM     81  F   UNL     1      19.124   0.091  -8.984  1.00  0.00    -0.203 F 
ATOM     82  C   UNL     1      17.299  -1.017  -9.976  1.00  0.00     0.198 A 
ATOM     83  C   UNL     1      15.105  -0.054  -9.854  1.00  0.00     0.198 A 
ATOM     84  F   UNL     1      14.786   2.014  -8.777  1.00  0.00    -0.203 F 
ATOM     85  F   UNL     1      18.120  -1.984 -10.405  1.00  0.00    -0.200 F 
ATOM     86  C   UNL     1      15.946  -1.074 -10.273  1.00  0.00     0.200 A 
ATOM     87  F   UNL     1      13.794  -0.113 -10.125  1.00  0.00    -0.200 F 
ATOM     88  F   UNL     1      15.453  -2.107 -10.970  1.00  0.00    -0.200 F 
ENDBRANCH  54  78
BRANCH  66  89
ATOM     89  C   UNL     1      21.489   6.166 -10.509  1.00  0.00     0.064 A 
ATOM     90  C   UNL     1      20.898   6.625 -11.695  1.00  0.00     0.173 A 
ATOM     91  C   UNL     1      22.886   6.021 -10.486  1.00  0.00     0.173 A 
ATOM     92  F   UNL     1      19.567   6.767 -11.775  1.00  0.00    -0.203 F 
ATOM     93  C   UNL     1      21.672   6.907 -12.818  1.00  0.00     0.198 A 
ATOM     94  C   UNL     1      23.660   6.336 -11.598  1.00  0.00     0.198 A 
ATOM     95  F   UNL     1      23.503   5.592  -9.374  1.00  0.00    -0.203 F 
ATOM     96  F   UNL     1      21.082   7.300 -13.955  1.00  0.00    -0.200 F 
ATOM     97  C   UNL     1      23.052   6.772 -12.766  1.00  0.00     0.200 A 
ATOM     98  F   UNL     1      24.994   6.221 -11.540  1.00  0.00    -0.200 F 
ATOM     99  F   UNL     1      23.796   7.057 -13.843  1.00  0.00    -0.200 F 
ENDBRANCH  66  89
ENDBRANCH  40  41
ENDBRANCH  32  35
ENDBRANCH  30  31
ENDBRANCH  29  30
ENDBRANCH  28  29
ENDBRANCH  27  28
ENDBRANCH  26  27
ENDBRANCH   1  26
TORSDOF 19
