REMARK SMILES Cc1nnc(S[C@@H](C)CCO)c(C(=O)NCCCCCCNC(=O)c2ccc(-c3c4nc(c(-c5c(F)c(F)c(F)c(F)c5F)c5ccc([nH]5)c(-c5c(F)c(F)c(F)c(F)c5F)c5nc(c(-c6c(F)c(F)c(F)c(F)c6F)c6ccc3[nH]6)C=C5)C=C4)cc2)c1C
REMARK SMILES IDX 17 1 16 2 15 3 13 4 14 5 12 7 1 8 2 9 3 10 88 11 4 12 89 13
REMARK SMILES IDX 5 14 6 15 7 16 8 17 9 18 10 19 11 20 18 22 19 23 20 24 21 25
REMARK SMILES IDX 22 26 23 27 24 29 25 30 26 31 87 32 27 33 86 34 28 35 29 36
REMARK SMILES IDX 30 37 80 38 31 39 85 40 79 41 81 42 32 43 84 44 78 45 77 46
REMARK SMILES IDX 33 48 65 49 45 50 64 51 46 52 49 53 63 54 82 55 47 56 48 57
REMARK SMILES IDX 62 59 83 60 50 61 34 62 35 63 43 64 36 65 37 66 41 67 44 68
REMARK SMILES IDX 38 69 39 70 42 71 40 72 66 73 67 74 75 75 68 76 69 77 73 78
REMARK SMILES IDX 76 79 70 80 71 81 74 82 72 83 51 84 52 85 60 86 53 87 54 88
REMARK SMILES IDX 58 89 61 90 55 91 56 92 59 93 57 94
REMARK H PARENT 15 6 11 21 22 28 81 47 49 58
REMARK Flexibility Score: inf
ROOT
ATOM      1  C   UNL     1      -0.471   1.565  -5.420  1.00  0.00     0.021 C 
ENDROOT
BRANCH   1   2
ATOM      2  C   UNL     1      -0.776   0.847  -4.111  1.00  0.00     0.116 C 
BRANCH   2   3
ATOM      3  N   UNL     1      -1.571  -0.361  -4.221  1.00  0.00    -0.352 N 
ATOM      4  C   UNL     1      -1.649  -1.478  -3.410  1.00  0.00     0.254 C 
ATOM      5  O   UNL     1      -2.647  -2.179  -3.523  1.00  0.00    -0.269 OA
ATOM      6  H   UNL     1      -2.158  -0.390  -5.011  1.00  0.00     0.163 HD
BRANCH   4   7
ATOM      7  C   UNL     1      -0.586  -1.859  -2.449  1.00  0.00     0.078 A 
ATOM      8  C   UNL     1       1.477  -0.426   0.447  1.00  0.00     0.069 C 
ATOM      9  C   UNL     1       0.937  -1.294  -0.650  1.00  0.00     0.064 A 
ATOM     10  N   UNL     1       1.556  -2.471  -0.805  1.00  0.00    -0.155 NA
ATOM     11  C   UNL     1      -0.170  -0.953  -1.432  1.00  0.00    -0.012 A 
ATOM     12  N   UNL     1       1.049  -3.397  -1.672  1.00  0.00    -0.143 NA
ATOM     13  C   UNL     1      -0.908   0.316  -1.095  1.00  0.00     0.047 C 
ATOM     14  C   UNL     1      -0.031  -3.150  -2.457  1.00  0.00     0.132 A 
BRANCH  14  15
ATOM     15  S   UNL     1      -0.633  -4.733  -3.023  1.00  0.00    -0.101 SA
BRANCH  15  16
ATOM     16  C   UNL     1      -1.173  -4.736  -4.776  1.00  0.00     0.052 C 
ATOM     17  C   UNL     1      -2.703  -4.762  -4.851  1.00  0.00     0.020 C 
BRANCH  16  18
ATOM     18  C   UNL     1      -0.464  -3.799  -5.759  1.00  0.00     0.043 C 
BRANCH  18  19
ATOM     19  C   UNL     1       0.886  -4.348  -6.228  1.00  0.00     0.157 C 
BRANCH  19  20
ATOM     20  O   UNL     1       0.699  -5.453  -7.107  1.00  0.00    -0.396 OA
ATOM     21  H   UNL     1       0.224  -6.160  -6.641  1.00  0.00     0.210 HD
ENDBRANCH  19  20
ENDBRANCH  18  19
ENDBRANCH  16  18
ENDBRANCH  15  16
ENDBRANCH  14  15
ENDBRANCH   4   7
ENDBRANCH   2   3
ENDBRANCH   1   2
BRANCH   1  22
ATOM     22  C   UNL     1      -1.640   1.916  -6.348  1.00  0.00     0.002 C 
BRANCH  22  23
ATOM     23  C   UNL     1      -2.888   2.577  -5.753  1.00  0.00     0.002 C 
BRANCH  23  24
ATOM     24  C   UNL     1      -2.679   3.793  -4.856  1.00  0.00     0.021 C 
BRANCH  24  25
ATOM     25  C   UNL     1      -1.739   4.856  -5.400  1.00  0.00     0.116 C 
BRANCH  25  26
ATOM     26  N   UNL     1      -2.251   5.512  -6.590  1.00  0.00    -0.352 N 
ATOM     27  C   UNL     1      -2.544   6.845  -6.763  1.00  0.00     0.251 C 
ATOM     28  H   UNL     1      -2.409   4.931  -7.369  1.00  0.00     0.163 HD
ATOM     29  O   UNL     1      -3.088   7.257  -7.774  1.00  0.00    -0.269 OA
BRANCH  27  30
ATOM     30  C   UNL     1      -2.202   7.772  -5.668  1.00  0.00     0.039 A 
ATOM     31  C   UNL     1      -3.217   8.524  -5.076  1.00  0.00     0.014 A 
ATOM     32  C   UNL     1      -0.892   7.815  -5.179  1.00  0.00     0.014 A 
ATOM     33  C   UNL     1      -2.922   9.298  -3.955  1.00  0.00     0.010 A 
ATOM     34  C   UNL     1      -0.620   8.520  -4.014  1.00  0.00     0.010 A 
ATOM     35  C   UNL     1      -1.627   9.287  -3.409  1.00  0.00    -0.014 A 
BRANCH  35  36
ATOM     36  C   UNL     1      -1.294  10.155  -2.258  1.00  0.00     0.031 A 
ATOM     37  C   UNL     1      -0.391  11.335  -2.472  1.00  0.00     0.074 A 
ATOM     38  C   UNL     1      -1.803   9.895  -1.040  1.00  0.00     0.049 A 
ATOM     39  N   UNL     1      -0.033  12.266  -1.627  1.00  0.00    -0.248 NA
ATOM     40  C   UNL     1       0.205  11.478  -3.811  1.00  0.00     0.031 C 
ATOM     41  C   UNL     1      -2.663   8.758  -0.710  1.00  0.00     0.029 A 
ATOM     42  N   UNL     1      -1.685  10.580   0.143  1.00  0.00    -0.354 N 
ATOM     43  C   UNL     1       0.803  13.113  -2.340  1.00  0.00     0.074 A 
ATOM     44  C   UNL     1       0.985  12.534  -3.651  1.00  0.00     0.031 C 
ATOM     45  C   UNL     1      -3.034   8.850   0.578  1.00  0.00     0.029 A 
ATOM     46  C   UNL     1      -2.423  10.040   1.167  1.00  0.00     0.049 A 
ATOM     47  H   UNL     1      -1.125  11.383   0.247  1.00  0.00     0.167 HD
ATOM     48  C   UNL     1       1.328  14.298  -1.956  1.00  0.00     0.037 A 
ATOM     49  C   UNL     1      -2.602  10.475   2.430  1.00  0.00     0.037 A 
ATOM     50  C   UNL     1       1.143  14.869  -0.652  1.00  0.00     0.049 A 
ATOM     51  C   UNL     1      -1.941  11.756   2.865  1.00  0.00     0.074 A 
ATOM     52  C   UNL     1       1.611  16.074  -0.165  1.00  0.00     0.029 A 
ATOM     53  N   UNL     1       0.435  14.263   0.377  1.00  0.00    -0.354 N 
ATOM     54  N   UNL     1      -1.219  12.593   2.159  1.00  0.00    -0.248 NA
ATOM     55  C   UNL     1      -2.121  12.155   4.268  1.00  0.00     0.031 C 
ATOM     56  C   UNL     1       1.232  16.174   1.177  1.00  0.00     0.029 A 
ATOM     57  C   UNL     1       0.484  15.055   1.511  1.00  0.00     0.049 A 
ATOM     58  H   UNL     1      -0.032  13.399   0.310  1.00  0.00     0.167 HD
ATOM     59  C   UNL     1      -0.877  13.627   3.022  1.00  0.00     0.074 A 
ATOM     60  C   UNL     1      -1.482  13.318   4.301  1.00  0.00     0.031 C 
ATOM     61  C   UNL     1      -0.129  14.730   2.775  1.00  0.00     0.037 A 
BRANCH  48  62
ATOM     62  C   UNL     1       2.129  15.055  -2.973  1.00  0.00     0.064 A 
ATOM     63  C   UNL     1       1.520  15.617  -4.107  1.00  0.00     0.173 A 
ATOM     64  C   UNL     1       3.510  15.233  -2.815  1.00  0.00     0.173 A 
ATOM     65  F   UNL     1       0.203  15.461  -4.314  1.00  0.00    -0.203 F 
ATOM     66  C   UNL     1       2.270  16.297  -5.062  1.00  0.00     0.198 A 
ATOM     67  C   UNL     1       4.252  15.944  -3.755  1.00  0.00     0.198 A 
ATOM     68  F   UNL     1       4.142  14.719  -1.749  1.00  0.00    -0.203 F 
ATOM     69  F   UNL     1       1.675  16.771  -6.165  1.00  0.00    -0.200 F 
ATOM     70  C   UNL     1       3.634  16.467  -4.881  1.00  0.00     0.200 A 
ATOM     71  F   UNL     1       5.569  16.118  -3.574  1.00  0.00    -0.200 F 
ATOM     72  F   UNL     1       4.355  17.126  -5.798  1.00  0.00    -0.200 F 
ENDBRANCH  48  62
BRANCH  49  73
ATOM     73  C   UNL     1      -3.501   9.723   3.345  1.00  0.00     0.064 A 
ATOM     74  C   UNL     1      -4.744  10.253   3.717  1.00  0.00     0.173 A 
ATOM     75  C   UNL     1      -3.161   8.453   3.832  1.00  0.00     0.173 A 
ATOM     76  F   UNL     1      -5.107  11.471   3.291  1.00  0.00    -0.203 F 
ATOM     77  C   UNL     1      -5.613   9.541   4.543  1.00  0.00     0.198 A 
ATOM     78  C   UNL     1      -4.039   7.732   4.638  1.00  0.00     0.198 A 
ATOM     79  F   UNL     1      -1.984   7.900   3.501  1.00  0.00    -0.203 F 
ATOM     80  F   UNL     1      -6.786  10.079   4.901  1.00  0.00    -0.200 F 
ATOM     81  C   UNL     1      -5.263   8.277   4.995  1.00  0.00     0.200 A 
ATOM     82  F   UNL     1      -3.704   6.505   5.060  1.00  0.00    -0.200 F 
ATOM     83  F   UNL     1      -6.106   7.585   5.775  1.00  0.00    -0.200 F 
ENDBRANCH  49  73
BRANCH  61  84
ATOM     84  C   UNL     1       0.094  15.696   3.901  1.00  0.00     0.064 A 
ATOM     85  C   UNL     1       0.979  15.400   4.946  1.00  0.00     0.173 A 
ATOM     86  C   UNL     1      -0.478  16.978   3.862  1.00  0.00     0.173 A 
ATOM     87  F   UNL     1       1.541  14.185   5.031  1.00  0.00    -0.203 F 
ATOM     88  C   UNL     1       1.288  16.355   5.911  1.00  0.00     0.198 A 
ATOM     89  C   UNL     1      -0.144  17.938   4.812  1.00  0.00     0.198 A 
ATOM     90  F   UNL     1      -1.323  17.312   2.875  1.00  0.00    -0.203 F 
ATOM     91  F   UNL     1       2.127  16.047   6.910  1.00  0.00    -0.200 F 
ATOM     92  C   UNL     1       0.739  17.627   5.835  1.00  0.00     0.200 A 
ATOM     93  F   UNL     1      -0.659  19.172   4.725  1.00  0.00    -0.200 F 
ATOM     94  F   UNL     1       1.066  18.554   6.745  1.00  0.00    -0.200 F 
ENDBRANCH  61  84
ENDBRANCH  35  36
ENDBRANCH  27  30
ENDBRANCH  25  26
ENDBRANCH  24  25
ENDBRANCH  23  24
ENDBRANCH  22  23
ENDBRANCH   1  22
TORSDOF 18
