REMARK SMILES O=C(Cc1ccc(NC(=O)C2CCCC2)cc1)NCCCCCCNC(=O)c1ccc(-c2c3nc(c(-c4c(F)c(F)c(F)c(F)c4F)c4ccc([nH]4)c(-c4c(F)c(F)c(F)c(F)c4F)c4nc(c(-c5c(F)c(F)c(F)c(F)c5F)c5ccc2[nH]5)C=C4)C=C3)cc1
REMARK SMILES IDX 21 1 20 2 19 3 18 4 1 5 2 6 3 8 4 9 5 10 17 11 6 12 16 13
REMARK SMILES IDX 7 14 8 15 9 16 10 18 11 19 12 20 15 21 13 22 14 23 22 24
REMARK SMILES IDX 23 25 24 26 25 27 26 28 27 30 28 31 29 32 90 33 30 34 89 35
REMARK SMILES IDX 31 36 32 37 33 38 83 39 34 40 88 41 82 42 84 43 35 44 87 45
REMARK SMILES IDX 81 46 80 47 36 49 68 50 48 51 67 52 49 53 52 54 66 55 85 56
REMARK SMILES IDX 50 57 51 58 65 60 86 61 53 62 37 63 38 64 46 65 39 66 40 67
REMARK SMILES IDX 44 68 47 69 41 70 42 71 45 72 43 73 69 74 70 75 78 76 71 77
REMARK SMILES IDX 72 78 76 79 79 80 73 81 74 82 77 83 75 84 54 85 55 86 63 87
REMARK SMILES IDX 56 88 57 89 61 90 64 91 58 92 59 93 62 94 60 95
REMARK H PARENT 18 7 8 17 25 29 84 48 52 59
REMARK Flexibility Score: inf
ROOT
ATOM      1  C   UNL     1       4.225   3.302   1.952  1.00  0.00     0.002 C 
ENDROOT
BRANCH   1   2
ATOM      2  C   UNL     1       2.711   3.069   2.060  1.00  0.00     0.021 C 
BRANCH   2   3
ATOM      3  C   UNL     1       2.080   2.432   0.827  1.00  0.00     0.116 C 
BRANCH   3   4
ATOM      4  N   UNL     1       2.669   1.143   0.563  1.00  0.00    -0.356 N 
ATOM      5  O   UNL     1       0.751   0.112  -0.173  1.00  0.00    -0.275 OA
ATOM      6  C   UNL     1       1.954   0.082   0.057  1.00  0.00     0.224 C 
ATOM      7  H   UNL     1       3.626   1.016   0.753  1.00  0.00     0.163 HD
BRANCH   6   8
ATOM      8  C   UNL     1       2.805  -1.148  -0.154  1.00  0.00     0.135 C 
BRANCH   8   9
ATOM      9  C   UNL     1       3.764  -1.108  -1.322  1.00  0.00    -0.039 A 
ATOM     10  C   UNL     1       4.368  -2.312  -1.678  1.00  0.00     0.006 A 
ATOM     11  C   UNL     1       4.128   0.039  -2.038  1.00  0.00     0.006 A 
ATOM     12  C   UNL     1       5.287  -2.376  -2.727  1.00  0.00     0.026 A 
ATOM     13  C   UNL     1       5.058  -0.032  -3.087  1.00  0.00     0.026 A 
ATOM     14  C   UNL     1       5.640  -1.248  -3.463  1.00  0.00     0.041 A 
BRANCH  14  15
ATOM     15  N   UNL     1       6.532  -1.210  -4.557  1.00  0.00    -0.326 N 
ATOM     16  C   UNL     1       7.232  -2.155  -5.260  1.00  0.00     0.227 C 
ATOM     17  H   UNL     1       6.687  -0.296  -4.890  1.00  0.00     0.169 HD
ATOM     18  O   UNL     1       7.978  -1.767  -6.164  1.00  0.00    -0.274 OA
BRANCH  16  19
ATOM     19  C   UNL     1       7.076  -3.623  -4.947  1.00  0.00     0.079 C 
ATOM     20  C   UNL     1       5.752  -4.179  -5.470  1.00  0.00     0.013 C 
ATOM     21  C   UNL     1       8.063  -4.587  -5.597  1.00  0.00     0.013 C 
ATOM     22  C   UNL     1       5.899  -5.675  -5.245  1.00  0.00     0.001 C 
ATOM     23  C   UNL     1       7.402  -5.949  -5.362  1.00  0.00     0.001 C 
ENDBRANCH  16  19
ENDBRANCH  14  15
ENDBRANCH   8   9
ENDBRANCH   6   8
ENDBRANCH   3   4
ENDBRANCH   2   3
ENDBRANCH   1   2
BRANCH   1  24
ATOM     24  C   UNL     1       4.667   4.198   0.791  1.00  0.00     0.002 C 
BRANCH  24  25
ATOM     25  C   UNL     1       4.017   5.582   0.766  1.00  0.00     0.021 C 
BRANCH  25  26
ATOM     26  C   UNL     1       4.162   6.377   2.058  1.00  0.00     0.116 C 
BRANCH  26  27
ATOM     27  N   UNL     1       5.548   6.686   2.369  1.00  0.00    -0.352 N 
ATOM     28  C   UNL     1       6.105   7.890   2.730  1.00  0.00     0.251 C 
ATOM     29  H   UNL     1       6.174   5.929   2.315  1.00  0.00     0.163 HD
ATOM     30  O   UNL     1       7.320   8.014   2.802  1.00  0.00    -0.269 OA
BRANCH  28  31
ATOM     31  C   UNL     1       5.225   9.047   3.001  1.00  0.00     0.039 A 
ATOM     32  C   UNL     1       5.546  10.283   2.437  1.00  0.00     0.014 A 
ATOM     33  C   UNL     1       4.081   8.910   3.792  1.00  0.00     0.014 A 
ATOM     34  C   UNL     1       4.685  11.368   2.614  1.00  0.00     0.010 A 
ATOM     35  C   UNL     1       3.185   9.969   3.902  1.00  0.00     0.010 A 
ATOM     36  C   UNL     1       3.478  11.210   3.315  1.00  0.00    -0.014 A 
BRANCH  36  37
ATOM     37  C   UNL     1       2.508  12.329   3.436  1.00  0.00     0.031 A 
ATOM     38  C   UNL     1       2.172  12.898   4.786  1.00  0.00     0.074 A 
ATOM     39  C   UNL     1       1.887  12.792   2.334  1.00  0.00     0.049 A 
ATOM     40  N   UNL     1       1.312  13.835   5.099  1.00  0.00    -0.248 NA
ATOM     41  C   UNL     1       2.875  12.321   5.942  1.00  0.00     0.031 C 
ATOM     42  C   UNL     1       2.092  12.290   0.975  1.00  0.00     0.029 A 
ATOM     43  N   UNL     1       0.948  13.783   2.184  1.00  0.00    -0.354 N 
ATOM     44  C   UNL     1       1.365  13.951   6.481  1.00  0.00     0.074 A 
ATOM     45  C   UNL     1       2.296  12.950   6.954  1.00  0.00     0.031 C 
ATOM     46  C   UNL     1       1.323  12.992   0.126  1.00  0.00     0.029 A 
ATOM     47  C   UNL     1       0.539  13.962   0.885  1.00  0.00     0.049 A 
ATOM     48  H   UNL     1       0.601  14.314   2.936  1.00  0.00     0.167 HD
ATOM     49  C   UNL     1       0.714  14.829   7.282  1.00  0.00     0.037 A 
ATOM     50  C   UNL     1      -0.372  14.806   0.365  1.00  0.00     0.037 A 
ATOM     51  C   UNL     1      -0.200  15.834   6.806  1.00  0.00     0.049 A 
ATOM     52  C   UNL     1      -1.097  15.757   1.279  1.00  0.00     0.074 A 
ATOM     53  C   UNL     1      -0.866  16.807   7.530  1.00  0.00     0.029 A 
ATOM     54  N   UNL     1      -0.584  15.990   5.481  1.00  0.00    -0.354 N 
ATOM     55  N   UNL     1      -0.983  15.907   2.577  1.00  0.00    -0.248 NA
ATOM     56  C   UNL     1      -2.073  16.661   0.655  1.00  0.00     0.031 C 
ATOM     57  C   UNL     1      -1.697  17.513   6.654  1.00  0.00     0.029 A 
ATOM     58  C   UNL     1      -1.500  17.025   5.373  1.00  0.00     0.049 A 
ATOM     59  H   UNL     1      -0.254  15.446   4.730  1.00  0.00     0.167 HD
ATOM     60  C   UNL     1      -1.846  16.940   2.919  1.00  0.00     0.074 A 
ATOM     61  C   UNL     1      -2.464  17.391   1.689  1.00  0.00     0.031 C 
ATOM     62  C   UNL     1      -2.102  17.468   4.141  1.00  0.00     0.037 A 
BRANCH  49  63
ATOM     63  C   UNL     1       0.967  14.742   8.761  1.00  0.00     0.064 A 
ATOM     64  C   UNL     1       2.208  15.085   9.319  1.00  0.00     0.173 A 
ATOM     65  C   UNL     1      -0.057  14.348   9.636  1.00  0.00     0.173 A 
ATOM     66  F   UNL     1       3.225  15.459   8.527  1.00  0.00    -0.203 F 
ATOM     67  C   UNL     1       2.424  15.007  10.693  1.00  0.00     0.198 A 
ATOM     68  C   UNL     1       0.152  14.304  11.012  1.00  0.00     0.198 A 
ATOM     69  F   UNL     1      -1.266  14.015   9.158  1.00  0.00    -0.203 F 
ATOM     70  F   UNL     1       3.634  15.288  11.196  1.00  0.00    -0.200 F 
ATOM     71  C   UNL     1       1.394  14.624  11.538  1.00  0.00     0.200 A 
ATOM     72  F   UNL     1      -0.849  13.949  11.829  1.00  0.00    -0.200 F 
ATOM     73  F   UNL     1       1.601  14.558  12.861  1.00  0.00    -0.200 F 
ENDBRANCH  49  63
BRANCH  50  74
ATOM     74  C   UNL     1      -0.640  14.804  -1.098  1.00  0.00     0.064 A 
ATOM     75  C   UNL     1      -0.282  15.898  -1.898  1.00  0.00     0.173 A 
ATOM     76  C   UNL     1      -1.266  13.717  -1.725  1.00  0.00     0.173 A 
ATOM     77  F   UNL     1       0.302  16.971  -1.343  1.00  0.00    -0.203 F 
ATOM     78  C   UNL     1      -0.562  15.916  -3.263  1.00  0.00     0.198 A 
ATOM     79  C   UNL     1      -1.517  13.722  -3.096  1.00  0.00     0.198 A 
ATOM     80  F   UNL     1      -1.624  12.642  -1.008  1.00  0.00    -0.203 F 
ATOM     81  F   UNL     1      -0.257  16.997  -3.993  1.00  0.00    -0.200 F 
ATOM     82  C   UNL     1      -1.174  14.826  -3.862  1.00  0.00     0.200 A 
ATOM     83  F   UNL     1      -2.093  12.659  -3.673  1.00  0.00    -0.200 F 
ATOM     84  F   UNL     1      -1.441  14.842  -5.175  1.00  0.00    -0.200 F 
ENDBRANCH  50  74
BRANCH  62  85
ATOM     85  C   UNL     1      -3.063  18.621   4.207  1.00  0.00     0.064 A 
ATOM     86  C   UNL     1      -4.437  18.454   3.977  1.00  0.00     0.173 A 
ATOM     87  C   UNL     1      -2.607  19.905   4.544  1.00  0.00     0.173 A 
ATOM     88  F   UNL     1      -4.924  17.251   3.638  1.00  0.00    -0.203 F 
ATOM     89  C   UNL     1      -5.312  19.535   4.053  1.00  0.00     0.198 A 
ATOM     90  C   UNL     1      -3.489  20.976   4.654  1.00  0.00     0.198 A 
ATOM     91  F   UNL     1      -1.304  20.119   4.782  1.00  0.00    -0.203 F 
ATOM     92  F   UNL     1      -6.612  19.362   3.777  1.00  0.00    -0.200 F 
ATOM     93  C   UNL     1      -4.840  20.792   4.400  1.00  0.00     0.200 A 
ATOM     94  F   UNL     1      -3.033  22.186   5.005  1.00  0.00    -0.200 F 
ATOM     95  F   UNL     1      -5.685  21.828   4.481  1.00  0.00    -0.200 F 
ENDBRANCH  62  85
ENDBRANCH  36  37
ENDBRANCH  28  31
ENDBRANCH  26  27
ENDBRANCH  25  26
ENDBRANCH  24  25
ENDBRANCH   1  24
TORSDOF 16
