REMARK SMILES CCSCC[C@@H]1CCC[C@@]1([NH3+])C(=O)NCCCCCCNC(=O)c1ccc(-c2c3nc(c(-c4c(F)c(F)c(F)c(F)c4F)c4ccc([nH]4)c(-c4c(F)c(F)c(F)c(F)c4F)c4nc(c(-c5c(F)c(F)c(F)c(F)c5F)c5ccc2[nH]5)C=C4)C=C3)cc1
REMARK SMILES IDX 16 1 15 2 14 3 12 4 13 5 10 7 6 8 7 9 8 10 9 11 5 12 4 13
REMARK SMILES IDX 3 14 2 15 1 16 11 17 17 21 18 22 19 23 20 24 21 25 22 26
REMARK SMILES IDX 23 28 24 29 25 30 86 31 26 32 85 33 27 34 28 35 29 36 79 37
REMARK SMILES IDX 30 38 84 39 78 40 80 41 31 42 83 43 77 44 76 45 32 47 64 48
REMARK SMILES IDX 44 49 63 50 45 51 48 52 62 53 81 54 46 55 47 56 61 58 82 59
REMARK SMILES IDX 49 60 33 61 34 62 42 63 35 64 36 65 40 66 43 67 37 68 38 69
REMARK SMILES IDX 41 70 39 71 65 72 66 73 74 74 67 75 68 76 72 77 75 78 69 79
REMARK SMILES IDX 70 80 73 81 71 82 50 83 51 84 59 85 52 86 53 87 57 88 60 89
REMARK SMILES IDX 54 90 55 91 58 92 56 93
REMARK H PARENT 14 6 11 18 11 19 11 20 21 27 80 46 48 57
REMARK Flexibility Score: inf
ROOT
ATOM      1  C   UNL     1       5.460   1.824   3.355  1.00  0.00     0.021 C 
ENDROOT
BRANCH   1   2
ATOM      2  C   UNL     1       5.992   1.537   1.953  1.00  0.00     0.116 C 
BRANCH   2   3
ATOM      3  N   UNL     1       5.180   0.542   1.301  1.00  0.00    -0.351 N 
ATOM      4  C   UNL     1       4.340   0.614   0.240  1.00  0.00     0.281 C 
ATOM      5  O   UNL     1       3.771  -0.442  -0.037  1.00  0.00    -0.268 OA
ATOM      6  H   UNL     1       5.247  -0.356   1.700  1.00  0.00     0.163 HD
BRANCH   4   7
ATOM      7  C   UNL     1       4.205   1.900  -0.621  1.00  0.00     0.176 C 
ATOM      8  C   UNL     1       3.034   1.832  -1.648  1.00  0.00     0.061 C 
ATOM      9  C   UNL     1       2.869   3.301  -2.082  1.00  0.00     0.011 C 
ATOM     10  C   UNL     1       3.232   4.129  -0.852  1.00  0.00     0.008 C 
ATOM     11  C   UNL     1       3.730   3.126   0.188  1.00  0.00     0.079 C 
BRANCH   8  12
ATOM     12  C   UNL     1       3.139   0.895  -2.862  1.00  0.00     0.021 C 
BRANCH  12  13
ATOM     13  C   UNL     1       2.407  -0.452  -2.752  1.00  0.00     0.070 C 
BRANCH  13  14
ATOM     14  S   UNL     1       0.598  -0.436  -3.051  1.00  0.00    -0.162 SA
BRANCH  14  15
ATOM     15  C   UNL     1      -0.099   0.313  -1.539  1.00  0.00     0.066 C 
ATOM     16  C   UNL     1       0.310  -0.321  -0.221  1.00  0.00     0.015 C 
ENDBRANCH  14  15
ENDBRANCH  13  14
ENDBRANCH  12  13
ENDBRANCH   8  12
BRANCH   7  17
ATOM     17  N   UNL     1       5.493   2.181  -1.298  1.00  0.00    -0.345 N 
ATOM     18  H   UNL     1       5.403   3.025  -1.863  1.00  0.00     0.345 HD
ATOM     19  H   UNL     1       5.739   1.394  -1.899  1.00  0.00     0.345 HD
ATOM     20  H   UNL     1       6.223   2.316  -0.598  1.00  0.00     0.345 HD
ENDBRANCH   7  17
ENDBRANCH   4   7
ENDBRANCH   2   3
ENDBRANCH   1   2
BRANCH   1  21
ATOM     21  C   UNL     1       5.527   0.619   4.304  1.00  0.00     0.002 C 
BRANCH  21  22
ATOM     22  C   UNL     1       6.894  -0.072   4.380  1.00  0.00     0.002 C 
BRANCH  22  23
ATOM     23  C   UNL     1       8.071   0.863   4.660  1.00  0.00     0.021 C 
BRANCH  23  24
ATOM     24  C   UNL     1       7.939   1.662   5.948  1.00  0.00     0.116 C 
BRANCH  24  25
ATOM     25  N   UNL     1       7.951   0.805   7.119  1.00  0.00    -0.352 N 
ATOM     26  C   UNL     1       8.762   0.869   8.224  1.00  0.00     0.251 C 
ATOM     27  H   UNL     1       7.287   0.078   7.121  1.00  0.00     0.163 HD
ATOM     28  O   UNL     1       8.792  -0.053   9.029  1.00  0.00    -0.269 OA
BRANCH  26  29
ATOM     29  C   UNL     1       9.619   2.057   8.424  1.00  0.00     0.039 A 
ATOM     30  C   UNL     1      10.952   1.871   8.797  1.00  0.00     0.014 A 
ATOM     31  C   UNL     1       9.111   3.346   8.238  1.00  0.00     0.014 A 
ATOM     32  C   UNL     1      11.789   2.979   8.933  1.00  0.00     0.010 A 
ATOM     33  C   UNL     1       9.966   4.441   8.294  1.00  0.00     0.010 A 
ATOM     34  C   UNL     1      11.312   4.270   8.651  1.00  0.00    -0.014 A 
BRANCH  34  35
ATOM     35  C   UNL     1      12.205   5.453   8.734  1.00  0.00     0.031 A 
ATOM     36  C   UNL     1      11.929   6.536   9.740  1.00  0.00     0.074 A 
ATOM     37  C   UNL     1      13.233   5.574   7.872  1.00  0.00     0.049 A 
ATOM     38  N   UNL     1      12.551   7.673   9.924  1.00  0.00    -0.248 NA
ATOM     39  C   UNL     1      10.786   6.325  10.644  1.00  0.00     0.031 C 
ATOM     40  C   UNL     1      13.578   4.610   6.825  1.00  0.00     0.029 A 
ATOM     41  N   UNL     1      14.174   6.564   7.732  1.00  0.00    -0.354 N 
ATOM     42  C   UNL     1      11.874   8.311  10.956  1.00  0.00     0.074 A 
ATOM     43  C   UNL     1      10.758   7.466  11.318  1.00  0.00     0.031 C 
ATOM     44  C   UNL     1      14.665   5.045   6.167  1.00  0.00     0.029 A 
ATOM     45  C   UNL     1      15.068   6.336   6.714  1.00  0.00     0.049 A 
ATOM     46  H   UNL     1      14.205   7.362   8.308  1.00  0.00     0.167 HD
ATOM     47  C   UNL     1      12.175   9.482  11.566  1.00  0.00     0.037 A 
ATOM     48  C   UNL     1      16.089   7.091   6.266  1.00  0.00     0.037 A 
ATOM     49  C   UNL     1      13.299  10.310  11.216  1.00  0.00     0.049 A 
ATOM     50  C   UNL     1      16.382   8.403   6.946  1.00  0.00     0.074 A 
ATOM     51  C   UNL     1      13.712  11.495  11.801  1.00  0.00     0.029 A 
ATOM     52  N   UNL     1      14.188  10.041  10.187  1.00  0.00    -0.354 N 
ATOM     53  N   UNL     1      15.773   8.964   7.963  1.00  0.00    -0.248 NA
ATOM     54  C   UNL     1      17.510   9.184   6.420  1.00  0.00     0.031 C 
ATOM     55  C   UNL     1      14.821  11.968  11.094  1.00  0.00     0.029 A 
ATOM     56  C   UNL     1      15.137  11.048  10.107  1.00  0.00     0.049 A 
ATOM     57  H   UNL     1      14.152   9.251   9.600  1.00  0.00     0.167 HD
ATOM     58  C   UNL     1      16.464  10.141   8.220  1.00  0.00     0.074 A 
ATOM     59  C   UNL     1      17.549  10.205   7.264  1.00  0.00     0.031 C 
ATOM     60  C   UNL     1      16.221  11.086   9.160  1.00  0.00     0.037 A 
BRANCH  47  61
ATOM     61  C   UNL     1      11.284   9.936  12.686  1.00  0.00     0.064 A 
ATOM     62  C   UNL     1      11.265   9.273  13.923  1.00  0.00     0.173 A 
ATOM     63  C   UNL     1      10.489  11.083  12.545  1.00  0.00     0.173 A 
ATOM     64  F   UNL     1      11.998   8.165  14.107  1.00  0.00    -0.203 F 
ATOM     65  C   UNL     1      10.467   9.729  14.969  1.00  0.00     0.198 A 
ATOM     66  C   UNL     1       9.716  11.555  13.603  1.00  0.00     0.198 A 
ATOM     67  F   UNL     1      10.473  11.758  11.385  1.00  0.00    -0.203 F 
ATOM     68  F   UNL     1      10.434   9.056  16.127  1.00  0.00    -0.200 F 
ATOM     69  C   UNL     1       9.702  10.875  14.812  1.00  0.00     0.200 A 
ATOM     70  F   UNL     1       8.989  12.670  13.454  1.00  0.00    -0.200 F 
ATOM     71  F   UNL     1       8.947  11.322  15.824  1.00  0.00    -0.200 F 
ENDBRANCH  47  61
BRANCH  48  72
ATOM     72  C   UNL     1      16.918   6.633   5.118  1.00  0.00     0.064 A 
ATOM     73  C   UNL     1      18.272   6.311   5.288  1.00  0.00     0.173 A 
ATOM     74  C   UNL     1      16.387   6.545   3.823  1.00  0.00     0.173 A 
ATOM     75  F   UNL     1      18.833   6.397   6.503  1.00  0.00    -0.203 F 
ATOM     76  C   UNL     1      19.072   5.958   4.203  1.00  0.00     0.198 A 
ATOM     77  C   UNL     1      17.178   6.157   2.744  1.00  0.00     0.198 A 
ATOM     78  F   UNL     1      15.095   6.834   3.605  1.00  0.00    -0.203 F 
ATOM     79  F   UNL     1      20.378   5.722   4.384  1.00  0.00    -0.200 F 
ATOM     80  C   UNL     1      18.523   5.878   2.932  1.00  0.00     0.200 A 
ATOM     81  F   UNL     1      16.639   6.064   1.521  1.00  0.00    -0.200 F 
ATOM     82  F   UNL     1      19.293   5.544   1.887  1.00  0.00    -0.200 F 
ENDBRANCH  48  72
BRANCH  60  83
ATOM     83  C   UNL     1      17.173  12.246   9.235  1.00  0.00     0.064 A 
ATOM     84  C   UNL     1      17.217  13.232   8.239  1.00  0.00     0.173 A 
ATOM     85  C   UNL     1      18.027  12.390  10.340  1.00  0.00     0.173 A 
ATOM     86  F   UNL     1      16.432  13.133   7.155  1.00  0.00    -0.203 F 
ATOM     87  C   UNL     1      18.102  14.304   8.332  1.00  0.00     0.198 A 
ATOM     88  C   UNL     1      18.884  13.481  10.446  1.00  0.00     0.198 A 
ATOM     89  F   UNL     1      18.018  11.480  11.325  1.00  0.00    -0.203 F 
ATOM     90  F   UNL     1      18.165  15.204   7.341  1.00  0.00    -0.200 F 
ATOM     91  C   UNL     1      18.928  14.432   9.438  1.00  0.00     0.200 A 
ATOM     92  F   UNL     1      19.669  13.612  11.525  1.00  0.00    -0.200 F 
ATOM     93  F   UNL     1      19.772  15.468   9.529  1.00  0.00    -0.200 F 
ENDBRANCH  60  83
ENDBRANCH  34  35
ENDBRANCH  26  29
ENDBRANCH  24  25
ENDBRANCH  23  24
ENDBRANCH  22  23
ENDBRANCH  21  22
ENDBRANCH   1  21
TORSDOF 18
