REMARK SMILES O=C(NCCCCCCNC(=O)[C@H]1CCCN(C(=O)C2CC[NH+](Cc3ccco3)CC2)C1)c1ccc(-c2c3nc(c(-c4c(F)c(F)c(F)c(F)c4F)c4ccc([nH]4)c(-c4c(F)c(F)c(F)c(F)c4F)c4nc(c(-c5c(F)c(F)c(F)c(F)c5F)c5ccc2[nH]5)C=C4)C=C3)cc1
REMARK SMILES IDX 7 1 6 2 5 3 4 4 3 5 1 6 2 7 33 9 34 10 95 11 35 12 94 13
REMARK SMILES IDX 36 14 37 15 38 16 88 17 39 18 93 19 87 20 89 21 40 22 92 23
REMARK SMILES IDX 86 24 85 25 41 27 73 28 53 29 72 30 54 31 57 32 71 33 90 34
REMARK SMILES IDX 55 35 56 36 70 38 91 39 58 40 42 41 43 42 51 43 44 44 45 45
REMARK SMILES IDX 49 46 52 47 46 48 47 49 50 50 48 51 74 52 75 53 83 54 76 55
REMARK SMILES IDX 77 56 81 57 84 58 78 59 79 60 82 61 80 62 59 63 60 64 68 65
REMARK SMILES IDX 61 66 62 67 66 68 69 69 63 70 64 71 67 72 65 73 8 74 9 75
REMARK SMILES IDX 10 76 11 77 12 79 13 80 14 81 32 82 15 83 17 84 16 85 18 86
REMARK SMILES IDX 19 87 20 88 21 89 31 90 22 91 30 92 23 93 24 95 25 96 26 97
REMARK SMILES IDX 29 98 27 99 28 100
REMARK H PARENT 3 8 89 26 57 37 10 78 23 94
REMARK Flexibility Score: inf
ROOT
ATOM      1  C   UNL     1       7.756   4.318  -1.166  1.00  0.00     0.002 C 
ENDROOT
BRANCH   1   2
ATOM      2  C   UNL     1       6.427   3.559  -1.259  1.00  0.00     0.002 C 
BRANCH   2   3
ATOM      3  C   UNL     1       5.227   4.457  -1.564  1.00  0.00     0.021 C 
BRANCH   3   4
ATOM      4  C   UNL     1       5.418   5.277  -2.824  1.00  0.00     0.116 C 
BRANCH   4   5
ATOM      5  N   UNL     1       5.522   4.409  -3.982  1.00  0.00    -0.352 N 
ATOM      6  O   UNL     1       4.689   3.447  -5.853  1.00  0.00    -0.269 OA
ATOM      7  C   UNL     1       4.706   4.398  -5.077  1.00  0.00     0.251 C 
ATOM      8  H   UNL     1       6.260   3.758  -3.979  1.00  0.00     0.163 HD
BRANCH   7   9
ATOM      9  C   UNL     1       3.848   5.573  -5.304  1.00  0.00     0.039 A 
ATOM     10  C   UNL     1       4.395   6.855  -5.174  1.00  0.00     0.014 A 
ATOM     11  C   UNL     1       2.505   5.393  -5.631  1.00  0.00     0.014 A 
ATOM     12  C   UNL     1       3.578   7.964  -5.293  1.00  0.00     0.010 A 
ATOM     13  C   UNL     1       1.707   6.513  -5.852  1.00  0.00     0.010 A 
ATOM     14  C   UNL     1       2.245   7.802  -5.697  1.00  0.00    -0.014 A 
BRANCH  14  15
ATOM     15  C   UNL     1       1.488   8.995  -6.131  1.00  0.00     0.031 A 
ATOM     16  C   UNL     1       0.265   9.454  -5.403  1.00  0.00     0.074 A 
ATOM     17  C   UNL     1       1.933   9.639  -7.229  1.00  0.00     0.049 A 
ATOM     18  N   UNL     1      -0.534  10.447  -5.697  1.00  0.00    -0.248 NA
ATOM     19  C   UNL     1      -0.121   8.704  -4.198  1.00  0.00     0.031 C 
ATOM     20  C   UNL     1       3.108   9.248  -8.016  1.00  0.00     0.029 A 
ATOM     21  N   UNL     1       1.460  10.749  -7.875  1.00  0.00    -0.354 N 
ATOM     22  C   UNL     1      -1.529  10.430  -4.730  1.00  0.00     0.074 A 
ATOM     23  C   UNL     1      -1.242   9.322  -3.844  1.00  0.00     0.031 C 
ATOM     24  C   UNL     1       3.279  10.117  -9.020  1.00  0.00     0.029 A 
ATOM     25  C   UNL     1       2.182  11.074  -8.998  1.00  0.00     0.049 A 
ATOM     26  H   UNL     1       0.679  11.264  -7.567  1.00  0.00     0.167 HD
ATOM     27  C   UNL     1      -2.582  11.272  -4.609  1.00  0.00     0.037 A 
ATOM     28  C   UNL     1       1.958  12.011  -9.936  1.00  0.00     0.037 A 
ATOM     29  C   UNL     1      -2.834  12.380  -5.495  1.00  0.00     0.049 A 
ATOM     30  C   UNL     1       0.757  12.898  -9.785  1.00  0.00     0.074 A 
ATOM     31  C   UNL     1      -3.828  13.339  -5.410  1.00  0.00     0.029 A 
ATOM     32  N   UNL     1      -2.095  12.669  -6.634  1.00  0.00    -0.354 N 
ATOM     33  N   UNL     1      -0.136  12.922  -8.826  1.00  0.00    -0.248 NA
ATOM     34  C   UNL     1       0.526  13.881 -10.849  1.00  0.00     0.031 C 
ATOM     35  C   UNL     1      -3.735  14.165  -6.534  1.00  0.00     0.029 A 
ATOM     36  C   UNL     1      -2.645  13.761  -7.288  1.00  0.00     0.049 A 
ATOM     37  H   UNL     1      -1.300  12.172  -6.933  1.00  0.00     0.167 HD
ATOM     38  C   UNL     1      -1.028  13.927  -9.164  1.00  0.00     0.074 A 
ATOM     39  C   UNL     1      -0.548  14.512 -10.399  1.00  0.00     0.031 C 
ATOM     40  C   UNL     1      -2.152  14.322  -8.519  1.00  0.00     0.037 A 
BRANCH  27  41
ATOM     41  C   UNL     1      -3.564  11.032  -3.502  1.00  0.00     0.064 A 
ATOM     42  C   UNL     1      -3.257  11.319  -2.164  1.00  0.00     0.173 A 
ATOM     43  C   UNL     1      -4.871  10.614  -3.801  1.00  0.00     0.173 A 
ATOM     44  F   UNL     1      -2.022  11.713  -1.824  1.00  0.00    -0.203 F 
ATOM     45  C   UNL     1      -4.223  11.194  -1.167  1.00  0.00     0.198 A 
ATOM     46  C   UNL     1      -5.839  10.515  -2.806  1.00  0.00     0.198 A 
ATOM     47  F   UNL     1      -5.217  10.332  -5.066  1.00  0.00    -0.203 F 
ATOM     48  F   UNL     1      -3.904  11.457   0.108  1.00  0.00    -0.200 F 
ATOM     49  C   UNL     1      -5.515  10.806  -1.490  1.00  0.00     0.200 A 
ATOM     50  F   UNL     1      -7.090  10.155  -3.123  1.00  0.00    -0.200 F 
ATOM     51  F   UNL     1      -6.448  10.713  -0.533  1.00  0.00    -0.200 F 
ENDBRANCH  27  41
BRANCH  28  52
ATOM     52  C   UNL     1       2.854  12.114 -11.117  1.00  0.00     0.064 A 
ATOM     53  C   UNL     1       3.632  13.258 -11.338  1.00  0.00     0.173 A 
ATOM     54  C   UNL     1       2.931  11.079 -12.062  1.00  0.00     0.173 A 
ATOM     55  F   UNL     1       3.582  14.280 -10.472  1.00  0.00    -0.203 F 
ATOM     56  C   UNL     1       4.425  13.377 -12.478  1.00  0.00     0.198 A 
ATOM     57  C   UNL     1       3.755  11.183 -13.180  1.00  0.00     0.198 A 
ATOM     58  F   UNL     1       2.214   9.959 -11.894  1.00  0.00    -0.203 F 
ATOM     59  F   UNL     1       5.108  14.508 -12.698  1.00  0.00    -0.200 F 
ATOM     60  C   UNL     1       4.489  12.338 -13.395  1.00  0.00     0.200 A 
ATOM     61  F   UNL     1       3.829  10.168 -14.051  1.00  0.00    -0.200 F 
ATOM     62  F   UNL     1       5.249  12.456 -14.492  1.00  0.00    -0.200 F 
ENDBRANCH  28  52
BRANCH  40  63
ATOM     63  C   UNL     1      -2.929  15.446  -9.138  1.00  0.00     0.064 A 
ATOM     64  C   UNL     1      -3.656  15.264 -10.324  1.00  0.00     0.173 A 
ATOM     65  C   UNL     1      -2.973  16.706  -8.524  1.00  0.00     0.173 A 
ATOM     66  F   UNL     1      -3.627  14.083 -10.960  1.00  0.00    -0.203 F 
ATOM     67  C   UNL     1      -4.379  16.312 -10.886  1.00  0.00     0.198 A 
ATOM     68  C   UNL     1      -3.725  17.741  -9.070  1.00  0.00     0.198 A 
ATOM     69  F   UNL     1      -2.297  16.928  -7.386  1.00  0.00    -0.203 F 
ATOM     70  F   UNL     1      -5.022  16.131 -12.047  1.00  0.00    -0.200 F 
ATOM     71  C   UNL     1      -4.420  17.546 -10.254  1.00  0.00     0.200 A 
ATOM     72  F   UNL     1      -3.776  18.928  -8.450  1.00  0.00    -0.200 F 
ATOM     73  F   UNL     1      -5.126  18.551 -10.790  1.00  0.00    -0.200 F 
ENDBRANCH  40  63
ENDBRANCH  14  15
ENDBRANCH   7   9
ENDBRANCH   4   5
ENDBRANCH   3   4
ENDBRANCH   2   3
ENDBRANCH   1   2
BRANCH   1  74
ATOM     74  C   UNL     1       7.695   5.537  -0.241  1.00  0.00     0.021 C 
BRANCH  74  75
ATOM     75  C   UNL     1       7.077   5.198   1.108  1.00  0.00     0.116 C 
BRANCH  75  76
ATOM     76  N   UNL     1       7.957   4.293   1.807  1.00  0.00    -0.356 N 
ATOM     77  C   UNL     1       8.741   4.588   2.871  1.00  0.00     0.224 C 
ATOM     78  H   UNL     1       7.990   3.366   1.476  1.00  0.00     0.163 HD
ATOM     79  O   UNL     1       9.628   3.805   3.201  1.00  0.00    -0.275 OA
BRANCH  77  80
ATOM     80  C   UNL     1       8.438   5.870   3.603  1.00  0.00     0.098 C 
ATOM     81  C   UNL     1       8.859   5.698   5.067  1.00  0.00     0.017 C 
ATOM     82  C   UNL     1       9.086   7.083   2.895  1.00  0.00     0.133 C 
ATOM     83  C   UNL     1       8.688   7.017   5.783  1.00  0.00     0.022 C 
ATOM     84  N   UNL     1       9.009   8.277   3.739  1.00  0.00    -0.342 N 
ATOM     85  C   UNL     1       9.545   8.019   5.039  1.00  0.00     0.119 C 
BRANCH  84  86
ATOM     86  C   UNL     1       8.436   9.459   3.313  1.00  0.00     0.226 C 
ATOM     87  O   UNL     1       7.956   9.524   2.172  1.00  0.00    -0.275 OA
BRANCH  86  88
ATOM     88  C   UNL     1       8.388  10.748   4.191  1.00  0.00     0.090 C 
ATOM     89  C   UNL     1       9.673  11.569   4.241  1.00  0.00     0.075 C 
ATOM     90  C   UNL     1       7.723  10.706   5.569  1.00  0.00     0.075 C 
ATOM     91  C   UNL     1      10.634  11.146   5.345  1.00  0.00     0.263 C 
ATOM     92  C   UNL     1       8.648  10.557   6.795  1.00  0.00     0.263 C 
ATOM     93  N   UNL     1      10.045  10.983   6.671  1.00  0.00    -0.329 N 
ATOM     94  H   UNL     1       9.946  11.967   6.921  1.00  0.00     0.348 HD
BRANCH  93  95
ATOM     95  C   UNL     1      10.953  10.358   7.671  1.00  0.00     0.338 C 
BRANCH  95  96
ATOM     96  C   UNL     1      11.545   9.007   7.340  1.00  0.00     0.157 A 
ATOM     97  C   UNL     1      12.558   8.581   6.496  1.00  0.00     0.052 A 
ATOM     98  O   UNL     1      11.032   7.920   7.999  1.00  0.00    -0.463 OA
ATOM     99  C   UNL     1      12.622   7.168   6.600  1.00  0.00     0.042 A 
ATOM    100  C   UNL     1      11.690   6.817   7.547  1.00  0.00     0.195 A 
ENDBRANCH  95  96
ENDBRANCH  93  95
ENDBRANCH  86  88
ENDBRANCH  84  86
ENDBRANCH  77  80
ENDBRANCH  75  76
ENDBRANCH  74  75
ENDBRANCH   1  74
TORSDOF 17
