REMARK SMILES CC(C)(C)C[N@H+]1[C@@H](C(=O)NCCCCCCNC(=O)c2ccc(-c3c4nc(c(-c5c(F)c(F)c(F)c(F)c5F)c5ccc([nH]5)c(-c5c(F)c(F)c(F)c(F)c5F)c5nc(c(-c6c(F)c(F)c(F)c(F)c6F)c6ccc3[nH]6)C=C5)C=C4)cc2)CC[C@H]2CCCC[C@@H]21
REMARK SMILES IDX 13 1 12 2 11 3 10 4 8 5 9 6 7 8 6 9 90 10 83 12 85 13 89 14
REMARK SMILES IDX 84 15 86 16 88 17 87 18 5 19 2 20 1 21 3 22 4 23 14 24 15 25
REMARK SMILES IDX 16 26 17 27 18 28 19 30 20 31 21 32 82 33 22 34 81 35 23 36
REMARK SMILES IDX 24 37 25 38 75 39 26 40 80 41 74 42 76 43 27 44 79 45 73 46
REMARK SMILES IDX 72 47 28 49 60 50 40 51 59 52 41 53 44 54 58 55 77 56 42 57
REMARK SMILES IDX 43 58 57 60 78 61 45 62 29 63 30 64 38 65 31 66 32 67 36 68
REMARK SMILES IDX 39 69 33 70 34 71 37 72 35 73 61 74 62 75 70 76 63 77 64 78
REMARK SMILES IDX 68 79 71 80 65 81 66 82 69 83 67 84 46 85 47 86 55 87 48 88
REMARK SMILES IDX 49 89 53 90 56 91 50 92 51 93 54 94 52 95
REMARK H PARENT 10 7 6 11 17 29 76 48 44 59
REMARK Flexibility Score: inf
ROOT
ATOM      1  C   UNL     1      -2.562   1.388   0.296  1.00  0.00     0.002 C 
ENDROOT
BRANCH   1   2
ATOM      2  C   UNL     1      -2.720   0.008   0.963  1.00  0.00     0.021 C 
BRANCH   2   3
ATOM      3  C   UNL     1      -2.100  -1.203   0.244  1.00  0.00     0.116 C 
BRANCH   3   4
ATOM      4  N   UNL     1      -0.935  -0.927  -0.572  1.00  0.00    -0.351 N 
ATOM      5  C   UNL     1       0.272  -1.558  -0.641  1.00  0.00     0.278 C 
ATOM      6  O   UNL     1       0.926  -1.356  -1.672  1.00  0.00    -0.268 OA
ATOM      7  H   UNL     1      -1.030  -0.156  -1.176  1.00  0.00     0.163 HD
BRANCH   5   8
ATOM      8  C   UNL     1       0.732  -2.567   0.426  1.00  0.00     0.274 C 
ATOM      9  N   UNL     1       0.781  -2.072   1.839  1.00  0.00    -0.322 N 
ATOM     10  C   UNL     1       0.873  -3.282   2.735  1.00  0.00     0.187 C 
ATOM     11  H   UNL     1      -0.062  -1.512   1.962  1.00  0.00     0.349 HD
ATOM     12  C   UNL     1       2.037  -3.300   0.022  1.00  0.00     0.076 C 
ATOM     13  C   UNL     1       1.379  -4.585   2.051  1.00  0.00     0.048 C 
ATOM     14  C   UNL     1      -0.482  -3.605   3.388  1.00  0.00     0.065 C 
ATOM     15  C   UNL     1       2.534  -4.268   1.111  1.00  0.00     0.016 C 
ATOM     16  C   UNL     1       1.689  -5.629   3.124  1.00  0.00     0.010 C 
ATOM     17  C   UNL     1      -0.334  -4.742   4.412  1.00  0.00     0.006 C 
ATOM     18  C   UNL     1       0.398  -5.976   3.873  1.00  0.00     0.001 C 
BRANCH   9  19
ATOM     19  C   UNL     1       1.914  -1.147   2.193  1.00  0.00     0.269 C 
BRANCH  19  20
ATOM     20  C   UNL     1       1.903   0.374   1.816  1.00  0.00     0.011 C 
ATOM     21  C   UNL     1       2.402   0.640   0.387  1.00  0.00     0.017 C 
ATOM     22  C   UNL     1       2.859   1.143   2.761  1.00  0.00     0.017 C 
ATOM     23  C   UNL     1       0.514   0.968   2.045  1.00  0.00     0.017 C 
ENDBRANCH  19  20
ENDBRANCH   9  19
ENDBRANCH   5   8
ENDBRANCH   3   4
ENDBRANCH   2   3
ENDBRANCH   1   2
BRANCH   1  24
ATOM     24  C   UNL     1      -3.867   2.100  -0.074  1.00  0.00     0.002 C 
BRANCH  24  25
ATOM     25  C   UNL     1      -4.895   2.248   1.048  1.00  0.00     0.021 C 
BRANCH  25  26
ATOM     26  C   UNL     1      -4.372   2.922   2.311  1.00  0.00     0.116 C 
BRANCH  26  27
ATOM     27  N   UNL     1      -4.322   4.369   2.168  1.00  0.00    -0.352 N 
ATOM     28  C   UNL     1      -5.122   5.310   2.774  1.00  0.00     0.251 C 
ATOM     29  H   UNL     1      -3.630   4.719   1.562  1.00  0.00     0.163 HD
ATOM     30  O   UNL     1      -5.133   6.473   2.392  1.00  0.00    -0.269 OA
BRANCH  28  31
ATOM     31  C   UNL     1      -5.986   4.895   3.899  1.00  0.00     0.039 A 
ATOM     32  C   UNL     1      -7.352   5.181   3.856  1.00  0.00     0.014 A 
ATOM     33  C   UNL     1      -5.437   4.210   4.987  1.00  0.00     0.014 A 
ATOM     34  C   UNL     1      -8.181   4.734   4.888  1.00  0.00     0.010 A 
ATOM     35  C   UNL     1      -6.273   3.713   5.983  1.00  0.00     0.010 A 
ATOM     36  C   UNL     1      -7.651   3.978   5.948  1.00  0.00    -0.014 A 
BRANCH  36  37
ATOM     37  C   UNL     1      -8.519   3.477   7.044  1.00  0.00     0.031 A 
ATOM     38  C   UNL     1      -8.348   4.011   8.438  1.00  0.00     0.074 A 
ATOM     39  C   UNL     1      -9.418   2.505   6.798  1.00  0.00     0.049 A 
ATOM     40  N   UNL     1      -8.965   3.666   9.540  1.00  0.00    -0.248 NA
ATOM     41  C   UNL     1      -7.327   5.054   8.624  1.00  0.00     0.031 C 
ATOM     42  C   UNL     1      -9.646   1.873   5.499  1.00  0.00     0.029 A 
ATOM     43  N   UNL     1     -10.300   1.870   7.637  1.00  0.00    -0.354 N 
ATOM     44  C   UNL     1      -8.399   4.437  10.547  1.00  0.00     0.074 A 
ATOM     45  C   UNL     1      -7.354   5.230   9.937  1.00  0.00     0.031 C 
ATOM     46  C   UNL     1     -10.618   0.954   5.622  1.00  0.00     0.029 A 
ATOM     47  C   UNL     1     -11.059   0.911   7.014  1.00  0.00     0.049 A 
ATOM     48  H   UNL     1     -10.381   2.083   8.595  1.00  0.00     0.167 HD
ATOM     49  C   UNL     1      -8.737   4.497  11.857  1.00  0.00     0.037 A 
ATOM     50  C   UNL     1     -12.003   0.088   7.511  1.00  0.00     0.037 A 
ATOM     51  C   UNL     1      -9.794   3.727  12.457  1.00  0.00     0.049 A 
ATOM     52  C   UNL     1     -12.362   0.175   8.970  1.00  0.00     0.074 A 
ATOM     53  C   UNL     1     -10.255   3.762  13.761  1.00  0.00     0.029 A 
ATOM     54  N   UNL     1     -10.556   2.780  11.788  1.00  0.00    -0.354 N 
ATOM     55  N   UNL     1     -11.869   0.959   9.898  1.00  0.00    -0.248 NA
ATOM     56  C   UNL     1     -13.414  -0.732   9.449  1.00  0.00     0.031 C 
ATOM     57  C   UNL     1     -11.268   2.805  13.893  1.00  0.00     0.029 A 
ATOM     58  C   UNL     1     -11.470   2.209  12.659  1.00  0.00     0.049 A 
ATOM     59  H   UNL     1     -10.462   2.549  10.836  1.00  0.00     0.167 HD
ATOM     60  C   UNL     1     -12.568   0.662  11.060  1.00  0.00     0.074 A 
ATOM     61  C   UNL     1     -13.529  -0.366  10.718  1.00  0.00     0.031 C 
ATOM     62  C   UNL     1     -12.426   1.192  12.299  1.00  0.00     0.037 A 
BRANCH  49  63
ATOM     63  C   UNL     1      -7.955   5.434  12.731  1.00  0.00     0.064 A 
ATOM     64  C   UNL     1      -8.081   6.827  12.613  1.00  0.00     0.173 A 
ATOM     65  C   UNL     1      -7.092   4.935  13.718  1.00  0.00     0.173 A 
ATOM     66  F   UNL     1      -8.884   7.355  11.677  1.00  0.00    -0.203 F 
ATOM     67  C   UNL     1      -7.349   7.684  13.430  1.00  0.00     0.198 A 
ATOM     68  C   UNL     1      -6.384   5.796  14.553  1.00  0.00     0.198 A 
ATOM     69  F   UNL     1      -6.938   3.612  13.877  1.00  0.00    -0.203 F 
ATOM     70  F   UNL     1      -7.448   9.011  13.265  1.00  0.00    -0.200 F 
ATOM     71  C   UNL     1      -6.507   7.169  14.403  1.00  0.00     0.200 A 
ATOM     72  F   UNL     1      -5.580   5.296  15.502  1.00  0.00    -0.200 F 
ATOM     73  F   UNL     1      -5.807   7.996  15.193  1.00  0.00    -0.200 F 
ENDBRANCH  49  63
BRANCH  50  74
ATOM     74  C   UNL     1     -12.699  -0.870   6.613  1.00  0.00     0.064 A 
ATOM     75  C   UNL     1     -14.046  -0.685   6.271  1.00  0.00     0.173 A 
ATOM     76  C   UNL     1     -12.038  -1.985   6.080  1.00  0.00     0.173 A 
ATOM     77  F   UNL     1     -14.727   0.356   6.773  1.00  0.00    -0.203 F 
ATOM     78  C   UNL     1     -14.711  -1.589   5.446  1.00  0.00     0.198 A 
ATOM     79  C   UNL     1     -12.696  -2.875   5.234  1.00  0.00     0.198 A 
ATOM     80  F   UNL     1     -10.748  -2.205   6.373  1.00  0.00    -0.203 F 
ATOM     81  F   UNL     1     -16.010  -1.412   5.170  1.00  0.00    -0.200 F 
ATOM     82  C   UNL     1     -14.034  -2.681   4.923  1.00  0.00     0.200 A 
ATOM     83  F   UNL     1     -12.035  -3.921   4.720  1.00  0.00    -0.200 F 
ATOM     84  F   UNL     1     -14.672  -3.548   4.126  1.00  0.00    -0.200 F 
ENDBRANCH  50  74
BRANCH  62  85
ATOM     85  C   UNL     1     -13.352   0.696  13.371  1.00  0.00     0.064 A 
ATOM     86  C   UNL     1     -13.212  -0.583  13.929  1.00  0.00     0.173 A 
ATOM     87  C   UNL     1     -14.364   1.527  13.874  1.00  0.00     0.173 A 
ATOM     88  F   UNL     1     -12.269  -1.420  13.471  1.00  0.00    -0.203 F 
ATOM     89  C   UNL     1     -14.068  -1.020  14.936  1.00  0.00     0.198 A 
ATOM     90  C   UNL     1     -15.200   1.097  14.900  1.00  0.00     0.198 A 
ATOM     91  F   UNL     1     -14.535   2.761  13.377  1.00  0.00    -0.203 F 
ATOM     92  F   UNL     1     -13.945  -2.262  15.425  1.00  0.00    -0.200 F 
ATOM     93  C   UNL     1     -15.055  -0.178  15.426  1.00  0.00     0.200 A 
ATOM     94  F   UNL     1     -16.145   1.916  15.381  1.00  0.00    -0.200 F 
ATOM     95  F   UNL     1     -15.873  -0.599  16.401  1.00  0.00    -0.200 F 
ENDBRANCH  62  85
ENDBRANCH  36  37
ENDBRANCH  28  31
ENDBRANCH  26  27
ENDBRANCH  25  26
ENDBRANCH  24  25
ENDBRANCH   1  24
TORSDOF 15
