REMARK SMILES C[C@@H]1CN(C(=O)C[NH+]2CCC(CC(=O)NCCCCCCNC(=O)c3ccc(-c4c5nc(c(-c6c(F)c(F)c(F)c(F)c6F)c6ccc([nH]6)c(-c6c(F)c(F)c(F)c(F)c6F)c6nc(c(-c7c(F)c(F)c(F)c(F)c7F)c7ccc4[nH]7)C=C6)C=C5)cc3)CC2)C[C@@H](C)O1
REMARK SMILES IDX 18 1 17 2 16 3 15 4 13 5 14 6 12 8 11 9 8 10 9 11 89 12
REMARK SMILES IDX 10 14 88 15 7 16 5 17 1 18 2 19 3 20 93 21 4 22 91 23 90 24
REMARK SMILES IDX 92 25 6 26 19 27 20 28 21 29 22 30 23 31 24 33 25 34 26 35
REMARK SMILES IDX 87 36 27 37 86 38 28 39 29 40 30 41 80 42 31 43 85 44 79 45
REMARK SMILES IDX 81 46 32 47 84 48 78 49 77 50 33 52 65 53 45 54 64 55 46 56
REMARK SMILES IDX 49 57 63 58 82 59 47 60 48 61 62 63 83 64 50 65 34 66 35 67
REMARK SMILES IDX 43 68 36 69 37 70 41 71 44 72 38 73 39 74 42 75 40 76 66 77
REMARK SMILES IDX 67 78 75 79 68 80 69 81 73 82 76 83 70 84 71 85 74 86 72 87
REMARK SMILES IDX 51 88 52 89 60 90 53 91 54 92 58 93 61 94 55 95 56 96 59 97
REMARK SMILES IDX 57 98
REMARK H PARENT 15 7 8 13 22 32 81 51 49 62
REMARK Flexibility Score: inf
ROOT
ATOM      1  C   UNL     1       2.704  -0.050  -7.449  1.00  0.00     0.002 C 
ENDROOT
BRANCH   1   2
ATOM      2  C   UNL     1       2.636  -1.034  -6.281  1.00  0.00     0.021 C 
BRANCH   2   3
ATOM      3  C   UNL     1       2.380  -2.488  -6.692  1.00  0.00     0.116 C 
BRANCH   3   4
ATOM      4  N   UNL     1       3.634  -3.158  -6.990  1.00  0.00    -0.356 N 
ATOM      5  C   UNL     1       4.354  -4.063  -6.271  1.00  0.00     0.220 C 
ATOM      6  O   UNL     1       5.468  -4.382  -6.691  1.00  0.00    -0.275 OA
ATOM      7  H   UNL     1       4.030  -2.917  -7.858  1.00  0.00     0.163 HD
BRANCH   5   8
ATOM      8  C   UNL     1       3.800  -4.689  -5.004  1.00  0.00     0.104 C 
BRANCH   8   9
ATOM      9  C   UNL     1       4.232  -3.987  -3.696  1.00  0.00     0.009 C 
ATOM     10  N   UNL     1       2.883  -3.336  -1.113  1.00  0.00    -0.327 N 
ATOM     11  C   UNL     1       3.973  -4.327  -1.148  1.00  0.00     0.262 C 
ATOM     12  C   UNL     1       3.234  -2.257  -2.034  1.00  0.00     0.262 C 
ATOM     13  H   UNL     1       2.768  -2.922  -0.187  1.00  0.00     0.348 HD
ATOM     14  C   UNL     1       4.156  -4.985  -2.521  1.00  0.00     0.066 C 
ATOM     15  C   UNL     1       3.397  -2.719  -3.471  1.00  0.00     0.066 C 
BRANCH  10  16
ATOM     16  C   UNL     1       1.585  -3.993  -1.399  1.00  0.00     0.363 C 
BRANCH  16  17
ATOM     17  C   UNL     1       0.368  -3.066  -1.476  1.00  0.00     0.277 C 
ATOM     18  C   UNL     1       1.146   0.013   0.204  1.00  0.00     0.040 C 
ATOM     19  C   UNL     1       0.348  -0.845   1.187  1.00  0.00     0.135 C 
ATOM     20  C   UNL     1       0.484  -2.362   0.927  1.00  0.00     0.151 C 
ATOM     21  O   UNL     1      -1.038  -0.441   1.209  1.00  0.00    -0.372 OA
ATOM     22  N   UNL     1      -0.244  -2.719  -0.287  1.00  0.00    -0.333 N 
ATOM     23  C   UNL     1      -1.764  -0.800   0.015  1.00  0.00     0.135 C 
ATOM     24  C   UNL     1      -1.643  -2.302  -0.274  1.00  0.00     0.151 C 
ATOM     25  C   UNL     1      -3.222  -0.417   0.236  1.00  0.00     0.040 C 
ATOM     26  O   UNL     1      -0.111  -2.753  -2.570  1.00  0.00    -0.268 OA
ENDBRANCH  16  17
ENDBRANCH  10  16
ENDBRANCH   8   9
ENDBRANCH   5   8
ENDBRANCH   3   4
ENDBRANCH   2   3
ENDBRANCH   1   2
BRANCH   1  27
ATOM     27  C   UNL     1       1.366   0.226  -8.137  1.00  0.00     0.002 C 
BRANCH  27  28
ATOM     28  C   UNL     1       0.248   0.734  -7.221  1.00  0.00     0.021 C 
BRANCH  28  29
ATOM     29  C   UNL     1       0.597   1.971  -6.396  1.00  0.00     0.116 C 
BRANCH  29  30
ATOM     30  N   UNL     1       0.942   3.108  -7.235  1.00  0.00    -0.352 N 
ATOM     31  C   UNL     1       0.323   4.326  -7.361  1.00  0.00     0.251 C 
ATOM     32  H   UNL     1       1.740   2.985  -7.797  1.00  0.00     0.163 HD
ATOM     33  O   UNL     1       0.624   5.079  -8.281  1.00  0.00    -0.269 OA
BRANCH  31  34
ATOM     34  C   UNL     1      -0.717   4.733  -6.393  1.00  0.00     0.039 A 
ATOM     35  C   UNL     1      -1.887   5.330  -6.870  1.00  0.00     0.014 A 
ATOM     36  C   UNL     1      -0.525   4.562  -5.019  1.00  0.00     0.014 A 
ATOM     37  C   UNL     1      -2.888   5.707  -5.973  1.00  0.00     0.010 A 
ATOM     38  C   UNL     1      -1.551   4.876  -4.131  1.00  0.00     0.010 A 
ATOM     39  C   UNL     1      -2.739   5.458  -4.598  1.00  0.00    -0.014 A 
BRANCH  39  40
ATOM     40  C   UNL     1      -3.817   5.802  -3.639  1.00  0.00     0.031 A 
ATOM     41  C   UNL     1      -3.593   6.854  -2.589  1.00  0.00     0.074 A 
ATOM     42  C   UNL     1      -4.977   5.119  -3.672  1.00  0.00     0.049 A 
ATOM     43  N   UNL     1      -4.396   7.259  -1.637  1.00  0.00    -0.248 NA
ATOM     44  C   UNL     1      -2.281   7.519  -2.590  1.00  0.00     0.031 C 
ATOM     45  C   UNL     1      -5.289   4.033  -4.602  1.00  0.00     0.029 A 
ATOM     46  N   UNL     1      -6.103   5.225  -2.895  1.00  0.00    -0.354 N 
ATOM     47  C   UNL     1      -3.682   8.207  -0.917  1.00  0.00     0.074 A 
ATOM     48  C   UNL     1      -2.364   8.283  -1.511  1.00  0.00     0.031 C 
ATOM     49  C   UNL     1      -6.529   3.583  -4.352  1.00  0.00     0.029 A 
ATOM     50  C   UNL     1      -7.087   4.327  -3.226  1.00  0.00     0.049 A 
ATOM     51  H   UNL     1      -6.196   5.884  -2.169  1.00  0.00     0.167 HD
ATOM     52  C   UNL     1      -4.095   8.960   0.131  1.00  0.00     0.037 A 
ATOM     53  C   UNL     1      -8.300   4.122  -2.680  1.00  0.00     0.037 A 
ATOM     54  C   UNL     1      -5.416   8.901   0.698  1.00  0.00     0.049 A 
ATOM     55  C   UNL     1      -8.746   4.989  -1.536  1.00  0.00     0.074 A 
ATOM     56  C   UNL     1      -5.961   9.682   1.702  1.00  0.00     0.029 A 
ATOM     57  N   UNL     1      -6.401   8.001   0.314  1.00  0.00    -0.354 N 
ATOM     58  N   UNL     1      -8.095   5.947  -0.921  1.00  0.00    -0.248 NA
ATOM     59  C   UNL     1     -10.101   4.756  -1.017  1.00  0.00     0.031 C 
ATOM     60  C   UNL     1      -7.257   9.222   1.960  1.00  0.00     0.029 A 
ATOM     61  C   UNL     1      -7.540   8.190   1.080  1.00  0.00     0.049 A 
ATOM     62  H   UNL     1      -6.304   7.329  -0.399  1.00  0.00     0.167 HD
ATOM     63  C   UNL     1      -8.964   6.444   0.041  1.00  0.00     0.074 A 
ATOM     64  C   UNL     1     -10.197   5.694  -0.085  1.00  0.00     0.031 C 
ATOM     65  C   UNL     1      -8.758   7.431   0.947  1.00  0.00     0.037 A 
BRANCH  52  66
ATOM     66  C   UNL     1      -3.102   9.913   0.735  1.00  0.00     0.064 A 
ATOM     67  C   UNL     1      -2.659  11.053   0.047  1.00  0.00     0.173 A 
ATOM     68  C   UNL     1      -2.608   9.697   2.030  1.00  0.00     0.173 A 
ATOM     69  F   UNL     1      -3.093  11.302  -1.198  1.00  0.00    -0.203 F 
ATOM     70  C   UNL     1      -1.733  11.921   0.620  1.00  0.00     0.198 A 
ATOM     71  C   UNL     1      -1.706  10.584   2.612  1.00  0.00     0.198 A 
ATOM     72  F   UNL     1      -3.004   8.626   2.736  1.00  0.00    -0.203 F 
ATOM     73  F   UNL     1      -1.283  12.974  -0.078  1.00  0.00    -0.200 F 
ATOM     74  C   UNL     1      -1.262  11.690   1.903  1.00  0.00     0.200 A 
ATOM     75  F   UNL     1      -1.263  10.366   3.858  1.00  0.00    -0.200 F 
ATOM     76  F   UNL     1      -0.374  12.528   2.455  1.00  0.00    -0.200 F 
ENDBRANCH  52  66
BRANCH  53  77
ATOM     77  C   UNL     1      -9.185   3.064  -3.232  1.00  0.00     0.064 A 
ATOM     78  C   UNL     1     -10.337   3.394  -3.958  1.00  0.00     0.173 A 
ATOM     79  C   UNL     1      -8.887   1.704  -3.061  1.00  0.00     0.173 A 
ATOM     80  F   UNL     1     -10.673   4.680  -4.132  1.00  0.00    -0.203 F 
ATOM     81  C   UNL     1     -11.167   2.403  -4.480  1.00  0.00     0.198 A 
ATOM     82  C   UNL     1      -9.702   0.715  -3.607  1.00  0.00     0.198 A 
ATOM     83  F   UNL     1      -7.792   1.337  -2.380  1.00  0.00    -0.203 F 
ATOM     84  F   UNL     1     -12.283   2.746  -5.138  1.00  0.00    -0.200 F 
ATOM     85  C   UNL     1     -10.845   1.065  -4.310  1.00  0.00     0.200 A 
ATOM     86  F   UNL     1      -9.379  -0.576  -3.454  1.00  0.00    -0.200 F 
ATOM     87  F   UNL     1     -11.638   0.113  -4.821  1.00  0.00    -0.200 F 
ENDBRANCH  53  77
BRANCH  65  88
ATOM     88  C   UNL     1      -9.900   7.772   1.861  1.00  0.00     0.064 A 
ATOM     89  C   UNL     1     -10.298   6.910   2.893  1.00  0.00     0.173 A 
ATOM     90  C   UNL     1     -10.581   8.991   1.723  1.00  0.00     0.173 A 
ATOM     91  F   UNL     1      -9.688   5.726   3.057  1.00  0.00    -0.203 F 
ATOM     92  C   UNL     1     -11.354   7.244   3.737  1.00  0.00     0.198 A 
ATOM     93  C   UNL     1     -11.617   9.335   2.587  1.00  0.00     0.198 A 
ATOM     94  F   UNL     1     -10.236   9.854   0.756  1.00  0.00    -0.203 F 
ATOM     95  F   UNL     1     -11.750   6.382   4.684  1.00  0.00    -0.200 F 
ATOM     96  C   UNL     1     -12.007   8.458   3.588  1.00  0.00     0.200 A 
ATOM     97  F   UNL     1     -12.238  10.514   2.451  1.00  0.00    -0.200 F 
ATOM     98  F   UNL     1     -13.020   8.780   4.404  1.00  0.00    -0.200 F 
ENDBRANCH  65  88
ENDBRANCH  39  40
ENDBRANCH  31  34
ENDBRANCH  29  30
ENDBRANCH  28  29
ENDBRANCH  27  28
ENDBRANCH   1  27
TORSDOF 16
