REMARK SMILES C[C@@H](O)[C@@H](NC(=O)CCOc1ccc(Br)cc1)C(=O)NCCCCCCNC(=O)c1ccc(-c2c3nc(c(-c4c(F)c(F)c(F)c(F)c4F)c4ccc([nH]4)c(-c4c(F)c(F)c(F)c(F)c4F)c4nc(c(-c5c(F)c(F)c(F)c(F)c5F)c5ccc2[nH]5)C=C4)C=C3)cc1
REMARK SMILES IDX 22 1 21 2 20 3 18 4 19 5 4 7 2 8 1 9 3 10 5 12 6 13 7 15
REMARK SMILES IDX 8 16 9 17 10 18 11 19 12 20 17 21 13 22 16 23 14 24 15 25
REMARK SMILES IDX 23 26 24 27 25 28 26 29 27 30 28 31 29 33 30 34 31 35 92 36
REMARK SMILES IDX 32 37 91 38 33 39 34 40 35 41 85 42 36 43 90 44 84 45 86 46
REMARK SMILES IDX 37 47 89 48 83 49 82 50 38 52 70 53 50 54 69 55 51 56 54 57
REMARK SMILES IDX 68 58 87 59 52 60 53 61 67 63 88 64 55 65 39 66 40 67 48 68
REMARK SMILES IDX 41 69 42 70 46 71 49 72 43 73 44 74 47 75 45 76 71 77 72 78
REMARK SMILES IDX 80 79 73 80 74 81 78 82 81 83 75 84 76 85 79 86 77 87 56 88
REMARK SMILES IDX 57 89 65 90 58 91 59 92 63 93 66 94 60 95 61 96 64 97 62 98
REMARK H PARENT 20 6 3 11 5 14 27 32 86 51 54 62
REMARK Flexibility Score: inf
ROOT
ATOM      1  C   UNL     1       1.159   3.749  -3.929  1.00  0.00     0.021 C 
ENDROOT
BRANCH   1   2
ATOM      2  C   UNL     1       0.151   2.907  -3.147  1.00  0.00     0.116 C 
BRANCH   2   3
ATOM      3  N   UNL     1      -0.692   2.025  -3.919  1.00  0.00    -0.354 N 
ATOM      4  C   UNL     1      -1.562   1.068  -3.460  1.00  0.00     0.245 C 
ATOM      5  O   UNL     1      -2.602   0.935  -4.121  1.00  0.00    -0.273 OA
ATOM      6  H   UNL     1      -0.636   2.122  -4.897  1.00  0.00     0.163 HD
BRANCH   4   7
ATOM      7  C   UNL     1      -1.369   0.229  -2.153  1.00  0.00     0.199 C 
BRANCH   7   8
ATOM      8  C   UNL     1       0.065  -0.252  -1.808  1.00  0.00     0.143 C 
ATOM      9  C   UNL     1       0.098  -1.305  -0.694  1.00  0.00     0.041 C 
BRANCH   8  10
ATOM     10  O   UNL     1       0.654  -0.855  -2.968  1.00  0.00    -0.391 OA
ATOM     11  H   UNL     1       0.136  -1.633  -3.227  1.00  0.00     0.211 HD
ENDBRANCH   8  10
ENDBRANCH   7   8
BRANCH   7  12
ATOM     12  N   UNL     1      -2.259   0.443  -0.987  1.00  0.00    -0.342 N 
ATOM     13  C   UNL     1      -2.789   1.514  -0.355  1.00  0.00     0.224 C 
ATOM     14  H   UNL     1      -2.531  -0.406  -0.568  1.00  0.00     0.164 HD
ATOM     15  O   UNL     1      -3.344   1.324   0.732  1.00  0.00    -0.275 OA
BRANCH  13  16
ATOM     16  C   UNL     1      -2.778   2.884  -0.962  1.00  0.00     0.141 C 
BRANCH  16  17
ATOM     17  C   UNL     1      -1.873   3.858  -0.214  1.00  0.00     0.239 C 
BRANCH  17  18
ATOM     18  O   UNL     1      -0.477   3.565  -0.320  1.00  0.00    -0.493 OA
BRANCH  18  19
ATOM     19  C   UNL     1       0.127   2.740   0.582  1.00  0.00     0.119 A 
ATOM     20  C   UNL     1      -0.455   2.204   1.726  1.00  0.00     0.047 A 
ATOM     21  C   UNL     1       1.448   2.395   0.269  1.00  0.00     0.047 A 
ATOM     22  C   UNL     1       0.245   1.276   2.504  1.00  0.00     0.019 A 
ATOM     23  C   UNL     1       2.146   1.456   1.030  1.00  0.00     0.019 A 
ATOM     24  C   UNL     1       1.533   0.891   2.142  1.00  0.00     0.018 A 
ATOM     25  Br  UNL     1       2.440  -0.425   3.147  1.00  0.00    -0.051 Br
ENDBRANCH  18  19
ENDBRANCH  17  18
ENDBRANCH  16  17
ENDBRANCH  13  16
ENDBRANCH   7  12
ENDBRANCH   4   7
ENDBRANCH   2   3
ENDBRANCH   1   2
BRANCH   1  26
ATOM     26  C   UNL     1       0.584   4.960  -4.677  1.00  0.00     0.002 C 
BRANCH  26  27
ATOM     27  C   UNL     1      -0.197   5.988  -3.845  1.00  0.00     0.002 C 
BRANCH  27  28
ATOM     28  C   UNL     1       0.541   6.641  -2.671  1.00  0.00     0.021 C 
BRANCH  28  29
ATOM     29  C   UNL     1       1.870   7.317  -2.998  1.00  0.00     0.116 C 
BRANCH  29  30
ATOM     30  N   UNL     1       1.776   8.279  -4.085  1.00  0.00    -0.352 N 
ATOM     31  C   UNL     1       2.303   9.539  -4.201  1.00  0.00     0.251 C 
ATOM     32  H   UNL     1       1.249   7.978  -4.860  1.00  0.00     0.163 HD
ATOM     33  O   UNL     1       1.999  10.239  -5.168  1.00  0.00    -0.269 OA
BRANCH  31  34
ATOM     34  C   UNL     1       3.220  10.080  -3.175  1.00  0.00     0.039 A 
ATOM     35  C   UNL     1       3.096  11.424  -2.807  1.00  0.00     0.014 A 
ATOM     36  C   UNL     1       4.225   9.294  -2.607  1.00  0.00     0.014 A 
ATOM     37  C   UNL     1       3.949  11.965  -1.844  1.00  0.00     0.010 A 
ATOM     38  C   UNL     1       5.023   9.812  -1.589  1.00  0.00     0.010 A 
ATOM     39  C   UNL     1       4.905  11.156  -1.208  1.00  0.00    -0.014 A 
BRANCH  39  40
ATOM     40  C   UNL     1       5.806  11.713  -0.167  1.00  0.00     0.031 A 
ATOM     41  C   UNL     1       7.291  11.763  -0.402  1.00  0.00     0.074 A 
ATOM     42  C   UNL     1       5.290  12.134   1.004  1.00  0.00     0.049 A 
ATOM     43  N   UNL     1       8.244  12.177   0.395  1.00  0.00    -0.248 NA
ATOM     44  C   UNL     1       7.774  11.254  -1.696  1.00  0.00     0.031 C 
ATOM     45  C   UNL     1       3.873  12.093   1.366  1.00  0.00     0.029 A 
ATOM     46  N   UNL     1       5.899  12.677   2.108  1.00  0.00    -0.354 N 
ATOM     47  C   UNL     1       9.432  11.968  -0.295  1.00  0.00     0.074 A 
ATOM     48  C   UNL     1       9.088  11.331  -1.547  1.00  0.00     0.031 C 
ATOM     49  C   UNL     1       3.716  12.617   2.592  1.00  0.00     0.029 A 
ATOM     50  C   UNL     1       5.024  12.993   3.119  1.00  0.00     0.049 A 
ATOM     51  H   UNL     1       6.870  12.825   2.170  1.00  0.00     0.167 HD
ATOM     52  C   UNL     1      10.693  12.303   0.071  1.00  0.00     0.037 A 
ATOM     53  C   UNL     1       5.254  13.523   4.335  1.00  0.00     0.037 A 
ATOM     54  C   UNL     1      11.025  12.954   1.312  1.00  0.00     0.049 A 
ATOM     55  C   UNL     1       6.666  13.877   4.720  1.00  0.00     0.074 A 
ATOM     56  C   UNL     1      12.263  13.378   1.760  1.00  0.00     0.029 A 
ATOM     57  N   UNL     1      10.110  13.271   2.305  1.00  0.00    -0.354 N 
ATOM     58  N   UNL     1       7.774  13.737   4.033  1.00  0.00    -0.248 NA
ATOM     59  C   UNL     1       6.857  14.476   6.048  1.00  0.00     0.031 C 
ATOM     60  C   UNL     1      12.106  13.902   3.047  1.00  0.00     0.029 A 
ATOM     61  C   UNL     1      10.760  13.867   3.374  1.00  0.00     0.049 A 
ATOM     62  H   UNL     1       9.141  13.098   2.258  1.00  0.00     0.167 HD
ATOM     63  C   UNL     1       8.785  14.263   4.825  1.00  0.00     0.074 A 
ATOM     64  C   UNL     1       8.156  14.740   6.039  1.00  0.00     0.031 C 
ATOM     65  C   UNL     1      10.115  14.347   4.571  1.00  0.00     0.037 A 
BRANCH  52  66
ATOM     66  C   UNL     1      11.806  11.971  -0.883  1.00  0.00     0.064 A 
ATOM     67  C   UNL     1      11.936  12.619  -2.122  1.00  0.00     0.173 A 
ATOM     68  C   UNL     1      12.777  11.016  -0.542  1.00  0.00     0.173 A 
ATOM     69  F   UNL     1      11.030  13.532  -2.504  1.00  0.00    -0.203 F 
ATOM     70  C   UNL     1      12.973  12.300  -2.995  1.00  0.00     0.198 A 
ATOM     71  C   UNL     1      13.833  10.725  -1.402  1.00  0.00     0.198 A 
ATOM     72  F   UNL     1      12.707  10.369   0.631  1.00  0.00    -0.203 F 
ATOM     73  F   UNL     1      13.041  12.891  -4.196  1.00  0.00    -0.200 F 
ATOM     74  C   UNL     1      13.925  11.360  -2.631  1.00  0.00     0.200 A 
ATOM     75  F   UNL     1      14.760   9.827  -1.042  1.00  0.00    -0.200 F 
ATOM     76  F   UNL     1      14.927  11.060  -3.469  1.00  0.00    -0.200 F 
ENDBRANCH  52  66
BRANCH  53  77
ATOM     77  C   UNL     1       4.122  13.779   5.265  1.00  0.00     0.064 A 
ATOM     78  C   UNL     1       3.748  15.087   5.606  1.00  0.00     0.173 A 
ATOM     79  C   UNL     1       3.399  12.725   5.844  1.00  0.00     0.173 A 
ATOM     80  F   UNL     1       4.419  16.130   5.094  1.00  0.00    -0.203 F 
ATOM     81  C   UNL     1       2.717  15.331   6.512  1.00  0.00     0.198 A 
ATOM     82  C   UNL     1       2.346  12.970   6.723  1.00  0.00     0.198 A 
ATOM     83  F   UNL     1       3.709  11.455   5.546  1.00  0.00    -0.203 F 
ATOM     84  F   UNL     1       2.420  16.589   6.862  1.00  0.00    -0.200 F 
ATOM     85  C   UNL     1       2.014  14.272   7.065  1.00  0.00     0.200 A 
ATOM     86  F   UNL     1       1.657  11.945   7.242  1.00  0.00    -0.200 F 
ATOM     87  F   UNL     1       1.021  14.506   7.935  1.00  0.00    -0.200 F 
ENDBRANCH  53  77
BRANCH  65  88
ATOM     88  C   UNL     1      10.971  15.027   5.601  1.00  0.00     0.064 A 
ATOM     89  C   UNL     1      11.219  14.454   6.857  1.00  0.00     0.173 A 
ATOM     90  C   UNL     1      11.573  16.262   5.314  1.00  0.00     0.173 A 
ATOM     91  F   UNL     1      10.658  13.281   7.187  1.00  0.00    -0.203 F 
ATOM     92  C   UNL     1      12.006  15.110   7.800  1.00  0.00     0.198 A 
ATOM     93  C   UNL     1      12.390  16.897   6.245  1.00  0.00     0.198 A 
ATOM     94  F   UNL     1      11.377  16.851   4.124  1.00  0.00    -0.203 F 
ATOM     95  F   UNL     1      12.178  14.572   9.016  1.00  0.00    -0.200 F 
ATOM     96  C   UNL     1      12.597  16.326   7.491  1.00  0.00     0.200 A 
ATOM     97  F   UNL     1      12.975  18.062   5.937  1.00  0.00    -0.200 F 
ATOM     98  F   UNL     1      13.358  16.952   8.398  1.00  0.00    -0.200 F 
ENDBRANCH  65  88
ENDBRANCH  39  40
ENDBRANCH  31  34
ENDBRANCH  29  30
ENDBRANCH  28  29
ENDBRANCH  27  28
ENDBRANCH  26  27
ENDBRANCH   1  26
TORSDOF 20
