REMARK SMILES CCOc1ccc(-c2nc(C(=O)NCCCCCCNC(=O)c3ccc(-c4c5nc(c(-c6c(F)c(F)c(F)c(F)c6F)c6ccc([nH]6)c(-c6c(F)c(F)c(F)c(F)c6F)c6nc(c(-c7c(F)c(F)c(F)c(F)c7F)c7ccc4[nH]7)C=C6)C=C5)cc3)cc(=O)[nH]2)cc1
REMARK SMILES IDX 16 1 15 2 14 3 13 4 11 5 12 6 10 8 8 9 9 10 89 11 87 12
REMARK SMILES IDX 86 14 88 15 7 16 4 17 5 18 91 19 6 20 90 21 3 22 2 23 1 24
REMARK SMILES IDX 17 25 18 26 19 27 20 28 21 29 22 31 23 32 24 33 85 34 25 35
REMARK SMILES IDX 84 36 26 37 27 38 28 39 78 40 29 41 83 42 77 43 79 44 30 45
REMARK SMILES IDX 82 46 76 47 75 48 31 50 63 51 43 52 62 53 44 54 47 55 61 56
REMARK SMILES IDX 80 57 45 58 46 59 60 61 81 62 48 63 32 64 33 65 41 66 34 67
REMARK SMILES IDX 35 68 39 69 42 70 36 71 37 72 40 73 38 74 64 75 65 76 73 77
REMARK SMILES IDX 66 78 67 79 71 80 74 81 68 82 69 83 72 84 70 85 49 86 50 87
REMARK SMILES IDX 58 88 51 89 52 90 56 91 59 92 53 93 54 94 57 95 55 96
REMARK H PARENT 13 7 89 13 20 30 79 49 47 60
REMARK Flexibility Score: inf
ROOT
ATOM      1  C   UNL     1      13.442   2.495  -3.363  1.00  0.00     0.002 C 
ENDROOT
BRANCH   1   2
ATOM      2  C   UNL     1      12.607   2.485  -2.082  1.00  0.00     0.021 C 
BRANCH   2   3
ATOM      3  C   UNL     1      11.484   3.511  -2.000  1.00  0.00     0.116 C 
BRANCH   3   4
ATOM      4  N   UNL     1      10.425   3.287  -2.962  1.00  0.00    -0.351 N 
ATOM      5  C   UNL     1       9.064   3.312  -2.854  1.00  0.00     0.270 C 
ATOM      6  O   UNL     1       8.424   3.057  -3.878  1.00  0.00    -0.268 OA
ATOM      7  H   UNL     1      10.748   3.076  -3.867  1.00  0.00     0.163 HD
BRANCH   5   8
ATOM      8  C   UNL     1       8.343   3.589  -1.548  1.00  0.00     0.136 A 
ATOM      9  C   UNL     1       6.374   3.388  -0.388  1.00  0.00     0.141 A 
ATOM     10  N   UNL     1       7.072   3.055  -1.424  1.00  0.00    -0.225 NA
ATOM     11  N   UNL     1       6.889   4.112   0.653  1.00  0.00    -0.306 N 
ATOM     12  C   UNL     1       8.149   4.619   0.619  1.00  0.00     0.251 A 
ATOM     13  H   UNL     1       6.332   4.270   1.449  1.00  0.00     0.171 HD
ATOM     14  C   UNL     1       8.858   4.439  -0.650  1.00  0.00     0.105 A 
ATOM     15  O   UNL     1       8.669   5.188   1.565  1.00  0.00    -0.269 OA
BRANCH   9  16
ATOM     16  C   UNL     1       4.946   3.020  -0.272  1.00  0.00     0.018 A 
ATOM     17  C   UNL     1       2.238   2.389  -0.173  1.00  0.00     0.119 A 
ATOM     18  C   UNL     1       2.665   3.641   0.262  1.00  0.00     0.047 A 
ATOM     19  C   UNL     1       3.147   1.474  -0.704  1.00  0.00     0.047 A 
ATOM     20  C   UNL     1       4.023   3.958   0.217  1.00  0.00     0.016 A 
ATOM     21  C   UNL     1       4.506   1.785  -0.749  1.00  0.00     0.016 A 
BRANCH  17  22
ATOM     22  O   UNL     1       0.896   2.134  -0.187  1.00  0.00    -0.494 OA
BRANCH  22  23
ATOM     23  C   UNL     1       0.500   1.208   0.832  1.00  0.00     0.226 C 
ATOM     24  C   UNL     1       0.537  -0.225   0.325  1.00  0.00     0.049 C 
ENDBRANCH  22  23
ENDBRANCH  17  22
ENDBRANCH   9  16
ENDBRANCH   5   8
ENDBRANCH   3   4
ENDBRANCH   2   3
ENDBRANCH   1   2
BRANCH   1  25
ATOM     25  C   UNL     1      14.043   3.844  -3.768  1.00  0.00     0.002 C 
BRANCH  25  26
ATOM     26  C   UNL     1      14.810   4.595  -2.678  1.00  0.00     0.021 C 
BRANCH  26  27
ATOM     27  C   UNL     1      15.923   3.806  -2.000  1.00  0.00     0.116 C 
BRANCH  27  28
ATOM     28  N   UNL     1      16.957   3.393  -2.931  1.00  0.00    -0.352 N 
ATOM     29  C   UNL     1      18.316   3.561  -2.858  1.00  0.00     0.251 C 
ATOM     30  H   UNL     1      16.634   2.922  -3.733  1.00  0.00     0.163 HD
ATOM     31  O   UNL     1      19.017   3.304  -3.833  1.00  0.00    -0.269 OA
BRANCH  29  32
ATOM     32  C   UNL     1      18.944   4.063  -1.616  1.00  0.00     0.039 A 
ATOM     33  C   UNL     1      19.998   4.973  -1.720  1.00  0.00     0.014 A 
ATOM     34  C   UNL     1      18.532   3.614  -0.358  1.00  0.00     0.014 A 
ATOM     35  C   UNL     1      20.617   5.454  -0.566  1.00  0.00     0.010 A 
ATOM     36  C   UNL     1      19.091   4.160   0.795  1.00  0.00     0.010 A 
ATOM     37  C   UNL     1      20.156   5.067   0.704  1.00  0.00    -0.014 A 
BRANCH  37  38
ATOM     38  C   UNL     1      20.807   5.575   1.938  1.00  0.00     0.031 A 
ATOM     39  C   UNL     1      21.513   4.625   2.867  1.00  0.00     0.074 A 
ATOM     40  C   UNL     1      20.742   6.887   2.236  1.00  0.00     0.049 A 
ATOM     41  N   UNL     1      22.133   4.872   3.994  1.00  0.00    -0.248 NA
ATOM     42  C   UNL     1      21.497   3.201   2.495  1.00  0.00     0.031 C 
ATOM     43  C   UNL     1      20.052   7.901   1.438  1.00  0.00     0.029 A 
ATOM     44  N   UNL     1      21.265   7.593   3.291  1.00  0.00    -0.354 N 
ATOM     45  C   UNL     1      22.572   3.640   4.463  1.00  0.00     0.074 A 
ATOM     46  C   UNL     1      22.087   2.640   3.539  1.00  0.00     0.031 C 
ATOM     47  C   UNL     1      20.228   9.103   2.008  1.00  0.00     0.029 A 
ATOM     48  C   UNL     1      21.007   8.940   3.232  1.00  0.00     0.049 A 
ATOM     49  H   UNL     1      21.776   7.173   4.019  1.00  0.00     0.167 HD
ATOM     50  C   UNL     1      23.336   3.369   5.549  1.00  0.00     0.037 A 
ATOM     51  C   UNL     1      21.362   9.931   4.071  1.00  0.00     0.037 A 
ATOM     52  C   UNL     1      23.826   4.371   6.459  1.00  0.00     0.049 A 
ATOM     53  C   UNL     1      22.189   9.601   5.285  1.00  0.00     0.074 A 
ATOM     54  C   UNL     1      24.642   4.209   7.566  1.00  0.00     0.029 A 
ATOM     55  N   UNL     1      23.540   5.726   6.370  1.00  0.00    -0.354 N 
ATOM     56  N   UNL     1      22.656   8.442   5.682  1.00  0.00    -0.248 NA
ATOM     57  C   UNL     1      22.546  10.723   6.163  1.00  0.00     0.031 C 
ATOM     58  C   UNL     1      24.801   5.457   8.179  1.00  0.00     0.029 A 
ATOM     59  C   UNL     1      24.142   6.408   7.416  1.00  0.00     0.049 A 
ATOM     60  H   UNL     1      22.990   6.142   5.668  1.00  0.00     0.167 HD
ATOM     61  C   UNL     1      23.394   8.700   6.830  1.00  0.00     0.074 A 
ATOM     62  C   UNL     1      23.323  10.129   7.057  1.00  0.00     0.031 C 
ATOM     63  C   UNL     1      24.071   7.833   7.623  1.00  0.00     0.037 A 
BRANCH  50  64
ATOM     64  C   UNL     1      23.683   1.930   5.810  1.00  0.00     0.064 A 
ATOM     65  C   UNL     1      24.525   1.205   4.950  1.00  0.00     0.173 A 
ATOM     66  C   UNL     1      23.183   1.268   6.942  1.00  0.00     0.173 A 
ATOM     67  F   UNL     1      25.024   1.784   3.847  1.00  0.00    -0.203 F 
ATOM     68  C   UNL     1      24.817  -0.135   5.191  1.00  0.00     0.198 A 
ATOM     69  C   UNL     1      23.508  -0.061   7.200  1.00  0.00     0.198 A 
ATOM     70  F   UNL     1      22.379   1.912   7.802  1.00  0.00    -0.203 F 
ATOM     71  F   UNL     1      25.570  -0.822   4.320  1.00  0.00    -0.200 F 
ATOM     72  C   UNL     1      24.314  -0.765   6.319  1.00  0.00     0.200 A 
ATOM     73  F   UNL     1      23.033  -0.664   8.299  1.00  0.00    -0.200 F 
ATOM     74  F   UNL     1      24.599  -2.054   6.552  1.00  0.00    -0.200 F 
ENDBRANCH  50  64
BRANCH  51  75
ATOM     75  C   UNL     1      20.972  11.336   3.775  1.00  0.00     0.064 A 
ATOM     76  C   UNL     1      21.939  12.295   3.440  1.00  0.00     0.173 A 
ATOM     77  C   UNL     1      19.634  11.753   3.831  1.00  0.00     0.173 A 
ATOM     78  F   UNL     1      23.234  11.950   3.391  1.00  0.00    -0.203 F 
ATOM     79  C   UNL     1      21.587  13.621   3.200  1.00  0.00     0.198 A 
ATOM     80  C   UNL     1      19.279  13.072   3.559  1.00  0.00     0.198 A 
ATOM     81  F   UNL     1      18.669  10.874   4.140  1.00  0.00    -0.203 F 
ATOM     82  F   UNL     1      22.538  14.527   2.937  1.00  0.00    -0.200 F 
ATOM     83  C   UNL     1      20.256  14.008   3.255  1.00  0.00     0.200 A 
ATOM     84  F   UNL     1      17.991  13.438   3.596  1.00  0.00    -0.200 F 
ATOM     85  F   UNL     1      19.917  15.283   3.022  1.00  0.00    -0.200 F 
ENDBRANCH  51  75
BRANCH  63  86
ATOM     86  C   UNL     1      24.834   8.413   8.781  1.00  0.00     0.064 A 
ATOM     87  C   UNL     1      24.187   8.976   9.891  1.00  0.00     0.173 A 
ATOM     88  C   UNL     1      26.238   8.386   8.786  1.00  0.00     0.173 A 
ATOM     89  F   UNL     1      22.848   9.040   9.932  1.00  0.00    -0.203 F 
ATOM     90  C   UNL     1      24.916   9.525  10.943  1.00  0.00     0.198 A 
ATOM     91  C   UNL     1      26.963   8.900   9.857  1.00  0.00     0.198 A 
ATOM     92  F   UNL     1      26.909   7.850   7.755  1.00  0.00    -0.203 F 
ATOM     93  F   UNL     1      24.277  10.116  11.962  1.00  0.00    -0.200 F 
ATOM     94  C   UNL     1      26.302   9.480  10.929  1.00  0.00     0.200 A 
ATOM     95  F   UNL     1      28.302   8.839   9.849  1.00  0.00    -0.200 F 
ATOM     96  F   UNL     1      27.002  10.006  11.944  1.00  0.00    -0.200 F 
ENDBRANCH  63  86
ENDBRANCH  37  38
ENDBRANCH  29  32
ENDBRANCH  27  28
ENDBRANCH  26  27
ENDBRANCH  25  26
ENDBRANCH   1  25
TORSDOF 16
