REMARK SMILES CC(C)[C@@H](CNC(=O)[C@@H]1CC[C@@H]2CCCC[C@@H]2[NH2+]1)C(=O)NCCCCCCNC(=O)c1ccc(-c2c3nc(c(-c4c(F)c(F)c(F)c(F)c4F)c4ccc([nH]4)c(-c4c(F)c(F)c(F)c(F)c4F)c4nc(c(-c5c(F)c(F)c(F)c(F)c5F)c5ccc2[nH]5)C=C4)C=C3)cc1
REMARK SMILES IDX 24 1 23 2 22 3 21 4 19 5 20 6 4 8 2 9 1 10 3 11 5 12 6 13
REMARK SMILES IDX 7 14 8 16 9 17 10 18 18 19 11 20 17 21 12 24 16 25 13 26
REMARK SMILES IDX 15 27 14 28 25 29 26 30 27 31 28 32 29 33 30 35 31 36 32 37
REMARK SMILES IDX 93 38 33 39 92 40 34 41 35 42 36 43 86 44 37 45 91 46 85 47
REMARK SMILES IDX 87 48 38 49 90 50 84 51 83 52 39 54 71 55 51 56 70 57 52 58
REMARK SMILES IDX 55 59 69 60 88 61 53 62 54 63 68 65 89 66 56 67 40 68 41 69
REMARK SMILES IDX 49 70 42 71 43 72 47 73 50 74 44 75 45 76 48 77 46 78 72 79
REMARK SMILES IDX 73 80 81 81 74 82 75 83 79 84 82 85 76 86 77 87 80 88 78 89
REMARK SMILES IDX 57 90 58 91 66 92 59 93 60 94 64 95 67 96 61 97 62 98 65 99
REMARK SMILES IDX 63 100
REMARK H PARENT 21 7 6 15 18 22 18 23 28 34 87 53 55 64
REMARK Flexibility Score: inf
ROOT
ATOM      1  C   UNL     1       0.631  -6.102  -3.776  1.00  0.00     0.002 C 
ENDROOT
BRANCH   1   2
ATOM      2  C   UNL     1       1.319  -4.985  -2.994  1.00  0.00     0.021 C 
BRANCH   2   3
ATOM      3  C   UNL     1       0.347  -3.936  -2.496  1.00  0.00     0.116 C 
BRANCH   3   4
ATOM      4  N   UNL     1      -0.404  -4.397  -1.357  1.00  0.00    -0.356 N 
ATOM      5  C   UNL     1      -0.794  -3.712  -0.255  1.00  0.00     0.225 C 
ATOM      6  O   UNL     1      -1.547  -4.273   0.544  1.00  0.00    -0.275 OA
ATOM      7  H   UNL     1      -0.672  -5.344  -1.382  1.00  0.00     0.163 HD
BRANCH   5   8
ATOM      8  C   UNL     1      -0.349  -2.282  -0.017  1.00  0.00     0.100 C 
BRANCH   8   9
ATOM      9  C   UNL     1       1.179  -2.045   0.164  1.00  0.00    -0.003 C 
ATOM     10  C   UNL     1       1.547  -0.565   0.348  1.00  0.00     0.008 C 
ATOM     11  C   UNL     1       1.680  -2.828   1.387  1.00  0.00     0.008 C 
ENDBRANCH   8   9
BRANCH   8  12
ATOM     12  C   UNL     1      -1.156  -1.311  -0.884  1.00  0.00     0.129 C 
BRANCH  12  13
ATOM     13  N   UNL     1      -1.162  -1.346  -2.331  1.00  0.00    -0.350 N 
ATOM     14  C   UNL     1      -2.067  -0.899  -3.255  1.00  0.00     0.278 C 
ATOM     15  H   UNL     1      -0.366  -1.772  -2.724  1.00  0.00     0.163 HD
ATOM     16  O   UNL     1      -1.627  -0.896  -4.416  1.00  0.00    -0.268 OA
BRANCH  14  17
ATOM     17  C   UNL     1      -3.566  -0.530  -2.996  1.00  0.00     0.272 C 
ATOM     18  C   UNL     1      -4.105   0.454  -4.060  1.00  0.00     0.076 C 
ATOM     19  N   UNL     1      -3.960  -0.042  -1.668  1.00  0.00    -0.333 N 
ATOM     20  C   UNL     1      -3.709   1.907  -3.771  1.00  0.00     0.016 C 
ATOM     21  C   UNL     1      -3.645   1.340  -1.311  1.00  0.00     0.186 C 
ATOM     22  H   UNL     1      -3.504  -0.642  -0.980  1.00  0.00     0.347 HD
ATOM     23  H   UNL     1      -4.979  -0.070  -1.685  1.00  0.00     0.347 HD
ATOM     24  C   UNL     1      -4.165   2.322  -2.363  1.00  0.00     0.048 C 
ATOM     25  C   UNL     1      -2.163   1.554  -1.010  1.00  0.00     0.065 C 
ATOM     26  C   UNL     1      -3.753   3.754  -1.980  1.00  0.00     0.010 C 
ATOM     27  C   UNL     1      -1.658   2.972  -0.837  1.00  0.00     0.006 C 
ATOM     28  C   UNL     1      -2.245   3.932  -1.853  1.00  0.00     0.001 C 
ENDBRANCH  14  17
ENDBRANCH  12  13
ENDBRANCH   8  12
ENDBRANCH   5   8
ENDBRANCH   3   4
ENDBRANCH   2   3
ENDBRANCH   1   2
BRANCH   1  29
ATOM     29  C   UNL     1      -0.272  -5.635  -4.926  1.00  0.00     0.002 C 
BRANCH  29  30
ATOM     30  C   UNL     1       0.361  -4.641  -5.904  1.00  0.00     0.021 C 
BRANCH  30  31
ATOM     31  C   UNL     1       1.721  -5.056  -6.446  1.00  0.00     0.116 C 
BRANCH  31  32
ATOM     32  N   UNL     1       1.720  -6.402  -6.991  1.00  0.00    -0.352 N 
ATOM     33  C   UNL     1       2.357  -6.867  -8.108  1.00  0.00     0.251 C 
ATOM     34  H   UNL     1       1.191  -7.066  -6.492  1.00  0.00     0.163 HD
ATOM     35  O   UNL     1       2.175  -8.011  -8.511  1.00  0.00    -0.269 OA
BRANCH  33  36
ATOM     36  C   UNL     1       3.250  -5.954  -8.839  1.00  0.00     0.039 A 
ATOM     37  C   UNL     1       3.059  -5.782 -10.210  1.00  0.00     0.014 A 
ATOM     38  C   UNL     1       4.239  -5.240  -8.155  1.00  0.00     0.014 A 
ATOM     39  C   UNL     1       3.842  -4.857 -10.898  1.00  0.00     0.010 A 
ATOM     40  C   UNL     1       4.965  -4.267  -8.826  1.00  0.00     0.010 A 
ATOM     41  C   UNL     1       4.782  -4.078 -10.206  1.00  0.00    -0.014 A 
BRANCH  41  42
ATOM     42  C   UNL     1       5.631  -3.087 -10.906  1.00  0.00     0.031 A 
ATOM     43  C   UNL     1       7.117  -3.298 -10.951  1.00  0.00     0.074 A 
ATOM     44  C   UNL     1       5.078  -1.976 -11.426  1.00  0.00     0.049 A 
ATOM     45  N   UNL     1       8.056  -2.498 -11.385  1.00  0.00    -0.248 NA
ATOM     46  C   UNL     1       7.616  -4.568 -10.399  1.00  0.00     0.031 C 
ATOM     47  C   UNL     1       3.650  -1.655 -11.415  1.00  0.00     0.029 A 
ATOM     48  N   UNL     1       5.657  -0.901 -12.050  1.00  0.00    -0.354 N 
ATOM     49  C   UNL     1       9.252  -3.156 -11.137  1.00  0.00     0.074 A 
ATOM     50  C   UNL     1       8.927  -4.395 -10.465  1.00  0.00     0.031 C 
ATOM     51  C   UNL     1       3.463  -0.469 -12.017  1.00  0.00     0.029 A 
ATOM     52  C   UNL     1       4.759   0.071 -12.416  1.00  0.00     0.049 A 
ATOM     53  H   UNL     1       6.625  -0.833 -12.220  1.00  0.00     0.167 HD
ATOM     54  C   UNL     1      10.508  -2.770 -11.462  1.00  0.00     0.037 A 
ATOM     55  C   UNL     1       4.967   1.270 -12.993  1.00  0.00     0.037 A 
ATOM     56  C   UNL     1      10.817  -1.550 -12.158  1.00  0.00     0.049 A 
ATOM     57  C   UNL     1       6.375   1.682 -13.333  1.00  0.00     0.074 A 
ATOM     58  C   UNL     1      12.049  -1.084 -12.579  1.00  0.00     0.029 A 
ATOM     59  N   UNL     1       9.877  -0.603 -12.538  1.00  0.00    -0.354 N 
ATOM     60  N   UNL     1       7.497   1.033 -13.138  1.00  0.00    -0.248 NA
ATOM     61  C   UNL     1       6.544   2.991 -13.977  1.00  0.00     0.031 C 
ATOM     62  C   UNL     1      11.861   0.167 -13.174  1.00  0.00     0.029 A 
ATOM     63  C   UNL     1      10.505   0.455 -13.175  1.00  0.00     0.049 A 
ATOM     64  H   UNL     1       8.908  -0.672 -12.379  1.00  0.00     0.167 HD
ATOM     65  C   UNL     1       8.499   1.834 -13.669  1.00  0.00     0.074 A 
ATOM     66  C   UNL     1       7.851   3.016 -14.198  1.00  0.00     0.031 C 
ATOM     67  C   UNL     1       9.835   1.609 -13.718  1.00  0.00     0.037 A 
BRANCH  54  68
ATOM     68  C   UNL     1      11.637  -3.677 -11.066  1.00  0.00     0.064 A 
ATOM     69  C   UNL     1      11.821  -4.932 -11.667  1.00  0.00     0.173 A 
ATOM     70  C   UNL     1      12.560  -3.278 -10.088  1.00  0.00     0.173 A 
ATOM     71  F   UNL     1      10.959  -5.368 -12.598  1.00  0.00    -0.203 F 
ATOM     72  C   UNL     1      12.866  -5.767 -11.280  1.00  0.00     0.198 A 
ATOM     73  C   UNL     1      13.624  -4.101  -9.727  1.00  0.00     0.198 A 
ATOM     74  F   UNL     1      12.434  -2.087  -9.483  1.00  0.00    -0.203 F 
ATOM     75  F   UNL     1      12.986  -6.984 -11.827  1.00  0.00    -0.200 F 
ATOM     76  C   UNL     1      13.770  -5.348 -10.316  1.00  0.00     0.200 A 
ATOM     77  F   UNL     1      14.505  -3.690  -8.805  1.00  0.00    -0.200 F 
ATOM     78  F   UNL     1      14.779  -6.150  -9.949  1.00  0.00    -0.200 F 
ENDBRANCH  54  68
BRANCH  55  79
ATOM     79  C   UNL     1       3.815   2.155 -13.306  1.00  0.00     0.064 A 
ATOM     80  C   UNL     1       3.438   2.400 -14.634  1.00  0.00     0.173 A 
ATOM     81  C   UNL     1       3.071   2.777 -12.292  1.00  0.00     0.173 A 
ATOM     82  F   UNL     1       4.130   1.844 -15.639  1.00  0.00    -0.203 F 
ATOM     83  C   UNL     1       2.378   3.252 -14.937  1.00  0.00     0.198 A 
ATOM     84  C   UNL     1       1.993   3.605 -12.595  1.00  0.00     0.198 A 
ATOM     85  F   UNL     1       3.387   2.572 -11.005  1.00  0.00    -0.203 F 
ATOM     86  F   UNL     1       2.071   3.507 -16.216  1.00  0.00    -0.200 F 
ATOM     87  C   UNL     1       1.653   3.849 -13.917  1.00  0.00     0.200 A 
ATOM     88  F   UNL     1       1.286   4.171 -11.607  1.00  0.00    -0.200 F 
ATOM     89  F   UNL     1       0.632   4.667 -14.209  1.00  0.00    -0.200 F 
ENDBRANCH  55  79
BRANCH  67  90
ATOM     90  C   UNL     1      10.683   2.629 -14.420  1.00  0.00     0.064 A 
ATOM     91  C   UNL     1      10.951   3.884 -13.855  1.00  0.00     0.173 A 
ATOM     92  C   UNL     1      11.290   2.314 -15.646  1.00  0.00     0.173 A 
ATOM     93  F   UNL     1      10.384   4.236 -12.692  1.00  0.00    -0.203 F 
ATOM     94  C   UNL     1      11.781   4.795 -14.503  1.00  0.00     0.198 A 
ATOM     95  C   UNL     1      12.143   3.215 -16.275  1.00  0.00     0.198 A 
ATOM     96  F   UNL     1      11.071   1.123 -16.223  1.00  0.00    -0.203 F 
ATOM     97  F   UNL     1      11.993   6.004 -13.966  1.00  0.00    -0.200 F 
ATOM     98  C   UNL     1      12.384   4.456 -15.706  1.00  0.00     0.200 A 
ATOM     99  F   UNL     1      12.738   2.880 -17.428  1.00  0.00    -0.200 F 
ATOM    100  F   UNL     1      13.195   5.329 -16.319  1.00  0.00    -0.200 F 
ENDBRANCH  67  90
ENDBRANCH  41  42
ENDBRANCH  33  36
ENDBRANCH  31  32
ENDBRANCH  30  31
ENDBRANCH  29  30
ENDBRANCH   1  29
TORSDOF 17
