REMARK SMILES CCCCOc1ccc(-c2nc(C)c(C(=O)NCCCCCCNC(=O)c3ccc(-c4c5nc(c(-c6c(F)c(F)c(F)c(F)c6F)c6ccc([nH]6)c(-c6c(F)c(F)c(F)c(F)c6F)c6nc(c(-c7c(F)c(F)c(F)c(F)c7F)c7ccc4[nH]7)C=C6)C=C5)cc3)s2)cc1OC
REMARK SMILES IDX 19 1 18 2 17 3 15 4 16 5 14 7 10 8 11 9 90 10 12 11 13 12
REMARK SMILES IDX 9 13 6 14 7 15 92 16 8 17 91 18 5 19 4 20 3 21 2 22 1 23
REMARK SMILES IDX 93 24 94 25 20 26 21 27 22 28 23 29 24 30 25 31 26 33 27 34
REMARK SMILES IDX 28 35 89 36 29 37 88 38 30 39 31 40 32 41 82 42 33 43 87 44
REMARK SMILES IDX 81 45 83 46 34 47 86 48 80 49 79 50 35 52 67 53 47 54 66 55
REMARK SMILES IDX 48 56 51 57 65 58 84 59 49 60 50 61 64 63 85 64 52 65 36 66
REMARK SMILES IDX 37 67 45 68 38 69 39 70 43 71 46 72 40 73 41 74 44 75 42 76
REMARK SMILES IDX 68 77 69 78 77 79 70 80 71 81 75 82 78 83 72 84 73 85 76 86
REMARK SMILES IDX 74 87 53 88 54 89 62 90 55 91 56 92 60 93 63 94 57 95 58 96
REMARK SMILES IDX 61 97 59 98
REMARK H PARENT 17 6 24 32 83 51 51 62
REMARK Flexibility Score: inf
ROOT
ATOM      1  C   UNL     1      -4.094  -4.551  -6.563  1.00  0.00     0.021 C 
ENDROOT
BRANCH   1   2
ATOM      2  C   UNL     1      -5.242  -4.035  -5.691  1.00  0.00     0.116 C 
BRANCH   2   3
ATOM      3  N   UNL     1      -5.213  -4.703  -4.419  1.00  0.00    -0.351 N 
ATOM      4  C   UNL     1      -4.785  -4.339  -3.174  1.00  0.00     0.263 C 
ATOM      5  O   UNL     1      -4.882  -5.260  -2.351  1.00  0.00    -0.268 OA
ATOM      6  H   UNL     1      -5.579  -5.616  -4.452  1.00  0.00     0.163 HD
BRANCH   4   7
ATOM      7  C   UNL     1      -4.300  -3.014  -2.809  1.00  0.00     0.115 A 
ATOM      8  C   UNL     1      -3.556  -1.220  -1.306  1.00  0.00     0.124 A 
ATOM      9  N   UNL     1      -3.371  -0.872  -2.556  1.00  0.00    -0.241 NA
ATOM     10  S   UNL     1      -4.410  -2.675  -1.099  1.00  0.00    -0.108 S 
ATOM     11  C   UNL     1      -3.703  -1.911  -3.419  1.00  0.00     0.062 A 
ATOM     12  C   UNL     1      -3.271  -1.649  -4.816  1.00  0.00     0.068 C 
BRANCH   8  13
ATOM     13  C   UNL     1      -3.009  -0.472  -0.172  1.00  0.00     0.014 A 
ATOM     14  C   UNL     1      -1.520   0.939   1.739  1.00  0.00     0.161 A 
ATOM     15  C   UNL     1      -2.196   1.628   0.725  1.00  0.00     0.051 A 
ATOM     16  C   UNL     1      -1.700  -0.439   1.892  1.00  0.00     0.161 A 
ATOM     17  C   UNL     1      -2.926   0.923  -0.234  1.00  0.00     0.015 A 
ATOM     18  C   UNL     1      -2.419  -1.135   0.915  1.00  0.00     0.061 A 
BRANCH  14  19
ATOM     19  O   UNL     1      -0.655   1.621   2.551  1.00  0.00    -0.490 OA
BRANCH  19  20
ATOM     20  C   UNL     1       0.498   2.120   1.851  1.00  0.00     0.230 C 
BRANCH  20  21
ATOM     21  C   UNL     1       1.702   1.168   1.920  1.00  0.00     0.041 C 
BRANCH  21  22
ATOM     22  C   UNL     1       1.651  -0.075   1.024  1.00  0.00     0.000 C 
ATOM     23  C   UNL     1       1.599   0.227  -0.465  1.00  0.00     0.004 C 
ENDBRANCH  21  22
ENDBRANCH  20  21
ENDBRANCH  19  20
ENDBRANCH  14  19
BRANCH  16  24
ATOM     24  O   UNL     1      -1.127  -1.262   2.825  1.00  0.00    -0.493 OA
ATOM     25  C   UNL     1      -0.825  -0.703   4.094  1.00  0.00     0.278 C 
ENDBRANCH  16  24
ENDBRANCH   8  13
ENDBRANCH   4   7
ENDBRANCH   2   3
ENDBRANCH   1   2
BRANCH   1  26
ATOM     26  C   UNL     1      -4.496  -5.737  -7.444  1.00  0.00     0.002 C 
BRANCH  26  27
ATOM     27  C   UNL     1      -5.571  -5.405  -8.486  1.00  0.00     0.002 C 
BRANCH  27  28
ATOM     28  C   UNL     1      -5.228  -4.226  -9.399  1.00  0.00     0.021 C 
BRANCH  28  29
ATOM     29  C   UNL     1      -3.984  -4.455 -10.246  1.00  0.00     0.116 C 
BRANCH  29  30
ATOM     30  N   UNL     1      -4.181  -5.548 -11.187  1.00  0.00    -0.352 N 
ATOM     31  C   UNL     1      -4.142  -5.516 -12.559  1.00  0.00     0.251 C 
ATOM     32  H   UNL     1      -4.368  -6.428 -10.786  1.00  0.00     0.163 HD
ATOM     33  O   UNL     1      -4.591  -6.439 -13.224  1.00  0.00    -0.269 OA
BRANCH  31  34
ATOM     34  C   UNL     1      -3.547  -4.340 -13.222  1.00  0.00     0.039 A 
ATOM     35  C   UNL     1      -4.213  -3.741 -14.292  1.00  0.00     0.014 A 
ATOM     36  C   UNL     1      -2.332  -3.828 -12.760  1.00  0.00     0.014 A 
ATOM     37  C   UNL     1      -3.682  -2.586 -14.869  1.00  0.00     0.010 A 
ATOM     38  C   UNL     1      -1.851  -2.634 -13.278  1.00  0.00     0.010 A 
ATOM     39  C   UNL     1      -2.513  -2.009 -14.346  1.00  0.00    -0.014 A 
BRANCH  39  40
ATOM     40  C   UNL     1      -1.925  -0.772 -14.914  1.00  0.00     0.031 A 
ATOM     41  C   UNL     1      -0.548  -0.823 -15.515  1.00  0.00     0.074 A 
ATOM     42  C   UNL     1      -2.579   0.399 -14.806  1.00  0.00     0.049 A 
ATOM     43  N   UNL     1       0.219   0.157 -15.919  1.00  0.00    -0.248 NA
ATOM     44  C   UNL     1       0.064  -2.156 -15.643  1.00  0.00     0.031 C 
ATOM     45  C   UNL     1      -3.908   0.577 -14.219  1.00  0.00     0.029 A 
ATOM     46  N   UNL     1      -2.203   1.668 -15.168  1.00  0.00    -0.354 N 
ATOM     47  C   UNL     1       1.405  -0.439 -16.326  1.00  0.00     0.074 A 
ATOM     48  C   UNL     1       1.282  -1.856 -16.064  1.00  0.00     0.031 C 
ATOM     49  C   UNL     1      -4.242   1.877 -14.274  1.00  0.00     0.029 A 
ATOM     50  C   UNL     1      -3.132   2.629 -14.851  1.00  0.00     0.049 A 
ATOM     51  H   UNL     1      -1.348   1.870 -15.612  1.00  0.00     0.167 HD
ATOM     52  C   UNL     1       2.490   0.141 -16.891  1.00  0.00     0.037 A 
ATOM     53  C   UNL     1      -3.082   3.967 -14.995  1.00  0.00     0.037 A 
ATOM     54  C   UNL     1       2.594   1.549 -17.169  1.00  0.00     0.049 A 
ATOM     55  C   UNL     1      -1.850   4.592 -15.598  1.00  0.00     0.074 A 
ATOM     56  C   UNL     1       3.630   2.234 -17.777  1.00  0.00     0.029 A 
ATOM     57  N   UNL     1       1.621   2.487 -16.856  1.00  0.00    -0.354 N 
ATOM     58  N   UNL     1      -0.752   4.017 -16.024  1.00  0.00    -0.248 NA
ATOM     59  C   UNL     1      -1.853   6.055 -15.743  1.00  0.00     0.031 C 
ATOM     60  C   UNL     1       3.309   3.595 -17.782  1.00  0.00     0.029 A 
ATOM     61  C   UNL     1       2.042   3.749 -17.241  1.00  0.00     0.049 A 
ATOM     62  H   UNL     1       0.759   2.286 -16.424  1.00  0.00     0.167 HD
ATOM     63  C   UNL     1       0.044   5.037 -16.529  1.00  0.00     0.074 A 
ATOM     64  C   UNL     1      -0.698   6.268 -16.358  1.00  0.00     0.031 C 
ATOM     65  C   UNL     1       1.276   4.960 -17.089  1.00  0.00     0.037 A 
BRANCH  52  66
ATOM     66  C   UNL     1       3.650  -0.746 -17.244  1.00  0.00     0.064 A 
ATOM     67  C   UNL     1       3.562  -1.704 -18.265  1.00  0.00     0.173 A 
ATOM     68  C   UNL     1       4.875  -0.618 -16.571  1.00  0.00     0.173 A 
ATOM     69  F   UNL     1       2.410  -1.878 -18.932  1.00  0.00    -0.203 F 
ATOM     70  C   UNL     1       4.644  -2.523 -18.577  1.00  0.00     0.198 A 
ATOM     71  C   UNL     1       5.966  -1.413 -16.910  1.00  0.00     0.198 A 
ATOM     72  F   UNL     1       5.017   0.285 -15.589  1.00  0.00    -0.203 F 
ATOM     73  F   UNL     1       4.516  -3.471 -19.516  1.00  0.00    -0.200 F 
ATOM     74  C   UNL     1       5.847  -2.372 -17.905  1.00  0.00     0.200 A 
ATOM     75  F   UNL     1       7.133  -1.254 -16.271  1.00  0.00    -0.200 F 
ATOM     76  F   UNL     1       6.890  -3.154 -18.212  1.00  0.00    -0.200 F 
ENDBRANCH  52  66
BRANCH  53  77
ATOM     77  C   UNL     1      -4.235   4.808 -14.578  1.00  0.00     0.064 A 
ATOM     78  C   UNL     1      -5.001   5.498 -15.528  1.00  0.00     0.173 A 
ATOM     79  C   UNL     1      -4.586   4.956 -13.228  1.00  0.00     0.173 A 
ATOM     80  F   UNL     1      -4.695   5.404 -16.830  1.00  0.00    -0.203 F 
ATOM     81  C   UNL     1      -6.053   6.327 -15.143  1.00  0.00     0.198 A 
ATOM     82  C   UNL     1      -5.659   5.759 -12.846  1.00  0.00     0.198 A 
ATOM     83  F   UNL     1      -3.891   4.313 -12.278  1.00  0.00    -0.203 F 
ATOM     84  F   UNL     1      -6.731   7.019 -16.069  1.00  0.00    -0.200 F 
ATOM     85  C   UNL     1      -6.384   6.453 -13.803  1.00  0.00     0.200 A 
ATOM     86  F   UNL     1      -5.986   5.865 -11.551  1.00  0.00    -0.200 F 
ATOM     87  F   UNL     1      -7.396   7.250 -13.432  1.00  0.00    -0.200 F 
ENDBRANCH  53  77
BRANCH  65  88
ATOM     88  C   UNL     1       1.876   6.227 -17.628  1.00  0.00     0.064 A 
ATOM     89  C   UNL     1       2.342   7.246 -16.786  1.00  0.00     0.173 A 
ATOM     90  C   UNL     1       2.045   6.389 -19.012  1.00  0.00     0.173 A 
ATOM     91  F   UNL     1       2.193   7.145 -15.456  1.00  0.00    -0.203 F 
ATOM     92  C   UNL     1       2.937   8.390 -17.311  1.00  0.00     0.198 A 
ATOM     93  C   UNL     1       2.670   7.518 -19.531  1.00  0.00     0.198 A 
ATOM     94  F   UNL     1       1.623   5.440 -19.861  1.00  0.00    -0.203 F 
ATOM     95  F   UNL     1       3.337   9.372 -16.490  1.00  0.00    -0.200 F 
ATOM     96  C   UNL     1       3.110   8.521 -18.681  1.00  0.00     0.200 A 
ATOM     97  F   UNL     1       2.853   7.633 -20.854  1.00  0.00    -0.200 F 
ATOM     98  F   UNL     1       3.699   9.615 -19.183  1.00  0.00    -0.200 F 
ENDBRANCH  65  88
ENDBRANCH  39  40
ENDBRANCH  31  34
ENDBRANCH  29  30
ENDBRANCH  28  29
ENDBRANCH  27  28
ENDBRANCH  26  27
ENDBRANCH   1  26
TORSDOF 19
