REMARK SMILES COc1cc(NS(=O)(=O)c2cc(C(=O)NCCCCCCNC(=O)c3ccc(-c4c5nc(c(-c6c(F)c(F)c(F)c(F)c6F)c6ccc([nH]6)c(-c6c(F)c(F)c(F)c(F)c6F)c6nc(c(-c7c(F)c(F)c(F)c(F)c7F)c7ccc4[nH]7)C=C6)C=C5)cc3)cc(C)c2C)ccc1N1CCCC1=O
REMARK SMILES IDX 17 1 16 2 15 3 13 4 14 5 12 7 10 8 11 9 91 10 89 11 92 12
REMARK SMILES IDX 88 13 90 14 7 15 8 16 9 17 6 18 5 20 3 21 4 22 95 23 94 24
REMARK SMILES IDX 93 25 2 26 1 27 96 28 97 29 100 30 98 31 99 32 101 33 18 34
REMARK SMILES IDX 19 35 20 36 21 37 22 38 23 39 24 41 25 42 26 43 87 44 27 45
REMARK SMILES IDX 86 46 28 47 29 48 30 49 80 50 31 51 85 52 79 53 81 54 32 55
REMARK SMILES IDX 84 56 78 57 77 58 33 60 65 61 45 62 64 63 46 64 49 65 63 66
REMARK SMILES IDX 82 67 47 68 48 69 62 71 83 72 50 73 34 74 35 75 43 76 36 77
REMARK SMILES IDX 37 78 41 79 44 80 38 81 39 82 42 83 40 84 66 85 67 86 75 87
REMARK SMILES IDX 68 88 69 89 73 90 76 91 70 92 71 93 74 94 72 95 51 96 52 97
REMARK SMILES IDX 60 98 53 99 54 100 58 101 61 102 55 103 56 104 59 105 57 106
REMARK H PARENT 15 6 6 19 22 40 81 59 49 70
REMARK Flexibility Score: inf
ROOT
ATOM      1  C   UNL     1      -1.654   2.382   0.759  1.00  0.00     0.021 C 
ENDROOT
BRANCH   1   2
ATOM      2  C   UNL     1      -2.474   1.113   0.980  1.00  0.00     0.116 C 
BRANCH   2   3
ATOM      3  N   UNL     1      -3.588   0.948   0.065  1.00  0.00    -0.352 N 
ATOM      4  C   UNL     1      -4.115  -0.183  -0.522  1.00  0.00     0.251 C 
ATOM      5  O   UNL     1      -5.078  -0.059  -1.275  1.00  0.00    -0.269 OA
ATOM      6  H   UNL     1      -4.045   1.786  -0.178  1.00  0.00     0.163 HD
BRANCH   4   7
ATOM      7  C   UNL     1      -3.503  -1.531  -0.344  1.00  0.00     0.041 A 
ATOM      8  C   UNL     1      -2.660  -3.555  -1.430  1.00  0.00     0.091 A 
ATOM      9  C   UNL     1      -3.434  -2.371  -1.459  1.00  0.00     0.036 A 
ATOM     10  C   UNL     1      -2.001  -3.955  -0.240  1.00  0.00    -0.028 A 
ATOM     11  C   UNL     1      -2.135  -3.120   0.903  1.00  0.00    -0.046 A 
ATOM     12  C   UNL     1      -1.062  -5.132  -0.145  1.00  0.00     0.046 C 
ATOM     13  C   UNL     1      -2.924  -1.954   0.847  1.00  0.00     0.017 A 
ATOM     14  C   UNL     1      -1.337  -3.312   2.173  1.00  0.00     0.044 C 
BRANCH   8  15
ATOM     15  S   UNL     1      -2.462  -4.364  -3.016  1.00  0.00     0.262 S 
ATOM     16  O   UNL     1      -3.553  -3.939  -3.870  1.00  0.00    -0.201 OA
ATOM     17  O   UNL     1      -2.259  -5.784  -2.818  1.00  0.00    -0.201 OA
BRANCH  15  18
ATOM     18  N   UNL     1      -1.042  -3.775  -3.770  1.00  0.00    -0.279 N 
ATOM     19  H   UNL     1      -1.001  -3.785  -4.753  1.00  0.00     0.180 HD
BRANCH  18  20
ATOM     20  C   UNL     1       0.094  -3.266  -3.048  1.00  0.00     0.053 A 
ATOM     21  C   UNL     1       1.099  -1.801  -1.389  1.00  0.00     0.144 A 
ATOM     22  C   UNL     1      -0.015  -2.274  -2.081  1.00  0.00     0.075 A 
ATOM     23  C   UNL     1       2.381  -2.162  -1.804  1.00  0.00     0.086 A 
ATOM     24  C   UNL     1       2.515  -3.022  -2.898  1.00  0.00     0.032 A 
ATOM     25  C   UNL     1       1.378  -3.596  -3.493  1.00  0.00     0.029 A 
BRANCH  21  26
ATOM     26  O   UNL     1       0.840  -1.058  -0.269  1.00  0.00    -0.494 OA
ATOM     27  C   UNL     1       1.011   0.335  -0.471  1.00  0.00     0.278 C 
ENDBRANCH  21  26
BRANCH  23  28
ATOM     28  N   UNL     1       3.534  -1.626  -1.201  1.00  0.00    -0.309 N 
ATOM     29  C   UNL     1       4.314  -0.631  -1.894  1.00  0.00     0.126 C 
ATOM     30  C   UNL     1       3.754  -1.613   0.176  1.00  0.00     0.227 C 
ATOM     31  C   UNL     1       5.398  -0.258  -0.903  1.00  0.00     0.032 C 
ATOM     32  C   UNL     1       4.787  -0.551   0.460  1.00  0.00     0.102 C 
ATOM     33  O   UNL     1       3.209  -2.286   1.036  1.00  0.00    -0.275 OA
ENDBRANCH  23  28
ENDBRANCH  18  20
ENDBRANCH  15  18
ENDBRANCH   8  15
ENDBRANCH   4   7
ENDBRANCH   2   3
ENDBRANCH   1   2
BRANCH   1  34
ATOM     34  C   UNL     1      -2.356   3.724   0.958  1.00  0.00     0.002 C 
BRANCH  34  35
ATOM     35  C   UNL     1      -3.071   3.935   2.292  1.00  0.00     0.002 C 
BRANCH  35  36
ATOM     36  C   UNL     1      -2.264   3.660   3.563  1.00  0.00     0.021 C 
BRANCH  36  37
ATOM     37  C   UNL     1      -0.922   4.377   3.692  1.00  0.00     0.116 C 
BRANCH  37  38
ATOM     38  N   UNL     1      -1.036   5.823   3.668  1.00  0.00    -0.352 N 
ATOM     39  C   UNL     1      -0.544   6.769   4.533  1.00  0.00     0.251 C 
ATOM     40  H   UNL     1      -1.550   6.184   2.909  1.00  0.00     0.163 HD
ATOM     41  O   UNL     1      -0.854   7.948   4.379  1.00  0.00    -0.269 OA
BRANCH  39  42
ATOM     42  C   UNL     1       0.332   6.394   5.668  1.00  0.00     0.039 A 
ATOM     43  C   UNL     1       0.121   7.018   6.903  1.00  0.00     0.014 A 
ATOM     44  C   UNL     1       1.380   5.479   5.528  1.00  0.00     0.014 A 
ATOM     45  C   UNL     1       0.916   6.685   8.003  1.00  0.00     0.010 A 
ATOM     46  C   UNL     1       2.132   5.099   6.642  1.00  0.00     0.010 A 
ATOM     47  C   UNL     1       1.909   5.699   7.891  1.00  0.00    -0.014 A 
BRANCH  47  48
ATOM     48  C   UNL     1       2.712   5.289   9.073  1.00  0.00     0.031 A 
ATOM     49  C   UNL     1       4.192   5.554   9.125  1.00  0.00     0.074 A 
ATOM     50  C   UNL     1       2.114   4.632  10.087  1.00  0.00     0.049 A 
ATOM     51  N   UNL     1       5.058   5.240  10.056  1.00  0.00    -0.248 NA
ATOM     52  C   UNL     1       4.781   6.243   7.968  1.00  0.00     0.031 C 
ATOM     53  C   UNL     1       0.698   4.268  10.138  1.00  0.00     0.029 A 
ATOM     54  N   UNL     1       2.624   4.146  11.266  1.00  0.00    -0.354 N 
ATOM     55  C   UNL     1       6.291   5.679   9.593  1.00  0.00     0.074 A 
ATOM     56  C   UNL     1       6.070   6.241   8.277  1.00  0.00     0.031 C 
ATOM     57  C   UNL     1       0.447   3.635  11.295  1.00  0.00     0.029 A 
ATOM     58  C   UNL     1       1.688   3.521  12.055  1.00  0.00     0.049 A 
ATOM     59  H   UNL     1       3.570   4.238  11.523  1.00  0.00     0.167 HD
ATOM     60  C   UNL     1       7.494   5.637  10.216  1.00  0.00     0.037 A 
ATOM     61  C   UNL     1       1.817   2.921  13.253  1.00  0.00     0.037 A 
ATOM     62  C   UNL     1       7.709   5.106  11.537  1.00  0.00     0.049 A 
ATOM     63  C   UNL     1       3.161   2.901  13.929  1.00  0.00     0.074 A 
ATOM     64  C   UNL     1       8.878   5.082  12.278  1.00  0.00     0.029 A 
ATOM     65  N   UNL     1       6.731   4.503  12.314  1.00  0.00    -0.354 N 
ATOM     66  N   UNL     1       4.304   3.387  13.511  1.00  0.00    -0.248 NA
ATOM     67  C   UNL     1       3.230   2.259  15.249  1.00  0.00     0.031 C 
ATOM     68  C   UNL     1       8.618   4.426  13.486  1.00  0.00     0.029 A 
ATOM     69  C   UNL     1       7.276   4.085  13.519  1.00  0.00     0.049 A 
ATOM     70  H   UNL     1       5.790   4.389  12.050  1.00  0.00     0.167 HD
ATOM     71  C   UNL     1       5.220   3.134  14.523  1.00  0.00     0.074 A 
ATOM     72  C   UNL     1       4.495   2.466  15.584  1.00  0.00     0.031 C 
ATOM     73  C   UNL     1       6.542   3.426  14.569  1.00  0.00     0.037 A 
BRANCH  60  74
ATOM     74  C   UNL     1       8.680   6.188   9.477  1.00  0.00     0.064 A 
ATOM     75  C   UNL     1       8.836   7.566   9.260  1.00  0.00     0.173 A 
ATOM     76  C   UNL     1       9.696   5.334   9.024  1.00  0.00     0.173 A 
ATOM     77  F   UNL     1       7.887   8.424   9.664  1.00  0.00    -0.203 F 
ATOM     78  C   UNL     1       9.952   8.065   8.594  1.00  0.00     0.198 A 
ATOM     79  C   UNL     1      10.825   5.839   8.384  1.00  0.00     0.198 A 
ATOM     80  F   UNL     1       9.600   4.009   9.211  1.00  0.00    -0.203 F 
ATOM     81  F   UNL     1      10.058   9.380   8.359  1.00  0.00    -0.200 F 
ATOM     82  C   UNL     1      10.949   7.202   8.164  1.00  0.00     0.200 A 
ATOM     83  F   UNL     1      11.794   5.005   7.979  1.00  0.00    -0.200 F 
ATOM     84  F   UNL     1      12.027   7.685   7.530  1.00  0.00    -0.200 F 
ENDBRANCH  60  74
BRANCH  61  85
ATOM     85  C   UNL     1       0.631   2.309  13.907  1.00  0.00     0.064 A 
ATOM     86  C   UNL     1       0.067   2.880  15.056  1.00  0.00     0.173 A 
ATOM     87  C   UNL     1       0.042   1.140  13.403  1.00  0.00     0.173 A 
ATOM     88  F   UNL     1       0.609   3.986  15.588  1.00  0.00    -0.203 F 
ATOM     89  C   UNL     1      -1.026   2.294  15.690  1.00  0.00     0.198 A 
ATOM     90  C   UNL     1      -1.069   0.570  14.021  1.00  0.00     0.198 A 
ATOM     91  F   UNL     1       0.541   0.558  12.303  1.00  0.00    -0.203 F 
ATOM     92  F   UNL     1      -1.515   2.834  16.814  1.00  0.00    -0.200 F 
ATOM     93  C   UNL     1      -1.597   1.142  15.168  1.00  0.00     0.200 A 
ATOM     94  F   UNL     1      -1.626  -0.535  13.506  1.00  0.00    -0.200 F 
ATOM     95  F   UNL     1      -2.650   0.580  15.776  1.00  0.00    -0.200 F 
ENDBRANCH  61  85
BRANCH  73  96
ATOM     96  C   UNL     1       7.285   3.054  15.819  1.00  0.00     0.064 A 
ATOM     97  C   UNL     1       7.580   1.718  16.130  1.00  0.00     0.173 A 
ATOM     98  C   UNL     1       7.733   4.049  16.702  1.00  0.00     0.173 A 
ATOM     99  F   UNL     1       7.161   0.730  15.325  1.00  0.00    -0.203 F 
ATOM    100  C   UNL     1       8.271   1.390  17.293  1.00  0.00     0.198 A 
ATOM    101  C   UNL     1       8.448   3.719  17.849  1.00  0.00     0.198 A 
ATOM    102  F   UNL     1       7.483   5.342  16.447  1.00  0.00    -0.203 F 
ATOM    103  F   UNL     1       8.498   0.104  17.595  1.00  0.00    -0.200 F 
ATOM    104  C   UNL     1       8.710   2.390  18.148  1.00  0.00     0.200 A 
ATOM    105  F   UNL     1       8.883   4.687  18.668  1.00  0.00    -0.200 F 
ATOM    106  F   UNL     1       9.378   2.073  19.265  1.00  0.00    -0.200 F 
ENDBRANCH  73  96
ENDBRANCH  47  48
ENDBRANCH  39  42
ENDBRANCH  37  38
ENDBRANCH  36  37
ENDBRANCH  35  36
ENDBRANCH  34  35
ENDBRANCH   1  34
TORSDOF 18
