REMARK SMILES CC[C@@H](Nc1ccc([N+](=O)[O-])c(N)n1)C(=O)NCCCCCCNC(=O)c1ccc(-c2c3nc(c(-c4c(F)c(F)c(F)c(F)c4F)c4ccc([nH]4)c(-c4c(F)c(F)c(F)c(F)c4F)c4nc(c(-c5c(F)c(F)c(F)c(F)c5F)c5ccc2[nH]5)C=C4)C=C3)cc1
REMARK SMILES IDX 20 1 19 2 18 3 17 4 15 5 16 6 3 8 2 9 1 10 4 11 5 13 6 14
REMARK SMILES IDX 14 15 7 16 12 17 8 18 13 19 9 22 10 23 11 24 21 25 22 26
REMARK SMILES IDX 23 27 24 28 25 29 26 31 27 32 28 33 89 34 29 35 88 36 30 37
REMARK SMILES IDX 31 38 32 39 82 40 33 41 87 42 81 43 83 44 34 45 86 46 80 47
REMARK SMILES IDX 79 48 35 50 67 51 47 52 66 53 48 54 51 55 65 56 84 57 49 58
REMARK SMILES IDX 50 59 64 61 85 62 52 63 36 64 37 65 45 66 38 67 39 68 43 69
REMARK SMILES IDX 46 70 40 71 41 72 44 73 42 74 68 75 69 76 77 77 70 78 71 79
REMARK SMILES IDX 75 80 78 81 72 82 73 83 76 84 74 85 53 86 54 87 62 88 55 89
REMARK SMILES IDX 56 90 60 91 63 92 57 93 58 94 61 95 59 96
REMARK H PARENT 17 7 4 12 13 20 13 21 24 30 83 49 51 60
REMARK Flexibility Score: inf
ROOT
ATOM      1  C   UNL     1      -3.413   2.995  -3.074  1.00  0.00     0.002 C 
ENDROOT
BRANCH   1   2
ATOM      2  C   UNL     1      -2.675   2.020  -2.150  1.00  0.00     0.021 C 
BRANCH   2   3
ATOM      3  C   UNL     1      -1.829   0.974  -2.878  1.00  0.00     0.116 C 
BRANCH   3   4
ATOM      4  N   UNL     1      -0.685   1.583  -3.534  1.00  0.00    -0.354 N 
ATOM      5  C   UNL     1       0.649   1.545  -3.234  1.00  0.00     0.242 C 
ATOM      6  O   UNL     1       1.401   2.259  -3.905  1.00  0.00    -0.273 OA
ATOM      7  H   UNL     1      -0.908   2.115  -4.331  1.00  0.00     0.163 HD
BRANCH   5   8
ATOM      8  C   UNL     1       1.207   0.637  -2.108  1.00  0.00     0.169 C 
BRANCH   8   9
ATOM      9  C   UNL     1       0.717   1.124  -0.733  1.00  0.00     0.031 C 
ATOM     10  C   UNL     1       1.145   0.285   0.461  1.00  0.00     0.006 C 
ENDBRANCH   8   9
BRANCH   8  11
ATOM     11  N   UNL     1       0.866  -0.751  -2.401  1.00  0.00    -0.358 N 
ATOM     12  H   UNL     1       0.021  -0.890  -2.887  1.00  0.00     0.162 HD
BRANCH  11  13
ATOM     13  C   UNL     1       1.562  -1.880  -2.090  1.00  0.00     0.129 A 
ATOM     14  C   UNL     1       2.799  -1.891  -1.464  1.00  0.00     0.054 A 
ATOM     15  N   UNL     1       0.926  -3.029  -2.407  1.00  0.00    -0.208 NA
ATOM     16  C   UNL     1       3.373  -3.105  -1.102  1.00  0.00     0.093 A 
ATOM     17  C   UNL     1       1.479  -4.220  -2.079  1.00  0.00     0.204 A 
ATOM     18  C   UNL     1       2.691  -4.284  -1.403  1.00  0.00     0.311 A 
BRANCH  17  19
ATOM     19  N   UNL     1       0.690  -5.310  -2.385  1.00  0.00    -0.378 N 
ATOM     20  H   UNL     1       1.008  -6.220  -2.184  1.00  0.00     0.158 HD
ATOM     21  H   UNL     1      -0.191  -5.178  -2.804  1.00  0.00     0.158 HD
ENDBRANCH  17  19
BRANCH  18  22
ATOM     22  N   UNL     1       3.269  -5.554  -1.000  1.00  0.00     0.066 N 
ATOM     23  O   UNL     1       3.026  -6.556  -1.690  1.00  0.00    -0.258 OA
ATOM     24  O   UNL     1       4.005  -5.552  -0.001  1.00  0.00    -0.258 OA
ENDBRANCH  18  22
ENDBRANCH  11  13
ENDBRANCH   8  11
ENDBRANCH   5   8
ENDBRANCH   3   4
ENDBRANCH   2   3
ENDBRANCH   1   2
BRANCH   1  25
ATOM     25  C   UNL     1      -4.352   2.347  -4.096  1.00  0.00     0.002 C 
BRANCH  25  26
ATOM     26  C   UNL     1      -5.385   1.378  -3.514  1.00  0.00     0.021 C 
BRANCH  26  27
ATOM     27  C   UNL     1      -6.312   1.982  -2.464  1.00  0.00     0.116 C 
BRANCH  27  28
ATOM     28  N   UNL     1      -7.149   3.036  -3.009  1.00  0.00    -0.352 N 
ATOM     29  C   UNL     1      -8.499   3.231  -2.879  1.00  0.00     0.251 C 
ATOM     30  H   UNL     1      -6.678   3.709  -3.552  1.00  0.00     0.163 HD
ATOM     31  O   UNL     1      -9.063   4.088  -3.558  1.00  0.00    -0.269 OA
BRANCH  29  32
ATOM     32  C   UNL     1      -9.290   2.411  -1.935  1.00  0.00     0.039 A 
ATOM     33  C   UNL     1     -10.552   1.960  -2.334  1.00  0.00     0.014 A 
ATOM     34  C   UNL     1      -8.823   2.129  -0.648  1.00  0.00     0.014 A 
ATOM     35  C   UNL     1     -11.332   1.207  -1.454  1.00  0.00     0.010 A 
ATOM     36  C   UNL     1      -9.572   1.321   0.204  1.00  0.00     0.010 A 
ATOM     37  C   UNL     1     -10.844   0.872  -0.182  1.00  0.00    -0.014 A 
BRANCH  37  38
ATOM     38  C   UNL     1     -11.676   0.100   0.775  1.00  0.00     0.031 A 
ATOM     39  C   UNL     1     -12.164   0.751   2.040  1.00  0.00     0.074 A 
ATOM     40  C   UNL     1     -11.960  -1.193   0.528  1.00  0.00     0.049 A 
ATOM     41  N   UNL     1     -12.873   0.241   3.016  1.00  0.00    -0.248 NA
ATOM     42  C   UNL     1     -11.780   2.156   2.251  1.00  0.00     0.031 C 
ATOM     43  C   UNL     1     -11.508  -1.950  -0.640  1.00  0.00     0.029 A 
ATOM     44  N   UNL     1     -12.695  -2.100   1.248  1.00  0.00    -0.354 N 
ATOM     45  C   UNL     1     -12.999   1.252   3.960  1.00  0.00     0.074 A 
ATOM     46  C   UNL     1     -12.253   2.388   3.466  1.00  0.00     0.031 C 
ATOM     47  C   UNL     1     -11.998  -3.198  -0.570  1.00  0.00     0.029 A 
ATOM     48  C   UNL     1     -12.775  -3.337   0.658  1.00  0.00     0.049 A 
ATOM     49  H   UNL     1     -13.125  -1.884   2.108  1.00  0.00     0.167 HD
ATOM     50  C   UNL     1     -13.693   1.242   5.124  1.00  0.00     0.037 A 
ATOM     51  C   UNL     1     -13.411  -4.453   1.061  1.00  0.00     0.037 A 
ATOM     52  C   UNL     1     -14.470   0.126   5.592  1.00  0.00     0.049 A 
ATOM     53  C   UNL     1     -14.199  -4.429   2.343  1.00  0.00     0.074 A 
ATOM     54  C   UNL     1     -15.264   0.038   6.722  1.00  0.00     0.029 A 
ATOM     55  N   UNL     1     -14.553  -1.100   4.949  1.00  0.00    -0.354 N 
ATOM     56  N   UNL     1     -14.369  -3.445   3.192  1.00  0.00    -0.248 NA
ATOM     57  C   UNL     1     -14.895  -5.668   2.715  1.00  0.00     0.031 C 
ATOM     58  C   UNL     1     -15.798  -1.253   6.783  1.00  0.00     0.029 A 
ATOM     59  C   UNL     1     -15.374  -1.955   5.666  1.00  0.00     0.049 A 
ATOM     60  H   UNL     1     -14.096  -1.329   4.107  1.00  0.00     0.167 HD
ATOM     61  C   UNL     1     -15.219  -3.933   4.176  1.00  0.00     0.074 A 
ATOM     62  C   UNL     1     -15.536  -5.298   3.814  1.00  0.00     0.031 C 
ATOM     63  C   UNL     1     -15.695  -3.305   5.279  1.00  0.00     0.037 A 
BRANCH  50  64
ATOM     64  C   UNL     1     -13.645   2.482   5.970  1.00  0.00     0.064 A 
ATOM     65  C   UNL     1     -14.284   3.668   5.578  1.00  0.00     0.173 A 
ATOM     66  C   UNL     1     -12.972   2.476   7.201  1.00  0.00     0.173 A 
ATOM     67  F   UNL     1     -14.929   3.730   4.403  1.00  0.00    -0.203 F 
ATOM     68  C   UNL     1     -14.224   4.811   6.371  1.00  0.00     0.198 A 
ATOM     69  C   UNL     1     -12.940   3.612   8.006  1.00  0.00     0.198 A 
ATOM     70  F   UNL     1     -12.349   1.367   7.627  1.00  0.00    -0.203 F 
ATOM     71  F   UNL     1     -14.796   5.947   5.950  1.00  0.00    -0.200 F 
ATOM     72  C   UNL     1     -13.558   4.780   7.587  1.00  0.00     0.200 A 
ATOM     73  F   UNL     1     -12.306   3.577   9.187  1.00  0.00    -0.200 F 
ATOM     74  F   UNL     1     -13.504   5.880   8.351  1.00  0.00    -0.200 F 
ENDBRANCH  50  64
BRANCH  51  75
ATOM     75  C   UNL     1     -13.372  -5.675   0.218  1.00  0.00     0.064 A 
ATOM     76  C   UNL     1     -14.517  -6.110  -0.466  1.00  0.00     0.173 A 
ATOM     77  C   UNL     1     -12.202  -6.434   0.081  1.00  0.00     0.173 A 
ATOM     78  F   UNL     1     -15.665  -5.427  -0.349  1.00  0.00    -0.203 F 
ATOM     79  C   UNL     1     -14.498  -7.270  -1.236  1.00  0.00     0.198 A 
ATOM     80  C   UNL     1     -12.178  -7.581  -0.711  1.00  0.00     0.198 A 
ATOM     81  F   UNL     1     -11.079  -6.058   0.710  1.00  0.00    -0.203 F 
ATOM     82  F   UNL     1     -15.618  -7.687  -1.842  1.00  0.00    -0.200 F 
ATOM     83  C   UNL     1     -13.328  -8.002  -1.362  1.00  0.00     0.200 A 
ATOM     84  F   UNL     1     -11.041  -8.279  -0.841  1.00  0.00    -0.200 F 
ATOM     85  F   UNL     1     -13.309  -9.117  -2.105  1.00  0.00    -0.200 F 
ENDBRANCH  51  75
BRANCH  63  86
ATOM     86  C   UNL     1     -16.651  -4.071   6.146  1.00  0.00     0.064 A 
ATOM     87  C   UNL     1     -16.225  -5.131   6.959  1.00  0.00     0.173 A 
ATOM     88  C   UNL     1     -18.008  -3.715   6.186  1.00  0.00     0.173 A 
ATOM     89  F   UNL     1     -14.941  -5.518   6.944  1.00  0.00    -0.203 F 
ATOM     90  C   UNL     1     -17.128  -5.826   7.759  1.00  0.00     0.198 A 
ATOM     91  C   UNL     1     -18.903  -4.393   7.009  1.00  0.00     0.198 A 
ATOM     92  F   UNL     1     -18.465  -2.703   5.433  1.00  0.00    -0.203 F 
ATOM     93  F   UNL     1     -16.708  -6.867   8.490  1.00  0.00    -0.200 F 
ATOM     94  C   UNL     1     -18.464  -5.452   7.788  1.00  0.00     0.200 A 
ATOM     95  F   UNL     1     -20.190  -4.023   7.045  1.00  0.00    -0.200 F 
ATOM     96  F   UNL     1     -19.330  -6.120   8.562  1.00  0.00    -0.200 F 
ENDBRANCH  63  86
ENDBRANCH  37  38
ENDBRANCH  29  32
ENDBRANCH  27  28
ENDBRANCH  26  27
ENDBRANCH  25  26
ENDBRANCH   1  25
TORSDOF 18
