REMARK SMILES COC(=O)[C@@H](CC(=O)NCCCCCCNC(=O)c1ccc(-c2c3nc(c(-c4c(F)c(F)c(F)c(F)c4F)c4ccc([nH]4)c(-c4c(F)c(F)c(F)c(F)c4F)c4nc(c(-c5c(F)c(F)c(F)c(F)c5F)c5ccc2[nH]5)C=C4)C=C3)cc1)C1CCCCC1
REMARK SMILES IDX 12 1 11 2 10 3 9 4 7 5 8 6 6 8 5 9 3 10 4 11 2 12 1 13 82 14
REMARK SMILES IDX 83 15 87 16 84 17 86 18 85 19 13 20 14 21 15 22 16 23 17 24
REMARK SMILES IDX 18 26 19 27 20 28 81 29 21 30 80 31 22 32 23 33 24 34 74 35
REMARK SMILES IDX 25 36 79 37 73 38 75 39 26 40 78 41 72 42 71 43 27 45 59 46
REMARK SMILES IDX 39 47 58 48 40 49 43 50 57 51 76 52 41 53 42 54 56 56 77 57
REMARK SMILES IDX 44 58 28 59 29 60 37 61 30 62 31 63 35 64 38 65 32 66 33 67
REMARK SMILES IDX 36 68 34 69 60 70 61 71 69 72 62 73 63 74 67 75 70 76 64 77
REMARK SMILES IDX 65 78 68 79 66 80 45 81 46 82 54 83 47 84 48 85 52 86 55 87
REMARK SMILES IDX 49 88 50 89 53 90 51 91
REMARK H PARENT 9 7 16 25 75 44 43 55
REMARK Flexibility Score: inf
ROOT
ATOM      1  C   UNL     1       0.744  -0.316  -2.315  1.00  0.00     0.002 C 
ENDROOT
BRANCH   1   2
ATOM      2  C   UNL     1       1.025   0.681  -1.191  1.00  0.00     0.021 C 
BRANCH   2   3
ATOM      3  C   UNL     1       1.766   1.946  -1.625  1.00  0.00     0.116 C 
BRANCH   3   4
ATOM      4  N   UNL     1       0.832   3.029  -1.859  1.00  0.00    -0.356 N 
ATOM      5  C   UNL     1       0.430   4.030  -1.030  1.00  0.00     0.220 C 
ATOM      6  O   UNL     1      -0.428   4.814  -1.441  1.00  0.00    -0.275 OA
ATOM      7  H   UNL     1       0.426   3.042  -2.756  1.00  0.00     0.163 HD
BRANCH   5   8
ATOM      8  C   UNL     1       1.028   4.191   0.357  1.00  0.00     0.115 C 
BRANCH   8   9
ATOM      9  C   UNL     1       0.379   3.358   1.495  1.00  0.00     0.111 C 
BRANCH   9  10
ATOM     10  C   UNL     1       1.198   2.083   1.714  1.00  0.00     0.309 C 
ATOM     11  O   UNL     1       2.423   2.082   1.722  1.00  0.00    -0.252 OA
BRANCH  10  12
ATOM     12  O   UNL     1       0.453   0.981   1.942  1.00  0.00    -0.469 OA
ATOM     13  C   UNL     1       1.129  -0.246   2.236  1.00  0.00     0.282 C 
ENDBRANCH  10  12
ENDBRANCH   9  10
BRANCH   9  14
ATOM     14  C   UNL     1      -1.193   3.373   1.452  1.00  0.00     0.004 C 
ATOM     15  C   UNL     1      -1.916   2.201   2.143  1.00  0.00     0.004 C 
ATOM     16  C   UNL     1      -1.680   4.718   2.057  1.00  0.00     0.004 C 
ATOM     17  C   UNL     1      -3.433   2.369   2.205  1.00  0.00     0.000 C 
ATOM     18  C   UNL     1      -3.198   4.850   2.136  1.00  0.00     0.000 C 
ATOM     19  C   UNL     1      -3.823   3.675   2.873  1.00  0.00     0.000 C 
ENDBRANCH   9  14
ENDBRANCH   8   9
ENDBRANCH   5   8
ENDBRANCH   3   4
ENDBRANCH   2   3
ENDBRANCH   1   2
BRANCH   1  20
ATOM     20  C   UNL     1       1.982  -1.057  -2.835  1.00  0.00     0.002 C 
BRANCH  20  21
ATOM     21  C   UNL     1       2.796  -1.825  -1.784  1.00  0.00     0.021 C 
BRANCH  21  22
ATOM     22  C   UNL     1       2.023  -2.884  -0.999  1.00  0.00     0.116 C 
BRANCH  22  23
ATOM     23  N   UNL     1       1.530  -3.949  -1.856  1.00  0.00    -0.352 N 
ATOM     24  C   UNL     1       1.864  -5.278  -1.920  1.00  0.00     0.251 C 
ATOM     25  H   UNL     1       0.838  -3.670  -2.499  1.00  0.00     0.163 HD
ATOM     26  O   UNL     1       1.482  -5.947  -2.878  1.00  0.00    -0.269 OA
BRANCH  24  27
ATOM     27  C   UNL     1       2.683  -5.925  -0.868  1.00  0.00     0.039 A 
ATOM     28  C   UNL     1       3.629  -6.878  -1.259  1.00  0.00     0.014 A 
ATOM     29  C   UNL     1       2.483  -5.670   0.492  1.00  0.00     0.014 A 
ATOM     30  C   UNL     1       4.402  -7.535  -0.298  1.00  0.00     0.010 A 
ATOM     31  C   UNL     1       3.304  -6.276   1.448  1.00  0.00     0.010 A 
ATOM     32  C   UNL     1       4.268  -7.220   1.064  1.00  0.00    -0.014 A 
BRANCH  32  33
ATOM     33  C   UNL     1       5.152  -7.862   2.075  1.00  0.00     0.031 A 
ATOM     34  C   UNL     1       4.592  -8.779   3.128  1.00  0.00     0.074 A 
ATOM     35  C   UNL     1       6.473  -7.597   2.057  1.00  0.00     0.049 A 
ATOM     36  N   UNL     1       5.221  -9.442   4.068  1.00  0.00    -0.248 NA
ATOM     37  C   UNL     1       3.133  -8.960   3.143  1.00  0.00     0.031 C 
ATOM     38  C   UNL     1       7.135  -6.681   1.127  1.00  0.00     0.029 A 
ATOM     39  N   UNL     1       7.495  -8.070   2.842  1.00  0.00    -0.354 N 
ATOM     40  C   UNL     1       4.237 -10.110   4.787  1.00  0.00     0.074 A 
ATOM     41  C   UNL     1       2.966  -9.730   4.209  1.00  0.00     0.031 C 
ATOM     42  C   UNL     1       8.454  -6.683   1.373  1.00  0.00     0.029 A 
ATOM     43  C   UNL     1       8.728  -7.572   2.498  1.00  0.00     0.049 A 
ATOM     44  H   UNL     1       7.358  -8.706   3.581  1.00  0.00     0.167 HD
ATOM     45  C   UNL     1       4.383 -10.976   5.819  1.00  0.00     0.037 A 
ATOM     46  C   UNL     1       9.945  -7.804   3.027  1.00  0.00     0.037 A 
ATOM     47  C   UNL     1       5.651 -11.365   6.385  1.00  0.00     0.049 A 
ATOM     48  C   UNL     1      10.079  -8.775   4.167  1.00  0.00     0.074 A 
ATOM     49  C   UNL     1       5.904 -12.288   7.385  1.00  0.00     0.029 A 
ATOM     50  N   UNL     1       6.880 -10.844   6.006  1.00  0.00    -0.354 N 
ATOM     51  N   UNL     1       9.150  -9.467   4.780  1.00  0.00    -0.248 NA
ATOM     52  C   UNL     1      11.437  -9.007   4.679  1.00  0.00     0.031 C 
ATOM     53  C   UNL     1       7.278 -12.283   7.651  1.00  0.00     0.029 A 
ATOM     54  C   UNL     1       7.890 -11.403   6.774  1.00  0.00     0.049 A 
ATOM     55  H   UNL     1       7.014 -10.175   5.296  1.00  0.00     0.167 HD
ATOM     56  C   UNL     1       9.810 -10.230   5.734  1.00  0.00     0.074 A 
ATOM     57  C   UNL     1      11.221  -9.936   5.600  1.00  0.00     0.031 C 
ATOM     58  C   UNL     1       9.292 -11.095   6.642  1.00  0.00     0.037 A 
BRANCH  45  59
ATOM     59  C   UNL     1       3.134 -11.567   6.413  1.00  0.00     0.064 A 
ATOM     60  C   UNL     1       2.343 -12.486   5.707  1.00  0.00     0.173 A 
ATOM     61  C   UNL     1       2.744 -11.241   7.722  1.00  0.00     0.173 A 
ATOM     62  F   UNL     1       2.664 -12.828   4.450  1.00  0.00    -0.203 F 
ATOM     63  C   UNL     1       1.193 -13.030   6.274  1.00  0.00     0.198 A 
ATOM     64  C   UNL     1       1.612 -11.812   8.298  1.00  0.00     0.198 A 
ATOM     65  F   UNL     1       3.468 -10.375   8.447  1.00  0.00    -0.203 F 
ATOM     66  F   UNL     1       0.425 -13.865   5.560  1.00  0.00    -0.200 F 
ATOM     67  C   UNL     1       0.833 -12.698   7.572  1.00  0.00     0.200 A 
ATOM     68  F   UNL     1       1.275 -11.502   9.558  1.00  0.00    -0.200 F 
ATOM     69  F   UNL     1      -0.270 -13.228   8.119  1.00  0.00    -0.200 F 
ENDBRANCH  45  59
BRANCH  46  70
ATOM     70  C   UNL     1      11.138  -7.120   2.462  1.00  0.00     0.064 A 
ATOM     71  C   UNL     1      12.114  -7.837   1.755  1.00  0.00     0.173 A 
ATOM     72  C   UNL     1      11.325  -5.739   2.614  1.00  0.00     0.173 A 
ATOM     73  F   UNL     1      11.991  -9.163   1.601  1.00  0.00    -0.203 F 
ATOM     74  C   UNL     1      13.242  -7.201   1.240  1.00  0.00     0.198 A 
ATOM     75  C   UNL     1      12.437  -5.099   2.072  1.00  0.00     0.198 A 
ATOM     76  F   UNL     1      10.417  -5.007   3.276  1.00  0.00    -0.203 F 
ATOM     77  F   UNL     1      14.183  -7.917   0.610  1.00  0.00    -0.200 F 
ATOM     78  C   UNL     1      13.399  -5.832   1.393  1.00  0.00     0.200 A 
ATOM     79  F   UNL     1      12.577  -3.773   2.207  1.00  0.00    -0.200 F 
ATOM     80  F   UNL     1      14.480  -5.219   0.891  1.00  0.00    -0.200 F 
ENDBRANCH  46  70
BRANCH  58  81
ATOM     81  C   UNL     1      10.264 -11.797   7.548  1.00  0.00     0.064 A 
ATOM     82  C   UNL     1      10.969 -11.110   8.548  1.00  0.00     0.173 A 
ATOM     83  C   UNL     1      10.487 -13.177   7.421  1.00  0.00     0.173 A 
ATOM     84  F   UNL     1      10.804  -9.787   8.703  1.00  0.00    -0.203 F 
ATOM     85  C   UNL     1      11.891 -11.769   9.358  1.00  0.00     0.198 A 
ATOM     86  C   UNL     1      11.383 -13.840   8.257  1.00  0.00     0.198 A 
ATOM     87  F   UNL     1       9.834 -13.886   6.488  1.00  0.00    -0.203 F 
ATOM     88  F   UNL     1      12.600 -11.079  10.261  1.00  0.00    -0.200 F 
ATOM     89  C   UNL     1      12.093 -13.134   9.216  1.00  0.00     0.200 A 
ATOM     90  F   UNL     1      11.565 -15.161   8.127  1.00  0.00    -0.200 F 
ATOM     91  F   UNL     1      12.980 -13.766   9.995  1.00  0.00    -0.200 F 
ENDBRANCH  58  81
ENDBRANCH  32  33
ENDBRANCH  24  27
ENDBRANCH  22  23
ENDBRANCH  21  22
ENDBRANCH  20  21
ENDBRANCH   1  20
TORSDOF 17
