REMARK SMILES NC(=O)[C@@H]1CCCCN1C(=O)N[C@H]1C=C[C@@H](C(=O)NCCCCCCNC(=O)c2ccc(-c3c4nc(c(-c5c(F)c(F)c(F)c(F)c5F)c5ccc([nH]5)c(-c5c(F)c(F)c(F)c(F)c5F)c5nc(c(-c6c(F)c(F)c(F)c(F)c6F)c6ccc3[nH]6)C=C5)C=C4)cc2)C1
REMARK SMILES IDX 22 1 21 2 20 3 19 4 17 5 18 6 16 8 13 9 14 10 92 11 15 12
REMARK SMILES IDX 12 13 10 14 11 15 9 17 4 18 5 19 6 20 8 21 7 22 2 23 1 24
REMARK SMILES IDX 3 27 23 28 24 29 25 30 26 31 27 32 28 34 29 35 30 36 91 37
REMARK SMILES IDX 31 38 90 39 32 40 33 41 34 42 84 43 35 44 89 45 83 46 85 47
REMARK SMILES IDX 36 48 88 49 82 50 81 51 37 53 69 54 49 55 68 56 50 57 53 58
REMARK SMILES IDX 67 59 86 60 51 61 52 62 66 64 87 65 54 66 38 67 39 68 47 69
REMARK SMILES IDX 40 70 41 71 45 72 48 73 42 74 43 75 46 76 44 77 70 78 71 79
REMARK SMILES IDX 79 80 72 81 73 82 77 83 80 84 74 85 75 86 78 87 76 88 55 89
REMARK SMILES IDX 56 90 64 91 57 92 58 93 62 94 65 95 59 96 60 97 63 98 61 99
REMARK H PARENT 19 7 12 16 1 25 1 26 26 33 85 52 53 63
REMARK Flexibility Score: inf
ROOT
ATOM      1  C   UNL     1       6.714   4.121   1.667  1.00  0.00     0.002 C 
ENDROOT
BRANCH   1   2
ATOM      2  C   UNL     1       5.562   4.018   0.664  1.00  0.00     0.021 C 
BRANCH   2   3
ATOM      3  C   UNL     1       5.513   5.154  -0.351  1.00  0.00     0.116 C 
BRANCH   3   4
ATOM      4  N   UNL     1       6.621   5.089  -1.283  1.00  0.00    -0.356 N 
ATOM      5  C   UNL     1       6.634   5.123  -2.643  1.00  0.00     0.227 C 
ATOM      6  O   UNL     1       7.732   5.055  -3.203  1.00  0.00    -0.274 OA
ATOM      7  H   UNL     1       7.508   5.007  -0.865  1.00  0.00     0.163 HD
BRANCH   5   8
ATOM      8  C   UNL     1       5.352   5.222  -3.475  1.00  0.00     0.103 C 
ATOM      9  C   UNL     1       3.001   4.534  -3.207  1.00  0.00     0.107 C 
ATOM     10  C   UNL     1       3.200   5.996  -2.940  1.00  0.00    -0.006 C 
ATOM     11  C   UNL     1       4.437   4.001  -3.348  1.00  0.00     0.047 C 
ATOM     12  C   UNL     1       4.471   6.376  -3.111  1.00  0.00    -0.016 C 
BRANCH   9  13
ATOM     13  N   UNL     1       2.314   3.921  -2.091  1.00  0.00    -0.332 N 
ATOM     14  C   UNL     1       1.786   2.712  -1.821  1.00  0.00     0.318 C 
ATOM     15  O   UNL     1       1.492   2.559  -0.632  1.00  0.00    -0.249 OA
ATOM     16  H   UNL     1       2.205   4.546  -1.338  1.00  0.00     0.165 HD
BRANCH  14  17
ATOM     17  N   UNL     1       1.584   1.736  -2.756  1.00  0.00    -0.313 N 
ATOM     18  C   UNL     1       1.027   0.416  -2.352  1.00  0.00     0.176 C 
ATOM     19  C   UNL     1       2.114  -0.673  -2.434  1.00  0.00     0.035 C 
ATOM     20  C   UNL     1       2.776  -0.696  -3.816  1.00  0.00     0.004 C 
ATOM     21  C   UNL     1       2.077   1.689  -4.130  1.00  0.00     0.122 C 
ATOM     22  C   UNL     1       3.239   0.700  -4.224  1.00  0.00     0.022 C 
BRANCH  18  23
ATOM     23  C   UNL     1       0.139   0.243  -1.093  1.00  0.00     0.240 C 
ATOM     24  N   UNL     1       0.792   0.034   0.089  1.00  0.00    -0.368 N 
ATOM     25  H   UNL     1       0.278  -0.083   0.921  1.00  0.00     0.159 HD
ATOM     26  H   UNL     1       1.776  -0.001   0.109  1.00  0.00     0.159 HD
ATOM     27  O   UNL     1      -1.088   0.291  -1.125  1.00  0.00    -0.273 OA
ENDBRANCH  18  23
ENDBRANCH  14  17
ENDBRANCH   9  13
ENDBRANCH   5   8
ENDBRANCH   3   4
ENDBRANCH   2   3
ENDBRANCH   1   2
BRANCH   1  28
ATOM     28  C   UNL     1       6.764   5.429   2.463  1.00  0.00     0.002 C 
BRANCH  28  29
ATOM     29  C   UNL     1       5.469   5.793   3.195  1.00  0.00     0.021 C 
BRANCH  29  30
ATOM     30  C   UNL     1       4.975   4.733   4.172  1.00  0.00     0.116 C 
BRANCH  30  31
ATOM     31  N   UNL     1       5.928   4.492   5.243  1.00  0.00    -0.352 N 
ATOM     32  C   UNL     1       5.739   4.536   6.599  1.00  0.00     0.251 C 
ATOM     33  H   UNL     1       6.840   4.263   4.952  1.00  0.00     0.163 HD
ATOM     34  O   UNL     1       6.704   4.504   7.361  1.00  0.00    -0.269 OA
BRANCH  32  35
ATOM     35  C   UNL     1       4.372   4.642   7.150  1.00  0.00     0.039 A 
ATOM     36  C   UNL     1       4.132   5.537   8.195  1.00  0.00     0.014 A 
ATOM     37  C   UNL     1       3.333   3.857   6.642  1.00  0.00     0.014 A 
ATOM     38  C   UNL     1       2.837   5.684   8.693  1.00  0.00     0.010 A 
ATOM     39  C   UNL     1       2.031   4.061   7.086  1.00  0.00     0.010 A 
ATOM     40  C   UNL     1       1.770   4.973   8.120  1.00  0.00    -0.014 A 
BRANCH  40  41
ATOM     41  C   UNL     1       0.376   5.169   8.592  1.00  0.00     0.031 A 
ATOM     42  C   UNL     1      -0.375   4.032   9.226  1.00  0.00     0.074 A 
ATOM     43  C   UNL     1      -0.232   6.354   8.395  1.00  0.00     0.049 A 
ATOM     44  N   UNL     1      -1.615   3.989   9.646  1.00  0.00    -0.248 NA
ATOM     45  C   UNL     1       0.355   2.764   9.387  1.00  0.00     0.031 C 
ATOM     46  C   UNL     1       0.377   7.518   7.749  1.00  0.00     0.029 A 
ATOM     47  N   UNL     1      -1.501   6.774   8.708  1.00  0.00    -0.354 N 
ATOM     48  C   UNL     1      -1.813   2.695  10.108  1.00  0.00     0.074 A 
ATOM     49  C   UNL     1      -0.588   1.966   9.864  1.00  0.00     0.031 C 
ATOM     50  C   UNL     1      -0.510   8.526   7.733  1.00  0.00     0.029 A 
ATOM     51  C   UNL     1      -1.762   8.068   8.328  1.00  0.00     0.049 A 
ATOM     52  H   UNL     1      -2.161   6.202   9.162  1.00  0.00     0.167 HD
ATOM     53  C   UNL     1      -2.910   2.169  10.705  1.00  0.00     0.037 A 
ATOM     54  C   UNL     1      -2.888   8.798   8.437  1.00  0.00     0.037 A 
ATOM     55  C   UNL     1      -4.122   2.904  10.958  1.00  0.00     0.049 A 
ATOM     56  C   UNL     1      -4.099   8.185   9.087  1.00  0.00     0.074 A 
ATOM     57  C   UNL     1      -5.270   2.479  11.604  1.00  0.00     0.029 A 
ATOM     58  N   UNL     1      -4.346   4.217  10.569  1.00  0.00    -0.354 N 
ATOM     59  N   UNL     1      -4.251   6.982   9.587  1.00  0.00    -0.248 NA
ATOM     60  C   UNL     1      -5.293   9.034   9.195  1.00  0.00     0.031 C 
ATOM     61  C   UNL     1      -6.207   3.515  11.557  1.00  0.00     0.029 A 
ATOM     62  C   UNL     1      -5.623   4.609  10.939  1.00  0.00     0.049 A 
ATOM     63  H   UNL     1      -3.694   4.786  10.100  1.00  0.00     0.167 HD
ATOM     64  C   UNL     1      -5.543   6.940  10.095  1.00  0.00     0.074 A 
ATOM     65  C   UNL     1      -6.126   8.244   9.857  1.00  0.00     0.031 C 
ATOM     66  C   UNL     1      -6.188   5.913  10.702  1.00  0.00     0.037 A 
BRANCH  53  67
ATOM     67  C   UNL     1      -2.849   0.728  11.126  1.00  0.00     0.064 A 
ATOM     68  C   UNL     1      -2.018   0.301  12.174  1.00  0.00     0.173 A 
ATOM     69  C   UNL     1      -3.657  -0.233  10.499  1.00  0.00     0.173 A 
ATOM     70  F   UNL     1      -1.218   1.177  12.801  1.00  0.00    -0.203 F 
ATOM     71  C   UNL     1      -1.975  -1.037  12.556  1.00  0.00     0.198 A 
ATOM     72  C   UNL     1      -3.636  -1.564  10.907  1.00  0.00     0.198 A 
ATOM     73  F   UNL     1      -4.475   0.120   9.497  1.00  0.00    -0.203 F 
ATOM     74  F   UNL     1      -1.133  -1.429  13.523  1.00  0.00    -0.200 F 
ATOM     75  C   UNL     1      -2.789  -1.967  11.928  1.00  0.00     0.200 A 
ATOM     76  F   UNL     1      -4.435  -2.459  10.310  1.00  0.00    -0.200 F 
ATOM     77  F   UNL     1      -2.752  -3.253  12.303  1.00  0.00    -0.200 F 
ENDBRANCH  53  67
BRANCH  54  78
ATOM     78  C   UNL     1      -2.917  10.197   7.935  1.00  0.00     0.064 A 
ATOM     79  C   UNL     1      -3.022  11.280   8.820  1.00  0.00     0.173 A 
ATOM     80  C   UNL     1      -2.849  10.482   6.563  1.00  0.00     0.173 A 
ATOM     81  F   UNL     1      -3.110  11.058  10.140  1.00  0.00    -0.203 F 
ATOM     82  C   UNL     1      -3.081  12.591   8.352  1.00  0.00     0.198 A 
ATOM     83  C   UNL     1      -2.876  11.795   6.098  1.00  0.00     0.198 A 
ATOM     84  F   UNL     1      -2.741   9.484   5.674  1.00  0.00    -0.203 F 
ATOM     85  F   UNL     1      -3.231  13.602   9.217  1.00  0.00    -0.200 F 
ATOM     86  C   UNL     1      -3.001  12.848   6.992  1.00  0.00     0.200 A 
ATOM     87  F   UNL     1      -2.781  12.040   4.784  1.00  0.00    -0.200 F 
ATOM     88  F   UNL     1      -3.054  14.109   6.542  1.00  0.00    -0.200 F 
ENDBRANCH  54  78
BRANCH  66  89
ATOM     89  C   UNL     1      -7.585   6.169  11.190  1.00  0.00     0.064 A 
ATOM     90  C   UNL     1      -8.660   6.333  10.303  1.00  0.00     0.173 A 
ATOM     91  C   UNL     1      -7.858   6.213  12.566  1.00  0.00     0.173 A 
ATOM     92  F   UNL     1      -8.451   6.315   8.978  1.00  0.00    -0.203 F 
ATOM     93  C   UNL     1      -9.950   6.559  10.776  1.00  0.00     0.198 A 
ATOM     94  C   UNL     1      -9.154   6.404  13.035  1.00  0.00     0.198 A 
ATOM     95  F   UNL     1      -6.868   6.055  13.457  1.00  0.00    -0.203 F 
ATOM     96  F   UNL     1     -10.952   6.766   9.911  1.00  0.00    -0.200 F 
ATOM     97  C   UNL     1     -10.197   6.586  12.141  1.00  0.00     0.200 A 
ATOM     98  F   UNL     1      -9.393   6.414  14.354  1.00  0.00    -0.200 F 
ATOM     99  F   UNL     1     -11.441   6.795  12.594  1.00  0.00    -0.200 F 
ENDBRANCH  66  89
ENDBRANCH  40  41
ENDBRANCH  32  35
ENDBRANCH  30  31
ENDBRANCH  29  30
ENDBRANCH  28  29
ENDBRANCH   1  28
TORSDOF 16
