REMARK SMILES C[NH2+][C@@](C)(CC[N@@H+](C)C1CCC(C)(C)CC1)C(=O)NCCCCCCNC(=O)c1ccc(-c2c3nc(c(-c4c(F)c(F)c(F)c(F)c4F)c4ccc([nH]4)c(-c4c(F)c(F)c(F)c(F)c4F)c4nc(c(-c5c(F)c(F)c(F)c(F)c5F)c5ccc2[nH]5)C=C4)C=C3)cc1
REMARK SMILES IDX 21 1 20 2 19 3 17 4 18 5 3 7 4 8 2 9 1 10 5 13 6 14 7 15
REMARK SMILES IDX 8 16 9 18 10 19 16 20 11 21 15 22 12 23 13 24 14 25 22 26
REMARK SMILES IDX 23 27 24 28 25 29 26 30 27 31 28 33 29 34 30 35 91 36 31 37
REMARK SMILES IDX 90 38 32 39 33 40 34 41 84 42 35 43 89 44 83 45 85 46 36 47
REMARK SMILES IDX 88 48 82 49 81 50 37 52 69 53 49 54 68 55 50 56 53 57 67 58
REMARK SMILES IDX 86 59 51 60 52 61 66 63 87 64 54 65 38 66 39 67 47 68 40 69
REMARK SMILES IDX 41 70 45 71 48 72 42 73 43 74 46 75 44 76 70 77 71 78 79 79
REMARK SMILES IDX 72 80 73 81 77 82 80 83 74 84 75 85 78 86 76 87 55 88 56 89
REMARK SMILES IDX 64 90 57 91 58 92 62 93 65 94 59 95 60 96 63 97 61 98
REMARK H PARENT 19 6 2 11 2 12 7 17 26 32 85 51 53 62
REMARK Flexibility Score: inf
ROOT
ATOM      1  C   UNL     1      -4.867  -0.876   2.181  1.00  0.00     0.021 C 
ENDROOT
BRANCH   1   2
ATOM      2  C   UNL     1      -4.307  -1.180   0.786  1.00  0.00     0.116 C 
BRANCH   2   3
ATOM      3  N   UNL     1      -3.332  -0.233   0.285  1.00  0.00    -0.351 N 
ATOM      4  C   UNL     1      -1.980  -0.271   0.075  1.00  0.00     0.281 C 
ATOM      5  O   UNL     1      -1.568   0.647  -0.647  1.00  0.00    -0.268 OA
ATOM      6  H   UNL     1      -3.732   0.633   0.041  1.00  0.00     0.163 HD
BRANCH   4   7
ATOM      7  C   UNL     1      -1.055  -1.419   0.594  1.00  0.00     0.177 C 
ATOM      8  C   UNL     1      -1.269  -2.568  -0.423  1.00  0.00     0.090 C 
BRANCH   7   9
ATOM      9  N   UNL     1       0.414  -1.137   0.624  1.00  0.00    -0.336 N 
ATOM     10  C   UNL     1       0.974  -0.206  -0.333  1.00  0.00     0.331 C 
ATOM     11  H   UNL     1       0.630  -0.776   1.553  1.00  0.00     0.346 HD
ATOM     12  H   UNL     1       0.838  -2.030   0.370  1.00  0.00     0.346 HD
ENDBRANCH   7   9
BRANCH   7  13
ATOM     13  C   UNL     1      -1.348  -1.898   2.040  1.00  0.00     0.140 C 
BRANCH  13  14
ATOM     14  C   UNL     1      -0.736  -1.158   3.269  1.00  0.00     0.269 C 
BRANCH  14  15
ATOM     15  N   UNL     1      -1.330   0.106   3.808  1.00  0.00    -0.335 N 
ATOM     16  C   UNL     1      -1.254   0.035   5.273  1.00  0.00     0.332 C 
ATOM     17  H   UNL     1      -2.303   0.186   3.512  1.00  0.00     0.348 HD
BRANCH  15  18
ATOM     18  C   UNL     1      -0.667   1.337   3.255  1.00  0.00     0.183 C 
ATOM     19  C   UNL     1      -1.634   2.018   2.287  1.00  0.00     0.065 C 
ATOM     20  C   UNL     1      -0.137   2.461   4.199  1.00  0.00     0.065 C 
ATOM     21  C   UNL     1      -2.741   2.800   2.968  1.00  0.00     0.012 C 
ATOM     22  C   UNL     1      -1.179   3.433   4.798  1.00  0.00     0.012 C 
ATOM     23  C   UNL     1      -2.224   3.970   3.796  1.00  0.00    -0.035 C 
ATOM     24  C   UNL     1      -3.428   4.574   4.546  1.00  0.00     0.011 C 
ATOM     25  C   UNL     1      -1.633   5.059   2.884  1.00  0.00     0.011 C 
ENDBRANCH  15  18
ENDBRANCH  14  15
ENDBRANCH  13  14
ENDBRANCH   7  13
ENDBRANCH   4   7
ENDBRANCH   2   3
ENDBRANCH   1   2
BRANCH   1  26
ATOM     26  C   UNL     1      -5.506   0.495   2.408  1.00  0.00     0.002 C 
BRANCH  26  27
ATOM     27  C   UNL     1      -6.459   1.032   1.347  1.00  0.00     0.002 C 
BRANCH  27  28
ATOM     28  C   UNL     1      -7.622   0.118   0.992  1.00  0.00     0.021 C 
BRANCH  28  29
ATOM     29  C   UNL     1      -8.501  -0.274   2.168  1.00  0.00     0.116 C 
BRANCH  29  30
ATOM     30  N   UNL     1      -9.263   0.843   2.702  1.00  0.00    -0.352 N 
ATOM     31  C   UNL     1     -10.620   0.925   2.923  1.00  0.00     0.251 C 
ATOM     32  H   UNL     1      -8.742   1.644   2.936  1.00  0.00     0.163 HD
ATOM     33  O   UNL     1     -11.146   1.981   3.236  1.00  0.00    -0.269 OA
BRANCH  31  34
ATOM     34  C   UNL     1     -11.443  -0.291   2.741  1.00  0.00     0.039 A 
ATOM     35  C   UNL     1     -12.595  -0.220   1.955  1.00  0.00     0.014 A 
ATOM     36  C   UNL     1     -11.042  -1.506   3.303  1.00  0.00     0.014 A 
ATOM     37  C   UNL     1     -13.309  -1.387   1.677  1.00  0.00     0.010 A 
ATOM     38  C   UNL     1     -11.700  -2.677   2.950  1.00  0.00     0.010 A 
ATOM     39  C   UNL     1     -12.847  -2.630   2.142  1.00  0.00    -0.014 A 
BRANCH  39  40
ATOM     40  C   UNL     1     -13.556  -3.893   1.817  1.00  0.00     0.031 A 
ATOM     41  C   UNL     1     -14.149  -4.720   2.924  1.00  0.00     0.074 A 
ATOM     42  C   UNL     1     -13.607  -4.331   0.544  1.00  0.00     0.049 A 
ATOM     43  N   UNL     1     -14.729  -5.892   2.865  1.00  0.00    -0.248 NA
ATOM     44  C   UNL     1     -14.047  -4.170   4.285  1.00  0.00     0.031 C 
ATOM     45  C   UNL     1     -13.030  -3.643  -0.612  1.00  0.00     0.029 A 
ATOM     46  N   UNL     1     -14.159  -5.469   0.011  1.00  0.00    -0.354 N 
ATOM     47  C   UNL     1     -15.041  -6.223   4.177  1.00  0.00     0.074 A 
ATOM     48  C   UNL     1     -14.531  -5.161   5.016  1.00  0.00     0.031 C 
ATOM     49  C   UNL     1     -13.279  -4.359  -1.719  1.00  0.00     0.029 A 
ATOM     50  C   UNL     1     -13.994  -5.577  -1.349  1.00  0.00     0.049 A 
ATOM     51  H   UNL     1     -14.630  -6.143   0.551  1.00  0.00     0.167 HD
ATOM     52  C   UNL     1     -15.717  -7.302   4.639  1.00  0.00     0.037 A 
ATOM     53  C   UNL     1     -14.369  -6.553  -2.197  1.00  0.00     0.037 A 
ATOM     54  C   UNL     1     -16.244  -8.343   3.798  1.00  0.00     0.049 A 
ATOM     55  C   UNL     1     -15.109  -7.749  -1.659  1.00  0.00     0.074 A 
ATOM     56  C   UNL     1     -16.994  -9.448   4.160  1.00  0.00     0.029 A 
ATOM     57  N   UNL     1     -16.073  -8.409   2.422  1.00  0.00    -0.354 N 
ATOM     58  N   UNL     1     -15.459  -8.020  -0.424  1.00  0.00    -0.248 NA
ATOM     59  C   UNL     1     -15.511  -8.773  -2.633  1.00  0.00     0.031 C 
ATOM     60  C   UNL     1     -17.228 -10.212   3.012  1.00  0.00     0.029 A 
ATOM     61  C   UNL     1     -16.680  -9.550   1.924  1.00  0.00     0.049 A 
ATOM     62  H   UNL     1     -15.590  -7.743   1.881  1.00  0.00     0.167 HD
ATOM     63  C   UNL     1     -16.149  -9.223  -0.477  1.00  0.00     0.074 A 
ATOM     64  C   UNL     1     -16.179  -9.625  -1.868  1.00  0.00     0.031 C 
ATOM     65  C   UNL     1     -16.710  -9.931   0.535  1.00  0.00     0.037 A 
BRANCH  52  66
ATOM     66  C   UNL     1     -15.921  -7.408   6.124  1.00  0.00     0.064 A 
ATOM     67  C   UNL     1     -16.753  -6.518   6.821  1.00  0.00     0.173 A 
ATOM     68  C   UNL     1     -15.292  -8.425   6.857  1.00  0.00     0.173 A 
ATOM     69  F   UNL     1     -17.369  -5.519   6.171  1.00  0.00    -0.203 F 
ATOM     70  C   UNL     1     -16.918  -6.620   8.200  1.00  0.00     0.198 A 
ATOM     71  C   UNL     1     -15.488  -8.546   8.231  1.00  0.00     0.198 A 
ATOM     72  F   UNL     1     -14.490  -9.307   6.242  1.00  0.00    -0.203 F 
ATOM     73  F   UNL     1     -17.669  -5.720   8.851  1.00  0.00    -0.200 F 
ATOM     74  C   UNL     1     -16.291  -7.637   8.902  1.00  0.00     0.200 A 
ATOM     75  F   UNL     1     -14.893  -9.540   8.906  1.00  0.00    -0.200 F 
ATOM     76  F   UNL     1     -16.455  -7.737  10.229  1.00  0.00    -0.200 F 
ENDBRANCH  52  66
BRANCH  53  77
ATOM     77  C   UNL     1     -14.074  -6.430  -3.650  1.00  0.00     0.064 A 
ATOM     78  C   UNL     1     -15.104  -6.237  -4.580  1.00  0.00     0.173 A 
ATOM     79  C   UNL     1     -12.761  -6.504  -4.138  1.00  0.00     0.173 A 
ATOM     80  F   UNL     1     -16.379  -6.180  -4.166  1.00  0.00    -0.203 F 
ATOM     81  C   UNL     1     -14.836  -6.145  -5.945  1.00  0.00     0.198 A 
ATOM     82  C   UNL     1     -12.491  -6.381  -5.499  1.00  0.00     0.198 A 
ATOM     83  F   UNL     1     -11.738  -6.683  -3.289  1.00  0.00    -0.203 F 
ATOM     84  F   UNL     1     -15.845  -6.009  -6.816  1.00  0.00    -0.200 F 
ATOM     85  C   UNL     1     -13.529  -6.211  -6.402  1.00  0.00     0.200 A 
ATOM     86  F   UNL     1     -11.225  -6.430  -5.936  1.00  0.00    -0.200 F 
ATOM     87  F   UNL     1     -13.270  -6.117  -7.714  1.00  0.00    -0.200 F 
ENDBRANCH  53  77
BRANCH  65  88
ATOM     88  C   UNL     1     -17.444 -11.191   0.174  1.00  0.00     0.064 A 
ATOM     89  C   UNL     1     -16.771 -12.343  -0.257  1.00  0.00     0.173 A 
ATOM     90  C   UNL     1     -18.840 -11.258   0.309  1.00  0.00     0.173 A 
ATOM     91  F   UNL     1     -15.439 -12.326  -0.416  1.00  0.00    -0.203 F 
ATOM     92  C   UNL     1     -17.470 -13.507  -0.564  1.00  0.00     0.198 A 
ATOM     93  C   UNL     1     -19.532 -12.434   0.034  1.00  0.00     0.198 A 
ATOM     94  F   UNL     1     -19.532 -10.187   0.725  1.00  0.00    -0.203 F 
ATOM     95  F   UNL     1     -16.810 -14.581  -1.022  1.00  0.00    -0.200 F 
ATOM     96  C   UNL     1     -18.847 -13.555  -0.410  1.00  0.00     0.200 A 
ATOM     97  F   UNL     1     -20.861 -12.482   0.200  1.00  0.00    -0.200 F 
ATOM     98  F   UNL     1     -19.517 -14.680  -0.696  1.00  0.00    -0.200 F 
ENDBRANCH  65  88
ENDBRANCH  39  40
ENDBRANCH  31  34
ENDBRANCH  29  30
ENDBRANCH  28  29
ENDBRANCH  27  28
ENDBRANCH  26  27
ENDBRANCH   1  26
TORSDOF 18
