REMARK SMILES O=C(CC1(NC(=O)C2(c3ccccc3)CC2)CCC1)NCCCCCCNC(=O)c1ccc(-c2c3nc(c(-c4c(F)c(F)c(F)c(F)c4F)c4ccc([nH]4)c(-c4c(F)c(F)c(F)c(F)c4F)c4nc(c(-c5c(F)c(F)c(F)c(F)c5F)c5ccc2[nH]5)C=C4)C=C3)cc1
REMARK SMILES IDX 22 1 21 2 20 3 1 4 2 5 3 7 4 8 17 9 19 10 18 11 5 12 6 13
REMARK SMILES IDX 7 15 8 16 15 17 16 18 9 19 10 20 14 21 11 22 13 23 12 24
REMARK SMILES IDX 23 25 24 26 25 27 26 28 27 29 28 30 29 32 30 33 31 34 92 35
REMARK SMILES IDX 32 36 91 37 33 38 34 39 35 40 85 41 36 42 90 43 84 44 86 45
REMARK SMILES IDX 37 46 89 47 83 48 82 49 38 51 70 52 50 53 69 54 51 55 54 56
REMARK SMILES IDX 68 57 87 58 52 59 53 60 67 62 88 63 55 64 39 65 40 66 48 67
REMARK SMILES IDX 41 68 42 69 46 70 49 71 43 72 44 73 47 74 45 75 71 76 72 77
REMARK SMILES IDX 80 78 73 79 74 80 78 81 81 82 75 83 76 84 79 85 77 86 56 87
REMARK SMILES IDX 57 88 65 89 58 90 59 91 63 92 66 93 60 94 61 95 64 96 62 97
REMARK H PARENT 20 6 5 14 27 31 86 50 54 61
REMARK Flexibility Score: inf
ROOT
ATOM      1  C   UNL     1       2.112   1.512  -3.516  1.00  0.00     0.021 C 
ENDROOT
BRANCH   1   2
ATOM      2  C   UNL     1       1.723   0.033  -3.370  1.00  0.00     0.116 C 
BRANCH   2   3
ATOM      3  N   UNL     1       2.225  -0.558  -2.145  1.00  0.00    -0.356 N 
ATOM      4  O   UNL     1       0.335  -1.708  -1.575  1.00  0.00    -0.275 OA
ATOM      5  C   UNL     1       1.478  -1.346  -1.304  1.00  0.00     0.222 C 
ATOM      6  H   UNL     1       3.162  -0.384  -1.900  1.00  0.00     0.163 HD
BRANCH   5   7
ATOM      7  C   UNL     1       2.079  -1.615   0.068  1.00  0.00     0.128 C 
BRANCH   7   8
ATOM      8  C   UNL     1       3.585  -1.849   0.189  1.00  0.00     0.049 C 
ATOM      9  C   UNL     1       4.186  -2.303   1.567  1.00  0.00     0.029 C 
ATOM     10  C   UNL     1       3.948  -3.291  -0.306  1.00  0.00     0.029 C 
ATOM     11  C   UNL     1       4.979  -3.390   0.826  1.00  0.00     0.005 C 
BRANCH   8  12
ATOM     12  N   UNL     1       4.424  -0.779  -0.422  1.00  0.00    -0.349 N 
ATOM     13  C   UNL     1       4.543   0.563  -0.112  1.00  0.00     0.231 C 
ATOM     14  H   UNL     1       4.988  -1.078  -1.172  1.00  0.00     0.164 HD
ATOM     15  O   UNL     1       5.469   1.189  -0.626  1.00  0.00    -0.274 OA
BRANCH  13  16
ATOM     16  C   UNL     1       3.586   1.269   0.831  1.00  0.00     0.074 C 
ATOM     17  C   UNL     1       3.271   2.731   0.454  1.00  0.00     0.023 C 
ATOM     18  C   UNL     1       2.194   1.711   0.383  1.00  0.00     0.023 C 
BRANCH  16  19
ATOM     19  C   UNL     1       3.845   1.002   2.308  1.00  0.00    -0.032 A 
ATOM     20  C   UNL     1       5.090   1.339   2.865  1.00  0.00     0.005 A 
ATOM     21  C   UNL     1       2.933   0.312   3.126  1.00  0.00     0.005 A 
ATOM     22  C   UNL     1       5.448   0.921   4.146  1.00  0.00     0.000 A 
ATOM     23  C   UNL     1       3.290  -0.118   4.404  1.00  0.00     0.000 A 
ATOM     24  C   UNL     1       4.556   0.169   4.904  1.00  0.00     0.000 A 
ENDBRANCH  16  19
ENDBRANCH  13  16
ENDBRANCH   8  12
ENDBRANCH   7   8
ENDBRANCH   5   7
ENDBRANCH   2   3
ENDBRANCH   1   2
BRANCH   1  25
ATOM     25  C   UNL     1       3.615   1.816  -3.478  1.00  0.00     0.002 C 
BRANCH  25  26
ATOM     26  C   UNL     1       4.484   1.039  -4.467  1.00  0.00     0.002 C 
BRANCH  26  27
ATOM     27  C   UNL     1       4.084   1.217  -5.929  1.00  0.00     0.021 C 
BRANCH  27  28
ATOM     28  C   UNL     1       4.181   2.652  -6.431  1.00  0.00     0.116 C 
BRANCH  28  29
ATOM     29  N   UNL     1       5.558   3.089  -6.603  1.00  0.00    -0.352 N 
ATOM     30  C   UNL     1       6.132   3.676  -7.709  1.00  0.00     0.251 C 
ATOM     31  H   UNL     1       6.154   2.948  -5.833  1.00  0.00     0.163 HD
ATOM     32  O   UNL     1       7.339   3.844  -7.784  1.00  0.00    -0.269 OA
BRANCH  30  33
ATOM     33  C   UNL     1       5.255   4.075  -8.831  1.00  0.00     0.039 A 
ATOM     34  C   UNL     1       5.555   3.632 -10.120  1.00  0.00     0.014 A 
ATOM     35  C   UNL     1       4.106   4.833  -8.588  1.00  0.00     0.014 A 
ATOM     36  C   UNL     1       4.662   3.893 -11.160  1.00  0.00     0.010 A 
ATOM     37  C   UNL     1       3.183   5.027  -9.610  1.00  0.00     0.010 A 
ATOM     38  C   UNL     1       3.451   4.559 -10.906  1.00  0.00    -0.014 A 
BRANCH  38  39
ATOM     39  C   UNL     1       2.450   4.776 -11.981  1.00  0.00     0.031 A 
ATOM     40  C   UNL     1       2.102   6.174 -12.411  1.00  0.00     0.074 A 
ATOM     41  C   UNL     1       1.808   3.723 -12.522  1.00  0.00     0.049 A 
ATOM     42  N   UNL     1       1.207   6.576 -13.277  1.00  0.00    -0.248 NA
ATOM     43  C   UNL     1       2.839   7.268 -11.758  1.00  0.00     0.031 C 
ATOM     44  C   UNL     1       2.022   2.322 -12.155  1.00  0.00     0.029 A 
ATOM     45  N   UNL     1       0.835   3.667 -13.489  1.00  0.00    -0.354 N 
ATOM     46  C   UNL     1       1.265   7.963 -13.263  1.00  0.00     0.074 A 
ATOM     47  C   UNL     1       2.241   8.336 -12.262  1.00  0.00     0.031 C 
ATOM     48  C   UNL     1       1.224   1.544 -12.904  1.00  0.00     0.029 A 
ATOM     49  C   UNL     1       0.414   2.391 -13.775  1.00  0.00     0.049 A 
ATOM     50  H   UNL     1       0.472   4.466 -13.935  1.00  0.00     0.167 HD
ATOM     51  C   UNL     1       0.586   8.845 -14.034  1.00  0.00     0.037 A 
ATOM     52  C   UNL     1      -0.525   1.955 -14.637  1.00  0.00     0.037 A 
ATOM     53  C   UNL     1      -0.366   8.469 -15.045  1.00  0.00     0.049 A 
ATOM     54  C   UNL     1      -1.275   2.958 -15.473  1.00  0.00     0.074 A 
ATOM     55  C   UNL     1      -1.064   9.284 -15.919  1.00  0.00     0.029 A 
ATOM     56  N   UNL     1      -0.757   7.165 -15.316  1.00  0.00    -0.354 N 
ATOM     57  N   UNL     1      -1.161   4.263 -15.502  1.00  0.00    -0.248 NA
ATOM     58  C   UNL     1      -2.282   2.424 -16.402  1.00  0.00     0.031 C 
ATOM     59  C   UNL     1      -1.912   8.478 -16.686  1.00  0.00     0.029 A 
ATOM     60  C   UNL     1      -1.703   7.156 -16.328  1.00  0.00     0.049 A 
ATOM     61  H   UNL     1      -0.412   6.365 -14.856  1.00  0.00     0.167 HD
ATOM     62  C   UNL     1      -2.055   4.704 -16.467  1.00  0.00     0.074 A 
ATOM     63  C   UNL     1      -2.695   3.525 -17.013  1.00  0.00     0.031 C 
ATOM     64  C   UNL     1      -2.323   5.972 -16.866  1.00  0.00     0.037 A 
BRANCH  51  65
ATOM     65  C   UNL     1       0.853  10.306 -13.817  1.00  0.00     0.064 A 
ATOM     66  C   UNL     1       2.078  10.891 -14.173  1.00  0.00     0.173 A 
ATOM     67  C   UNL     1      -0.139  11.140 -13.280  1.00  0.00     0.173 A 
ATOM     68  F   UNL     1       3.064  10.135 -14.680  1.00  0.00    -0.203 F 
ATOM     69  C   UNL     1       2.310  12.249 -13.973  1.00  0.00     0.198 A 
ATOM     70  C   UNL     1       0.085  12.504 -13.111  1.00  0.00     0.198 A 
ATOM     71  F   UNL     1      -1.331  10.635 -12.927  1.00  0.00    -0.203 F 
ATOM     72  F   UNL     1       3.506  12.774 -14.274  1.00  0.00    -0.200 F 
ATOM     73  C   UNL     1       1.312  13.056 -13.450  1.00  0.00     0.200 A 
ATOM     74  F   UNL     1      -0.886  13.285 -12.617  1.00  0.00    -0.200 F 
ATOM     75  F   UNL     1       1.534  14.364 -13.265  1.00  0.00    -0.200 F 
ENDBRANCH  51  65
BRANCH  52  76
ATOM     76  C   UNL     1      -0.793   0.499 -14.773  1.00  0.00     0.064 A 
ATOM     77  C   UNL     1      -0.449  -0.188 -15.946  1.00  0.00     0.173 A 
ATOM     78  C   UNL     1      -1.405  -0.232 -13.745  1.00  0.00     0.173 A 
ATOM     79  F   UNL     1       0.119   0.472 -16.966  1.00  0.00    -0.203 F 
ATOM     80  C   UNL     1      -0.727  -1.546 -16.094  1.00  0.00     0.198 A 
ATOM     81  C   UNL     1      -1.656  -1.596 -13.883  1.00  0.00     0.198 A 
ATOM     82  F   UNL     1      -1.751   0.376 -12.602  1.00  0.00    -0.203 F 
ATOM     83  F   UNL     1      -0.431  -2.166 -17.244  1.00  0.00    -0.200 F 
ATOM     84  C   UNL     1      -1.325  -2.250 -15.060  1.00  0.00     0.200 A 
ATOM     85  F   UNL     1      -2.221  -2.276 -12.876  1.00  0.00    -0.200 F 
ATOM     86  F   UNL     1      -1.589  -3.556 -15.201  1.00  0.00    -0.200 F 
ENDBRANCH  52  76
BRANCH  64  87
ATOM     87  C   UNL     1      -3.324   6.151 -17.971  1.00  0.00     0.064 A 
ATOM     88  C   UNL     1      -4.695   5.938 -17.764  1.00  0.00     0.173 A 
ATOM     89  C   UNL     1      -2.909   6.585 -19.239  1.00  0.00     0.173 A 
ATOM     90  F   UNL     1      -5.140   5.508 -16.574  1.00  0.00    -0.203 F 
ATOM     91  C   UNL     1      -5.611   6.132 -18.795  1.00  0.00     0.198 A 
ATOM     92  C   UNL     1      -3.832   6.808 -20.257  1.00  0.00     0.198 A 
ATOM     93  F   UNL     1      -1.610   6.810 -19.486  1.00  0.00    -0.203 F 
ATOM     94  F   UNL     1      -6.911   5.878 -18.588  1.00  0.00    -0.200 F 
ATOM     95  C   UNL     1      -5.180   6.574 -20.037  1.00  0.00     0.200 A 
ATOM     96  F   UNL     1      -3.415   7.250 -21.452  1.00  0.00    -0.200 F 
ATOM     97  F   UNL     1      -6.065   6.769 -21.024  1.00  0.00    -0.200 F 
ENDBRANCH  64  87
ENDBRANCH  38  39
ENDBRANCH  30  33
ENDBRANCH  28  29
ENDBRANCH  27  28
ENDBRANCH  26  27
ENDBRANCH  25  26
ENDBRANCH   1  25
TORSDOF 17
