REMARK SMILES Cn1ccnc1SCC[C@@H]1CCC[C@]1([NH3+])C(=O)NCCCCCCNC(=O)c1ccc(-c2c3nc(c(-c4c(F)c(F)c(F)c(F)c4F)c4ccc([nH]4)c(-c4c(F)c(F)c(F)c(F)c4F)c4nc(c(-c5c(F)c(F)c(F)c(F)c5F)c5ccc2[nH]5)C=C4)C=C3)cc1
REMARK SMILES IDX 20 1 19 2 18 3 16 4 17 5 14 7 10 8 11 9 12 10 13 11 9 12
REMARK SMILES IDX 8 13 7 14 6 15 1 16 2 17 3 18 4 19 5 20 15 21 21 25 22 26
REMARK SMILES IDX 23 27 24 28 25 29 26 30 27 32 28 33 29 34 90 35 30 36 89 37
REMARK SMILES IDX 31 38 32 39 33 40 83 41 34 42 88 43 82 44 84 45 35 46 87 47
REMARK SMILES IDX 81 48 80 49 36 51 68 52 48 53 67 54 49 55 52 56 66 57 85 58
REMARK SMILES IDX 50 59 51 60 65 62 86 63 53 64 37 65 38 66 46 67 39 68 40 69
REMARK SMILES IDX 44 70 47 71 41 72 42 73 45 74 43 75 69 76 70 77 78 78 71 79
REMARK SMILES IDX 72 80 76 81 79 82 73 83 74 84 77 85 75 86 54 87 55 88 63 89
REMARK SMILES IDX 56 90 57 91 61 92 64 93 58 94 59 95 62 96 60 97
REMARK H PARENT 18 6 15 22 15 23 15 24 25 31 84 50 52 61
REMARK Flexibility Score: inf
ROOT
ATOM      1  C   UNL     1       5.740   2.858   0.775  1.00  0.00     0.021 C 
ENDROOT
BRANCH   1   2
ATOM      2  C   UNL     1       5.427   1.444   0.297  1.00  0.00     0.116 C 
BRANCH   2   3
ATOM      3  N   UNL     1       5.586   0.501   1.381  1.00  0.00    -0.351 N 
ATOM      4  C   UNL     1       4.699  -0.365   1.944  1.00  0.00     0.281 C 
ATOM      5  O   UNL     1       5.097  -0.976   2.940  1.00  0.00    -0.268 OA
ATOM      6  H   UNL     1       6.487   0.481   1.778  1.00  0.00     0.163 HD
BRANCH   4   7
ATOM      7  C   UNL     1       3.280  -0.619   1.314  1.00  0.00     0.176 C 
ATOM      8  C   UNL     1       2.148   0.353   1.758  1.00  0.00     0.061 C 
ATOM      9  C   UNL     1       1.943  -0.053   3.225  1.00  0.00     0.011 C 
ATOM     10  C   UNL     1       2.069  -1.572   3.234  1.00  0.00     0.008 C 
ATOM     11  C   UNL     1       2.729  -1.948   1.905  1.00  0.00     0.079 C 
BRANCH   8  12
ATOM     12  C   UNL     1       2.258   1.882   1.663  1.00  0.00     0.022 C 
BRANCH  12  13
ATOM     13  C   UNL     1       1.992   2.560   0.313  1.00  0.00     0.079 C 
BRANCH  13  14
ATOM     14  S   UNL     1       0.276   2.817  -0.224  1.00  0.00    -0.088 SA
BRANCH  14  15
ATOM     15  C   UNL     1      -0.463   1.258  -0.236  1.00  0.00     0.167 A 
ATOM     16  C   UNL     1       0.956   0.101  -1.999  1.00  0.00     0.152 C 
ATOM     17  N   UNL     1      -0.089   0.192  -1.014  1.00  0.00    -0.329 N 
ATOM     18  C   UNL     1      -0.931  -0.850  -0.704  1.00  0.00     0.108 A 
ATOM     19  C   UNL     1      -1.839  -0.327   0.185  1.00  0.00     0.132 A 
ATOM     20  N   UNL     1      -1.534   0.976   0.473  1.00  0.00    -0.231 NA
ENDBRANCH  14  15
ENDBRANCH  13  14
ENDBRANCH  12  13
ENDBRANCH   8  12
BRANCH   7  21
ATOM     21  N   UNL     1       3.433  -0.792  -0.151  1.00  0.00    -0.345 N 
ATOM     22  H   UNL     1       2.519  -0.958  -0.572  1.00  0.00     0.345 HD
ATOM     23  H   UNL     1       4.042  -1.589  -0.338  1.00  0.00     0.345 HD
ATOM     24  H   UNL     1       3.844   0.051  -0.552  1.00  0.00     0.345 HD
ENDBRANCH   7  21
ENDBRANCH   4   7
ENDBRANCH   2   3
ENDBRANCH   1   2
BRANCH   1  25
ATOM     25  C   UNL     1       7.235   3.102   0.984  1.00  0.00     0.002 C 
BRANCH  25  26
ATOM     26  C   UNL     1       8.061   3.072  -0.304  1.00  0.00     0.002 C 
BRANCH  26  27
ATOM     27  C   UNL     1       7.599   4.056  -1.381  1.00  0.00     0.021 C 
BRANCH  27  28
ATOM     28  C   UNL     1       7.441   5.493  -0.894  1.00  0.00     0.116 C 
BRANCH  28  29
ATOM     29  N   UNL     1       8.680   6.019  -0.341  1.00  0.00    -0.352 N 
ATOM     30  C   UNL     1       9.425   7.096  -0.751  1.00  0.00     0.251 C 
ATOM     31  H   UNL     1       9.034   5.532   0.438  1.00  0.00     0.163 HD
ATOM     32  O   UNL     1      10.552   7.281  -0.319  1.00  0.00    -0.269 OA
BRANCH  30  33
ATOM     33  C   UNL     1       8.849   8.020  -1.747  1.00  0.00     0.039 A 
ATOM     34  C   UNL     1       9.599   8.347  -2.878  1.00  0.00     0.014 A 
ATOM     35  C   UNL     1       7.555   8.519  -1.580  1.00  0.00     0.014 A 
ATOM     36  C   UNL     1       9.016   9.112  -3.887  1.00  0.00     0.010 A 
ATOM     37  C   UNL     1       6.952   9.220  -2.617  1.00  0.00     0.010 A 
ATOM     38  C   UNL     1       7.672   9.511  -3.786  1.00  0.00    -0.014 A 
BRANCH  38  39
ATOM     39  C   UNL     1       6.983  10.186  -4.912  1.00  0.00     0.031 A 
ATOM     40  C   UNL     1       6.472  11.588  -4.756  1.00  0.00     0.074 A 
ATOM     41  C   UNL     1       6.744   9.497  -6.044  1.00  0.00     0.049 A 
ATOM     42  N   UNL     1       5.773  12.311  -5.594  1.00  0.00    -0.248 NA
ATOM     43  C   UNL     1       6.764  12.259  -3.480  1.00  0.00     0.031 C 
ATOM     44  C   UNL     1       7.161   8.116  -6.297  1.00  0.00     0.029 A 
ATOM     45  N   UNL     1       6.079   9.857  -7.189  1.00  0.00    -0.354 N 
ATOM     46  C   UNL     1       5.528  13.512  -4.942  1.00  0.00     0.074 A 
ATOM     47  C   UNL     1       6.115  13.405  -3.624  1.00  0.00     0.031 C 
ATOM     48  C   UNL     1       6.768   7.756  -7.528  1.00  0.00     0.029 A 
ATOM     49  C   UNL     1       6.026   8.858  -8.131  1.00  0.00     0.049 A 
ATOM     50  H   UNL     1       5.679  10.746  -7.324  1.00  0.00     0.167 HD
ATOM     51  C   UNL     1       4.885  14.607  -5.411  1.00  0.00     0.037 A 
ATOM     52  C   UNL     1       5.431   8.830  -9.339  1.00  0.00     0.037 A 
ATOM     53  C   UNL     1       4.317  14.708  -6.731  1.00  0.00     0.049 A 
ATOM     54  C   UNL     1       4.681  10.045  -9.814  1.00  0.00     0.074 A 
ATOM     55  C   UNL     1       3.718  15.802  -7.330  1.00  0.00     0.029 A 
ATOM     56  N   UNL     1       4.264  13.669  -7.650  1.00  0.00    -0.354 N 
ATOM     57  N   UNL     1       4.531  11.207  -9.226  1.00  0.00    -0.248 NA
ATOM     58  C   UNL     1       4.014   9.942 -11.119  1.00  0.00     0.031 C 
ATOM     59  C   UNL     1       3.239  15.405  -8.582  1.00  0.00     0.029 A 
ATOM     60  C   UNL     1       3.597  14.083  -8.793  1.00  0.00     0.049 A 
ATOM     61  H   UNL     1       4.643  12.772  -7.511  1.00  0.00     0.167 HD
ATOM     62  C   UNL     1       3.777  11.981 -10.098  1.00  0.00     0.074 A 
ATOM     63  C   UNL     1       3.514  11.161 -11.262  1.00  0.00     0.031 C 
ATOM     64  C   UNL     1       3.341  13.256  -9.945  1.00  0.00     0.037 A 
BRANCH  51  65
ATOM     65  C   UNL     1       4.741  15.781  -4.485  1.00  0.00     0.064 A 
ATOM     66  C   UNL     1       5.843  16.553  -4.089  1.00  0.00     0.173 A 
ATOM     67  C   UNL     1       3.474  16.163  -4.018  1.00  0.00     0.173 A 
ATOM     68  F   UNL     1       7.079  16.229  -4.500  1.00  0.00    -0.203 F 
ATOM     69  C   UNL     1       5.687  17.641  -3.232  1.00  0.00     0.198 A 
ATOM     70  C   UNL     1       3.317  17.271  -3.190  1.00  0.00     0.198 A 
ATOM     71  F   UNL     1       2.384  15.465  -4.371  1.00  0.00    -0.203 F 
ATOM     72  F   UNL     1       6.762  18.330  -2.825  1.00  0.00    -0.200 F 
ATOM     73  C   UNL     1       4.424  18.003  -2.790  1.00  0.00     0.200 A 
ATOM     74  F   UNL     1       2.093  17.629  -2.776  1.00  0.00    -0.200 F 
ATOM     75  F   UNL     1       4.274  19.055  -1.973  1.00  0.00    -0.200 F 
ENDBRANCH  51  65
BRANCH  52  76
ATOM     76  C   UNL     1       5.532   7.615 -10.190  1.00  0.00     0.064 A 
ATOM     77  C   UNL     1       6.264   7.638 -11.385  1.00  0.00     0.173 A 
ATOM     78  C   UNL     1       4.904   6.413  -9.833  1.00  0.00     0.173 A 
ATOM     79  F   UNL     1       6.865   8.770 -11.780  1.00  0.00    -0.203 F 
ATOM     80  C   UNL     1       6.350   6.511 -12.199  1.00  0.00     0.198 A 
ATOM     81  C   UNL     1       5.016   5.277 -10.632  1.00  0.00     0.198 A 
ATOM     82  F   UNL     1       4.195   6.335  -8.697  1.00  0.00    -0.203 F 
ATOM     83  F   UNL     1       7.019   6.574 -13.358  1.00  0.00    -0.200 F 
ATOM     84  C   UNL     1       5.732   5.329 -11.819  1.00  0.00     0.200 A 
ATOM     85  F   UNL     1       4.432   4.132 -10.252  1.00  0.00    -0.200 F 
ATOM     86  F   UNL     1       5.821   4.243 -12.598  1.00  0.00    -0.200 F 
ENDBRANCH  52  76
BRANCH  64  87
ATOM     87  C   UNL     1       2.552  13.856 -11.074  1.00  0.00     0.064 A 
ATOM     88  C   UNL     1       1.242  13.442 -11.358  1.00  0.00     0.173 A 
ATOM     89  C   UNL     1       3.094  14.894 -11.847  1.00  0.00     0.173 A 
ATOM     90  F   UNL     1       0.684  12.440 -10.660  1.00  0.00    -0.203 F 
ATOM     91  C   UNL     1       0.512  14.032 -12.386  1.00  0.00     0.198 A 
ATOM     92  C   UNL     1       2.349  15.505 -12.851  1.00  0.00     0.198 A 
ATOM     93  F   UNL     1       4.341  15.331 -11.614  1.00  0.00    -0.203 F 
ATOM     94  F   UNL     1      -0.721  13.589 -12.669  1.00  0.00    -0.200 F 
ATOM     95  C   UNL     1       1.061  15.069 -13.124  1.00  0.00     0.200 A 
ATOM     96  F   UNL     1       2.876  16.518 -13.553  1.00  0.00    -0.200 F 
ATOM     97  F   UNL     1       0.351  15.646 -14.104  1.00  0.00    -0.200 F 
ENDBRANCH  64  87
ENDBRANCH  38  39
ENDBRANCH  30  33
ENDBRANCH  28  29
ENDBRANCH  27  28
ENDBRANCH  26  27
ENDBRANCH  25  26
ENDBRANCH   1  25
TORSDOF 18
