REMARK SMILES CCN(CCC(=O)NCCCCCCNC(=O)c1ccc(-c2c3nc(c(-c4c(F)c(F)c(F)c(F)c4F)c4ccc([nH]4)c(-c4c(F)c(F)c(F)c(F)c4F)c4nc(c(-c5c(F)c(F)c(F)c(F)c5F)c5ccc2[nH]5)C=C4)C=C3)cc1)C(=O)C1(C)CCCC1
REMARK SMILES IDX 10 1 9 2 8 3 6 4 7 5 5 7 4 8 3 9 2 10 1 11 81 12 82 13 83 14
REMARK SMILES IDX 84 15 85 16 88 17 86 18 87 19 11 20 12 21 13 22 14 23 15 24
REMARK SMILES IDX 16 25 17 27 18 28 19 29 80 30 20 31 79 32 21 33 22 34 23 35
REMARK SMILES IDX 73 36 24 37 78 38 72 39 74 40 25 41 77 42 71 43 70 44 26 46
REMARK SMILES IDX 58 47 38 48 57 49 39 50 42 51 56 52 75 53 40 54 41 55 55 57
REMARK SMILES IDX 76 58 43 59 27 60 28 61 36 62 29 63 30 64 34 65 37 66 31 67
REMARK SMILES IDX 32 68 35 69 33 70 59 71 60 72 68 73 61 74 62 75 66 76 69 77
REMARK SMILES IDX 63 78 64 79 67 80 65 81 44 82 45 83 53 84 46 85 47 86 51 87
REMARK SMILES IDX 54 88 48 89 49 90 52 91 50 92
REMARK H PARENT 8 6 15 26 74 45 42 56
REMARK Flexibility Score: inf
ROOT
ATOM      1  C   UNL     1       3.206   3.258   2.013  1.00  0.00     0.021 C 
ENDROOT
BRANCH   1   2
ATOM      2  C   UNL     1       2.244   4.449   1.892  1.00  0.00     0.116 C 
BRANCH   2   3
ATOM      3  N   UNL     1       2.233   5.101   0.596  1.00  0.00    -0.356 N 
ATOM      4  C   UNL     1       1.259   5.211  -0.351  1.00  0.00     0.221 C 
ATOM      5  O   UNL     1       1.412   6.035  -1.256  1.00  0.00    -0.275 OA
ATOM      6  H   UNL     1       3.080   5.542   0.358  1.00  0.00     0.163 HD
BRANCH   4   7
ATOM      7  C   UNL     1       0.005   4.370  -0.283  1.00  0.00     0.121 C 
BRANCH   7   8
ATOM      8  C   UNL     1      -0.005   3.256  -1.332  1.00  0.00     0.129 C 
BRANCH   8   9
ATOM      9  N   UNL     1       0.834   2.088  -0.997  1.00  0.00    -0.342 N 
BRANCH   9  10
ATOM     10  C   UNL     1       0.277   1.183   0.009  1.00  0.00     0.116 C 
ATOM     11  C   UNL     1      -0.315  -0.103  -0.545  1.00  0.00     0.027 C 
ENDBRANCH   9  10
BRANCH   9  12
ATOM     12  C   UNL     1       2.127   2.091  -1.512  1.00  0.00     0.228 C 
ATOM     13  O   UNL     1       2.562   3.146  -1.995  1.00  0.00    -0.274 OA
BRANCH  12  14
ATOM     14  C   UNL     1       2.974   0.803  -1.739  1.00  0.00     0.047 C 
ATOM     15  C   UNL     1       2.444   0.193  -3.049  1.00  0.00     0.022 C 
ATOM     16  C   UNL     1       4.474   1.209  -1.954  1.00  0.00     0.016 C 
ATOM     17  C   UNL     1       3.058  -0.287  -0.669  1.00  0.00     0.016 C 
ATOM     18  C   UNL     1       5.298   0.546  -0.858  1.00  0.00     0.001 C 
ATOM     19  C   UNL     1       4.291   0.017   0.135  1.00  0.00     0.001 C 
ENDBRANCH  12  14
ENDBRANCH   9  12
ENDBRANCH   8   9
ENDBRANCH   7   8
ENDBRANCH   4   7
ENDBRANCH   2   3
ENDBRANCH   1   2
BRANCH   1  20
ATOM     20  C   UNL     1       4.660   3.524   1.585  1.00  0.00     0.002 C 
BRANCH  20  21
ATOM     21  C   UNL     1       5.798   3.188   2.577  1.00  0.00     0.002 C 
BRANCH  21  22
ATOM     22  C   UNL     1       5.761   1.910   3.429  1.00  0.00     0.021 C 
BRANCH  22  23
ATOM     23  C   UNL     1       6.319   0.612   2.849  1.00  0.00     0.116 C 
BRANCH  23  24
ATOM     24  N   UNL     1       7.731   0.570   2.533  1.00  0.00    -0.352 N 
ATOM     25  C   UNL     1       8.540  -0.547   2.480  1.00  0.00     0.251 C 
ATOM     26  H   UNL     1       8.161   1.433   2.333  1.00  0.00     0.163 HD
ATOM     27  O   UNL     1       9.700  -0.458   2.084  1.00  0.00    -0.269 OA
BRANCH  25  28
ATOM     28  C   UNL     1       8.044  -1.858   2.971  1.00  0.00     0.039 A 
ATOM     29  C   UNL     1       8.761  -2.486   3.991  1.00  0.00     0.014 A 
ATOM     30  C   UNL     1       6.901  -2.474   2.451  1.00  0.00     0.014 A 
ATOM     31  C   UNL     1       8.305  -3.694   4.528  1.00  0.00     0.010 A 
ATOM     32  C   UNL     1       6.415  -3.658   3.027  1.00  0.00     0.010 A 
ATOM     33  C   UNL     1       7.112  -4.284   4.075  1.00  0.00    -0.014 A 
BRANCH  33  34
ATOM     34  C   UNL     1       6.627  -5.546   4.708  1.00  0.00     0.031 A 
ATOM     35  C   UNL     1       6.602  -6.842   3.939  1.00  0.00     0.074 A 
ATOM     36  C   UNL     1       6.244  -5.544   6.003  1.00  0.00     0.049 A 
ATOM     37  N   UNL     1       6.320  -8.051   4.363  1.00  0.00    -0.248 NA
ATOM     38  C   UNL     1       6.921  -6.771   2.506  1.00  0.00     0.031 C 
ATOM     39  C   UNL     1       6.167  -4.358   6.857  1.00  0.00     0.029 A 
ATOM     40  N   UNL     1       5.862  -6.573   6.832  1.00  0.00    -0.354 N 
ATOM     41  C   UNL     1       6.450  -8.883   3.258  1.00  0.00     0.074 A 
ATOM     42  C   UNL     1       6.763  -8.033   2.129  1.00  0.00     0.031 C 
ATOM     43  C   UNL     1       5.801  -4.729   8.095  1.00  0.00     0.029 A 
ATOM     44  C   UNL     1       5.595  -6.175   8.121  1.00  0.00     0.049 A 
ATOM     45  H   UNL     1       5.787  -7.507   6.531  1.00  0.00     0.167 HD
ATOM     46  C   UNL     1       6.352 -10.234   3.191  1.00  0.00     0.037 A 
ATOM     47  C   UNL     1       5.237  -6.892   9.206  1.00  0.00     0.037 A 
ATOM     48  C   UNL     1       6.042 -11.090   4.308  1.00  0.00     0.049 A 
ATOM     49  C   UNL     1       5.125  -8.392   9.100  1.00  0.00     0.074 A 
ATOM     50  C   UNL     1       5.942 -12.472   4.336  1.00  0.00     0.029 A 
ATOM     51  N   UNL     1       5.779 -10.648   5.596  1.00  0.00    -0.354 N 
ATOM     52  N   UNL     1       5.328  -9.169   8.064  1.00  0.00    -0.248 NA
ATOM     53  C   UNL     1       4.751  -9.117  10.324  1.00  0.00     0.031 C 
ATOM     54  C   UNL     1       5.577 -12.862   5.629  1.00  0.00     0.029 A 
ATOM     55  C   UNL     1       5.505 -11.729   6.421  1.00  0.00     0.049 A 
ATOM     56  H   UNL     1       5.787  -9.706   5.882  1.00  0.00     0.167 HD
ATOM     57  C   UNL     1       5.141 -10.469   8.518  1.00  0.00     0.074 A 
ATOM     58  C   UNL     1       4.833 -10.378   9.929  1.00  0.00     0.031 C 
ATOM     59  C   UNL     1       5.211 -11.633   7.827  1.00  0.00     0.037 A 
BRANCH  46  60
ATOM     60  C   UNL     1       6.605 -10.883   1.860  1.00  0.00     0.064 A 
ATOM     61  C   UNL     1       7.894 -10.930   1.306  1.00  0.00     0.173 A 
ATOM     62  C   UNL     1       5.569 -11.519   1.161  1.00  0.00     0.173 A 
ATOM     63  F   UNL     1       8.919 -10.331   1.931  1.00  0.00    -0.203 F 
ATOM     64  C   UNL     1       8.130 -11.567   0.091  1.00  0.00     0.198 A 
ATOM     65  C   UNL     1       5.814 -12.182  -0.039  1.00  0.00     0.198 A 
ATOM     66  F   UNL     1       4.319 -11.514   1.650  1.00  0.00    -0.203 F 
ATOM     67  F   UNL     1       9.362 -11.562  -0.438  1.00  0.00    -0.200 F 
ATOM     68  C   UNL     1       7.093 -12.200  -0.576  1.00  0.00     0.200 A 
ATOM     69  F   UNL     1       4.814 -12.807  -0.675  1.00  0.00    -0.200 F 
ATOM     70  F   UNL     1       7.324 -12.824  -1.740  1.00  0.00    -0.200 F 
ENDBRANCH  46  60
BRANCH  47  71
ATOM     71  C   UNL     1       4.973  -6.213  10.505  1.00  0.00     0.064 A 
ATOM     72  C   UNL     1       5.796  -6.428  11.621  1.00  0.00     0.173 A 
ATOM     73  C   UNL     1       3.858  -5.380  10.672  1.00  0.00     0.173 A 
ATOM     74  F   UNL     1       6.862  -7.235  11.521  1.00  0.00    -0.203 F 
ATOM     75  C   UNL     1       5.490  -5.870  12.861  1.00  0.00     0.198 A 
ATOM     76  C   UNL     1       3.573  -4.793  11.903  1.00  0.00     0.198 A 
ATOM     77  F   UNL     1       3.039  -5.137   9.637  1.00  0.00    -0.203 F 
ATOM     78  F   UNL     1       6.253  -6.152  13.926  1.00  0.00    -0.200 F 
ATOM     79  C   UNL     1       4.380  -5.051  13.001  1.00  0.00     0.200 A 
ATOM     80  F   UNL     1       2.507  -3.991  12.030  1.00  0.00    -0.200 F 
ATOM     81  F   UNL     1       4.081  -4.521  14.195  1.00  0.00    -0.200 F 
ENDBRANCH  47  71
BRANCH  59  82
ATOM     82  C   UNL     1       4.994 -12.907   8.596  1.00  0.00     0.064 A 
ATOM     83  C   UNL     1       3.738 -13.251   9.120  1.00  0.00     0.173 A 
ATOM     84  C   UNL     1       6.055 -13.803   8.802  1.00  0.00     0.173 A 
ATOM     85  F   UNL     1       2.692 -12.426   8.963  1.00  0.00    -0.203 F 
ATOM     86  C   UNL     1       3.564 -14.421   9.856  1.00  0.00     0.198 A 
ATOM     87  C   UNL     1       5.869 -14.988   9.508  1.00  0.00     0.198 A 
ATOM     88  F   UNL     1       7.275 -13.530   8.316  1.00  0.00    -0.203 F 
ATOM     89  F   UNL     1       2.370 -14.695  10.401  1.00  0.00    -0.200 F 
ATOM     90  C   UNL     1       4.627 -15.291  10.045  1.00  0.00     0.200 A 
ATOM     91  F   UNL     1       6.894 -15.835   9.676  1.00  0.00    -0.200 F 
ATOM     92  F   UNL     1       4.457 -16.415  10.754  1.00  0.00    -0.200 F 
ENDBRANCH  59  82
ENDBRANCH  33  34
ENDBRANCH  25  28
ENDBRANCH  23  24
ENDBRANCH  22  23
ENDBRANCH  21  22
ENDBRANCH  20  21
ENDBRANCH   1  20
TORSDOF 18
