REMARK SMILES N#Cc1ccc(C(=O)N2CCC(Oc3ccccc3)(C(=O)NCCCCCCNC(=O)c3ccc(-c4c5nc(c(-c6c(F)c(F)c(F)c(F)c6F)c6ccc([nH]6)c(-c6c(F)c(F)c(F)c(F)c6F)c6nc(c(-c7c(F)c(F)c(F)c(F)c7F)c7ccc4[nH]7)C=C6)C=C5)cc3)CC2)cc1
REMARK SMILES IDX 25 1 24 2 23 3 22 4 20 5 21 6 12 8 7 9 8 10 9 11 10 12 96 13
REMARK SMILES IDX 11 14 95 15 6 16 3 17 4 18 98 19 5 20 97 21 2 22 1 23 13 24
REMARK SMILES IDX 14 25 15 26 19 27 16 28 18 29 17 30 26 31 27 32 28 33 29 34
REMARK SMILES IDX 30 35 31 37 32 38 33 39 94 40 34 41 93 42 35 43 36 44 37 45
REMARK SMILES IDX 87 46 38 47 92 48 86 49 88 50 39 51 91 52 85 53 84 54 40 56
REMARK SMILES IDX 72 57 52 58 71 59 53 60 56 61 70 62 89 63 54 64 55 65 69 67
REMARK SMILES IDX 90 68 57 69 41 70 42 71 50 72 43 73 44 74 48 75 51 76 45 77
REMARK SMILES IDX 46 78 49 79 47 80 73 81 74 82 82 83 75 84 76 85 80 86 83 87
REMARK SMILES IDX 77 88 78 89 81 90 79 91 58 92 59 93 67 94 60 95 61 96 65 97
REMARK SMILES IDX 68 98 62 99 63 100 66 101 64 102
REMARK H PARENT 22 7 29 36 88 55 56 66
REMARK Flexibility Score: inf
ROOT
ATOM      1  C   UNL     1       6.484  -6.649   3.638  1.00  0.00     0.002 C 
ENDROOT
BRANCH   1   2
ATOM      2  C   UNL     1       7.056  -5.311   3.153  1.00  0.00     0.021 C 
BRANCH   2   3
ATOM      3  C   UNL     1       7.509  -5.340   1.695  1.00  0.00     0.116 C 
BRANCH   3   4
ATOM      4  N   UNL     1       6.363  -5.482   0.822  1.00  0.00    -0.353 N 
ATOM      5  C   UNL     1       5.841  -4.624  -0.098  1.00  0.00     0.264 C 
ATOM      6  O   UNL     1       4.832  -5.020  -0.691  1.00  0.00    -0.270 OA
ATOM      7  H   UNL     1       5.883  -6.338   0.908  1.00  0.00     0.163 HD
BRANCH   5   8
ATOM      8  C   UNL     1       6.482  -3.232  -0.369  1.00  0.00     0.190 C 
ATOM      9  C   UNL     1       3.666  -0.190   0.322  1.00  0.00     0.253 C 
ATOM     10  O   UNL     1       4.227   0.757   0.867  1.00  0.00    -0.269 OA
ATOM     11  N   UNL     1       4.287  -1.412   0.130  1.00  0.00    -0.338 N 
ATOM     12  C   UNL     1       4.985  -2.004   1.250  1.00  0.00     0.124 C 
ATOM     13  C   UNL     1       4.297  -2.128  -1.143  1.00  0.00     0.124 C 
ATOM     14  C   UNL     1       6.411  -2.325   0.874  1.00  0.00     0.080 C 
ATOM     15  C   UNL     1       5.720  -2.555  -1.537  1.00  0.00     0.080 C 
BRANCH   9  16
ATOM     16  C   UNL     1       2.205  -0.114   0.046  1.00  0.00     0.040 A 
ATOM     17  C   UNL     1      -0.589   0.088  -0.093  1.00  0.00     0.052 A 
ATOM     18  C   UNL     1       0.201   1.244  -0.109  1.00  0.00     0.020 A 
ATOM     19  C   UNL     1       0.018  -1.168  -0.017  1.00  0.00     0.020 A 
ATOM     20  C   UNL     1       1.594   1.144  -0.038  1.00  0.00     0.015 A 
ATOM     21  C   UNL     1       1.408  -1.267   0.063  1.00  0.00     0.015 A 
BRANCH  17  22
ATOM     22  C   UNL     1      -2.020   0.184  -0.116  1.00  0.00     0.099 C 
ATOM     23  N   UNL     1      -3.177   0.245  -0.123  1.00  0.00    -0.192 NA
ENDBRANCH  17  22
ENDBRANCH   9  16
BRANCH   8  24
ATOM     24  O   UNL     1       7.823  -3.626  -0.762  1.00  0.00    -0.477 OA
BRANCH  24  25
ATOM     25  C   UNL     1       8.730  -2.658  -1.069  1.00  0.00     0.120 A 
ATOM     26  C   UNL     1       9.190  -2.604  -2.382  1.00  0.00     0.046 A 
ATOM     27  C   UNL     1       9.310  -1.845  -0.098  1.00  0.00     0.046 A 
ATOM     28  C   UNL     1      10.159  -1.667  -2.743  1.00  0.00     0.004 A 
ATOM     29  C   UNL     1      10.256  -0.887  -0.461  1.00  0.00     0.004 A 
ATOM     30  C   UNL     1      10.675  -0.793  -1.786  1.00  0.00     0.000 A 
ENDBRANCH  24  25
ENDBRANCH   8  24
ENDBRANCH   5   8
ENDBRANCH   3   4
ENDBRANCH   2   3
ENDBRANCH   1   2
BRANCH   1  31
ATOM     31  C   UNL     1       7.440  -7.838   3.493  1.00  0.00     0.002 C 
BRANCH  31  32
ATOM     32  C   UNL     1       8.804  -7.636   4.153  1.00  0.00     0.021 C 
BRANCH  32  33
ATOM     33  C   UNL     1       8.728  -7.358   5.649  1.00  0.00     0.116 C 
BRANCH  33  34
ATOM     34  N   UNL     1       8.172  -8.487   6.378  1.00  0.00    -0.352 N 
ATOM     35  C   UNL     1       8.715  -9.197   7.418  1.00  0.00     0.251 C 
ATOM     36  H   UNL     1       7.280  -8.783   6.084  1.00  0.00     0.163 HD
ATOM     37  O   UNL     1       8.220 -10.264   7.766  1.00  0.00    -0.269 OA
BRANCH  35  38
ATOM     38  C   UNL     1       9.914  -8.677   8.106  1.00  0.00     0.039 A 
ATOM     39  C   UNL     1      10.947  -9.558   8.426  1.00  0.00     0.014 A 
ATOM     40  C   UNL     1      10.016  -7.321   8.430  1.00  0.00     0.014 A 
ATOM     41  C   UNL     1      12.106  -9.069   9.028  1.00  0.00     0.010 A 
ATOM     42  C   UNL     1      11.208  -6.821   8.941  1.00  0.00     0.010 A 
ATOM     43  C   UNL     1      12.261  -7.691   9.260  1.00  0.00    -0.014 A 
BRANCH  43  44
ATOM     44  C   UNL     1      13.511  -7.148   9.846  1.00  0.00     0.031 A 
ATOM     45  C   UNL     1      13.479  -6.438  11.171  1.00  0.00     0.074 A 
ATOM     46  C   UNL     1      14.668  -7.251   9.164  1.00  0.00     0.049 A 
ATOM     47  N   UNL     1      14.455  -5.863  11.828  1.00  0.00    -0.248 NA
ATOM     48  C   UNL     1      12.170  -6.335  11.834  1.00  0.00     0.031 C 
ATOM     49  C   UNL     1      14.820  -7.881   7.852  1.00  0.00     0.029 A 
ATOM     50  N   UNL     1      15.934  -6.826   9.479  1.00  0.00    -0.354 N 
ATOM     51  C   UNL     1      13.877  -5.328  12.971  1.00  0.00     0.074 A 
ATOM     52  C   UNL     1      12.456  -5.581  12.884  1.00  0.00     0.031 C 
ATOM     53  C   UNL     1      16.112  -7.836   7.492  1.00  0.00     0.029 A 
ATOM     54  C   UNL     1      16.869  -7.130   8.520  1.00  0.00     0.049 A 
ATOM     55  H   UNL     1      16.151  -6.349  10.312  1.00  0.00     0.167 HD
ATOM     56  C   UNL     1      14.480  -4.707  14.014  1.00  0.00     0.037 A 
ATOM     57  C   UNL     1      18.188  -6.861   8.473  1.00  0.00     0.037 A 
ATOM     58  C   UNL     1      15.896  -4.458  14.094  1.00  0.00     0.049 A 
ATOM     59  C   UNL     1      18.828  -6.128   9.621  1.00  0.00     0.074 A 
ATOM     60  C   UNL     1      16.613  -3.874  15.123  1.00  0.00     0.029 A 
ATOM     61  N   UNL     1      16.810  -4.766  13.095  1.00  0.00    -0.354 N 
ATOM     62  N   UNL     1      18.284  -5.686  10.729  1.00  0.00    -0.248 NA
ATOM     63  C   UNL     1      20.268  -5.862   9.513  1.00  0.00     0.031 C 
ATOM     64  C   UNL     1      17.946  -3.760  14.717  1.00  0.00     0.029 A 
ATOM     65  C   UNL     1      18.079  -4.351  13.470  1.00  0.00     0.049 A 
ATOM     66  H   UNL     1      16.590  -5.214  12.246  1.00  0.00     0.167 HD
ATOM     67  C   UNL     1      19.320  -5.125  11.466  1.00  0.00     0.074 A 
ATOM     68  C   UNL     1      20.525  -5.295  10.682  1.00  0.00     0.031 C 
ATOM     69  C   UNL     1      19.275  -4.528  12.684  1.00  0.00     0.037 A 
BRANCH  56  70
ATOM     70  C   UNL     1      13.601  -4.239  15.142  1.00  0.00     0.064 A 
ATOM     71  C   UNL     1      12.904  -5.141  15.963  1.00  0.00     0.173 A 
ATOM     72  C   UNL     1      13.461  -2.870  15.415  1.00  0.00     0.173 A 
ATOM     73  F   UNL     1      12.993  -6.462  15.745  1.00  0.00    -0.203 F 
ATOM     74  C   UNL     1      12.063  -4.689  16.977  1.00  0.00     0.198 A 
ATOM     75  C   UNL     1      12.654  -2.423  16.458  1.00  0.00     0.198 A 
ATOM     76  F   UNL     1      14.110  -1.961  14.671  1.00  0.00    -0.203 F 
ATOM     77  F   UNL     1      11.351  -5.567  17.696  1.00  0.00    -0.200 F 
ATOM     78  C   UNL     1      11.944  -3.331  17.228  1.00  0.00     0.200 A 
ATOM     79  F   UNL     1      12.556  -1.110  16.711  1.00  0.00    -0.200 F 
ATOM     80  F   UNL     1      11.137  -2.896  18.206  1.00  0.00    -0.200 F 
ENDBRANCH  56  70
BRANCH  57  81
ATOM     81  C   UNL     1      18.995  -7.313   7.308  1.00  0.00     0.064 A 
ATOM     82  C   UNL     1      19.976  -8.305   7.452  1.00  0.00     0.173 A 
ATOM     83  C   UNL     1      18.805  -6.766   6.030  1.00  0.00     0.173 A 
ATOM     84  F   UNL     1      20.209  -8.846   8.657  1.00  0.00    -0.203 F 
ATOM     85  C   UNL     1      20.750  -8.716   6.369  1.00  0.00     0.198 A 
ATOM     86  C   UNL     1      19.556  -7.203   4.941  1.00  0.00     0.198 A 
ATOM     87  F   UNL     1      17.876  -5.819   5.836  1.00  0.00    -0.203 F 
ATOM     88  F   UNL     1      21.715  -9.629   6.546  1.00  0.00    -0.200 F 
ATOM     89  C   UNL     1      20.534  -8.170   5.113  1.00  0.00     0.200 A 
ATOM     90  F   UNL     1      19.330  -6.686   3.725  1.00  0.00    -0.200 F 
ATOM     91  F   UNL     1      21.273  -8.570   4.070  1.00  0.00    -0.200 F 
ENDBRANCH  57  81
BRANCH  69  92
ATOM     92  C   UNL     1      20.577  -4.058  13.272  1.00  0.00     0.064 A 
ATOM     93  C   UNL     1      21.299  -2.986  12.727  1.00  0.00     0.173 A 
ATOM     94  C   UNL     1      21.093  -4.673  14.425  1.00  0.00     0.173 A 
ATOM     95  F   UNL     1      20.860  -2.369  11.619  1.00  0.00    -0.203 F 
ATOM     96  C   UNL     1      22.504  -2.573  13.290  1.00  0.00     0.198 A 
ATOM     97  C   UNL     1      22.275  -4.230  15.010  1.00  0.00     0.198 A 
ATOM     98  F   UNL     1      20.440  -5.697  14.996  1.00  0.00    -0.203 F 
ATOM     99  F   UNL     1      23.208  -1.589  12.713  1.00  0.00    -0.200 F 
ATOM    100  C   UNL     1      22.986  -3.189  14.435  1.00  0.00     0.200 A 
ATOM    101  F   UNL     1      22.727  -4.813  16.129  1.00  0.00    -0.200 F 
ATOM    102  F   UNL     1      24.141  -2.783  14.981  1.00  0.00    -0.200 F 
ENDBRANCH  69  92
ENDBRANCH  43  44
ENDBRANCH  35  38
ENDBRANCH  33  34
ENDBRANCH  32  33
ENDBRANCH  31  32
ENDBRANCH   1  31
TORSDOF 17
