REMARK SMILES COc1ccc(C(=O)c2ccccc2)cc1[C@@H](C)C(=O)NCCCCCCNC(=O)c1ccc(-c2c3nc(c(-c4c(F)c(F)c(F)c(F)c4F)c4ccc([nH]4)c(-c4c(F)c(F)c(F)c(F)c4F)c4nc(c(-c5c(F)c(F)c(F)c(F)c5F)c5ccc2[nH]5)C=C4)C=C3)cc1
REMARK SMILES IDX 24 1 23 2 22 3 21 4 19 5 20 6 17 8 18 9 16 10 3 11 4 12 5 13
REMARK SMILES IDX 15 14 6 15 2 16 1 17 7 18 8 19 9 20 10 21 14 22 11 23 13 24
REMARK SMILES IDX 12 25 25 26 26 27 27 28 28 29 29 30 30 32 31 33 32 34 93 35
REMARK SMILES IDX 33 36 92 37 34 38 35 39 36 40 86 41 37 42 91 43 85 44 87 45
REMARK SMILES IDX 38 46 90 47 84 48 83 49 39 51 71 52 51 53 70 54 52 55 55 56
REMARK SMILES IDX 69 57 88 58 53 59 54 60 68 62 89 63 56 64 40 65 41 66 49 67
REMARK SMILES IDX 42 68 43 69 47 70 50 71 44 72 45 73 48 74 46 75 72 76 73 77
REMARK SMILES IDX 81 78 74 79 75 80 79 81 82 82 76 83 77 84 80 85 78 86 57 87
REMARK SMILES IDX 58 88 66 89 59 90 60 91 64 92 67 93 61 94 62 95 65 96 63 97
REMARK H PARENT 21 7 28 31 87 50 55 61
REMARK Flexibility Score: inf
ROOT
ATOM      1  C   UNL     1       4.927  -4.597   4.533  1.00  0.00     0.002 C 
ENDROOT
BRANCH   1   2
ATOM      2  C   UNL     1       4.504  -3.132   4.389  1.00  0.00     0.021 C 
BRANCH   2   3
ATOM      3  C   UNL     1       5.140  -2.370   3.220  1.00  0.00     0.116 C 
BRANCH   3   4
ATOM      4  N   UNL     1       4.416  -2.578   1.979  1.00  0.00    -0.356 N 
ATOM      5  C   UNL     1       3.590  -1.798   1.232  1.00  0.00     0.227 C 
ATOM      6  O   UNL     1       3.082  -2.349   0.245  1.00  0.00    -0.274 OA
ATOM      7  H   UNL     1       4.552  -3.475   1.596  1.00  0.00     0.163 HD
BRANCH   5   8
ATOM      8  C   UNL     1       3.236  -0.331   1.538  1.00  0.00     0.109 C 
ATOM      9  C   UNL     1       4.404   0.604   1.844  1.00  0.00     0.023 C 
BRANCH   8  10
ATOM     10  C   UNL     1       2.058  -0.183   2.492  1.00  0.00     0.007 A 
ATOM     11  C   UNL     1       0.789   0.238   2.063  1.00  0.00     0.122 A 
ATOM     12  C   UNL     1      -0.278   0.342   2.962  1.00  0.00     0.047 A 
ATOM     13  C   UNL     1      -0.094   0.036   4.311  1.00  0.00     0.016 A 
ATOM     14  C   UNL     1       2.220  -0.460   3.861  1.00  0.00     0.020 A 
ATOM     15  C   UNL     1       1.168  -0.338   4.777  1.00  0.00     0.023 A 
BRANCH  11  16
ATOM     16  O   UNL     1       0.571   0.719   0.800  1.00  0.00    -0.496 OA
ATOM     17  C   UNL     1       0.381  -0.316  -0.165  1.00  0.00     0.278 C 
ENDBRANCH  11  16
BRANCH  15  18
ATOM     18  C   UNL     1       1.331  -0.637   6.229  1.00  0.00     0.193 C 
ATOM     19  O   UNL     1       0.333  -0.857   6.912  1.00  0.00    -0.289 OA
BRANCH  18  20
ATOM     20  C   UNL     1       2.658  -0.724   6.892  1.00  0.00     0.022 A 
ATOM     21  C   UNL     1       2.827  -1.715   7.864  1.00  0.00     0.012 A 
ATOM     22  C   UNL     1       3.706   0.166   6.623  1.00  0.00     0.012 A 
ATOM     23  C   UNL     1       4.039  -1.831   8.540  1.00  0.00     0.001 A 
ATOM     24  C   UNL     1       4.931   0.025   7.284  1.00  0.00     0.001 A 
ATOM     25  C   UNL     1       5.097  -0.974   8.242  1.00  0.00     0.000 A 
ENDBRANCH  18  20
ENDBRANCH  15  18
ENDBRANCH   8  10
ENDBRANCH   5   8
ENDBRANCH   3   4
ENDBRANCH   2   3
ENDBRANCH   1   2
BRANCH   1  26
ATOM     26  C   UNL     1       6.404  -4.847   4.869  1.00  0.00     0.002 C 
BRANCH  26  27
ATOM     27  C   UNL     1       6.975  -4.074   6.065  1.00  0.00     0.021 C 
BRANCH  27  28
ATOM     28  C   UNL     1       6.348  -4.389   7.426  1.00  0.00     0.116 C 
BRANCH  28  29
ATOM     29  N   UNL     1       6.771  -5.673   7.958  1.00  0.00    -0.352 N 
ATOM     30  C   UNL     1       7.249  -6.002   9.206  1.00  0.00     0.251 C 
ATOM     31  H   UNL     1       6.705  -6.426   7.327  1.00  0.00     0.163 HD
ATOM     32  O   UNL     1       7.691  -7.129   9.406  1.00  0.00    -0.269 OA
BRANCH  30  33
ATOM     33  C   UNL     1       7.263  -5.016  10.318  1.00  0.00     0.039 A 
ATOM     34  C   UNL     1       8.390  -4.945  11.139  1.00  0.00     0.014 A 
ATOM     35  C   UNL     1       6.156  -4.218  10.614  1.00  0.00     0.014 A 
ATOM     36  C   UNL     1       8.424  -4.049  12.216  1.00  0.00     0.010 A 
ATOM     37  C   UNL     1       6.215  -3.273  11.649  1.00  0.00     0.010 A 
ATOM     38  C   UNL     1       7.348  -3.181  12.473  1.00  0.00    -0.014 A 
BRANCH  38  39
ATOM     39  C   UNL     1       7.433  -2.195  13.593  1.00  0.00     0.031 A 
ATOM     40  C   UNL     1       6.512  -2.268  14.785  1.00  0.00     0.074 A 
ATOM     41  C   UNL     1       8.357  -1.213  13.551  1.00  0.00     0.049 A 
ATOM     42  N   UNL     1       6.525  -1.552  15.886  1.00  0.00    -0.248 NA
ATOM     43  C   UNL     1       5.423  -3.252  14.729  1.00  0.00     0.031 C 
ATOM     44  C   UNL     1       9.271  -0.962  12.437  1.00  0.00     0.029 A 
ATOM     45  N   UNL     1       8.689  -0.250  14.476  1.00  0.00    -0.354 N 
ATOM     46  C   UNL     1       5.450  -1.996  16.646  1.00  0.00     0.074 A 
ATOM     47  C   UNL     1       4.772  -3.004  15.858  1.00  0.00     0.031 C 
ATOM     48  C   UNL     1      10.086   0.056  12.758  1.00  0.00     0.029 A 
ATOM     49  C   UNL     1       9.742   0.544  14.092  1.00  0.00     0.049 A 
ATOM     50  H   UNL     1       8.216  -0.140  15.332  1.00  0.00     0.167 HD
ATOM     51  C   UNL     1       5.074  -1.622  17.895  1.00  0.00     0.037 A 
ATOM     52  C   UNL     1      10.377   1.540  14.741  1.00  0.00     0.037 A 
ATOM     53  C   UNL     1       5.753  -0.642  18.704  1.00  0.00     0.049 A 
ATOM     54  C   UNL     1       9.966   1.912  16.139  1.00  0.00     0.074 A 
ATOM     55  C   UNL     1       5.489  -0.272  20.013  1.00  0.00     0.029 A 
ATOM     56  N   UNL     1       6.823   0.130  18.282  1.00  0.00    -0.354 N 
ATOM     57  N   UNL     1       9.018   1.404  16.886  1.00  0.00    -0.248 NA
ATOM     58  C   UNL     1      10.728   2.988  16.790  1.00  0.00     0.031 C 
ATOM     59  C   UNL     1       6.371   0.755  20.368  1.00  0.00     0.029 A 
ATOM     60  C   UNL     1       7.215   0.993  19.296  1.00  0.00     0.049 A 
ATOM     61  H   UNL     1       7.244   0.075  17.394  1.00  0.00     0.167 HD
ATOM     62  C   UNL     1       9.082   2.080  18.098  1.00  0.00     0.074 A 
ATOM     63  C   UNL     1      10.178   3.021  17.995  1.00  0.00     0.031 C 
ATOM     64  C   UNL     1       8.300   1.933  19.195  1.00  0.00     0.037 A 
BRANCH  51  65
ATOM     65  C   UNL     1       3.864  -2.292  18.483  1.00  0.00     0.064 A 
ATOM     66  C   UNL     1       3.896  -3.634  18.891  1.00  0.00     0.173 A 
ATOM     67  C   UNL     1       2.680  -1.570  18.694  1.00  0.00     0.173 A 
ATOM     68  F   UNL     1       5.003  -4.369  18.708  1.00  0.00    -0.203 F 
ATOM     69  C   UNL     1       2.777  -4.237  19.460  1.00  0.00     0.198 A 
ATOM     70  C   UNL     1       1.572  -2.168  19.289  1.00  0.00     0.198 A 
ATOM     71  F   UNL     1       2.601  -0.280  18.334  1.00  0.00    -0.203 F 
ATOM     72  F   UNL     1       2.817  -5.532  19.801  1.00  0.00    -0.200 F 
ATOM     73  C   UNL     1       1.619  -3.502  19.665  1.00  0.00     0.200 A 
ATOM     74  F   UNL     1       0.459  -1.452  19.501  1.00  0.00    -0.200 F 
ATOM     75  F   UNL     1       0.546  -4.082  20.220  1.00  0.00    -0.200 F 
ENDBRANCH  51  65
BRANCH  52  76
ATOM     76  C   UNL     1      11.515   2.236  14.085  1.00  0.00     0.064 A 
ATOM     77  C   UNL     1      12.831   2.039  14.527  1.00  0.00     0.173 A 
ATOM     78  C   UNL     1      11.307   3.117  13.015  1.00  0.00     0.173 A 
ATOM     79  F   UNL     1      13.074   1.224  15.563  1.00  0.00    -0.203 F 
ATOM     80  C   UNL     1      13.896   2.712  13.932  1.00  0.00     0.198 A 
ATOM     81  C   UNL     1      12.376   3.768  12.404  1.00  0.00     0.198 A 
ATOM     82  F   UNL     1      10.066   3.335  12.555  1.00  0.00    -0.203 F 
ATOM     83  F   UNL     1      15.139   2.539  14.400  1.00  0.00    -0.200 F 
ATOM     84  C   UNL     1      13.668   3.571  12.868  1.00  0.00     0.200 A 
ATOM     85  F   UNL     1      12.154   4.588  11.368  1.00  0.00    -0.200 F 
ATOM     86  F   UNL     1      14.694   4.215  12.293  1.00  0.00    -0.200 F 
ENDBRANCH  52  76
BRANCH  64  87
ATOM     87  C   UNL     1       8.611   2.797  20.384  1.00  0.00     0.064 A 
ATOM     88  C   UNL     1       8.354   4.177  20.379  1.00  0.00     0.173 A 
ATOM     89  C   UNL     1       9.158   2.238  21.549  1.00  0.00     0.173 A 
ATOM     90  F   UNL     1       7.846   4.764  19.285  1.00  0.00    -0.203 F 
ATOM     91  C   UNL     1       8.663   4.968  21.482  1.00  0.00     0.198 A 
ATOM     92  C   UNL     1       9.439   3.028  22.662  1.00  0.00     0.198 A 
ATOM     93  F   UNL     1       9.419   0.924  21.611  1.00  0.00    -0.203 F 
ATOM     94  F   UNL     1       8.459   6.292  21.433  1.00  0.00    -0.200 F 
ATOM     95  C   UNL     1       9.200   4.393  22.624  1.00  0.00     0.200 A 
ATOM     96  F   UNL     1       9.949   2.469  23.768  1.00  0.00    -0.200 F 
ATOM     97  F   UNL     1       9.498   5.157  23.684  1.00  0.00    -0.200 F 
ENDBRANCH  64  87
ENDBRANCH  38  39
ENDBRANCH  30  33
ENDBRANCH  28  29
ENDBRANCH  27  28
ENDBRANCH  26  27
ENDBRANCH   1  26
TORSDOF 17
