REMARK SMILES CN(C)C(=O)C[NH+]1CCN(c2cc(C(=O)NCCCCCCNC(=O)c3ccc(-c4c5nc(c(-c6c(F)c(F)c(F)c(F)c6F)c6ccc([nH]6)c(-c6c(F)c(F)c(F)c(F)c6F)c6nc(c(-c7c(F)c(F)c(F)c(F)c7F)c7ccc4[nH]7)C=C6)C=C5)cc3)c3cc(NC(=O)c4cccc(Cl)c4)ccc3n2)CC1
REMARK SMILES IDX 19 1 18 2 17 3 16 4 14 5 15 6 13 8 11 9 12 10 105 11 104 12
REMARK SMILES IDX 89 13 103 14 90 15 102 16 91 17 10 18 7 19 8 20 107 21 9 23
REMARK SMILES IDX 106 24 6 25 4 26 1 27 2 28 3 29 5 30 92 31 93 32 94 34 95 35
REMARK SMILES IDX 96 36 101 37 97 38 99 39 98 40 100 41 20 42 21 43 22 44
REMARK SMILES IDX 23 45 24 46 25 48 26 49 27 50 88 51 28 52 87 53 29 54 30 55
REMARK SMILES IDX 31 56 81 57 32 58 86 59 80 60 82 61 33 62 85 63 79 64 78 65
REMARK SMILES IDX 34 67 66 68 46 69 65 70 47 71 50 72 64 73 83 74 48 75 49 76
REMARK SMILES IDX 63 78 84 79 51 80 35 81 36 82 44 83 37 84 38 85 42 86 45 87
REMARK SMILES IDX 39 88 40 89 43 90 41 91 67 92 68 93 76 94 69 95 70 96 74 97
REMARK SMILES IDX 77 98 71 99 72 100 75 101 73 102 52 103 53 104 61 105 54 106
REMARK SMILES IDX 55 107 59 108 62 109 56 110 57 111 60 112 58 113
REMARK H PARENT 16 7 7 22 92 33 23 47 82 66 50 77
REMARK Flexibility Score: inf
ROOT
ATOM      1  C   UNL     1       9.419  -1.794   4.091  1.00  0.00     0.002 C 
ENDROOT
BRANCH   1   2
ATOM      2  C   UNL     1       9.090  -2.273   2.667  1.00  0.00     0.021 C 
BRANCH   2   3
ATOM      3  C   UNL     1       7.657  -2.702   2.336  1.00  0.00     0.116 C 
BRANCH   3   4
ATOM      4  N   UNL     1       6.650  -1.653   2.397  1.00  0.00    -0.352 N 
ATOM      5  C   UNL     1       5.463  -1.442   1.717  1.00  0.00     0.252 C 
ATOM      6  O   UNL     1       4.802  -0.455   2.050  1.00  0.00    -0.269 OA
ATOM      7  H   UNL     1       6.855  -0.951   3.056  1.00  0.00     0.163 HD
BRANCH   5   8
ATOM      8  C   UNL     1       4.931  -2.283   0.593  1.00  0.00     0.052 A 
ATOM      9  C   UNL     1       3.681  -2.270  -1.494  1.00  0.00     0.130 A 
ATOM     10  C   UNL     1       4.313  -1.581  -0.462  1.00  0.00     0.061 A 
ATOM     11  N   UNL     1       3.749  -3.615  -1.542  1.00  0.00    -0.231 NA
ATOM     12  C   UNL     1       4.319  -4.306  -0.550  1.00  0.00     0.074 A 
ATOM     13  C   UNL     1       4.854  -3.690   0.590  1.00  0.00     0.015 A 
ATOM     14  C   UNL     1       4.336  -5.692  -0.640  1.00  0.00     0.031 A 
ATOM     15  C   UNL     1       5.208  -4.520   1.669  1.00  0.00     0.037 A 
ATOM     16  C   UNL     1       4.789  -6.500   0.409  1.00  0.00     0.028 A 
ATOM     17  C   UNL     1       5.165  -5.911   1.608  1.00  0.00     0.042 A 
BRANCH   9  18
ATOM     18  N   UNL     1       2.924  -1.653  -2.479  1.00  0.00    -0.345 N 
ATOM     19  N   UNL     1       0.956  -0.308  -4.251  1.00  0.00    -0.324 N 
ATOM     20  C   UNL     1       2.343   0.168  -4.093  1.00  0.00     0.284 C 
ATOM     21  C   UNL     1       0.874  -1.739  -3.941  1.00  0.00     0.284 C 
ATOM     22  H   UNL     1       0.712  -0.215  -5.237  1.00  0.00     0.348 HD
ATOM     23  C   UNL     1       3.079  -0.229  -2.785  1.00  0.00     0.179 C 
ATOM     24  C   UNL     1       1.583  -2.236  -2.663  1.00  0.00     0.179 C 
BRANCH  19  25
ATOM     25  C   UNL     1      -0.083   0.553  -3.657  1.00  0.00     0.363 C 
BRANCH  25  26
ATOM     26  C   UNL     1       0.176   0.972  -2.206  1.00  0.00     0.277 C 
ATOM     27  C   UNL     1       0.083   0.515   0.185  1.00  0.00     0.146 C 
ATOM     28  N   UNL     1      -0.367   0.226  -1.168  1.00  0.00    -0.344 N 
ATOM     29  C   UNL     1      -1.518  -0.654  -1.283  1.00  0.00     0.146 C 
ATOM     30  O   UNL     1       0.905   1.946  -1.985  1.00  0.00    -0.268 OA
ENDBRANCH  25  26
ENDBRANCH  19  25
ENDBRANCH   9  18
BRANCH  17  31
ATOM     31  N   UNL     1       5.521  -6.738   2.691  1.00  0.00    -0.322 N 
ATOM     32  C   UNL     1       5.638  -6.446   4.038  1.00  0.00     0.255 C 
ATOM     33  H   UNL     1       5.718  -7.672   2.452  1.00  0.00     0.170 HD
ATOM     34  O   UNL     1       6.289  -7.176   4.782  1.00  0.00    -0.269 OA
BRANCH  32  35
ATOM     35  C   UNL     1       4.952  -5.263   4.612  1.00  0.00     0.041 A 
ATOM     36  C   UNL     1       5.698  -4.359   5.375  1.00  0.00     0.014 A 
ATOM     37  C   UNL     1       3.614  -4.990   4.309  1.00  0.00     0.034 A 
ATOM     38  C   UNL     1       5.149  -3.126   5.729  1.00  0.00     0.002 A 
ATOM     39  C   UNL     1       3.071  -3.759   4.673  1.00  0.00     0.041 A 
ATOM     40  C   UNL     1       3.840  -2.818   5.358  1.00  0.00     0.020 A 
ATOM     41  Cl  UNL     1       1.456  -3.377   4.223  1.00  0.00    -0.084 Cl
ENDBRANCH  32  35
ENDBRANCH  17  31
ENDBRANCH   5   8
ENDBRANCH   3   4
ENDBRANCH   2   3
ENDBRANCH   1   2
BRANCH   1  42
ATOM     42  C   UNL     1       9.164  -2.704   5.303  1.00  0.00     0.002 C 
BRANCH  42  43
ATOM     43  C   UNL     1       9.414  -4.207   5.177  1.00  0.00     0.021 C 
BRANCH  43  44
ATOM     44  C   UNL     1      10.834  -4.652   4.852  1.00  0.00     0.116 C 
BRANCH  44  45
ATOM     45  N   UNL     1      11.741  -4.542   5.983  1.00  0.00    -0.352 N 
ATOM     46  C   UNL     1      12.434  -5.507   6.677  1.00  0.00     0.251 C 
ATOM     47  H   UNL     1      11.882  -3.623   6.307  1.00  0.00     0.163 HD
ATOM     48  O   UNL     1      13.034  -5.191   7.702  1.00  0.00    -0.269 OA
BRANCH  46  49
ATOM     49  C   UNL     1      12.477  -6.923   6.228  1.00  0.00     0.039 A 
ATOM     50  C   UNL     1      12.466  -7.936   7.197  1.00  0.00     0.014 A 
ATOM     51  C   UNL     1      12.617  -7.269   4.882  1.00  0.00     0.014 A 
ATOM     52  C   UNL     1      12.550  -9.282   6.817  1.00  0.00     0.010 A 
ATOM     53  C   UNL     1      12.631  -8.611   4.498  1.00  0.00     0.010 A 
ATOM     54  C   UNL     1      12.618  -9.631   5.461  1.00  0.00    -0.014 A 
BRANCH  54  55
ATOM     55  C   UNL     1      12.738 -11.048   5.023  1.00  0.00     0.031 A 
ATOM     56  C   UNL     1      13.997 -11.514   4.343  1.00  0.00     0.074 A 
ATOM     57  C   UNL     1      11.701 -11.895   5.169  1.00  0.00     0.049 A 
ATOM     58  N   UNL     1      14.260 -12.665   3.776  1.00  0.00    -0.248 NA
ATOM     59  C   UNL     1      15.099 -10.543   4.265  1.00  0.00     0.031 C 
ATOM     60  C   UNL     1      10.416 -11.560   5.782  1.00  0.00     0.029 A 
ATOM     61  N   UNL     1      11.559 -13.208   4.792  1.00  0.00    -0.354 N 
ATOM     62  C   UNL     1      15.541 -12.546   3.252  1.00  0.00     0.074 A 
ATOM     63  C   UNL     1      15.989 -11.199   3.534  1.00  0.00     0.031 C 
ATOM     64  C   UNL     1       9.618 -12.640   5.745  1.00  0.00     0.029 A 
ATOM     65  C   UNL     1      10.321 -13.731   5.075  1.00  0.00     0.049 A 
ATOM     66  H   UNL     1      12.276 -13.725   4.359  1.00  0.00     0.167 HD
ATOM     67  C   UNL     1      16.285 -13.479   2.612  1.00  0.00     0.037 A 
ATOM     68  C   UNL     1       9.807 -14.948   4.811  1.00  0.00     0.037 A 
ATOM     69  C   UNL     1      15.856 -14.831   2.370  1.00  0.00     0.049 A 
ATOM     70  C   UNL     1      10.655 -15.970   4.103  1.00  0.00     0.074 A 
ATOM     71  C   UNL     1      16.564 -15.873   1.797  1.00  0.00     0.029 A 
ATOM     72  N   UNL     1      14.602 -15.329   2.692  1.00  0.00    -0.354 N 
ATOM     73  N   UNL     1      11.883 -15.862   3.658  1.00  0.00    -0.248 NA
ATOM     74  C   UNL     1      10.044 -17.285   3.860  1.00  0.00     0.031 C 
ATOM     75  C   UNL     1      15.725 -16.992   1.738  1.00  0.00     0.029 A 
ATOM     76  C   UNL     1      14.508 -16.657   2.310  1.00  0.00     0.049 A 
ATOM     77  H   UNL     1      13.885 -14.814   3.128  1.00  0.00     0.167 HD
ATOM     78  C   UNL     1      12.198 -17.093   3.099  1.00  0.00     0.074 A 
ATOM     79  C   UNL     1      11.038 -17.941   3.277  1.00  0.00     0.031 C 
ATOM     80  C   UNL     1      13.344 -17.484   2.491  1.00  0.00     0.037 A 
BRANCH  67  81
ATOM     81  C   UNL     1      17.646 -13.071   2.128  1.00  0.00     0.064 A 
ATOM     82  C   UNL     1      18.705 -12.840   3.019  1.00  0.00     0.173 A 
ATOM     83  C   UNL     1      17.904 -12.942   0.755  1.00  0.00     0.173 A 
ATOM     84  F   UNL     1      18.508 -12.939   4.342  1.00  0.00    -0.203 F 
ATOM     85  C   UNL     1      19.964 -12.467   2.554  1.00  0.00     0.198 A 
ATOM     86  C   UNL     1      19.171 -12.596   0.293  1.00  0.00     0.198 A 
ATOM     87  F   UNL     1      16.928 -13.158  -0.140  1.00  0.00    -0.203 F 
ATOM     88  F   UNL     1      20.948 -12.205   3.426  1.00  0.00    -0.200 F 
ATOM     89  C   UNL     1      20.198 -12.351   1.192  1.00  0.00     0.200 A 
ATOM     90  F   UNL     1      19.398 -12.496  -1.024  1.00  0.00    -0.200 F 
ATOM     91  F   UNL     1      21.411 -11.997   0.747  1.00  0.00    -0.200 F 
ENDBRANCH  67  81
BRANCH  68  92
ATOM     92  C   UNL     1       8.419 -15.272   5.231  1.00  0.00     0.064 A 
ATOM     93  C   UNL     1       8.178 -16.164   6.285  1.00  0.00     0.173 A 
ATOM     94  C   UNL     1       7.310 -14.698   4.594  1.00  0.00     0.173 A 
ATOM     95  F   UNL     1       9.206 -16.759   6.907  1.00  0.00    -0.203 F 
ATOM     96  C   UNL     1       6.878 -16.480   6.677  1.00  0.00     0.198 A 
ATOM     97  C   UNL     1       6.012 -14.995   5.003  1.00  0.00     0.198 A 
ATOM     98  F   UNL     1       7.488 -13.840   3.578  1.00  0.00    -0.203 F 
ATOM     99  F   UNL     1       6.675 -17.366   7.661  1.00  0.00    -0.200 F 
ATOM    100  C   UNL     1       5.797 -15.890   6.041  1.00  0.00     0.200 A 
ATOM    101  F   UNL     1       4.969 -14.417   4.391  1.00  0.00    -0.200 F 
ATOM    102  F   UNL     1       4.548 -16.190   6.421  1.00  0.00    -0.200 F 
ENDBRANCH  68  92
BRANCH  80 103
ATOM    103  C   UNL     1      13.402 -18.894   1.982  1.00  0.00     0.064 A 
ATOM    104  C   UNL     1      12.708 -19.283   0.828  1.00  0.00     0.173 A 
ATOM    105  C   UNL     1      14.193 -19.854   2.631  1.00  0.00     0.173 A 
ATOM    106  F   UNL     1      11.927 -18.404   0.182  1.00  0.00    -0.203 F 
ATOM    107  C   UNL     1      12.787 -20.589   0.352  1.00  0.00     0.198 A 
ATOM    108  C   UNL     1      14.290 -21.152   2.139  1.00  0.00     0.198 A 
ATOM    109  F   UNL     1      14.881 -19.529   3.736  1.00  0.00    -0.203 F 
ATOM    110  F   UNL     1      12.084 -20.950  -0.730  1.00  0.00    -0.200 F 
ATOM    111  C   UNL     1      13.583 -21.520   1.004  1.00  0.00     0.200 A 
ATOM    112  F   UNL     1      15.067 -22.048   2.763  1.00  0.00    -0.200 F 
ATOM    113  F   UNL     1      13.663 -22.775   0.541  1.00  0.00    -0.200 F 
ENDBRANCH  80 103
ENDBRANCH  54  55
ENDBRANCH  46  49
ENDBRANCH  44  45
ENDBRANCH  43  44
ENDBRANCH  42  43
ENDBRANCH   1  42
TORSDOF 18
