REMARK SMILES COc1cc(Cl)c(C)cc1N1C(=O)C[C@H](Nc2cc(C(=O)NCCCCCCNC(=O)c3ccc(-c4c5nc(c(-c6c(F)c(F)c(F)c(F)c6F)c6ccc([nH]6)c(-c6c(F)c(F)c(F)c(F)c6F)c6nc(c(-c7c(F)c(F)c(F)c(F)c7F)c7ccc4[nH]7)C=C6)C=C5)cc3)ccc2C)C1=O
REMARK SMILES IDX 24 1 23 2 22 3 20 4 21 5 19 7 17 8 18 9 97 10 96 11 98 12
REMARK SMILES IDX 95 13 16 14 15 16 11 17 12 18 99 19 13 20 14 21 100 22 10 23
REMARK SMILES IDX 3 24 4 25 5 26 9 27 6 28 7 29 8 30 2 31 1 32 25 33 26 34
REMARK SMILES IDX 27 35 28 36 29 37 30 38 31 40 32 41 33 42 94 43 34 44 93 45
REMARK SMILES IDX 35 46 36 47 37 48 87 49 38 50 92 51 86 52 88 53 39 54 91 55
REMARK SMILES IDX 85 56 84 57 40 59 72 60 52 61 71 62 53 63 56 64 70 65 89 66
REMARK SMILES IDX 54 67 55 68 69 70 90 71 57 72 41 73 42 74 50 75 43 76 44 77
REMARK SMILES IDX 48 78 51 79 45 80 46 81 49 82 47 83 73 84 74 85 82 86 75 87
REMARK SMILES IDX 76 88 80 89 83 90 77 91 78 92 81 93 79 94 58 95 59 96 67 97
REMARK SMILES IDX 60 98 61 99 65 100 68 101 62 102 63 103 66 104 64 105
REMARK H PARENT 22 6 16 15 29 39 88 58 56 69
REMARK Flexibility Score: inf
ROOT
ATOM      1  C   UNL     1       2.928   5.605   1.258  1.00  0.00     0.021 C 
ENDROOT
BRANCH   1   2
ATOM      2  C   UNL     1       3.398   4.680   0.137  1.00  0.00     0.116 C 
BRANCH   2   3
ATOM      3  N   UNL     1       3.699   5.346  -1.116  1.00  0.00    -0.352 N 
ATOM      4  C   UNL     1       4.625   5.045  -2.090  1.00  0.00     0.251 C 
ATOM      5  O   UNL     1       4.685   5.771  -3.082  1.00  0.00    -0.269 OA
ATOM      6  H   UNL     1       3.152   6.144  -1.300  1.00  0.00     0.163 HD
BRANCH   4   7
ATOM      7  C   UNL     1       5.586   3.912  -1.968  1.00  0.00     0.041 A 
ATOM      8  C   UNL     1       6.250   1.714  -1.130  1.00  0.00     0.038 A 
ATOM      9  C   UNL     1       5.278   2.704  -1.335  1.00  0.00     0.039 A 
ATOM     10  C   UNL     1       7.539   1.909  -1.663  1.00  0.00    -0.028 A 
ATOM     11  C   UNL     1       7.817   3.070  -2.400  1.00  0.00     0.006 A 
ATOM     12  C   UNL     1       8.612   0.855  -1.562  1.00  0.00     0.046 C 
ATOM     13  C   UNL     1       6.854   4.071  -2.535  1.00  0.00     0.014 A 
BRANCH   8  14
ATOM     14  N   UNL     1       6.000   0.612  -0.324  1.00  0.00    -0.373 N 
ATOM     15  H   UNL     1       6.718   0.293   0.269  1.00  0.00     0.161 HD
BRANCH  14  16
ATOM     16  C   UNL     1       4.726  -0.095  -0.313  1.00  0.00     0.179 C 
ATOM     17  N   UNL     1       3.380  -0.960   1.395  1.00  0.00    -0.245 N 
ATOM     18  C   UNL     1       4.010  -2.047   0.844  1.00  0.00     0.236 C 
ATOM     19  C   UNL     1       3.846   0.232   0.886  1.00  0.00     0.256 C 
ATOM     20  O   UNL     1       3.827  -3.230   1.095  1.00  0.00    -0.274 OA
ATOM     21  C   UNL     1       4.995  -1.583  -0.179  1.00  0.00     0.136 C 
ATOM     22  O   UNL     1       3.642   1.362   1.314  1.00  0.00    -0.272 OA
BRANCH  17  23
ATOM     23  C   UNL     1       2.376  -1.068   2.385  1.00  0.00     0.094 A 
ATOM     24  C   UNL     1       1.174  -0.347   2.306  1.00  0.00     0.144 A 
ATOM     25  C   UNL     1       0.192  -0.493   3.291  1.00  0.00     0.069 A 
ATOM     26  C   UNL     1       0.396  -1.364   4.363  1.00  0.00     0.047 A 
ATOM     27  C   UNL     1       2.558  -1.950   3.464  1.00  0.00     0.035 A 
ATOM     28  Cl  UNL     1      -0.870  -1.525   5.526  1.00  0.00    -0.084 Cl
ATOM     29  C   UNL     1       1.591  -2.087   4.476  1.00  0.00    -0.030 A 
ATOM     30  C   UNL     1       1.864  -3.003   5.638  1.00  0.00     0.046 C 
BRANCH  24  31
ATOM     31  O   UNL     1       0.872   0.505   1.275  1.00  0.00    -0.495 OA
ATOM     32  C   UNL     1       0.555  -0.199   0.072  1.00  0.00     0.278 C 
ENDBRANCH  24  31
ENDBRANCH  17  23
ENDBRANCH  14  16
ENDBRANCH   8  14
ENDBRANCH   4   7
ENDBRANCH   2   3
ENDBRANCH   1   2
BRANCH   1  33
ATOM     33  C   UNL     1       1.669   6.445   1.019  1.00  0.00     0.002 C 
BRANCH  33  34
ATOM     34  C   UNL     1       0.410   5.739   0.496  1.00  0.00     0.002 C 
BRANCH  34  35
ATOM     35  C   UNL     1       0.000   4.433   1.176  1.00  0.00     0.021 C 
BRANCH  35  36
ATOM     36  C   UNL     1      -0.349   4.541   2.654  1.00  0.00     0.116 C 
BRANCH  36  37
ATOM     37  N   UNL     1      -1.752   4.815   2.938  1.00  0.00    -0.352 N 
ATOM     38  C   UNL     1      -2.383   5.021   4.159  1.00  0.00     0.251 C 
ATOM     39  H   UNL     1      -2.339   4.862   2.149  1.00  0.00     0.163 HD
ATOM     40  O   UNL     1      -3.585   5.180   4.212  1.00  0.00    -0.269 OA
BRANCH  38  41
ATOM     41  C   UNL     1      -1.556   5.179   5.386  1.00  0.00     0.039 A 
ATOM     42  C   UNL     1      -1.847   6.249   6.244  1.00  0.00     0.014 A 
ATOM     43  C   UNL     1      -0.404   4.427   5.580  1.00  0.00     0.014 A 
ATOM     44  C   UNL     1      -0.863   6.716   7.114  1.00  0.00     0.010 A 
ATOM     45  C   UNL     1       0.612   4.956   6.348  1.00  0.00     0.010 A 
ATOM     46  C   UNL     1       0.404   6.138   7.065  1.00  0.00    -0.014 A 
BRANCH  46  47
ATOM     47  C   UNL     1       1.601   6.761   7.617  1.00  0.00     0.031 A 
ATOM     48  C   UNL     1       2.289   6.178   8.788  1.00  0.00     0.074 A 
ATOM     49  C   UNL     1       2.166   7.791   6.946  1.00  0.00     0.049 A 
ATOM     50  N   UNL     1       3.107   6.829   9.545  1.00  0.00    -0.248 NA
ATOM     51  C   UNL     1       2.085   4.802   9.223  1.00  0.00     0.031 C 
ATOM     52  C   UNL     1       3.521   8.312   7.111  1.00  0.00     0.029 A 
ATOM     53  N   UNL     1       1.548   8.699   6.068  1.00  0.00    -0.354 N 
ATOM     54  C   UNL     1       3.733   5.925  10.373  1.00  0.00     0.074 A 
ATOM     55  C   UNL     1       3.018   4.685  10.173  1.00  0.00     0.031 C 
ATOM     56  C   UNL     1       3.570   9.560   6.620  1.00  0.00     0.029 A 
ATOM     57  C   UNL     1       2.213   9.932   6.264  1.00  0.00     0.049 A 
ATOM     58  H   UNL     1       0.807   8.515   5.447  1.00  0.00     0.167 HD
ATOM     59  C   UNL     1       4.867   6.302  11.035  1.00  0.00     0.037 A 
ATOM     60  C   UNL     1       1.561  11.031   6.742  1.00  0.00     0.037 A 
ATOM     61  C   UNL     1       5.191   7.700  10.763  1.00  0.00     0.049 A 
ATOM     62  C   UNL     1       2.132  11.575   8.029  1.00  0.00     0.074 A 
ATOM     63  C   UNL     1       6.070   8.297   9.873  1.00  0.00     0.029 A 
ATOM     64  N   UNL     1       4.356   8.708  11.230  1.00  0.00    -0.354 N 
ATOM     65  N   UNL     1       2.885  10.880   8.835  1.00  0.00    -0.248 NA
ATOM     66  C   UNL     1       1.879  12.924   8.526  1.00  0.00     0.031 C 
ATOM     67  C   UNL     1       5.739   9.669   9.782  1.00  0.00     0.029 A 
ATOM     68  C   UNL     1       4.670   9.910  10.628  1.00  0.00     0.049 A 
ATOM     69  H   UNL     1       3.642   8.582  11.896  1.00  0.00     0.167 HD
ATOM     70  C   UNL     1       3.197  11.635   9.935  1.00  0.00     0.074 A 
ATOM     71  C   UNL     1       2.559  12.913   9.687  1.00  0.00     0.031 C 
ATOM     72  C   UNL     1       3.949  11.128  10.956  1.00  0.00     0.037 A 
BRANCH  59  73
ATOM     73  C   UNL     1       5.843   5.344  11.689  1.00  0.00     0.064 A 
ATOM     74  C   UNL     1       7.217   5.665  11.787  1.00  0.00     0.173 A 
ATOM     75  C   UNL     1       5.505   4.077  12.195  1.00  0.00     0.173 A 
ATOM     76  F   UNL     1       7.681   6.879  11.464  1.00  0.00    -0.203 F 
ATOM     77  C   UNL     1       8.178   4.749  12.225  1.00  0.00     0.198 A 
ATOM     78  C   UNL     1       6.470   3.140  12.584  1.00  0.00     0.198 A 
ATOM     79  F   UNL     1       4.229   3.724  12.393  1.00  0.00    -0.203 F 
ATOM     80  F   UNL     1       9.467   5.112  12.281  1.00  0.00    -0.200 F 
ATOM     81  C   UNL     1       7.809   3.471  12.584  1.00  0.00     0.200 A 
ATOM     82  F   UNL     1       6.088   1.911  12.962  1.00  0.00    -0.200 F 
ATOM     83  F   UNL     1       8.732   2.576  12.959  1.00  0.00    -0.200 F 
ENDBRANCH  59  73
BRANCH  60  84
ATOM     84  C   UNL     1       0.128  11.072   6.358  1.00  0.00     0.064 A 
ATOM     85  C   UNL     1      -0.187  11.247   4.998  1.00  0.00     0.173 A 
ATOM     86  C   UNL     1      -0.866  10.549   7.194  1.00  0.00     0.173 A 
ATOM     87  F   UNL     1       0.734  11.744   4.157  1.00  0.00    -0.203 F 
ATOM     88  C   UNL     1      -1.399  10.804   4.474  1.00  0.00     0.198 A 
ATOM     89  C   UNL     1      -2.083  10.114   6.666  1.00  0.00     0.198 A 
ATOM     90  F   UNL     1      -0.617  10.342   8.495  1.00  0.00    -0.203 F 
ATOM     91  F   UNL     1      -1.626  10.883   3.155  1.00  0.00    -0.200 F 
ATOM     92  C   UNL     1      -2.333  10.209   5.304  1.00  0.00     0.200 A 
ATOM     93  F   UNL     1      -2.978   9.512   7.463  1.00  0.00    -0.200 F 
ATOM     94  F   UNL     1      -3.457   9.691   4.788  1.00  0.00    -0.200 F 
ENDBRANCH  60  84
BRANCH  72  95
ATOM     95  C   UNL     1       4.163  11.752  12.315  1.00  0.00     0.064 A 
ATOM     96  C   UNL     1       3.249  12.620  12.934  1.00  0.00     0.173 A 
ATOM     97  C   UNL     1       5.261  11.354  13.119  1.00  0.00     0.173 A 
ATOM     98  F   UNL     1       2.112  12.985  12.326  1.00  0.00    -0.203 F 
ATOM     99  C   UNL     1       3.444  13.096  14.234  1.00  0.00     0.198 A 
ATOM    100  C   UNL     1       5.421  11.784  14.435  1.00  0.00     0.198 A 
ATOM    101  F   UNL     1       6.197  10.510  12.662  1.00  0.00    -0.203 F 
ATOM    102  F   UNL     1       2.561  13.953  14.765  1.00  0.00    -0.200 F 
ATOM    103  C   UNL     1       4.521  12.668  14.989  1.00  0.00     0.200 A 
ATOM    104  F   UNL     1       6.442  11.317  15.168  1.00  0.00    -0.200 F 
ATOM    105  F   UNL     1       4.675  13.088  16.251  1.00  0.00    -0.200 F 
ENDBRANCH  72  95
ENDBRANCH  46  47
ENDBRANCH  38  41
ENDBRANCH  36  37
ENDBRANCH  35  36
ENDBRANCH  34  35
ENDBRANCH  33  34
ENDBRANCH   1  33
TORSDOF 17
