REMARK SMILES N#C/C(=C/c1cccn1-c1ccc(C(=O)NCCCCCCNC(=O)c2ccc(-c3c4nc(c(-c5c(F)c(F)c(F)c(F)c5F)c5ccc([nH]5)c(-c5c(F)c(F)c(F)c(F)c5F)c5nc(c(-c6c(F)c(F)c(F)c(F)c6F)c6ccc3[nH]6)C=C5)C=C4)cc2)cc1)C(=O)Nc1ccc(O)cc1
REMARK SMILES IDX 18 1 17 2 16 3 14 4 15 5 13 7 10 8 11 9 90 10 12 11 89 12
REMARK SMILES IDX 9 13 5 14 6 15 7 16 8 17 4 18 3 19 2 20 1 21 91 22 92 23
REMARK SMILES IDX 93 24 94 26 95 27 100 28 96 29 99 30 97 31 98 32 19 34 20 35
REMARK SMILES IDX 21 36 22 37 23 38 24 39 25 41 26 42 27 43 88 44 28 45 87 46
REMARK SMILES IDX 29 47 30 48 31 49 81 50 32 51 86 52 80 53 82 54 33 55 85 56
REMARK SMILES IDX 79 57 78 58 34 60 66 61 46 62 65 63 47 64 50 65 64 66 83 67
REMARK SMILES IDX 48 68 49 69 63 71 84 72 51 73 35 74 36 75 44 76 37 77 38 78
REMARK SMILES IDX 42 79 45 80 39 81 40 82 43 83 41 84 67 85 68 86 76 87 69 88
REMARK SMILES IDX 70 89 74 90 77 91 71 92 72 93 75 94 73 95 52 96 53 97 61 98
REMARK SMILES IDX 54 99 55 100 59 101 62 102 56 103 57 104 60 105 58 106
REMARK H PARENT 16 6 93 25 98 33 23 40 82 59 50 70
REMARK Flexibility Score: inf
ROOT
ATOM      1  C   UNL     1       4.382   2.444   7.693  1.00  0.00     0.021 C 
ENDROOT
BRANCH   1   2
ATOM      2  C   UNL     1       3.945   3.392   6.574  1.00  0.00     0.116 C 
BRANCH   2   3
ATOM      3  N   UNL     1       4.909   4.467   6.449  1.00  0.00    -0.352 N 
ATOM      4  C   UNL     1       5.785   4.872   5.480  1.00  0.00     0.251 C 
ATOM      5  O   UNL     1       6.528   5.814   5.760  1.00  0.00    -0.269 OA
ATOM      6  H   UNL     1       4.941   5.039   7.249  1.00  0.00     0.163 HD
BRANCH   4   7
ATOM      7  C   UNL     1       5.846   4.300   4.108  1.00  0.00     0.039 A 
ATOM      8  C   UNL     1       5.971   3.417   1.410  1.00  0.00     0.046 A 
ATOM      9  C   UNL     1       6.507   4.656   1.779  1.00  0.00     0.027 A 
ATOM     10  C   UNL     1       5.373   2.640   2.405  1.00  0.00     0.027 A 
ATOM     11  C   UNL     1       6.417   5.100   3.106  1.00  0.00     0.016 A 
ATOM     12  C   UNL     1       5.398   3.037   3.746  1.00  0.00     0.016 A 
BRANCH   8  13
ATOM     13  N   UNL     1       6.157   2.908   0.076  1.00  0.00    -0.317 N 
ATOM     14  C   UNL     1       5.467   1.888  -0.598  1.00  0.00     0.047 A 
ATOM     15  C   UNL     1       6.078   1.690  -1.825  1.00  0.00     0.028 A 
ATOM     16  C   UNL     1       7.172   2.567  -1.916  1.00  0.00     0.020 A 
ATOM     17  C   UNL     1       7.187   3.313  -0.761  1.00  0.00     0.092 A 
BRANCH  14  18
ATOM     18  C   UNL     1       4.233   1.377  -0.132  1.00  0.00     0.052 C 
ATOM     19  C   UNL     1       3.824   0.090  -0.011  1.00  0.00     0.119 C 
BRANCH  19  20
ATOM     20  C   UNL     1       2.304   0.090  -0.011  1.00  0.00     0.105 C 
ATOM     21  N   UNL     1       1.043   0.090  -0.011  1.00  0.00    -0.192 NA
ENDBRANCH  19  20
BRANCH  19  22
ATOM     22  C   UNL     1       4.596  -1.185  -0.180  1.00  0.00     0.266 C 
ATOM     23  O   UNL     1       3.959  -2.202  -0.478  1.00  0.00    -0.268 OA
ATOM     24  N   UNL     1       5.966  -1.315  -0.146  1.00  0.00    -0.321 N 
ATOM     25  H   UNL     1       6.269  -2.129  -0.609  1.00  0.00     0.170 HD
BRANCH  24  26
ATOM     26  C   UNL     1       7.046  -0.579   0.383  1.00  0.00     0.041 A 
ATOM     27  C   UNL     1       8.214  -0.490  -0.391  1.00  0.00     0.030 A 
ATOM     28  C   UNL     1       7.045   0.019   1.641  1.00  0.00     0.030 A 
ATOM     29  C   UNL     1       9.271   0.348  -0.009  1.00  0.00     0.048 A 
ATOM     30  C   UNL     1       8.118   0.841   2.041  1.00  0.00     0.048 A 
ATOM     31  C   UNL     1       9.188   1.052   1.181  1.00  0.00     0.115 A 
BRANCH  31  32
ATOM     32  O   UNL     1      10.158   1.969   1.456  1.00  0.00    -0.508 OA
ATOM     33  H   UNL     1      10.870   2.091   0.858  1.00  0.00     0.293 HD
ENDBRANCH  31  32
ENDBRANCH  24  26
ENDBRANCH  19  22
ENDBRANCH  14  18
ENDBRANCH   8  13
ENDBRANCH   4   7
ENDBRANCH   2   3
ENDBRANCH   1   2
BRANCH   1  34
ATOM     34  C   UNL     1       3.958   2.942   9.081  1.00  0.00     0.002 C 
BRANCH  34  35
ATOM     35  C   UNL     1       2.443   3.117   9.254  1.00  0.00     0.002 C 
BRANCH  35  36
ATOM     36  C   UNL     1       1.607   1.881   8.891  1.00  0.00     0.021 C 
BRANCH  36  37
ATOM     37  C   UNL     1       1.797   0.735   9.879  1.00  0.00     0.116 C 
BRANCH  37  38
ATOM     38  N   UNL     1       1.235   1.103  11.167  1.00  0.00    -0.352 N 
ATOM     39  C   UNL     1       1.125   0.378  12.320  1.00  0.00     0.251 C 
ATOM     40  H   UNL     1       0.878   2.019  11.217  1.00  0.00     0.163 HD
ATOM     41  O   UNL     1       0.291   0.696  13.156  1.00  0.00    -0.269 OA
BRANCH  39  42
ATOM     42  C   UNL     1       2.004  -0.777  12.575  1.00  0.00     0.039 A 
ATOM     43  C   UNL     1       1.454  -1.875  13.247  1.00  0.00     0.014 A 
ATOM     44  C   UNL     1       3.369  -0.736  12.270  1.00  0.00     0.014 A 
ATOM     45  C   UNL     1       2.265  -2.950  13.579  1.00  0.00     0.010 A 
ATOM     46  C   UNL     1       4.180  -1.820  12.576  1.00  0.00     0.010 A 
ATOM     47  C   UNL     1       3.621  -2.925  13.224  1.00  0.00    -0.014 A 
BRANCH  47  48
ATOM     48  C   UNL     1       4.403  -4.166  13.379  1.00  0.00     0.031 A 
ATOM     49  C   UNL     1       4.053  -5.162  12.240  1.00  0.00     0.074 A 
ATOM     50  C   UNL     1       5.226  -4.228  14.475  1.00  0.00     0.049 A 
ATOM     51  N   UNL     1       4.055  -6.458  12.231  1.00  0.00    -0.248 NA
ATOM     52  C   UNL     1       3.561  -4.636  10.930  1.00  0.00     0.031 C 
ATOM     53  C   UNL     1       5.472  -3.109  15.418  1.00  0.00     0.029 A 
ATOM     54  N   UNL     1       6.016  -5.214  15.035  1.00  0.00    -0.354 N 
ATOM     55  C   UNL     1       3.762  -6.893  10.913  1.00  0.00     0.074 A 
ATOM     56  C   UNL     1       3.354  -5.730  10.189  1.00  0.00     0.031 C 
ATOM     57  C   UNL     1       6.253  -3.497  16.452  1.00  0.00     0.029 A 
ATOM     58  C   UNL     1       6.602  -4.895  16.299  1.00  0.00     0.049 A 
ATOM     59  H   UNL     1       6.166  -6.080  14.592  1.00  0.00     0.167 HD
ATOM     60  C   UNL     1       4.015  -8.168  10.482  1.00  0.00     0.037 A 
ATOM     61  C   UNL     1       7.263  -5.721  17.176  1.00  0.00     0.037 A 
ATOM     62  C   UNL     1       4.564  -8.920  11.557  1.00  0.00     0.049 A 
ATOM     63  C   UNL     1       7.396  -6.984  16.444  1.00  0.00     0.074 A 
ATOM     64  C   UNL     1       3.993  -9.424  12.694  1.00  0.00     0.029 A 
ATOM     65  N   UNL     1       5.927  -8.854  11.713  1.00  0.00    -0.354 N 
ATOM     66  N   UNL     1       8.220  -7.182  15.460  1.00  0.00    -0.248 NA
ATOM     67  C   UNL     1       6.458  -8.069  16.754  1.00  0.00     0.031 C 
ATOM     68  C   UNL     1       4.964  -9.137  13.671  1.00  0.00     0.029 A 
ATOM     69  C   UNL     1       6.171  -8.777  13.058  1.00  0.00     0.049 A 
ATOM     70  H   UNL     1       6.600  -8.862  10.995  1.00  0.00     0.167 HD
ATOM     71  C   UNL     1       7.654  -8.266  14.837  1.00  0.00     0.074 A 
ATOM     72  C   UNL     1       6.838  -8.940  15.824  1.00  0.00     0.031 C 
ATOM     73  C   UNL     1       7.422  -8.215  13.501  1.00  0.00     0.037 A 
BRANCH  60  74
ATOM     74  C   UNL     1       4.078  -8.827   9.130  1.00  0.00     0.064 A 
ATOM     75  C   UNL     1       4.058 -10.247   9.085  1.00  0.00     0.173 A 
ATOM     76  C   UNL     1       4.551  -8.180   7.985  1.00  0.00     0.173 A 
ATOM     77  F   UNL     1       3.567 -10.961  10.111  1.00  0.00    -0.203 F 
ATOM     78  C   UNL     1       4.634 -10.964   8.038  1.00  0.00     0.198 A 
ATOM     79  C   UNL     1       5.082  -8.906   6.911  1.00  0.00     0.198 A 
ATOM     80  F   UNL     1       4.613  -6.844   7.924  1.00  0.00    -0.203 F 
ATOM     81  F   UNL     1       4.740 -12.298   8.118  1.00  0.00    -0.200 F 
ATOM     82  C   UNL     1       5.167 -10.290   6.959  1.00  0.00     0.200 A 
ATOM     83  F   UNL     1       5.591  -8.251   5.858  1.00  0.00    -0.200 F 
ATOM     84  F   UNL     1       5.794 -10.965   5.987  1.00  0.00    -0.200 F 
ENDBRANCH  60  74
BRANCH  61  85
ATOM     85  C   UNL     1       7.769  -5.738  18.609  1.00  0.00     0.064 A 
ATOM     86  C   UNL     1       7.903  -4.636  19.460  1.00  0.00     0.173 A 
ATOM     87  C   UNL     1       8.089  -6.985  19.234  1.00  0.00     0.173 A 
ATOM     88  F   UNL     1       7.777  -3.389  18.993  1.00  0.00    -0.203 F 
ATOM     89  C   UNL     1       8.197  -4.785  20.835  1.00  0.00     0.198 A 
ATOM     90  C   UNL     1       8.318  -7.139  20.601  1.00  0.00     0.198 A 
ATOM     91  F   UNL     1       8.197  -8.121  18.534  1.00  0.00    -0.203 F 
ATOM     92  F   UNL     1       8.315  -3.699  21.612  1.00  0.00    -0.200 F 
ATOM     93  C   UNL     1       8.354  -6.035  21.411  1.00  0.00     0.200 A 
ATOM     94  F   UNL     1       8.482  -8.369  21.112  1.00  0.00    -0.200 F 
ATOM     95  F   UNL     1       8.556  -6.175  22.728  1.00  0.00    -0.200 F 
ENDBRANCH  61  85
BRANCH  73  96
ATOM     96  C   UNL     1       8.318  -7.255  12.739  1.00  0.00     0.064 A 
ATOM     97  C   UNL     1       9.710  -7.438  12.768  1.00  0.00     0.173 A 
ATOM     98  C   UNL     1       7.871  -6.098  12.079  1.00  0.00     0.173 A 
ATOM     99  F   UNL     1      10.227  -8.529  13.353  1.00  0.00    -0.203 F 
ATOM    100  C   UNL     1      10.591  -6.514  12.196  1.00  0.00     0.198 A 
ATOM    101  C   UNL     1       8.747  -5.171  11.504  1.00  0.00     0.198 A 
ATOM    102  F   UNL     1       6.571  -5.838  11.967  1.00  0.00    -0.203 F 
ATOM    103  F   UNL     1      11.912  -6.733  12.249  1.00  0.00    -0.200 F 
ATOM    104  C   UNL     1      10.110  -5.379  11.568  1.00  0.00     0.200 A 
ATOM    105  F   UNL     1       8.263  -4.084  10.883  1.00  0.00    -0.200 F 
ATOM    106  F   UNL     1      10.954  -4.500  11.009  1.00  0.00    -0.200 F 
ENDBRANCH  73  96
ENDBRANCH  47  48
ENDBRANCH  39  42
ENDBRANCH  37  38
ENDBRANCH  36  37
ENDBRANCH  35  36
ENDBRANCH  34  35
ENDBRANCH   1  34
TORSDOF 19
