REMARK SMILES [NH3+][C@@]1(C(=O)NCCCCCCNC(=O)c2ccc(-c3c4nc(c(-c5c(F)c(F)c(F)c(F)c5F)c5ccc([nH]5)c(-c5c(F)c(F)c(F)c(F)c5F)c5nc(c(-c6c(F)c(F)c(F)c(F)c6F)c6ccc3[nH]6)C=C5)C=C4)cc2)CCC[C@@H](Oc2ccccc2[N+](=O)[O-])C1
REMARK SMILES IDX 8 1 7 2 6 3 5 4 3 5 4 6 2 8 78 9 92 10 79 11 81 12 80 13
REMARK SMILES IDX 1 14 82 18 83 19 84 20 88 21 85 22 87 23 86 24 89 25 90 26
REMARK SMILES IDX 91 27 9 28 10 29 11 30 12 31 13 32 14 34 15 35 16 36 77 37
REMARK SMILES IDX 17 38 76 39 18 40 19 41 20 42 70 43 21 44 75 45 69 46 71 47
REMARK SMILES IDX 22 48 74 49 68 50 67 51 23 53 55 54 35 55 54 56 36 57 39 58
REMARK SMILES IDX 53 59 72 60 37 61 38 62 52 64 73 65 40 66 24 67 25 68 33 69
REMARK SMILES IDX 26 70 27 71 31 72 34 73 28 74 29 75 32 76 30 77 56 78 57 79
REMARK SMILES IDX 65 80 58 81 59 82 63 83 66 84 60 85 61 86 64 87 62 88 41 89
REMARK SMILES IDX 42 90 50 91 43 92 44 93 48 94 51 95 45 96 46 97 49 98 47 99
REMARK H PARENT 5 7 1 15 1 16 1 17 12 33 71 52 39 63
REMARK Flexibility Score: inf
ROOT
ATOM      1  C   UNL     1      -5.777  -1.468  -2.349  1.00  0.00     0.002 C 
ENDROOT
BRANCH   1   2
ATOM      2  C   UNL     1      -4.263  -1.393  -2.112  1.00  0.00     0.021 C 
BRANCH   2   3
ATOM      3  C   UNL     1      -3.811  -0.100  -1.420  1.00  0.00     0.116 C 
BRANCH   3   4
ATOM      4  N   UNL     1      -3.544  -0.297  -0.007  1.00  0.00    -0.351 N 
ATOM      5  C   UNL     1      -2.404  -0.579   0.688  1.00  0.00     0.281 C 
ATOM      6  O   UNL     1      -2.535  -0.678   1.914  1.00  0.00    -0.268 OA
ATOM      7  H   UNL     1      -4.343  -0.209   0.562  1.00  0.00     0.163 HD
BRANCH   5   8
ATOM      8  C   UNL     1      -0.980  -0.652   0.025  1.00  0.00     0.177 C 
ATOM      9  C   UNL     1      -0.054  -1.494   0.934  1.00  0.00     0.079 C 
ATOM     10  C   UNL     1      -0.425   0.791  -0.042  1.00  0.00     0.124 C 
ATOM     11  C   UNL     1       1.401  -1.508   0.468  1.00  0.00     0.011 C 
ATOM     12  C   UNL     1       1.093   0.961  -0.259  1.00  0.00     0.180 C 
ATOM     13  C   UNL     1       1.996  -0.107   0.378  1.00  0.00     0.046 C 
BRANCH   8  14
ATOM     14  N   UNL     1      -1.061  -1.342  -1.277  1.00  0.00    -0.345 N 
ATOM     15  H   UNL     1      -0.133  -1.384  -1.698  1.00  0.00     0.345 HD
ATOM     16  H   UNL     1      -1.692  -0.831  -1.894  1.00  0.00     0.345 HD
ATOM     17  H   UNL     1      -1.415  -2.289  -1.138  1.00  0.00     0.345 HD
ENDBRANCH   8  14
BRANCH  12  18
ATOM     18  O   UNL     1       1.520   1.378  -1.576  1.00  0.00    -0.483 OA
BRANCH  18  19
ATOM     19  C   UNL     1       1.113   0.635  -2.638  1.00  0.00     0.197 A 
ATOM     20  C   UNL     1       1.819  -0.524  -2.962  1.00  0.00     0.054 A 
ATOM     21  C   UNL     1       0.061   1.035  -3.470  1.00  0.00     0.310 A 
ATOM     22  C   UNL     1       1.389  -1.342  -4.010  1.00  0.00     0.004 A 
ATOM     23  C   UNL     1      -0.393   0.209  -4.509  1.00  0.00     0.090 A 
ATOM     24  C   UNL     1       0.267  -0.993  -4.763  1.00  0.00     0.007 A 
BRANCH  21  25
ATOM     25  N   UNL     1      -0.631   2.296  -3.252  1.00  0.00     0.066 N 
ATOM     26  O   UNL     1      -1.871   2.261  -3.287  1.00  0.00    -0.258 OA
ATOM     27  O   UNL     1       0.046   3.315  -3.074  1.00  0.00    -0.258 OA
ENDBRANCH  21  25
ENDBRANCH  18  19
ENDBRANCH  12  18
ENDBRANCH   5   8
ENDBRANCH   3   4
ENDBRANCH   2   3
ENDBRANCH   1   2
BRANCH   1  28
ATOM     28  C   UNL     1      -6.339  -0.409  -3.308  1.00  0.00     0.002 C 
BRANCH  28  29
ATOM     29  C   UNL     1      -5.802  -0.458  -4.742  1.00  0.00     0.021 C 
BRANCH  29  30
ATOM     30  C   UNL     1      -6.059  -1.762  -5.497  1.00  0.00     0.116 C 
BRANCH  30  31
ATOM     31  N   UNL     1      -7.468  -2.121  -5.521  1.00  0.00    -0.352 N 
ATOM     32  C   UNL     1      -8.311  -2.392  -6.562  1.00  0.00     0.251 C 
ATOM     33  H   UNL     1      -7.887  -2.180  -4.632  1.00  0.00     0.163 HD
ATOM     34  O   UNL     1      -9.522  -2.484  -6.345  1.00  0.00    -0.269 OA
BRANCH  32  35
ATOM     35  C   UNL     1      -7.812  -2.572  -7.943  1.00  0.00     0.039 A 
ATOM     36  C   UNL     1      -8.600  -2.100  -8.998  1.00  0.00     0.014 A 
ATOM     37  C   UNL     1      -6.627  -3.262  -8.220  1.00  0.00     0.014 A 
ATOM     38  C   UNL     1      -8.184  -2.282 -10.318  1.00  0.00     0.010 A 
ATOM     39  C   UNL     1      -6.178  -3.384  -9.536  1.00  0.00     0.010 A 
ATOM     40  C   UNL     1      -6.957  -2.904 -10.599  1.00  0.00    -0.014 A 
BRANCH  40  41
ATOM     41  C   UNL     1      -6.490  -3.034 -12.003  1.00  0.00     0.031 A 
ATOM     42  C   UNL     1      -6.362  -4.384 -12.653  1.00  0.00     0.074 A 
ATOM     43  C   UNL     1      -6.165  -1.923 -12.690  1.00  0.00     0.049 A 
ATOM     44  N   UNL     1      -6.016  -4.680 -13.882  1.00  0.00    -0.248 NA
ATOM     45  C   UNL     1      -6.634  -5.557 -11.809  1.00  0.00     0.031 C 
ATOM     46  C   UNL     1      -6.189  -0.562 -12.150  1.00  0.00     0.029 A 
ATOM     47  N   UNL     1      -5.760  -1.757 -13.991  1.00  0.00    -0.354 N 
ATOM     48  C   UNL     1      -6.028  -6.066 -13.956  1.00  0.00     0.074 A 
ATOM     49  C   UNL     1      -6.358  -6.556 -12.635  1.00  0.00     0.031 C 
ATOM     50  C   UNL     1      -5.853   0.302 -13.120  1.00  0.00     0.029 A 
ATOM     51  C   UNL     1      -5.566  -0.444 -14.342  1.00  0.00     0.049 A 
ATOM     52  H   UNL     1      -5.622  -2.508 -14.612  1.00  0.00     0.167 HD
ATOM     53  C   UNL     1      -5.808  -6.858 -15.034  1.00  0.00     0.037 A 
ATOM     54  C   UNL     1      -5.208   0.099 -15.520  1.00  0.00     0.037 A 
ATOM     55  C   UNL     1      -5.497  -6.366 -16.352  1.00  0.00     0.049 A 
ATOM     56  C   UNL     1      -4.989  -0.800 -16.705  1.00  0.00     0.074 A 
ATOM     57  C   UNL     1      -5.318  -7.082 -17.523  1.00  0.00     0.029 A 
ATOM     58  N   UNL     1      -5.315  -5.028 -16.673  1.00  0.00    -0.354 N 
ATOM     59  N   UNL     1      -5.085  -2.105 -16.783  1.00  0.00    -0.248 NA
ATOM     60  C   UNL     1      -4.624  -0.147 -17.970  1.00  0.00     0.031 C 
ATOM     61  C   UNL     1      -4.983  -6.183 -18.542  1.00  0.00     0.029 A 
ATOM     62  C   UNL     1      -5.002  -4.900 -18.018  1.00  0.00     0.049 A 
ATOM     63  H   UNL     1      -5.396  -4.279 -16.039  1.00  0.00     0.167 HD
ATOM     64  C   UNL     1      -4.811  -2.429 -18.105  1.00  0.00     0.074 A 
ATOM     65  C   UNL     1      -4.574  -1.180 -18.799  1.00  0.00     0.031 C 
ATOM     66  C   UNL     1      -4.757  -3.651 -18.691  1.00  0.00     0.037 A 
BRANCH  53  67
ATOM     67  C   UNL     1      -5.902  -8.344 -14.836  1.00  0.00     0.064 A 
ATOM     68  C   UNL     1      -7.130  -8.977 -14.595  1.00  0.00     0.173 A 
ATOM     69  C   UNL     1      -4.757  -9.151 -14.930  1.00  0.00     0.173 A 
ATOM     70  F   UNL     1      -8.254  -8.252 -14.487  1.00  0.00    -0.203 F 
ATOM     71  C   UNL     1      -7.206 -10.358 -14.426  1.00  0.00     0.198 A 
ATOM     72  C   UNL     1      -4.841 -10.534 -14.790  1.00  0.00     0.198 A 
ATOM     73  F   UNL     1      -3.557  -8.599 -15.165  1.00  0.00    -0.203 F 
ATOM     74  F   UNL     1      -8.384 -10.934 -14.149  1.00  0.00    -0.200 F 
ATOM     75  C   UNL     1      -6.063 -11.136 -14.531  1.00  0.00     0.200 A 
ATOM     76  F   UNL     1      -3.737 -11.286 -14.903  1.00  0.00    -0.200 F 
ATOM     77  F   UNL     1      -6.138 -12.464 -14.375  1.00  0.00    -0.200 F 
ENDBRANCH  53  67
BRANCH  54  78
ATOM     78  C   UNL     1      -5.077   1.574 -15.646  1.00  0.00     0.064 A 
ATOM     79  C   UNL     1      -5.997   2.317 -16.398  1.00  0.00     0.173 A 
ATOM     80  C   UNL     1      -4.034   2.269 -15.018  1.00  0.00     0.173 A 
ATOM     81  F   UNL     1      -7.000   1.694 -17.033  1.00  0.00    -0.203 F 
ATOM     82  C   UNL     1      -5.867   3.697 -16.534  1.00  0.00     0.198 A 
ATOM     83  C   UNL     1      -3.921   3.653 -15.131  1.00  0.00     0.198 A 
ATOM     84  F   UNL     1      -3.131   1.605 -14.281  1.00  0.00    -0.203 F 
ATOM     85  F   UNL     1      -6.734   4.378 -17.296  1.00  0.00    -0.200 F 
ATOM     86  C   UNL     1      -4.833   4.365 -15.896  1.00  0.00     0.200 A 
ATOM     87  F   UNL     1      -2.929   4.296 -14.500  1.00  0.00    -0.200 F 
ATOM     88  F   UNL     1      -4.711   5.693 -16.023  1.00  0.00    -0.200 F 
ENDBRANCH  54  78
BRANCH  66  89
ATOM     89  C   UNL     1      -4.436  -3.687 -20.157  1.00  0.00     0.064 A 
ATOM     90  C   UNL     1      -3.155  -3.374 -20.636  1.00  0.00     0.173 A 
ATOM     91  C   UNL     1      -5.418  -4.043 -21.094  1.00  0.00     0.173 A 
ATOM     92  F   UNL     1      -2.185  -3.012 -19.782  1.00  0.00    -0.203 F 
ATOM     93  C   UNL     1      -2.879  -3.381 -22.000  1.00  0.00     0.198 A 
ATOM     94  C   UNL     1      -5.130  -4.080 -22.455  1.00  0.00     0.198 A 
ATOM     95  F   UNL     1      -6.657  -4.358 -20.688  1.00  0.00    -0.203 F 
ATOM     96  F   UNL     1      -1.665  -3.020 -22.438  1.00  0.00    -0.200 F 
ATOM     97  C   UNL     1      -3.865  -3.739 -22.908  1.00  0.00     0.200 A 
ATOM     98  F   UNL     1      -6.080  -4.438 -23.330  1.00  0.00    -0.200 F 
ATOM     99  F   UNL     1      -3.598  -3.743 -24.221  1.00  0.00    -0.200 F 
ENDBRANCH  66  89
ENDBRANCH  40  41
ENDBRANCH  32  35
ENDBRANCH  30  31
ENDBRANCH  29  30
ENDBRANCH  28  29
ENDBRANCH   1  28
TORSDOF 17
