REMARK SMILES Cc1cccc(NS(=O)(=O)c2ccc(Br)c(C(=O)NCCCCCCNC(=O)c3ccc(-c4c5nc(c(-c6c(F)c(F)c(F)c(F)c6F)c6ccc([nH]6)c(-c6c(F)c(F)c(F)c(F)c6F)c6nc(c(-c7c(F)c(F)c(F)c(F)c7F)c7ccc4[nH]7)C=C6)C=C5)cc3)c2)c1
REMARK SMILES IDX 22 1 21 2 20 3 19 4 17 5 18 6 16 8 11 9 12 10 92 11 13 12
REMARK SMILES IDX 14 13 15 14 8 15 9 16 10 17 7 18 6 20 1 21 2 22 3 23 93 24
REMARK SMILES IDX 4 25 5 26 23 27 24 28 25 29 26 30 27 31 28 33 29 34 30 35
REMARK SMILES IDX 91 36 31 37 90 38 32 39 33 40 34 41 84 42 35 43 89 44 83 45
REMARK SMILES IDX 85 46 36 47 88 48 82 49 81 50 37 52 69 53 49 54 68 55 50 56
REMARK SMILES IDX 53 57 67 58 86 59 51 60 52 61 66 63 87 64 54 65 38 66 39 67
REMARK SMILES IDX 47 68 40 69 41 70 45 71 48 72 42 73 43 74 46 75 44 76 70 77
REMARK SMILES IDX 71 78 79 79 72 80 73 81 77 82 80 83 74 84 75 85 78 86 76 87
REMARK SMILES IDX 55 88 56 89 64 90 57 91 58 92 62 93 65 94 59 95 60 96 63 97
REMARK SMILES IDX 61 98
REMARK H PARENT 19 7 7 19 26 32 85 51 53 62
REMARK Flexibility Score: inf
ROOT
ATOM      1  C   UNL     1      -9.587  -4.787   0.971  1.00  0.00     0.002 C 
ENDROOT
BRANCH   1   2
ATOM      2  C   UNL     1      -8.286  -4.201   1.525  1.00  0.00     0.021 C 
BRANCH   2   3
ATOM      3  C   UNL     1      -7.376  -3.411   0.594  1.00  0.00     0.116 C 
BRANCH   3   4
ATOM      4  N   UNL     1      -7.901  -2.223  -0.039  1.00  0.00    -0.352 N 
ATOM      5  C   UNL     1      -7.207  -1.155  -0.588  1.00  0.00     0.252 C 
ATOM      6  O   UNL     1      -7.833  -0.322  -1.240  1.00  0.00    -0.269 OA
ATOM      7  H   UNL     1      -8.883  -2.163  -0.086  1.00  0.00     0.163 HD
BRANCH   5   8
ATOM      8  C   UNL     1      -5.763  -0.904  -0.286  1.00  0.00     0.055 A 
ATOM      9  C   UNL     1      -4.103   0.717   0.453  1.00  0.00     0.088 A 
ATOM     10  C   UNL     1      -3.312  -0.312   0.950  1.00  0.00     0.023 A 
ATOM     11  C   UNL     1      -5.377   0.428  -0.062  1.00  0.00     0.037 A 
ATOM     12  C   UNL     1      -3.607  -1.613   0.553  1.00  0.00     0.018 A 
ATOM     13  C   UNL     1      -4.767  -1.876  -0.183  1.00  0.00     0.030 A 
ATOM     14  Br  UNL     1      -4.703  -3.410  -1.311  1.00  0.00    -0.050 Br
BRANCH   9  15
ATOM     15  S   UNL     1      -3.479   2.376   0.355  1.00  0.00     0.261 S 
ATOM     16  O   UNL     1      -3.402   2.862   1.717  1.00  0.00    -0.201 OA
ATOM     17  O   UNL     1      -4.276   3.076  -0.630  1.00  0.00    -0.201 OA
BRANCH  15  18
ATOM     18  N   UNL     1      -1.882   2.430  -0.236  1.00  0.00    -0.280 N 
ATOM     19  H   UNL     1      -1.513   3.317  -0.455  1.00  0.00     0.180 HD
BRANCH  18  20
ATOM     20  C   UNL     1      -1.029   1.296  -0.443  1.00  0.00     0.049 A 
ATOM     21  C   UNL     1       2.583   0.351   0.383  1.00  0.00     0.044 C 
ATOM     22  C   UNL     1       1.171   0.278  -0.122  1.00  0.00    -0.049 A 
ATOM     23  C   UNL     1       0.724  -0.869  -0.784  1.00  0.00     0.003 A 
ATOM     24  C   UNL     1       0.277   1.344   0.068  1.00  0.00     0.030 A 
ATOM     25  C   UNL     1      -0.545  -0.891  -1.361  1.00  0.00     0.002 A 
ATOM     26  C   UNL     1      -1.392   0.217  -1.247  1.00  0.00     0.027 A 
ENDBRANCH  18  20
ENDBRANCH  15  18
ENDBRANCH   9  15
ENDBRANCH   5   8
ENDBRANCH   3   4
ENDBRANCH   2   3
ENDBRANCH   1   2
BRANCH   1  27
ATOM     27  C   UNL     1      -9.601  -5.424  -0.425  1.00  0.00     0.002 C 
BRANCH  27  28
ATOM     28  C   UNL     1      -8.513  -6.435  -0.784  1.00  0.00     0.021 C 
BRANCH  28  29
ATOM     29  C   UNL     1      -8.452  -7.695   0.065  1.00  0.00     0.116 C 
BRANCH  29  30
ATOM     30  N   UNL     1      -9.247  -8.807  -0.437  1.00  0.00    -0.352 N 
ATOM     31  C   UNL     1      -9.380 -10.095   0.065  1.00  0.00     0.251 C 
ATOM     32  H   UNL     1      -9.767  -8.618  -1.251  1.00  0.00     0.163 HD
ATOM     33  O   UNL     1     -10.060 -10.918  -0.519  1.00  0.00    -0.269 OA
BRANCH  31  34
ATOM     34  C   UNL     1      -8.804 -10.420   1.396  1.00  0.00     0.039 A 
ATOM     35  C   UNL     1      -9.628 -11.078   2.319  1.00  0.00     0.014 A 
ATOM     36  C   UNL     1      -7.581  -9.899   1.801  1.00  0.00     0.014 A 
ATOM     37  C   UNL     1      -9.356 -10.962   3.679  1.00  0.00     0.010 A 
ATOM     38  C   UNL     1      -7.367  -9.684   3.145  1.00  0.00     0.010 A 
ATOM     39  C   UNL     1      -8.302 -10.146   4.077  1.00  0.00    -0.014 A 
BRANCH  39  40
ATOM     40  C   UNL     1      -8.150  -9.616   5.424  1.00  0.00     0.031 A 
ATOM     41  C   UNL     1      -7.086 -10.130   6.306  1.00  0.00     0.074 A 
ATOM     42  C   UNL     1      -8.898  -8.548   5.785  1.00  0.00     0.049 A 
ATOM     43  N   UNL     1      -7.001  -9.865   7.564  1.00  0.00    -0.248 NA
ATOM     44  C   UNL     1      -6.062 -11.066   5.850  1.00  0.00     0.031 C 
ATOM     45  C   UNL     1      -8.666  -7.631   6.898  1.00  0.00     0.029 A 
ATOM     46  N   UNL     1     -10.173  -8.197   5.306  1.00  0.00    -0.354 N 
ATOM     47  C   UNL     1      -5.794 -10.344   8.016  1.00  0.00     0.074 A 
ATOM     48  C   UNL     1      -5.318 -11.191   6.954  1.00  0.00     0.031 C 
ATOM     49  C   UNL     1      -9.824  -7.030   7.215  1.00  0.00     0.029 A 
ATOM     50  C   UNL     1     -10.860  -7.674   6.428  1.00  0.00     0.049 A 
ATOM     51  H   UNL     1     -10.515  -8.294   4.388  1.00  0.00     0.167 HD
ATOM     52  C   UNL     1      -5.302  -9.845   9.185  1.00  0.00     0.037 A 
ATOM     53  C   UNL     1     -11.946  -8.309   6.958  1.00  0.00     0.037 A 
ATOM     54  C   UNL     1      -6.356  -9.135   9.915  1.00  0.00     0.049 A 
ATOM     55  C   UNL     1     -11.786  -8.690   8.411  1.00  0.00     0.074 A 
ATOM     56  C   UNL     1      -6.639  -7.796  10.126  1.00  0.00     0.029 A 
ATOM     57  N   UNL     1      -7.483  -9.845  10.324  1.00  0.00    -0.354 N 
ATOM     58  N   UNL     1     -10.632  -8.835   9.003  1.00  0.00    -0.248 NA
ATOM     59  C   UNL     1     -12.911  -8.959   9.301  1.00  0.00     0.031 C 
ATOM     60  C   UNL     1      -7.981  -7.703  10.586  1.00  0.00     0.029 A 
ATOM     61  C   UNL     1      -8.496  -8.985  10.695  1.00  0.00     0.049 A 
ATOM     62  H   UNL     1      -7.548 -10.828  10.345  1.00  0.00     0.167 HD
ATOM     63  C   UNL     1     -10.832  -9.226  10.302  1.00  0.00     0.074 A 
ATOM     64  C   UNL     1     -12.275  -9.267  10.445  1.00  0.00     0.031 C 
ATOM     65  C   UNL     1      -9.787  -9.497  11.140  1.00  0.00     0.037 A 
BRANCH  52  66
ATOM     66  C   UNL     1      -3.836  -9.802   9.593  1.00  0.00     0.064 A 
ATOM     67  C   UNL     1      -3.448  -9.101  10.760  1.00  0.00     0.173 A 
ATOM     68  C   UNL     1      -2.753 -10.299   8.836  1.00  0.00     0.173 A 
ATOM     69  F   UNL     1      -4.357  -8.578  11.594  1.00  0.00    -0.203 F 
ATOM     70  C   UNL     1      -2.107  -8.886  11.106  1.00  0.00     0.198 A 
ATOM     71  C   UNL     1      -1.415 -10.114   9.201  1.00  0.00     0.198 A 
ATOM     72  F   UNL     1      -2.916 -10.953   7.686  1.00  0.00    -0.203 F 
ATOM     73  F   UNL     1      -1.808  -8.163  12.194  1.00  0.00    -0.200 F 
ATOM     74  C   UNL     1      -1.089  -9.393  10.327  1.00  0.00     0.200 A 
ATOM     75  F   UNL     1      -0.444 -10.620   8.426  1.00  0.00    -0.200 F 
ATOM     76  F   UNL     1       0.193  -9.181  10.647  1.00  0.00    -0.200 F 
ENDBRANCH  52  66
BRANCH  53  77
ATOM     77  C   UNL     1     -12.713  -9.093   5.954  1.00  0.00     0.064 A 
ATOM     78  C   UNL     1     -13.317  -8.399   4.887  1.00  0.00     0.173 A 
ATOM     79  C   UNL     1     -12.523 -10.472   5.806  1.00  0.00     0.173 A 
ATOM     80  F   UNL     1     -13.521  -7.076   4.980  1.00  0.00    -0.203 F 
ATOM     81  C   UNL     1     -13.596  -9.032   3.678  1.00  0.00     0.198 A 
ATOM     82  C   UNL     1     -12.821 -11.106   4.597  1.00  0.00     0.198 A 
ATOM     83  F   UNL     1     -11.938 -11.185   6.778  1.00  0.00    -0.203 F 
ATOM     84  F   UNL     1     -14.056  -8.318   2.640  1.00  0.00    -0.200 F 
ATOM     85  C   UNL     1     -13.319 -10.380   3.524  1.00  0.00     0.200 A 
ATOM     86  F   UNL     1     -12.526 -12.404   4.436  1.00  0.00    -0.200 F 
ATOM     87  F   UNL     1     -13.488 -10.969   2.332  1.00  0.00    -0.200 F 
ENDBRANCH  53  77
BRANCH  65  88
ATOM     88  C   UNL     1      -9.876 -10.193  12.482  1.00  0.00     0.064 A 
ATOM     89  C   UNL     1     -10.907 -11.075  12.850  1.00  0.00     0.173 A 
ATOM     90  C   UNL     1      -8.807 -10.099  13.409  1.00  0.00     0.173 A 
ATOM     91  F   UNL     1     -11.913 -11.364  12.014  1.00  0.00    -0.203 F 
ATOM     92  C   UNL     1     -10.906 -11.752  14.074  1.00  0.00     0.198 A 
ATOM     93  C   UNL     1      -8.779 -10.824  14.600  1.00  0.00     0.198 A 
ATOM     94  F   UNL     1      -7.739  -9.324  13.173  1.00  0.00    -0.203 F 
ATOM     95  F   UNL     1     -11.938 -12.546  14.392  1.00  0.00    -0.200 F 
ATOM     96  C   UNL     1      -9.838 -11.636  14.943  1.00  0.00     0.200 A 
ATOM     97  F   UNL     1      -7.708 -10.746  15.402  1.00  0.00    -0.200 F 
ATOM     98  F   UNL     1      -9.819 -12.326  16.091  1.00  0.00    -0.200 F 
ENDBRANCH  65  88
ENDBRANCH  39  40
ENDBRANCH  31  34
ENDBRANCH  29  30
ENDBRANCH  28  29
ENDBRANCH  27  28
ENDBRANCH   1  27
TORSDOF 16
