REMARK SMILES CC(C)c1cc(N2CCC(C(=O)NCCCCCCNC(=O)c3ccc(-c4c5nc(c(-c6c(F)c(F)c(F)c(F)c6F)c6ccc([nH]6)c(-c6c(F)c(F)c(F)c(F)c6F)c6nc(c(-c7c(F)c(F)c(F)c(F)c7F)c7ccc4[nH]7)C=C6)C=C5)cc3)CC2)nc(-c2ccc(F)cc2)n1
REMARK SMILES IDX 16 1 15 2 14 3 13 4 11 5 12 6 10 8 7 9 8 10 87 11 9 12 86 13
REMARK SMILES IDX 6 14 4 15 5 16 97 17 89 18 88 19 2 20 1 21 3 22 90 23 91 24
REMARK SMILES IDX 96 25 92 26 95 27 93 28 94 29 17 30 18 31 19 32 20 33 21 34
REMARK SMILES IDX 22 36 23 37 24 38 85 39 25 40 84 41 26 42 27 43 28 44 78 45
REMARK SMILES IDX 29 46 83 47 77 48 79 49 30 50 82 51 76 52 75 53 31 55 63 56
REMARK SMILES IDX 43 57 62 58 44 59 47 60 61 61 80 62 45 63 46 64 60 66 81 67
REMARK SMILES IDX 48 68 32 69 33 70 41 71 34 72 35 73 39 74 42 75 36 76 37 77
REMARK SMILES IDX 40 78 38 79 64 80 65 81 73 82 66 83 67 84 71 85 74 86 68 87
REMARK SMILES IDX 69 88 72 89 70 90 49 91 50 92 58 93 51 94 52 95 56 96 59 97
REMARK SMILES IDX 53 98 54 99 57 100 55 101
REMARK H PARENT 13 7 20 35 79 54 47 65
REMARK Flexibility Score: inf
ROOT
ATOM      1  C   UNL     1      -9.918   0.364   0.831  1.00  0.00     0.002 C 
ENDROOT
BRANCH   1   2
ATOM      2  C   UNL     1      -8.440   0.333   0.429  1.00  0.00     0.021 C 
BRANCH   2   3
ATOM      3  C   UNL     1      -7.605  -0.701   1.182  1.00  0.00     0.116 C 
BRANCH   3   4
ATOM      4  N   UNL     1      -7.990  -2.061   0.833  1.00  0.00    -0.356 N 
ATOM      5  C   UNL     1      -7.268  -3.072   0.275  1.00  0.00     0.223 C 
ATOM      6  O   UNL     1      -7.838  -4.145   0.063  1.00  0.00    -0.275 OA
ATOM      7  H   UNL     1      -8.927  -2.286   1.033  1.00  0.00     0.163 HD
BRANCH   5   8
ATOM      8  C   UNL     1      -5.794  -2.900  -0.068  1.00  0.00     0.082 C 
ATOM      9  N   UNL     1      -3.803  -0.922   0.111  1.00  0.00    -0.356 N 
ATOM     10  C   UNL     1      -4.232  -1.242  -1.240  1.00  0.00     0.119 C 
ATOM     11  C   UNL     1      -3.613  -2.052   0.999  1.00  0.00     0.119 C 
ATOM     12  C   UNL     1      -5.621  -1.852  -1.182  1.00  0.00     0.035 C 
ATOM     13  C   UNL     1      -4.969  -2.711   1.221  1.00  0.00     0.035 C 
BRANCH   9  14
ATOM     14  C   UNL     1      -3.029   0.213   0.232  1.00  0.00     0.132 A 
ATOM     15  C   UNL     1      -0.946   1.342   0.261  1.00  0.00     0.049 A 
ATOM     16  C   UNL     1      -1.648   0.150   0.248  1.00  0.00     0.071 A 
ATOM     17  N   UNL     1      -1.592   2.526   0.303  1.00  0.00    -0.233 NA
ATOM     18  C   UNL     1      -2.935   2.495   0.316  1.00  0.00     0.161 A 
ATOM     19  N   UNL     1      -3.683   1.383   0.271  1.00  0.00    -0.211 NA
BRANCH  15  20
ATOM     20  C   UNL     1       0.573   1.414   0.257  1.00  0.00     0.032 C 
ATOM     21  C   UNL     1       1.294   0.070   0.092  1.00  0.00     0.014 C 
ATOM     22  C   UNL     1       1.062   2.377  -0.833  1.00  0.00     0.014 C 
ENDBRANCH  15  20
BRANCH  18  23
ATOM     23  C   UNL     1      -3.639   3.778   0.391  1.00  0.00     0.019 A 
ATOM     24  C   UNL     1      -3.396   4.795  -0.551  1.00  0.00     0.015 A 
ATOM     25  C   UNL     1      -4.574   4.030   1.415  1.00  0.00     0.015 A 
ATOM     26  C   UNL     1      -4.072   6.017  -0.480  1.00  0.00     0.040 A 
ATOM     27  C   UNL     1      -5.236   5.258   1.499  1.00  0.00     0.040 A 
ATOM     28  C   UNL     1      -4.983   6.237   0.546  1.00  0.00     0.123 A 
ATOM     29  F   UNL     1      -5.632   7.406   0.616  1.00  0.00    -0.207 F 
ENDBRANCH  18  23
ENDBRANCH   9  14
ENDBRANCH   5   8
ENDBRANCH   3   4
ENDBRANCH   2   3
ENDBRANCH   1   2
BRANCH   1  30
ATOM     30  C   UNL     1     -10.182   0.600   2.322  1.00  0.00     0.002 C 
BRANCH  30  31
ATOM     31  C   UNL     1      -9.506   1.838   2.915  1.00  0.00     0.021 C 
BRANCH  31  32
ATOM     32  C   UNL     1      -9.857   3.150   2.221  1.00  0.00     0.116 C 
BRANCH  32  33
ATOM     33  N   UNL     1     -11.271   3.468   2.329  1.00  0.00    -0.352 N 
ATOM     34  C   UNL     1     -11.869   4.620   2.769  1.00  0.00     0.251 C 
ATOM     35  H   UNL     1     -11.887   2.754   2.047  1.00  0.00     0.163 HD
ATOM     36  O   UNL     1     -13.083   4.652   2.966  1.00  0.00    -0.269 OA
BRANCH  34  37
ATOM     37  C   UNL     1     -11.052   5.824   3.029  1.00  0.00     0.039 A 
ATOM     38  C   UNL     1     -11.287   6.558   4.194  1.00  0.00     0.014 A 
ATOM     39  C   UNL     1     -10.067   6.233   2.125  1.00  0.00     0.014 A 
ATOM     40  C   UNL     1     -10.498   7.674   4.479  1.00  0.00     0.010 A 
ATOM     41  C   UNL     1      -9.233   7.301   2.446  1.00  0.00     0.010 A 
ATOM     42  C   UNL     1      -9.445   8.037   3.622  1.00  0.00    -0.014 A 
BRANCH  42  43
ATOM     43  C   UNL     1      -8.570   9.196   3.929  1.00  0.00     0.031 A 
ATOM     44  C   UNL     1      -8.567  10.396   3.022  1.00  0.00     0.074 A 
ATOM     45  C   UNL     1      -7.747   9.149   4.995  1.00  0.00     0.049 A 
ATOM     46  N   UNL     1      -7.826  11.474   3.076  1.00  0.00    -0.248 NA
ATOM     47  C   UNL     1      -9.512  10.375   1.894  1.00  0.00     0.031 C 
ATOM     48  C   UNL     1      -7.637   8.029   5.931  1.00  0.00     0.029 A 
ATOM     49  N   UNL     1      -6.838  10.064   5.465  1.00  0.00    -0.354 N 
ATOM     50  C   UNL     1      -8.208  12.250   1.990  1.00  0.00     0.074 A 
ATOM     51  C   UNL     1      -9.208  11.499   1.262  1.00  0.00     0.031 C 
ATOM     52  C   UNL     1      -6.727   8.330   6.872  1.00  0.00     0.029 A 
ATOM     53  C   UNL     1      -6.159   9.643   6.583  1.00  0.00     0.049 A 
ATOM     54  H   UNL     1      -6.687  10.940   5.040  1.00  0.00     0.167 HD
ATOM     55  C   UNL     1      -7.783  13.489   1.645  1.00  0.00     0.037 A 
ATOM     56  C   UNL     1      -5.181  10.246   7.285  1.00  0.00     0.037 A 
ATOM     57  C   UNL     1      -6.799  14.240   2.378  1.00  0.00     0.049 A 
ATOM     58  C   UNL     1      -4.707  11.611   6.858  1.00  0.00     0.074 A 
ATOM     59  C   UNL     1      -6.320  15.513   2.124  1.00  0.00     0.029 A 
ATOM     60  N   UNL     1      -6.145  13.786   3.514  1.00  0.00    -0.354 N 
ATOM     61  N   UNL     1      -5.116  12.357   5.861  1.00  0.00    -0.248 NA
ATOM     62  C   UNL     1      -3.637  12.221   7.661  1.00  0.00     0.031 C 
ATOM     63  C   UNL     1      -5.348  15.815   3.083  1.00  0.00     0.029 A 
ATOM     64  C   UNL     1      -5.259  14.750   3.965  1.00  0.00     0.049 A 
ATOM     65  H   UNL     1      -6.289  12.908   3.936  1.00  0.00     0.167 HD
ATOM     66  C   UNL     1      -4.385  13.535   5.941  1.00  0.00     0.074 A 
ATOM     67  C   UNL     1      -3.518  13.412   7.093  1.00  0.00     0.031 C 
ATOM     68  C   UNL     1      -4.426  14.622   5.132  1.00  0.00     0.037 A 
BRANCH  55  69
ATOM     69  C   UNL     1      -8.393  14.123   0.430  1.00  0.00     0.064 A 
ATOM     70  C   UNL     1      -9.723  14.570   0.430  1.00  0.00     0.173 A 
ATOM     71  C   UNL     1      -7.627  14.345  -0.724  1.00  0.00     0.173 A 
ATOM     72  F   UNL     1     -10.502  14.372   1.504  1.00  0.00    -0.203 F 
ATOM     73  C   UNL     1     -10.268  15.200  -0.685  1.00  0.00     0.198 A 
ATOM     74  C   UNL     1      -8.166  15.002  -1.827  1.00  0.00     0.198 A 
ATOM     75  F   UNL     1      -6.348  13.943  -0.775  1.00  0.00    -0.203 F 
ATOM     76  F   UNL     1     -11.552  15.586  -0.675  1.00  0.00    -0.200 F 
ATOM     77  C   UNL     1      -9.487  15.424  -1.809  1.00  0.00     0.200 A 
ATOM     78  F   UNL     1      -7.406  15.232  -2.907  1.00  0.00    -0.200 F 
ATOM     79  F   UNL     1     -10.008  16.047  -2.875  1.00  0.00    -0.200 F 
ENDBRANCH  55  69
BRANCH  56  80
ATOM     80  C   UNL     1      -4.583   9.578   8.472  1.00  0.00     0.064 A 
ATOM     81  C   UNL     1      -4.751  10.109   9.759  1.00  0.00     0.173 A 
ATOM     82  C   UNL     1      -3.791   8.428   8.342  1.00  0.00     0.173 A 
ATOM     83  F   UNL     1      -5.483  11.220   9.935  1.00  0.00    -0.203 F 
ATOM     84  C   UNL     1      -4.119   9.540  10.863  1.00  0.00     0.198 A 
ATOM     85  C   UNL     1      -3.187   7.840   9.452  1.00  0.00     0.198 A 
ATOM     86  F   UNL     1      -3.602   7.875   7.135  1.00  0.00    -0.203 F 
ATOM     87  F   UNL     1      -4.242  10.110  12.070  1.00  0.00    -0.200 F 
ATOM     88  C   UNL     1      -3.339   8.405  10.709  1.00  0.00     0.200 A 
ATOM     89  F   UNL     1      -2.446   6.733   9.300  1.00  0.00    -0.200 F 
ATOM     90  F   UNL     1      -2.724   7.863  11.768  1.00  0.00    -0.200 F 
ENDBRANCH  56  80
BRANCH  68  91
ATOM     91  C   UNL     1      -3.553  15.787   5.497  1.00  0.00     0.064 A 
ATOM     92  C   UNL     1      -2.159  15.741   5.358  1.00  0.00     0.173 A 
ATOM     93  C   UNL     1      -4.128  16.982   5.958  1.00  0.00     0.173 A 
ATOM     94  F   UNL     1      -1.560  14.617   4.935  1.00  0.00    -0.203 F 
ATOM     95  C   UNL     1      -1.370  16.837   5.694  1.00  0.00     0.198 A 
ATOM     96  C   UNL     1      -3.339  18.087   6.261  1.00  0.00     0.198 A 
ATOM     97  F   UNL     1      -5.458  17.082   6.102  1.00  0.00    -0.203 F 
ATOM     98  F   UNL     1      -0.035  16.753   5.602  1.00  0.00    -0.200 F 
ATOM     99  C   UNL     1      -1.960  18.011   6.137  1.00  0.00     0.200 A 
ATOM    100  F   UNL     1      -3.912  19.226   6.675  1.00  0.00    -0.200 F 
ATOM    101  F   UNL     1      -1.199  19.068   6.452  1.00  0.00    -0.200 F 
ENDBRANCH  68  91
ENDBRANCH  42  43
ENDBRANCH  34  37
ENDBRANCH  32  33
ENDBRANCH  31  32
ENDBRANCH  30  31
ENDBRANCH   1  30
TORSDOF 16
