REMARK SMILES C[C@]1(C(=O)NCCCCCCNC(=O)c2ccc(-c3c4nc(c(-c5c(F)c(F)c(F)c(F)c5F)c5ccc([nH]5)c(-c5c(F)c(F)c(F)c(F)c5F)c5nc(c(-c6c(F)c(F)c(F)c(F)c6F)c6ccc3[nH]6)C=C5)C=C4)cc2)COC[C@H]1Nc1ccc2nnnn2n1
REMARK SMILES IDX 8 1 7 2 6 3 5 4 3 5 4 6 2 8 1 9 78 10 81 11 79 12 80 13
REMARK SMILES IDX 82 14 83 16 84 17 91 18 85 19 90 20 86 21 89 22 87 23 88 24
REMARK SMILES IDX 9 25 10 26 11 27 12 28 13 29 14 31 15 32 16 33 77 34 17 35
REMARK SMILES IDX 76 36 18 37 19 38 20 39 70 40 21 41 75 42 69 43 71 44 22 45
REMARK SMILES IDX 74 46 68 47 67 48 23 50 55 51 35 52 54 53 36 54 39 55 53 56
REMARK SMILES IDX 72 57 37 58 38 59 52 61 73 62 40 63 24 64 25 65 33 66 26 67
REMARK SMILES IDX 27 68 31 69 34 70 28 71 29 72 32 73 30 74 56 75 57 76 65 77
REMARK SMILES IDX 58 78 59 79 63 80 66 81 60 82 61 83 64 84 62 85 41 86 42 87
REMARK SMILES IDX 50 88 43 89 44 90 48 91 51 92 45 93 46 94 49 95 47 96
REMARK H PARENT 5 7 82 15 12 30 71 49 39 60
REMARK Flexibility Score: inf
ROOT
ATOM      1  C   UNL     1       4.714   2.536  -0.035  1.00  0.00     0.002 C 
ENDROOT
BRANCH   1   2
ATOM      2  C   UNL     1       3.859   1.440   0.606  1.00  0.00     0.021 C 
BRANCH   2   3
ATOM      3  C   UNL     1       2.356   1.671   0.400  1.00  0.00     0.116 C 
BRANCH   3   4
ATOM      4  N   UNL     1       1.829   0.683  -0.504  1.00  0.00    -0.355 N 
ATOM      5  C   UNL     1       1.261  -0.523  -0.321  1.00  0.00     0.230 C 
ATOM      6  O   UNL     1       1.069  -1.130  -1.388  1.00  0.00    -0.274 OA
ATOM      7  H   UNL     1       1.898   0.943  -1.451  1.00  0.00     0.163 HD
BRANCH   5   8
ATOM      8  C   UNL     1       0.677  -1.097   0.986  1.00  0.00     0.092 C 
ATOM      9  C   UNL     1      -0.756  -0.517   1.089  1.00  0.00     0.026 C 
ATOM     10  C   UNL     1       0.578  -2.628   0.702  1.00  0.00     0.179 C 
ATOM     11  C   UNL     1       1.278  -1.112   2.404  1.00  0.00     0.124 C 
ATOM     12  O   UNL     1       0.756  -3.333   1.937  1.00  0.00    -0.378 OA
ATOM     13  C   UNL     1       1.690  -2.556   2.670  1.00  0.00     0.186 C 
BRANCH  11  14
ATOM     14  N   UNL     1       2.332  -0.186   2.818  1.00  0.00    -0.362 N 
ATOM     15  H   UNL     1       3.207  -0.163   2.368  1.00  0.00     0.162 HD
BRANCH  14  16
ATOM     16  C   UNL     1       2.036   0.656   3.873  1.00  0.00     0.149 A 
ATOM     17  C   UNL     1       2.390   0.181   5.281  1.00  0.00     0.053 A 
ATOM     18  N   UNL     1       1.405   1.774   3.636  1.00  0.00    -0.129 NA
ATOM     19  C   UNL     1       1.426   0.517   6.163  1.00  0.00     0.057 A 
ATOM     20  N   UNL     1       0.932   2.361   4.758  1.00  0.00    -0.108 N 
ATOM     21  C   UNL     1       0.838   1.796   6.010  1.00  0.00     0.200 A 
ATOM     22  N   UNL     1       0.298   3.540   4.757  1.00  0.00    -0.022 NA
ATOM     23  N   UNL     1       0.112   2.582   6.770  1.00  0.00    -0.107 NA
ATOM     24  N   UNL     1      -0.195   3.672   5.984  1.00  0.00    -0.022 NA
ENDBRANCH  14  16
ENDBRANCH  11  14
ENDBRANCH   5   8
ENDBRANCH   3   4
ENDBRANCH   2   3
ENDBRANCH   1   2
BRANCH   1  25
ATOM     25  C   UNL     1       4.614   3.882   0.689  1.00  0.00     0.002 C 
BRANCH  25  26
ATOM     26  C   UNL     1       5.216   3.904   2.098  1.00  0.00     0.021 C 
BRANCH  26  27
ATOM     27  C   UNL     1       6.696   3.535   2.170  1.00  0.00     0.116 C 
BRANCH  27  28
ATOM     28  N   UNL     1       7.513   4.370   1.301  1.00  0.00    -0.352 N 
ATOM     29  C   UNL     1       8.537   5.224   1.604  1.00  0.00     0.251 C 
ATOM     30  H   UNL     1       7.293   4.310   0.344  1.00  0.00     0.163 HD
ATOM     31  O   UNL     1       8.944   6.019   0.750  1.00  0.00    -0.269 OA
BRANCH  29  32
ATOM     32  C   UNL     1       9.160   5.212   2.940  1.00  0.00     0.039 A 
ATOM     33  C   UNL     1       9.508   6.429   3.533  1.00  0.00     0.014 A 
ATOM     34  C   UNL     1       9.440   4.009   3.595  1.00  0.00     0.014 A 
ATOM     35  C   UNL     1      10.084   6.440   4.803  1.00  0.00     0.010 A 
ATOM     36  C   UNL     1       9.941   4.025   4.894  1.00  0.00     0.010 A 
ATOM     37  C   UNL     1      10.273   5.240   5.508  1.00  0.00    -0.014 A 
BRANCH  37  38
ATOM     38  C   UNL     1      10.794   5.255   6.898  1.00  0.00     0.031 A 
ATOM     39  C   UNL     1      12.113   4.622   7.234  1.00  0.00     0.074 A 
ATOM     40  C   UNL     1      10.041   5.801   7.871  1.00  0.00     0.049 A 
ATOM     41  N   UNL     1      12.724   4.547   8.390  1.00  0.00    -0.248 NA
ATOM     42  C   UNL     1      12.826   3.958   6.133  1.00  0.00     0.031 C 
ATOM     43  C   UNL     1       8.709   6.377   7.682  1.00  0.00     0.029 A 
ATOM     44  N   UNL     1      10.284   5.955   9.212  1.00  0.00    -0.354 N 
ATOM     45  C   UNL     1      13.887   3.825   8.156  1.00  0.00     0.074 A 
ATOM     46  C   UNL     1      13.863   3.427   6.765  1.00  0.00     0.031 C 
ATOM     47  C   UNL     1       8.264   6.849   8.856  1.00  0.00     0.029 A 
ATOM     48  C   UNL     1       9.264   6.581   9.885  1.00  0.00     0.049 A 
ATOM     49  H   UNL     1      11.110   5.647   9.650  1.00  0.00     0.167 HD
ATOM     50  C   UNL     1      14.894   3.542   9.018  1.00  0.00     0.037 A 
ATOM     51  C   UNL     1       9.147   6.906  11.185  1.00  0.00     0.037 A 
ATOM     52  C   UNL     1      14.913   3.948  10.400  1.00  0.00     0.049 A 
ATOM     53  C   UNL     1      10.283   6.601  12.120  1.00  0.00     0.074 A 
ATOM     54  C   UNL     1      15.915   3.777  11.339  1.00  0.00     0.029 A 
ATOM     55  N   UNL     1      13.870   4.598  11.047  1.00  0.00    -0.354 N 
ATOM     56  N   UNL     1      11.421   6.000  11.870  1.00  0.00    -0.248 NA
ATOM     57  C   UNL     1      10.124   7.032  13.514  1.00  0.00     0.031 C 
ATOM     58  C   UNL     1      15.456   4.271  12.566  1.00  0.00     0.029 A 
ATOM     59  C   UNL     1      14.190   4.804  12.380  1.00  0.00     0.049 A 
ATOM     60  H   UNL     1      13.026   4.872  10.621  1.00  0.00     0.167 HD
ATOM     61  C   UNL     1      12.119   5.989  13.069  1.00  0.00     0.074 A 
ATOM     62  C   UNL     1      11.286   6.670  14.040  1.00  0.00     0.031 C 
ATOM     63  C   UNL     1      13.338   5.460  13.343  1.00  0.00     0.037 A 
BRANCH  50  64
ATOM     64  C   UNL     1      16.053   2.745   8.483  1.00  0.00     0.064 A 
ATOM     65  C   UNL     1      16.926   3.268   7.515  1.00  0.00     0.173 A 
ATOM     66  C   UNL     1      16.295   1.442   8.944  1.00  0.00     0.173 A 
ATOM     67  F   UNL     1      16.736   4.505   7.031  1.00  0.00    -0.203 F 
ATOM     68  C   UNL     1      17.964   2.499   6.993  1.00  0.00     0.198 A 
ATOM     69  C   UNL     1      17.357   0.690   8.446  1.00  0.00     0.198 A 
ATOM     70  F   UNL     1      15.499   0.893   9.874  1.00  0.00    -0.203 F 
ATOM     71  F   UNL     1      18.737   2.996   6.017  1.00  0.00    -0.200 F 
ATOM     72  C   UNL     1      18.181   1.213   7.462  1.00  0.00     0.200 A 
ATOM     73  F   UNL     1      17.574  -0.548   8.910  1.00  0.00    -0.200 F 
ATOM     74  F   UNL     1      19.178   0.473   6.956  1.00  0.00    -0.200 F 
ENDBRANCH  50  64
BRANCH  51  75
ATOM     75  C   UNL     1       7.915   7.588  11.657  1.00  0.00     0.064 A 
ATOM     76  C   UNL     1       7.933   8.942  12.018  1.00  0.00     0.173 A 
ATOM     77  C   UNL     1       6.687   6.913  11.709  1.00  0.00     0.173 A 
ATOM     78  F   UNL     1       9.087   9.625  12.001  1.00  0.00    -0.203 F 
ATOM     79  C   UNL     1       6.769   9.593  12.421  1.00  0.00     0.198 A 
ATOM     80  C   UNL     1       5.519   7.572  12.085  1.00  0.00     0.198 A 
ATOM     81  F   UNL     1       6.618   5.619  11.363  1.00  0.00    -0.203 F 
ATOM     82  F   UNL     1       6.818  10.880  12.790  1.00  0.00    -0.200 F 
ATOM     83  C   UNL     1       5.562   8.910  12.445  1.00  0.00     0.200 A 
ATOM     84  F   UNL     1       4.353   6.913  12.089  1.00  0.00    -0.200 F 
ATOM     85  F   UNL     1       4.440   9.542  12.816  1.00  0.00    -0.200 F 
ENDBRANCH  51  75
BRANCH  63  86
ATOM     86  C   UNL     1      13.838   5.597  14.753  1.00  0.00     0.064 A 
ATOM     87  C   UNL     1      13.250   4.890  15.813  1.00  0.00     0.173 A 
ATOM     88  C   UNL     1      14.922   6.438  15.049  1.00  0.00     0.173 A 
ATOM     89  F   UNL     1      12.201   4.084  15.588  1.00  0.00    -0.203 F 
ATOM     90  C   UNL     1      13.704   5.049  17.120  1.00  0.00     0.198 A 
ATOM     91  C   UNL     1      15.395   6.568  16.352  1.00  0.00     0.198 A 
ATOM     92  F   UNL     1      15.526   7.132  14.072  1.00  0.00    -0.203 F 
ATOM     93  F   UNL     1      13.085   4.411  18.124  1.00  0.00    -0.200 F 
ATOM     94  C   UNL     1      14.779   5.883  17.387  1.00  0.00     0.200 A 
ATOM     95  F   UNL     1      16.443   7.363  16.606  1.00  0.00    -0.200 F 
ATOM     96  F   UNL     1      15.214   6.034  18.646  1.00  0.00    -0.200 F 
ENDBRANCH  63  86
ENDBRANCH  37  38
ENDBRANCH  29  32
ENDBRANCH  27  28
ENDBRANCH  26  27
ENDBRANCH  25  26
ENDBRANCH   1  25
TORSDOF 15
