REMARK SMILES C[C@@H](C(=O)NCCCCCCNC(=O)c1ccc(-c2c3nc(c(-c4c(F)c(F)c(F)c(F)c4F)c4ccc([nH]4)c(-c4c(F)c(F)c(F)c(F)c4F)c4nc(c(-c5c(F)c(F)c(F)c(F)c5F)c5ccc2[nH]5)C=C4)C=C3)cc1)c1ccc(-c2cccc(OC(=O)NCCC3CCCCC3)c2)c(F)c1
REMARK SMILES IDX 6 1 5 2 3 3 4 4 2 6 1 7 78 8 79 9 102 10 80 11 100 12 81 13
REMARK SMILES IDX 101 14 82 15 83 16 99 17 84 18 86 19 85 20 87 21 88 22 89 23
REMARK SMILES IDX 90 24 91 26 92 27 93 28 94 29 98 30 95 31 97 32 96 33 7 34
REMARK SMILES IDX 8 35 9 36 10 37 11 38 12 39 13 40 14 42 15 43 16 44 77 45
REMARK SMILES IDX 17 46 76 47 18 48 19 49 20 50 70 51 21 52 75 53 69 54 71 55
REMARK SMILES IDX 22 56 74 57 68 58 67 59 23 61 55 62 35 63 54 64 36 65 39 66
REMARK SMILES IDX 53 67 72 68 37 69 38 70 52 72 73 73 40 74 24 75 25 76 33 77
REMARK SMILES IDX 26 78 27 79 31 80 34 81 28 82 29 83 32 84 30 85 56 86 57 87
REMARK SMILES IDX 65 88 58 89 59 90 63 91 66 92 60 93 61 94 64 95 62 96 41 97
REMARK SMILES IDX 42 98 50 99 43 100 44 101 48 102 51 103 45 104 46 105 49 106
REMARK SMILES IDX 47 107
REMARK H PARENT 5 5 90 25 12 41 71 60 39 71
REMARK Flexibility Score: inf
ROOT
ATOM      1  C   UNL     1       3.570   1.422   1.251  1.00  0.00     0.116 C 
ENDROOT
BRANCH   1   2
ATOM      2  N   UNL     1       2.536   2.433   1.214  1.00  0.00    -0.356 N 
ATOM      3  C   UNL     1       1.258   2.302   0.750  1.00  0.00     0.227 C 
ATOM      4  O   UNL     1       0.754   3.310   0.255  1.00  0.00    -0.274 OA
ATOM      5  H   UNL     1       2.783   3.320   1.563  1.00  0.00     0.163 HD
BRANCH   3   6
ATOM      6  C   UNL     1       0.559   0.938   0.867  1.00  0.00     0.105 C 
ATOM      7  C   UNL     1       0.932   0.075  -0.348  1.00  0.00     0.023 C 
BRANCH   6   8
ATOM      8  C   UNL     1      -0.962   0.963   1.036  1.00  0.00    -0.033 A 
ATOM      9  C   UNL     1      -1.721   2.137   1.134  1.00  0.00     0.005 A 
ATOM     10  C   UNL     1      -1.655  -0.258   1.095  1.00  0.00     0.044 A 
ATOM     11  C   UNL     1      -3.118   2.098   1.187  1.00  0.00     0.012 A 
ATOM     12  C   UNL     1      -3.045  -0.292   1.145  1.00  0.00     0.131 A 
ATOM     13  C   UNL     1      -3.806   0.881   1.175  1.00  0.00     0.018 A 
ATOM     14  F   UNL     1      -3.643  -1.493   1.166  1.00  0.00    -0.206 F 
BRANCH  13  15
ATOM     15  C   UNL     1      -5.265   0.851   1.295  1.00  0.00    -0.012 A 
ATOM     16  C   UNL     1      -6.104   1.543   0.409  1.00  0.00     0.009 A 
ATOM     17  C   UNL     1      -5.845   0.156   2.364  1.00  0.00     0.056 A 
ATOM     18  C   UNL     1      -7.489   1.545   0.599  1.00  0.00     0.004 A 
ATOM     19  C   UNL     1      -7.216   0.187   2.577  1.00  0.00     0.133 A 
ATOM     20  C   UNL     1      -8.046   0.872   1.688  1.00  0.00     0.047 A 
BRANCH  19  21
ATOM     21  O   UNL     1      -7.853  -0.434   3.676  1.00  0.00    -0.410 OA
BRANCH  21  22
ATOM     22  C   UNL     1      -7.185  -0.886   4.812  1.00  0.00     0.412 C 
ATOM     23  O   UNL     1      -5.973  -0.899   5.004  1.00  0.00    -0.224 OA
ATOM     24  N   UNL     1      -8.014  -1.327   5.798  1.00  0.00    -0.321 N 
ATOM     25  H   UNL     1      -7.578  -1.632   6.627  1.00  0.00     0.167 HD
BRANCH  24  26
ATOM     26  C   UNL     1      -9.456  -1.401   5.773  1.00  0.00     0.119 C 
BRANCH  26  27
ATOM     27  C   UNL     1      -9.933  -2.853   5.784  1.00  0.00     0.025 C 
BRANCH  27  28
ATOM     28  C   UNL     1      -9.490  -3.660   7.024  1.00  0.00    -0.009 C 
ATOM     29  C   UNL     1     -10.131  -3.127   8.316  1.00  0.00     0.003 C 
ATOM     30  C   UNL     1      -9.822  -5.148   6.823  1.00  0.00     0.003 C 
ATOM     31  C   UNL     1      -9.774  -3.981   9.531  1.00  0.00     0.000 C 
ATOM     32  C   UNL     1      -9.443  -5.983   8.043  1.00  0.00     0.000 C 
ATOM     33  C   UNL     1     -10.108  -5.451   9.307  1.00  0.00     0.000 C 
ENDBRANCH  27  28
ENDBRANCH  26  27
ENDBRANCH  24  26
ENDBRANCH  21  22
ENDBRANCH  19  21
ENDBRANCH  13  15
ENDBRANCH   6   8
ENDBRANCH   3   6
ENDBRANCH   1   2
BRANCH   1  34
ATOM     34  C   UNL     1       4.376   1.460  -0.053  1.00  0.00     0.021 C 
BRANCH  34  35
ATOM     35  C   UNL     1       5.106   2.788  -0.295  1.00  0.00     0.002 C 
BRANCH  35  36
ATOM     36  C   UNL     1       6.059   3.203   0.827  1.00  0.00     0.002 C 
BRANCH  36  37
ATOM     37  C   UNL     1       7.108   2.148   1.182  1.00  0.00     0.021 C 
BRANCH  37  38
ATOM     38  C   UNL     1       7.999   1.743   0.015  1.00  0.00     0.116 C 
BRANCH  38  39
ATOM     39  N   UNL     1       8.812   2.853  -0.456  1.00  0.00    -0.352 N 
ATOM     40  C   UNL     1      10.175   2.929  -0.589  1.00  0.00     0.251 C 
ATOM     41  H   UNL     1       8.315   3.662  -0.714  1.00  0.00     0.163 HD
ATOM     42  O   UNL     1      10.722   4.008  -0.788  1.00  0.00    -0.269 OA
BRANCH  40  43
ATOM     43  C   UNL     1      10.987   1.700  -0.470  1.00  0.00     0.039 A 
ATOM     44  C   UNL     1      12.152   1.733   0.298  1.00  0.00     0.014 A 
ATOM     45  C   UNL     1      10.593   0.520  -1.108  1.00  0.00     0.014 A 
ATOM     46  C   UNL     1      12.893   0.563   0.474  1.00  0.00     0.010 A 
ATOM     47  C   UNL     1      11.286  -0.661  -0.864  1.00  0.00     0.010 A 
ATOM     48  C   UNL     1      12.445  -0.651  -0.074  1.00  0.00    -0.014 A 
BRANCH  48  49
ATOM     49  C   UNL     1      13.177  -1.919   0.175  1.00  0.00     0.031 A 
ATOM     50  C   UNL     1      13.797  -2.674  -0.967  1.00  0.00     0.074 A 
ATOM     51  C   UNL     1      13.235  -2.416   1.426  1.00  0.00     0.049 A 
ATOM     52  N   UNL     1      14.433  -3.819  -0.954  1.00  0.00    -0.248 NA
ATOM     53  C   UNL     1      13.665  -2.078  -2.305  1.00  0.00     0.031 C 
ATOM     54  C   UNL     1      12.632  -1.799   2.609  1.00  0.00     0.029 A 
ATOM     55  N   UNL     1      13.823  -3.557   1.911  1.00  0.00    -0.354 N 
ATOM     56  C   UNL     1      14.767  -4.081  -2.276  1.00  0.00     0.074 A 
ATOM     57  C   UNL     1      14.211  -3.009  -3.073  1.00  0.00     0.031 C 
ATOM     58  C   UNL     1      12.905  -2.553   3.686  1.00  0.00     0.029 A 
ATOM     59  C   UNL     1      13.662  -3.728   3.265  1.00  0.00     0.049 A 
ATOM     60  H   UNL     1      14.315  -4.193   1.343  1.00  0.00     0.167 HD
ATOM     61  C   UNL     1      15.492  -5.109  -2.776  1.00  0.00     0.037 A 
ATOM     62  C   UNL     1      14.069  -4.725   4.073  1.00  0.00     0.037 A 
ATOM     63  C   UNL     1      16.054  -6.166  -1.976  1.00  0.00     0.049 A 
ATOM     64  C   UNL     1      14.851  -5.869   3.486  1.00  0.00     0.074 A 
ATOM     65  C   UNL     1      16.850  -7.224  -2.380  1.00  0.00     0.029 A 
ATOM     66  N   UNL     1      15.871  -6.304  -0.608  1.00  0.00    -0.354 N 
ATOM     67  N   UNL     1      15.225  -6.068   2.245  1.00  0.00    -0.248 NA
ATOM     68  C   UNL     1      15.274  -6.926   4.415  1.00  0.00     0.031 C 
ATOM     69  C   UNL     1      17.096  -8.036  -1.269  1.00  0.00     0.029 A 
ATOM     70  C   UNL     1      16.514  -7.447  -0.158  1.00  0.00     0.049 A 
ATOM     71  H   UNL     1      15.361  -5.683  -0.040  1.00  0.00     0.167 HD
ATOM     72  C   UNL     1      15.952  -7.251   2.250  1.00  0.00     0.074 A 
ATOM     73  C   UNL     1      15.982  -7.715   3.621  1.00  0.00     0.031 C 
ATOM     74  C   UNL     1      16.541  -7.895   1.212  1.00  0.00     0.037 A 
BRANCH  61  75
ATOM     75  C   UNL     1      15.720  -5.145  -4.261  1.00  0.00     0.064 A 
ATOM     76  C   UNL     1      16.531  -4.198  -4.907  1.00  0.00     0.173 A 
ATOM     77  C   UNL     1      15.155  -6.163  -5.044  1.00  0.00     0.173 A 
ATOM     78  F   UNL     1      17.087  -3.196  -4.208  1.00  0.00    -0.203 F 
ATOM     79  C   UNL     1      16.742  -4.252  -6.282  1.00  0.00     0.198 A 
ATOM     80  C   UNL     1      15.398  -6.235  -6.414  1.00  0.00     0.198 A 
ATOM     81  F   UNL     1      14.377  -7.099  -4.479  1.00  0.00    -0.203 F 
ATOM     82  F   UNL     1      17.477  -3.305  -6.883  1.00  0.00    -0.200 F 
ATOM     83  C   UNL     1      16.183  -5.274  -7.033  1.00  0.00     0.200 A 
ATOM     84  F   UNL     1      14.870  -7.233  -7.135  1.00  0.00    -0.200 F 
ATOM     85  F   UNL     1      16.396  -5.331  -8.355  1.00  0.00    -0.200 F 
ENDBRANCH  61  75
BRANCH  62  86
ATOM     86  C   UNL     1      13.757  -4.681   5.527  1.00  0.00     0.064 A 
ATOM     87  C   UNL     1      14.775  -4.530   6.479  1.00  0.00     0.173 A 
ATOM     88  C   UNL     1      12.441  -4.804   5.996  1.00  0.00     0.173 A 
ATOM     89  F   UNL     1      16.052  -4.428   6.083  1.00  0.00    -0.203 F 
ATOM     90  C   UNL     1      14.492  -4.533   7.844  1.00  0.00     0.198 A 
ATOM     91  C   UNL     1      12.155  -4.772   7.359  1.00  0.00     0.198 A 
ATOM     92  F   UNL     1      11.428  -4.944   5.128  1.00  0.00    -0.203 F 
ATOM     93  F   UNL     1      15.491  -4.445   8.733  1.00  0.00    -0.200 F 
ATOM     94  C   UNL     1      13.182  -4.649   8.282  1.00  0.00     0.200 A 
ATOM     95  F   UNL     1      10.885  -4.866   7.777  1.00  0.00    -0.200 F 
ATOM     96  F   UNL     1      12.909  -4.649   9.594  1.00  0.00    -0.200 F 
ENDBRANCH  62  86
BRANCH  74  97
ATOM     97  C   UNL     1      17.306  -9.151   1.524  1.00  0.00     0.064 A 
ATOM     98  C   UNL     1      16.660 -10.332   1.920  1.00  0.00     0.173 A 
ATOM     99  C   UNL     1      18.703  -9.181   1.389  1.00  0.00     0.173 A 
ATOM    100  F   UNL     1      15.328 -10.353   2.078  1.00  0.00    -0.203 F 
ATOM    101  C   UNL     1      17.388 -11.486   2.200  1.00  0.00     0.198 A 
ATOM    102  C   UNL     1      19.423 -10.347   1.634  1.00  0.00     0.198 A 
ATOM    103  F   UNL     1      19.370  -8.082   1.005  1.00  0.00    -0.203 F 
ATOM    104  F   UNL     1      16.755 -12.585   2.632  1.00  0.00    -0.200 F 
ATOM    105  C   UNL     1      18.766 -11.495   2.048  1.00  0.00     0.200 A 
ATOM    106  F   UNL     1      20.753 -10.358   1.469  1.00  0.00    -0.200 F 
ATOM    107  F   UNL     1      19.463 -12.609   2.310  1.00  0.00    -0.200 F 
ENDBRANCH  74  97
ENDBRANCH  48  49
ENDBRANCH  40  43
ENDBRANCH  38  39
ENDBRANCH  37  38
ENDBRANCH  36  37
ENDBRANCH  35  36
ENDBRANCH  34  35
ENDBRANCH   1  34
TORSDOF 20
