REMARK SMILES COc1cc(/C=N/NC(=O)c2cc(Cl)ccc2O)ccc1OCC(=O)NCCCCCCNC(=O)c1ccc(-c2c3nc(c(-c4c(F)c(F)c(F)c(F)c4F)c4ccc([nH]4)c(-c4c(F)c(F)c(F)c(F)c4F)c4nc(c(-c5c(F)c(F)c(F)c(F)c5F)c5ccc2[nH]5)C=C4)C=C3)cc1
REMARK SMILES IDX 27 1 26 2 24 3 25 4 23 6 22 7 21 8 3 9 4 10 5 11 20 12 19 13
REMARK SMILES IDX 2 14 1 15 6 16 7 17 8 18 9 19 10 21 11 22 12 23 17 24 13 25
REMARK SMILES IDX 16 26 14 27 15 28 18 29 28 31 29 32 30 33 31 34 32 35 33 36
REMARK SMILES IDX 34 37 35 39 36 40 37 41 98 42 38 43 97 44 39 45 40 46 41 47
REMARK SMILES IDX 91 48 42 49 96 50 90 51 92 52 43 53 95 54 89 55 88 56 44 58
REMARK SMILES IDX 76 59 56 60 75 61 57 62 60 63 74 64 93 65 58 66 59 67 73 69
REMARK SMILES IDX 94 70 61 71 45 72 46 73 54 74 47 75 48 76 52 77 55 78 49 79
REMARK SMILES IDX 50 80 53 81 51 82 77 83 78 84 86 85 79 86 80 87 84 88 87 89
REMARK SMILES IDX 81 90 82 91 85 92 83 93 62 94 63 95 71 96 64 97 65 98 69 99
REMARK SMILES IDX 72 100 66 101 67 102 70 103 68 104
REMARK H PARENT 26 5 8 20 18 30 33 38 92 57 60 68
REMARK Flexibility Score: inf
ROOT
ATOM      1  C   UNL     1       3.243  -0.327   3.189  1.00  0.00     0.116 C 
ENDROOT
BRANCH   1   2
ATOM      2  N   UNL     1       2.215  -0.901   2.351  1.00  0.00    -0.353 N 
ATOM      3  C   UNL     1       2.105  -0.853   0.992  1.00  0.00     0.257 C 
ATOM      4  O   UNL     1       1.307  -1.626   0.456  1.00  0.00    -0.271 OA
ATOM      5  H   UNL     1       1.502  -1.390   2.821  1.00  0.00     0.163 HD
BRANCH   3   6
ATOM      6  C   UNL     1       3.009   0.083   0.176  1.00  0.00     0.329 C 
BRANCH   6   7
ATOM      7  O   UNL     1       3.212   1.410   0.632  1.00  0.00    -0.480 OA
BRANCH   7   8
ATOM      8  C   UNL     1       2.148   2.260   0.752  1.00  0.00     0.161 A 
ATOM      9  C   UNL     1       0.922   2.214   0.075  1.00  0.00     0.161 A 
ATOM     10  C   UNL     1      -0.039   3.211   0.296  1.00  0.00     0.060 A 
ATOM     11  C   UNL     1       0.214   4.235   1.214  1.00  0.00    -0.002 A 
ATOM     12  C   UNL     1       2.390   3.309   1.651  1.00  0.00     0.051 A 
ATOM     13  C   UNL     1       1.425   4.285   1.901  1.00  0.00     0.014 A 
BRANCH   9  14
ATOM     14  O   UNL     1       0.722   1.286  -0.910  1.00  0.00    -0.493 OA
ATOM     15  C   UNL     1      -0.454   0.498  -0.715  1.00  0.00     0.278 C 
ENDBRANCH   9  14
BRANCH  11  16
ATOM     16  C   UNL     1      -0.733   5.350   1.400  1.00  0.00     0.141 C 
ATOM     17  N   UNL     1      -1.522   5.722   0.439  1.00  0.00    -0.180 NA
BRANCH  17  18
ATOM     18  N   UNL     1      -2.258   6.858   0.621  1.00  0.00    -0.243 N 
ATOM     19  C   UNL     1      -1.858   8.109   1.065  1.00  0.00     0.275 C 
ATOM     20  H   UNL     1      -3.215   6.776   0.406  1.00  0.00     0.194 HD
ATOM     21  O   UNL     1      -2.689   9.003   1.221  1.00  0.00    -0.267 OA
BRANCH  19  22
ATOM     22  C   UNL     1      -0.436   8.398   1.361  1.00  0.00     0.084 A 
ATOM     23  C   UNL     1      -0.172   9.137   2.523  1.00  0.00     0.038 A 
ATOM     24  C   UNL     1       0.631   7.982   0.554  1.00  0.00     0.128 A 
ATOM     25  C   UNL     1       1.144   9.389   2.901  1.00  0.00     0.042 A 
ATOM     26  C   UNL     1       1.946   8.239   0.938  1.00  0.00     0.048 A 
ATOM     27  Cl  UNL     1       1.464  10.254   4.354  1.00  0.00    -0.084 Cl
ATOM     28  C   UNL     1       2.205   8.930   2.123  1.00  0.00     0.024 A 
BRANCH  24  29
ATOM     29  O   UNL     1       0.474   7.303  -0.622  1.00  0.00    -0.507 OA
ATOM     30  H   UNL     1      -0.386   7.100  -0.935  1.00  0.00     0.293 HD
ENDBRANCH  24  29
ENDBRANCH  19  22
ENDBRANCH  17  18
ENDBRANCH  11  16
ENDBRANCH   7   8
ENDBRANCH   6   7
ENDBRANCH   3   6
ENDBRANCH   1   2
BRANCH   1  31
ATOM     31  C   UNL     1       2.674   0.553   4.298  1.00  0.00     0.021 C 
BRANCH  31  32
ATOM     32  C   UNL     1       1.682  -0.134   5.245  1.00  0.00     0.002 C 
BRANCH  32  33
ATOM     33  C   UNL     1       2.137  -1.470   5.841  1.00  0.00     0.002 C 
BRANCH  33  34
ATOM     34  C   UNL     1       3.506  -1.458   6.519  1.00  0.00     0.021 C 
BRANCH  34  35
ATOM     35  C   UNL     1       3.663  -0.431   7.631  1.00  0.00     0.116 C 
BRANCH  35  36
ATOM     36  N   UNL     1       2.798  -0.705   8.765  1.00  0.00    -0.352 N 
ATOM     37  C   UNL     1       3.127  -0.829  10.091  1.00  0.00     0.251 C 
ATOM     38  H   UNL     1       1.843  -0.817   8.553  1.00  0.00     0.163 HD
ATOM     39  O   UNL     1       2.300  -1.239  10.902  1.00  0.00    -0.269 OA
BRANCH  37  40
ATOM     40  C   UNL     1       4.495  -0.493  10.542  1.00  0.00     0.039 A 
ATOM     41  C   UNL     1       5.151  -1.361  11.418  1.00  0.00     0.014 A 
ATOM     42  C   UNL     1       5.131   0.667  10.092  1.00  0.00     0.014 A 
ATOM     43  C   UNL     1       6.468  -1.094  11.796  1.00  0.00     0.010 A 
ATOM     44  C   UNL     1       6.470   0.886  10.401  1.00  0.00     0.010 A 
ATOM     45  C   UNL     1       7.150   0.013  11.263  1.00  0.00    -0.014 A 
BRANCH  45  46
ATOM     46  C   UNL     1       8.571   0.278  11.602  1.00  0.00     0.031 A 
ATOM     47  C   UNL     1       8.951   1.532  12.339  1.00  0.00     0.074 A 
ATOM     48  C   UNL     1       9.526  -0.581  11.197  1.00  0.00     0.049 A 
ATOM     49  N   UNL     1      10.137   1.962  12.689  1.00  0.00    -0.248 NA
ATOM     50  C   UNL     1       7.852   2.437  12.707  1.00  0.00     0.031 C 
ATOM     51  C   UNL     1       9.289  -1.813  10.443  1.00  0.00     0.029 A 
ATOM     52  N   UNL     1      10.888  -0.549  11.361  1.00  0.00    -0.354 N 
ATOM     53  C   UNL     1       9.927   3.189  13.306  1.00  0.00     0.074 A 
ATOM     54  C   UNL     1       8.509   3.465  13.220  1.00  0.00     0.031 C 
ATOM     55  C   UNL     1      10.460  -2.439  10.246  1.00  0.00     0.029 A 
ATOM     56  C   UNL     1      11.534  -1.633  10.819  1.00  0.00     0.049 A 
ATOM     57  H   UNL     1      11.357   0.182  11.824  1.00  0.00     0.167 HD
ATOM     58  C   UNL     1      10.828   3.998  13.912  1.00  0.00     0.037 A 
ATOM     59  C   UNL     1      12.844  -1.940  10.789  1.00  0.00     0.037 A 
ATOM     60  C   UNL     1      12.237   3.713  14.001  1.00  0.00     0.049 A 
ATOM     61  C   UNL     1      13.832  -1.003  11.430  1.00  0.00     0.074 A 
ATOM     62  C   UNL     1      13.227   4.439  14.637  1.00  0.00     0.029 A 
ATOM     63  N   UNL     1      12.857   2.615  13.421  1.00  0.00    -0.354 N 
ATOM     64  N   UNL     1      13.616   0.117  12.075  1.00  0.00    -0.248 NA
ATOM     65  C   UNL     1      15.250  -1.378  11.337  1.00  0.00     0.031 C 
ATOM     66  C   UNL     1      14.455   3.815  14.389  1.00  0.00     0.029 A 
ATOM     67  C   UNL     1      14.223   2.663  13.656  1.00  0.00     0.049 A 
ATOM     68  H   UNL     1      12.396   1.906  12.918  1.00  0.00     0.167 HD
ATOM     69  C   UNL     1      14.861   0.562  12.498  1.00  0.00     0.074 A 
ATOM     70  C   UNL     1      15.828  -0.416  12.043  1.00  0.00     0.031 C 
ATOM     71  C   UNL     1      15.175   1.678  13.202  1.00  0.00     0.037 A 
BRANCH  58  72
ATOM     72  C   UNL     1      10.310   5.277  14.512  1.00  0.00     0.064 A 
ATOM     73  C   UNL     1       9.439   5.279  15.613  1.00  0.00     0.173 A 
ATOM     74  C   UNL     1      10.686   6.519  13.976  1.00  0.00     0.173 A 
ATOM     75  F   UNL     1       9.039   4.121  16.160  1.00  0.00    -0.203 F 
ATOM     76  C   UNL     1       8.922   6.469  16.119  1.00  0.00     0.198 A 
ATOM     77  C   UNL     1      10.199   7.709  14.511  1.00  0.00     0.198 A 
ATOM     78  F   UNL     1      11.523   6.580  12.930  1.00  0.00    -0.203 F 
ATOM     79  F   UNL     1       8.031   6.439  17.120  1.00  0.00    -0.200 F 
ATOM     80  C   UNL     1       9.306   7.683  15.571  1.00  0.00     0.200 A 
ATOM     81  F   UNL     1      10.583   8.882  13.989  1.00  0.00    -0.200 F 
ATOM     82  F   UNL     1       8.805   8.828  16.056  1.00  0.00    -0.200 F 
ENDBRANCH  58  72
BRANCH  59  83
ATOM     83  C   UNL     1      13.293  -3.215  10.171  1.00  0.00     0.064 A 
ATOM     84  C   UNL     1      13.815  -4.247  10.964  1.00  0.00     0.173 A 
ATOM     85  C   UNL     1      13.209  -3.434   8.789  1.00  0.00     0.173 A 
ATOM     86  F   UNL     1      13.934  -4.078  12.289  1.00  0.00    -0.203 F 
ATOM     87  C   UNL     1      14.251  -5.442  10.396  1.00  0.00     0.198 A 
ATOM     88  C   UNL     1      13.618  -4.641   8.225  1.00  0.00     0.198 A 
ATOM     89  F   UNL     1      12.714  -2.480   7.986  1.00  0.00    -0.203 F 
ATOM     90  F   UNL     1      14.784  -6.395  11.173  1.00  0.00    -0.200 F 
ATOM     91  C   UNL     1      14.146  -5.641   9.028  1.00  0.00     0.200 A 
ATOM     92  F   UNL     1      13.500  -4.835   6.904  1.00  0.00    -0.200 F 
ATOM     93  F   UNL     1      14.558  -6.793   8.483  1.00  0.00    -0.200 F 
ENDBRANCH  59  83
BRANCH  71  94
ATOM     94  C   UNL     1      16.619   1.881  13.565  1.00  0.00     0.064 A 
ATOM     95  C   UNL     1      17.589   2.195  12.601  1.00  0.00     0.173 A 
ATOM     96  C   UNL     1      17.032   1.794  14.904  1.00  0.00     0.173 A 
ATOM     97  F   UNL     1      17.252   2.276  11.305  1.00  0.00    -0.203 F 
ATOM     98  C   UNL     1      18.922   2.384  12.960  1.00  0.00     0.198 A 
ATOM     99  C   UNL     1      18.357   2.019  15.264  1.00  0.00     0.198 A 
ATOM    100  F   UNL     1      16.144   1.503  15.867  1.00  0.00    -0.203 F 
ATOM    101  F   UNL     1      19.840   2.627  12.015  1.00  0.00    -0.200 F 
ATOM    102  C   UNL     1      19.303   2.304  14.291  1.00  0.00     0.200 A 
ATOM    103  F   UNL     1      18.719   1.958  16.553  1.00  0.00    -0.200 F 
ATOM    104  F   UNL     1      20.584   2.494  14.636  1.00  0.00    -0.200 F 
ENDBRANCH  71  94
ENDBRANCH  45  46
ENDBRANCH  37  40
ENDBRANCH  35  36
ENDBRANCH  34  35
ENDBRANCH  33  34
ENDBRANCH  32  33
ENDBRANCH  31  32
ENDBRANCH   1  31
TORSDOF 20
