REMARK SMILES COC(=O)c1ccc(Cl)c(-c2ccc(C(=O)NCCCCCCNC(=O)c3ccc(-c4c5nc(c(-c6c(F)c(F)c(F)c(F)c6F)c6ccc([nH]6)c(-c6c(F)c(F)c(F)c(F)c6F)c6nc(c(-c7c(F)c(F)c(F)c(F)c7F)c7ccc4[nH]7)C=C6)C=C5)cc3)c(F)c2)c1
REMARK SMILES IDX 20 1 19 2 18 3 17 4 15 5 16 6 14 8 11 9 12 10 92 11 13 12
REMARK SMILES IDX 90 13 91 14 10 15 5 16 6 17 93 18 7 19 8 20 9 21 3 22 4 23
REMARK SMILES IDX 2 24 1 25 21 26 22 27 23 28 24 29 25 30 26 32 27 33 28 34
REMARK SMILES IDX 89 35 29 36 88 37 30 38 31 39 32 40 82 41 33 42 87 43 81 44
REMARK SMILES IDX 83 45 34 46 86 47 80 48 79 49 35 51 67 52 47 53 66 54 48 55
REMARK SMILES IDX 51 56 65 57 84 58 49 59 50 60 64 62 85 63 52 64 36 65 37 66
REMARK SMILES IDX 45 67 38 68 39 69 43 70 46 71 40 72 41 73 44 74 42 75 68 76
REMARK SMILES IDX 69 77 77 78 70 79 71 80 75 81 78 82 72 83 73 84 76 85 74 86
REMARK SMILES IDX 53 87 54 88 62 89 55 90 56 91 60 92 63 93 57 94 58 95 61 96
REMARK SMILES IDX 59 97
REMARK H PARENT 17 7 24 31 83 50 51 61
REMARK Flexibility Score: inf
ROOT
ATOM      1  C   UNL     1       7.648  -2.711  10.703  1.00  0.00     0.002 C 
ENDROOT
BRANCH   1   2
ATOM      2  C   UNL     1       6.537  -2.503   9.665  1.00  0.00     0.021 C 
BRANCH   2   3
ATOM      3  C   UNL     1       6.444  -3.631   8.633  1.00  0.00     0.116 C 
BRANCH   3   4
ATOM      4  N   UNL     1       5.680  -4.738   9.174  1.00  0.00    -0.352 N 
ATOM      5  C   UNL     1       4.386  -5.149   8.998  1.00  0.00     0.254 C 
ATOM      6  O   UNL     1       4.023  -6.137   9.641  1.00  0.00    -0.269 OA
ATOM      7  H   UNL     1       6.194  -5.307   9.791  1.00  0.00     0.163 HD
BRANCH   5   8
ATOM      8  C   UNL     1       3.427  -4.542   8.039  1.00  0.00     0.075 A 
ATOM      9  C   UNL     1       1.501  -3.611   6.167  1.00  0.00    -0.014 A 
ATOM     10  C   UNL     1       1.500  -4.946   6.581  1.00  0.00     0.010 A 
ATOM     11  C   UNL     1       2.451  -2.747   6.726  1.00  0.00     0.048 A 
ATOM     12  C   UNL     1       2.454  -5.405   7.500  1.00  0.00     0.017 A 
ATOM     13  C   UNL     1       3.374  -3.201   7.671  1.00  0.00     0.136 A 
ATOM     14  F   UNL     1       4.157  -2.273   8.232  1.00  0.00    -0.206 F 
BRANCH   9  15
ATOM     15  C   UNL     1       0.543  -3.097   5.180  1.00  0.00     0.001 A 
ATOM     16  C   UNL     1       0.173  -2.189   2.939  1.00  0.00     0.060 A 
ATOM     17  C   UNL     1      -1.154  -1.897   3.265  1.00  0.00     0.017 A 
ATOM     18  C   UNL     1       1.005  -2.804   3.883  1.00  0.00     0.026 A 
ATOM     19  C   UNL     1      -1.640  -2.214   4.535  1.00  0.00     0.022 A 
ATOM     20  C   UNL     1      -0.799  -2.803   5.488  1.00  0.00     0.048 A 
ATOM     21  Cl  UNL     1      -1.462  -3.105   7.057  1.00  0.00    -0.084 Cl
BRANCH  16  22
ATOM     22  C   UNL     1       0.763  -1.833   1.625  1.00  0.00     0.337 C 
ATOM     23  O   UNL     1       1.700  -2.426   1.125  1.00  0.00    -0.246 OA
BRANCH  22  24
ATOM     24  O   UNL     1       0.171  -0.708   1.153  1.00  0.00    -0.465 OA
ATOM     25  C   UNL     1       0.791  -0.178  -0.021  1.00  0.00     0.282 C 
ENDBRANCH  22  24
ENDBRANCH  16  22
ENDBRANCH   9  15
ENDBRANCH   5   8
ENDBRANCH   3   4
ENDBRANCH   2   3
ENDBRANCH   1   2
BRANCH   1  26
ATOM     26  C   UNL     1       9.072  -2.693  10.133  1.00  0.00     0.002 C 
BRANCH  26  27
ATOM     27  C   UNL     1       9.430  -1.442   9.326  1.00  0.00     0.021 C 
BRANCH  27  28
ATOM     28  C   UNL     1       9.348  -0.140  10.116  1.00  0.00     0.116 C 
BRANCH  28  29
ATOM     29  N   UNL     1      10.325  -0.104  11.194  1.00  0.00    -0.352 N 
ATOM     30  C   UNL     1      11.332   0.798  11.425  1.00  0.00     0.251 C 
ATOM     31  H   UNL     1      10.252  -0.832  11.853  1.00  0.00     0.163 HD
ATOM     32  O   UNL     1      12.215   0.548  12.239  1.00  0.00    -0.269 OA
BRANCH  30  33
ATOM     33  C   UNL     1      11.357   2.075  10.684  1.00  0.00     0.039 A 
ATOM     34  C   UNL     1      12.569   2.536  10.165  1.00  0.00     0.014 A 
ATOM     35  C   UNL     1      10.189   2.827  10.523  1.00  0.00     0.014 A 
ATOM     36  C   UNL     1      12.601   3.728   9.440  1.00  0.00     0.010 A 
ATOM     37  C   UNL     1      10.209   3.977   9.741  1.00  0.00     0.010 A 
ATOM     38  C   UNL     1      11.416   4.441   9.198  1.00  0.00    -0.014 A 
BRANCH  38  39
ATOM     39  C   UNL     1      11.417   5.679   8.382  1.00  0.00     0.031 A 
ATOM     40  C   UNL     1      11.062   6.997   9.008  1.00  0.00     0.074 A 
ATOM     41  C   UNL     1      11.679   5.604   7.064  1.00  0.00     0.049 A 
ATOM     42  N   UNL     1      10.948   8.175   8.449  1.00  0.00    -0.248 NA
ATOM     43  C   UNL     1      10.773   6.985  10.450  1.00  0.00     0.031 C 
ATOM     44  C   UNL     1      12.000   4.375   6.339  1.00  0.00     0.029 A 
ATOM     45  N   UNL     1      11.713   6.580   6.101  1.00  0.00    -0.354 N 
ATOM     46  C   UNL     1      10.568   9.039   9.466  1.00  0.00     0.074 A 
ATOM     47  C   UNL     1      10.410   8.241  10.663  1.00  0.00     0.031 C 
ATOM     48  C   UNL     1      12.232   4.675   5.052  1.00  0.00     0.029 A 
ATOM     49  C   UNL     1      12.038   6.109   4.854  1.00  0.00     0.049 A 
ATOM     50  H   UNL     1      11.522   7.528   6.287  1.00  0.00     0.167 HD
ATOM     51  C   UNL     1      10.394  10.380   9.412  1.00  0.00     0.037 A 
ATOM     52  C   UNL     1      12.166   6.759   3.682  1.00  0.00     0.037 A 
ATOM     53  C   UNL     1      10.567  11.169   8.220  1.00  0.00     0.049 A 
ATOM     54  C   UNL     1      11.941   8.244   3.636  1.00  0.00     0.074 A 
ATOM     55  C   UNL     1      10.457  12.539   8.070  1.00  0.00     0.029 A 
ATOM     56  N   UNL     1      10.883  10.653   6.971  1.00  0.00    -0.354 N 
ATOM     57  N   UNL     1      11.625   9.060   4.612  1.00  0.00    -0.248 NA
ATOM     58  C   UNL     1      12.090   8.898   2.329  1.00  0.00     0.031 C 
ATOM     59  C   UNL     1      10.658  12.848   6.721  1.00  0.00     0.029 A 
ATOM     60  C   UNL     1      10.949  11.676   6.039  1.00  0.00     0.049 A 
ATOM     61  H   UNL     1      11.038   9.700   6.776  1.00  0.00     0.167 HD
ATOM     62  C   UNL     1      11.557  10.325   4.046  1.00  0.00     0.074 A 
ATOM     63  C   UNL     1      11.873  10.170   2.640  1.00  0.00     0.031 C 
ATOM     64  C   UNL     1      11.261  11.507   4.641  1.00  0.00     0.037 A 
BRANCH  51  65
ATOM     65  C   UNL     1      10.002  11.079  10.682  1.00  0.00     0.064 A 
ATOM     66  C   UNL     1       8.735  11.667  10.814  1.00  0.00     0.173 A 
ATOM     67  C   UNL     1      10.891  11.191  11.763  1.00  0.00     0.173 A 
ATOM     68  F   UNL     1       7.848  11.596   9.810  1.00  0.00    -0.203 F 
ATOM     69  C   UNL     1       8.374  12.338  11.979  1.00  0.00     0.198 A 
ATOM     70  C   UNL     1      10.515  11.834  12.939  1.00  0.00     0.198 A 
ATOM     71  F   UNL     1      12.111  10.637  11.693  1.00  0.00    -0.203 F 
ATOM     72  F   UNL     1       7.165  12.910  12.074  1.00  0.00    -0.200 F 
ATOM     73  C   UNL     1       9.259  12.413  13.044  1.00  0.00     0.200 A 
ATOM     74  F   UNL     1      11.362  11.879  13.976  1.00  0.00    -0.200 F 
ATOM     75  F   UNL     1       8.900  13.037  14.174  1.00  0.00    -0.200 F 
ENDBRANCH  51  65
BRANCH  52  76
ATOM     76  C   UNL     1      12.581   5.997   2.478  1.00  0.00     0.064 A 
ATOM     77  C   UNL     1      11.720   5.080   1.857  1.00  0.00     0.173 A 
ATOM     78  C   UNL     1      13.884   6.117   1.975  1.00  0.00     0.173 A 
ATOM     79  F   UNL     1      10.467   4.925   2.307  1.00  0.00    -0.203 F 
ATOM     80  C   UNL     1      12.158   4.288   0.797  1.00  0.00     0.198 A 
ATOM     81  C   UNL     1      14.313   5.340   0.901  1.00  0.00     0.198 A 
ATOM     82  F   UNL     1      14.736   6.993   2.527  1.00  0.00    -0.203 F 
ATOM     83  F   UNL     1      11.331   3.387   0.251  1.00  0.00    -0.200 F 
ATOM     84  C   UNL     1      13.454   4.418   0.321  1.00  0.00     0.200 A 
ATOM     85  F   UNL     1      15.561   5.479   0.433  1.00  0.00    -0.200 F 
ATOM     86  F   UNL     1      13.877   3.652  -0.694  1.00  0.00    -0.200 F 
ENDBRANCH  52  76
BRANCH  64  87
ATOM     87  C   UNL     1      11.276  12.740   3.786  1.00  0.00     0.064 A 
ATOM     88  C   UNL     1      12.276  13.709   3.956  1.00  0.00     0.173 A 
ATOM     89  C   UNL     1      10.253  13.004   2.865  1.00  0.00     0.173 A 
ATOM     90  F   UNL     1      13.273  13.506   4.832  1.00  0.00    -0.203 F 
ATOM     91  C   UNL     1      12.240  14.908   3.249  1.00  0.00     0.198 A 
ATOM     92  C   UNL     1      10.235  14.193   2.139  1.00  0.00     0.198 A 
ATOM     93  F   UNL     1       9.281  12.103   2.657  1.00  0.00    -0.203 F 
ATOM     94  F   UNL     1      13.184  15.835   3.457  1.00  0.00    -0.200 F 
ATOM     95  C   UNL     1      11.221  15.147   2.340  1.00  0.00     0.200 A 
ATOM     96  F   UNL     1       9.262  14.414   1.244  1.00  0.00    -0.200 F 
ATOM     97  F   UNL     1      11.190  16.299   1.656  1.00  0.00    -0.200 F 
ENDBRANCH  64  87
ENDBRANCH  38  39
ENDBRANCH  30  33
ENDBRANCH  28  29
ENDBRANCH  27  28
ENDBRANCH  26  27
ENDBRANCH   1  26
TORSDOF 16
