REMARK SMILES Cc1cccc(Cn2c(=O)c3sccc3n(CC(=O)NCCCCCCNC(=O)c3ccc(-c4c5nc(c(-c6c(F)c(F)c(F)c(F)c6F)c6ccc([nH]6)c(-c6c(F)c(F)c(F)c(F)c6F)c6nc(c(-c7c(F)c(F)c(F)c(F)c7F)c7ccc4[nH]7)C=C6)C=C5)cc3)c2=O)c1
REMARK SMILES IDX 23 1 22 2 21 3 20 4 18 5 19 6 17 8 16 9 8 10 9 11 93 12
REMARK SMILES IDX 10 13 11 14 94 15 12 16 15 17 13 18 14 19 7 20 6 21 1 22
REMARK SMILES IDX 2 23 3 24 95 25 4 26 5 27 24 28 25 29 26 30 27 31 28 32
REMARK SMILES IDX 29 34 30 35 31 36 92 37 32 38 91 39 33 40 34 41 35 42 85 43
REMARK SMILES IDX 36 44 90 45 84 46 86 47 37 48 89 49 83 50 82 51 38 53 70 54
REMARK SMILES IDX 50 55 69 56 51 57 54 58 68 59 87 60 52 61 53 62 67 64 88 65
REMARK SMILES IDX 55 66 39 67 40 68 48 69 41 70 42 71 46 72 49 73 43 74 44 75
REMARK SMILES IDX 47 76 45 77 71 78 72 79 80 80 73 81 74 82 78 83 81 84 75 85
REMARK SMILES IDX 76 86 79 87 77 88 56 89 57 90 65 91 58 92 59 93 63 94 66 95
REMARK SMILES IDX 60 96 61 97 64 98 62 99
REMARK H PARENT 20 7 27 33 86 52 54 63
REMARK Flexibility Score: inf
ROOT
ATOM      1  C   UNL     1      -7.910   4.423  -0.000  1.00  0.00     0.002 C 
ENDROOT
BRANCH   1   2
ATOM      2  C   UNL     1      -6.681   3.539  -0.265  1.00  0.00     0.021 C 
BRANCH   2   3
ATOM      3  C   UNL     1      -7.016   2.093  -0.626  1.00  0.00     0.116 C 
BRANCH   3   4
ATOM      4  N   UNL     1      -7.532   1.978  -1.971  1.00  0.00    -0.355 N 
ATOM      5  C   UNL     1      -6.957   1.431  -3.078  1.00  0.00     0.240 C 
ATOM      6  O   UNL     1      -7.645   1.360  -4.102  1.00  0.00    -0.273 OA
ATOM      7  H   UNL     1      -8.433   2.350  -2.107  1.00  0.00     0.163 HD
BRANCH   5   8
ATOM      8  C   UNL     1      -5.547   0.834  -3.046  1.00  0.00     0.227 C 
BRANCH   8   9
ATOM      9  N   UNL     1      -4.462   1.768  -2.719  1.00  0.00    -0.283 N 
ATOM     10  N   UNL     1      -2.647   2.391  -1.277  1.00  0.00    -0.254 N 
ATOM     11  C   UNL     1      -2.279   3.492  -2.060  1.00  0.00     0.274 A 
ATOM     12  C   UNL     1      -3.725   1.545  -1.553  1.00  0.00     0.332 A 
ATOM     13  O   UNL     1      -1.364   4.253  -1.749  1.00  0.00    -0.268 OA
ATOM     14  C   UNL     1      -3.103   3.667  -3.227  1.00  0.00     0.116 A 
ATOM     15  O   UNL     1      -4.054   0.647  -0.775  1.00  0.00    -0.247 OA
ATOM     16  S   UNL     1      -2.899   4.940  -4.333  1.00  0.00    -0.136 S 
ATOM     17  C   UNL     1      -4.144   2.840  -3.551  1.00  0.00     0.070 A 
ATOM     18  C   UNL     1      -4.207   4.384  -5.289  1.00  0.00     0.068 A 
ATOM     19  C   UNL     1      -4.778   3.243  -4.764  1.00  0.00     0.039 A 
BRANCH  10  20
ATOM     20  C   UNL     1      -1.941   2.195  -0.010  1.00  0.00     0.166 C 
BRANCH  20  21
ATOM     21  C   UNL     1      -1.010   0.997   0.029  1.00  0.00    -0.028 A 
ATOM     22  C   UNL     1       2.712   0.184  -0.274  1.00  0.00     0.044 C 
ATOM     23  C   UNL     1       1.229   0.035  -0.101  1.00  0.00    -0.051 A 
ATOM     24  C   UNL     1       0.699  -1.233   0.166  1.00  0.00     0.003 A 
ATOM     25  C   UNL     1       0.367   1.140  -0.199  1.00  0.00     0.009 A 
ATOM     26  C   UNL     1      -0.663  -1.389   0.390  1.00  0.00     0.001 A 
ATOM     27  C   UNL     1      -1.503  -0.279   0.347  1.00  0.00     0.005 A 
ENDBRANCH  20  21
ENDBRANCH  10  20
ENDBRANCH   8   9
ENDBRANCH   5   8
ENDBRANCH   3   4
ENDBRANCH   2   3
ENDBRANCH   1   2
BRANCH   1  28
ATOM     28  C   UNL     1      -8.929   3.883   1.020  1.00  0.00     0.002 C 
BRANCH  28  29
ATOM     29  C   UNL     1      -8.349   3.374   2.343  1.00  0.00     0.021 C 
BRANCH  29  30
ATOM     30  C   UNL     1      -7.791   4.475   3.232  1.00  0.00     0.116 C 
BRANCH  30  31
ATOM     31  N   UNL     1      -8.716   4.941   4.254  1.00  0.00    -0.352 N 
ATOM     32  C   UNL     1      -8.600   5.981   5.159  1.00  0.00     0.251 C 
ATOM     33  H   UNL     1      -9.559   4.435   4.310  1.00  0.00     0.163 HD
ATOM     34  O   UNL     1      -9.451   6.126   6.022  1.00  0.00    -0.269 OA
BRANCH  32  35
ATOM     35  C   UNL     1      -7.531   7.001   4.996  1.00  0.00     0.039 A 
ATOM     36  C   UNL     1      -7.871   8.344   5.223  1.00  0.00     0.014 A 
ATOM     37  C   UNL     1      -6.292   6.687   4.450  1.00  0.00     0.014 A 
ATOM     38  C   UNL     1      -7.087   9.357   4.676  1.00  0.00     0.010 A 
ATOM     39  C   UNL     1      -5.574   7.674   3.811  1.00  0.00     0.010 A 
ATOM     40  C   UNL     1      -6.008   9.001   3.871  1.00  0.00    -0.014 A 
BRANCH  40  41
ATOM     41  C   UNL     1      -5.339   9.913   2.958  1.00  0.00     0.031 A 
ATOM     42  C   UNL     1      -3.977  10.403   3.246  1.00  0.00     0.074 A 
ATOM     43  C   UNL     1      -5.915  10.171   1.763  1.00  0.00     0.049 A 
ATOM     44  N   UNL     1      -3.479  11.471   2.723  1.00  0.00    -0.248 NA
ATOM     45  C   UNL     1      -3.064   9.732   4.167  1.00  0.00     0.031 C 
ATOM     46  C   UNL     1      -5.283  10.755   0.583  1.00  0.00     0.029 A 
ATOM     47  N   UNL     1      -7.277  10.099   1.426  1.00  0.00    -0.354 N 
ATOM     48  C   UNL     1      -2.134  11.476   2.997  1.00  0.00     0.074 A 
ATOM     49  C   UNL     1      -1.932  10.411   3.952  1.00  0.00     0.031 C 
ATOM     50  C   UNL     1      -6.236  11.259  -0.216  1.00  0.00     0.029 A 
ATOM     51  C   UNL     1      -7.493  11.146   0.500  1.00  0.00     0.049 A 
ATOM     52  H   UNL     1      -7.942   9.455   1.764  1.00  0.00     0.167 HD
ATOM     53  C   UNL     1      -1.307  12.289   2.282  1.00  0.00     0.037 A 
ATOM     54  C   UNL     1      -8.321  12.192   0.788  1.00  0.00     0.037 A 
ATOM     55  C   UNL     1      -2.044  13.079   1.306  1.00  0.00     0.049 A 
ATOM     56  C   UNL     1      -7.641  13.539   0.746  1.00  0.00     0.074 A 
ATOM     57  C   UNL     1      -2.289  12.903  -0.046  1.00  0.00     0.029 A 
ATOM     58  N   UNL     1      -2.943  14.044   1.746  1.00  0.00    -0.354 N 
ATOM     59  N   UNL     1      -6.352  13.703   0.859  1.00  0.00    -0.248 NA
ATOM     60  C   UNL     1      -8.352  14.804   0.591  1.00  0.00     0.031 C 
ATOM     61  C   UNL     1      -3.361  13.750  -0.416  1.00  0.00     0.029 A 
ATOM     62  C   UNL     1      -3.757  14.453   0.708  1.00  0.00     0.049 A 
ATOM     63  H   UNL     1      -2.992  14.388   2.667  1.00  0.00     0.167 HD
ATOM     64  C   UNL     1      -6.050  15.041   0.797  1.00  0.00     0.074 A 
ATOM     65  C   UNL     1      -7.337  15.686   0.617  1.00  0.00     0.031 C 
ATOM     66  C   UNL     1      -4.762  15.486   0.903  1.00  0.00     0.037 A 
BRANCH  53  67
ATOM     67  C   UNL     1       0.190  12.134   2.292  1.00  0.00     0.064 A 
ATOM     68  C   UNL     1       0.948  12.257   1.109  1.00  0.00     0.173 A 
ATOM     69  C   UNL     1       0.926  11.826   3.450  1.00  0.00     0.173 A 
ATOM     70  F   UNL     1       0.385  12.612  -0.052  1.00  0.00    -0.203 F 
ATOM     71  C   UNL     1       2.320  11.999   1.072  1.00  0.00     0.198 A 
ATOM     72  C   UNL     1       2.289  11.518   3.404  1.00  0.00     0.198 A 
ATOM     73  F   UNL     1       0.343  11.833   4.658  1.00  0.00    -0.203 F 
ATOM     74  F   UNL     1       2.988  12.123  -0.083  1.00  0.00    -0.200 F 
ATOM     75  C   UNL     1       2.984  11.597   2.212  1.00  0.00     0.200 A 
ATOM     76  F   UNL     1       2.924  11.135   4.521  1.00  0.00    -0.200 F 
ATOM     77  F   UNL     1       4.290  11.301   2.166  1.00  0.00    -0.200 F 
ENDBRANCH  53  67
BRANCH  54  78
ATOM     78  C   UNL     1      -9.434  11.813   1.698  1.00  0.00     0.064 A 
ATOM     79  C   UNL     1     -10.379  10.879   1.229  1.00  0.00     0.173 A 
ATOM     80  C   UNL     1      -9.343  12.004   3.081  1.00  0.00     0.173 A 
ATOM     81  F   UNL     1     -10.502  10.658  -0.090  1.00  0.00    -0.203 F 
ATOM     82  C   UNL     1     -11.104  10.078   2.108  1.00  0.00     0.198 A 
ATOM     83  C   UNL     1     -10.084  11.209   3.960  1.00  0.00     0.198 A 
ATOM     84  F   UNL     1      -8.452  12.867   3.590  1.00  0.00    -0.203 F 
ATOM     85  F   UNL     1     -11.903   9.114   1.630  1.00  0.00    -0.200 F 
ATOM     86  C   UNL     1     -10.932  10.223   3.474  1.00  0.00     0.200 A 
ATOM     87  F   UNL     1      -9.902  11.331   5.283  1.00  0.00    -0.200 F 
ATOM     88  F   UNL     1     -11.550   9.388   4.321  1.00  0.00    -0.200 F 
ENDBRANCH  54  78
BRANCH  66  89
ATOM     89  C   UNL     1      -4.289  16.912   1.093  1.00  0.00     0.064 A 
ATOM     90  C   UNL     1      -5.074  17.944   1.631  1.00  0.00     0.173 A 
ATOM     91  C   UNL     1      -2.928  17.250   0.865  1.00  0.00     0.173 A 
ATOM     92  F   UNL     1      -6.343  17.738   2.002  1.00  0.00    -0.203 F 
ATOM     93  C   UNL     1      -4.557  19.223   1.870  1.00  0.00     0.198 A 
ATOM     94  C   UNL     1      -2.401  18.506   1.165  1.00  0.00     0.198 A 
ATOM     95  F   UNL     1      -2.051  16.363   0.372  1.00  0.00    -0.203 F 
ATOM     96  F   UNL     1      -5.362  20.182   2.347  1.00  0.00    -0.200 F 
ATOM     97  C   UNL     1      -3.220  19.498   1.653  1.00  0.00     0.200 A 
ATOM     98  F   UNL     1      -1.091  18.735   0.998  1.00  0.00    -0.200 F 
ATOM     99  F   UNL     1      -2.720  20.708   1.935  1.00  0.00    -0.200 F 
ENDBRANCH  66  89
ENDBRANCH  40  41
ENDBRANCH  32  35
ENDBRANCH  30  31
ENDBRANCH  29  30
ENDBRANCH  28  29
ENDBRANCH   1  28
TORSDOF 16
