REMARK SMILES O=C(C[C@@H]1C(=O)O[C@H]2[C@@H]3OC(=O)c4cc(O)c(O)c(O)c4-c4ccccc4C(=O)OC[C@H]2O[C@@H](OC(=O)c2cc(O)c(O)c(O)c2)[C@@H]3OC(=O)c2cc(O)c(O)c3c2[C@H]1[C@H](O)C(=O)O3)NCCCCCCNC(=O)c1ccc(-c2c3nc(c(-c4c(F)c(F)c(F)c(F)c4F)c4ccc([nH]4)c(-c4c(F)c(F)c(F)c(F)c4F)c4nc(c(-c5c(F)c(F)c(F)c(F)c5F)c5ccc2[nH]5)C=C4)C=C3)cc1
REMARK SMILES IDX 3 1 2 2 1 3 65 4 66 6 67 7 68 8 69 9 70 10 71 11 72 12 73 13
REMARK SMILES IDX 74 15 75 16 76 17 137 18 77 19 136 20 78 21 79 22 80 23
REMARK SMILES IDX 130 24 81 25 135 26 129 27 131 28 82 29 134 30 128 31 127 32
REMARK SMILES IDX 83 34 115 35 95 36 114 37 96 38 99 39 113 40 132 41 97 42
REMARK SMILES IDX 98 43 112 45 133 46 100 47 84 48 85 49 93 50 86 51 87 52
REMARK SMILES IDX 91 53 94 54 88 55 89 56 92 57 90 58 116 59 117 60 125 61
REMARK SMILES IDX 118 62 119 63 123 64 126 65 120 66 121 67 124 68 122 69
REMARK SMILES IDX 101 70 102 71 110 72 103 73 104 74 108 75 111 76 105 77
REMARK SMILES IDX 106 78 109 79 107 80 4 81 5 83 6 84 7 85 8 86 9 87 32 88
REMARK SMILES IDX 47 89 33 90 34 92 10 93 11 94 12 95 13 96 14 97 21 98 15 99
REMARK SMILES IDX 19 100 17 101 22 102 23 103 27 104 24 105 26 106 25 107
REMARK SMILES IDX 28 108 29 109 30 110 31 111 16 113 20 115 18 117 48 119
REMARK SMILES IDX 49 120 50 121 51 122 52 123 58 124 53 125 57 126 59 127
REMARK SMILES IDX 55 128 64 129 60 130 62 132 63 133 54 134 56 136 61 138
REMARK SMILES IDX 35 140 36 141 37 142 38 143 39 144 46 145 40 146 44 147
REMARK SMILES IDX 42 148 41 149 45 151 43 153
REMARK H PARENT 65 5 72 14 131 33 99 44 16 114 20 116 18 118 54 135 56 137
REMARK H PARENT 61 139 41 150 45 152 43 154
REMARK Flexibility Score: 170.00
ROOT
ATOM      1  C   UNL     1       3.701  -1.779   1.064  1.00  0.00     0.116 C 
ENDROOT
BRANCH   1   2
ATOM      2  C   UNL     1       2.735  -0.767   1.702  1.00  0.00     0.220 C 
ATOM      3  O   UNL     1       1.859  -1.131   2.479  1.00  0.00    -0.275 OA
ATOM      4  N   UNL     1       2.977   0.569   1.421  1.00  0.00    -0.356 N 
ATOM      5  H   UNL     1       3.643   0.803   0.735  1.00  0.00     0.163 HD
BRANCH   4   6
ATOM      6  C   UNL     1       2.272   1.631   2.115  1.00  0.00     0.116 C 
BRANCH   6   7
ATOM      7  C   UNL     1       2.775   1.732   3.551  1.00  0.00     0.021 C 
BRANCH   7   8
ATOM      8  C   UNL     1       4.304   1.873   3.637  1.00  0.00     0.002 C 
BRANCH   8   9
ATOM      9  C   UNL     1       4.854   3.186   3.074  1.00  0.00     0.002 C 
BRANCH   9  10
ATOM     10  C   UNL     1       4.245   4.435   3.703  1.00  0.00     0.021 C 
BRANCH  10  11
ATOM     11  C   UNL     1       4.250   4.420   5.223  1.00  0.00     0.116 C 
BRANCH  11  12
ATOM     12  N   UNL     1       5.598   4.383   5.773  1.00  0.00    -0.352 N 
ATOM     13  C   UNL     1       6.108   5.140   6.799  1.00  0.00     0.251 C 
ATOM     14  H   UNL     1       6.217   3.738   5.361  1.00  0.00     0.163 HD
ATOM     15  O   UNL     1       7.305   5.141   7.056  1.00  0.00    -0.269 OA
BRANCH  13  16
ATOM     16  C   UNL     1       5.172   5.985   7.564  1.00  0.00     0.039 A 
ATOM     17  C   UNL     1       3.970   5.440   8.021  1.00  0.00     0.014 A 
ATOM     18  C   UNL     1       5.452   7.341   7.731  1.00  0.00     0.014 A 
ATOM     19  C   UNL     1       2.976   6.284   8.488  1.00  0.00     0.010 A 
ATOM     20  C   UNL     1       4.489   8.171   8.307  1.00  0.00     0.010 A 
ATOM     21  C   UNL     1       3.227   7.657   8.650  1.00  0.00    -0.014 A 
BRANCH  21  22
ATOM     22  C   UNL     1       2.161   8.524   9.209  1.00  0.00     0.031 A 
ATOM     23  C   UNL     1       1.576   9.651   8.405  1.00  0.00     0.074 A 
ATOM     24  C   UNL     1       1.690   8.252  10.441  1.00  0.00     0.049 A 
ATOM     25  N   UNL     1       0.639  10.503   8.742  1.00  0.00    -0.248 NA
ATOM     26  C   UNL     1       2.111   9.859   7.050  1.00  0.00     0.031 C 
ATOM     27  C   UNL     1       2.177   7.173  11.305  1.00  0.00     0.029 A 
ATOM     28  N   UNL     1       0.687   8.834  11.171  1.00  0.00    -0.354 N 
ATOM     29  C   UNL     1       0.486  11.352   7.654  1.00  0.00     0.074 A 
ATOM     30  C   UNL     1       1.450  10.940   6.658  1.00  0.00     0.031 C 
ATOM     31  C   UNL     1       1.431   7.130  12.417  1.00  0.00     0.029 A 
ATOM     32  C   UNL     1       0.471   8.226  12.384  1.00  0.00     0.049 A 
ATOM     33  H   UNL     1       0.171   9.611  10.857  1.00  0.00     0.167 HD
ATOM     34  C   UNL     1      -0.393  12.371   7.500  1.00  0.00     0.037 A 
ATOM     35  C   UNL     1      -0.390   8.529  13.373  1.00  0.00     0.037 A 
ATOM     36  C   UNL     1      -1.363  12.758   8.493  1.00  0.00     0.049 A 
ATOM     37  C   UNL     1      -1.311   9.701  13.197  1.00  0.00     0.074 A 
ATOM     38  C   UNL     1      -2.309  13.765   8.424  1.00  0.00     0.029 A 
ATOM     39  N   UNL     1      -1.510  12.156   9.735  1.00  0.00    -0.354 N 
ATOM     40  N   UNL     1      -1.454  10.490  12.160  1.00  0.00    -0.248 NA
ATOM     41  C   UNL     1      -2.183  10.033  14.331  1.00  0.00     0.031 C 
ATOM     42  C   UNL     1      -2.990  13.810   9.643  1.00  0.00     0.029 A 
ATOM     43  C   UNL     1      -2.513  12.789  10.451  1.00  0.00     0.049 A 
ATOM     44  H   UNL     1      -0.980  11.392  10.059  1.00  0.00     0.167 HD
ATOM     45  C   UNL     1      -2.444  11.398  12.505  1.00  0.00     0.074 A 
ATOM     46  C   UNL     1      -2.879  11.051  13.843  1.00  0.00     0.031 C 
ATOM     47  C   UNL     1      -2.942  12.427  11.779  1.00  0.00     0.037 A 
BRANCH  34  48
ATOM     48  C   UNL     1      -0.353  13.152   6.216  1.00  0.00     0.064 A 
ATOM     49  C   UNL     1      -0.783  12.597   5.002  1.00  0.00     0.173 A 
ATOM     50  C   UNL     1       0.047  14.498   6.215  1.00  0.00     0.173 A 
ATOM     51  F   UNL     1      -1.165  11.312   4.944  1.00  0.00    -0.203 F 
ATOM     52  C   UNL     1      -0.798  13.354   3.833  1.00  0.00     0.198 A 
ATOM     53  C   UNL     1      -0.000  15.260   5.050  1.00  0.00     0.198 A 
ATOM     54  F   UNL     1       0.461  15.082   7.349  1.00  0.00    -0.203 F 
ATOM     55  F   UNL     1      -1.178  12.790   2.677  1.00  0.00    -0.200 F 
ATOM     56  C   UNL     1      -0.418  14.687   3.860  1.00  0.00     0.200 A 
ATOM     57  F   UNL     1       0.352  16.553   5.083  1.00  0.00    -0.200 F 
ATOM     58  F   UNL     1      -0.452  15.418   2.737  1.00  0.00    -0.200 F 
ENDBRANCH  34  48
BRANCH  35  59
ATOM     59  C   UNL     1      -0.413   7.696  14.602  1.00  0.00     0.064 A 
ATOM     60  C   UNL     1      -1.515   6.883  14.899  1.00  0.00     0.173 A 
ATOM     61  C   UNL     1       0.682   7.658  15.480  1.00  0.00     0.173 A 
ATOM     62  F   UNL     1      -2.591   6.897  14.099  1.00  0.00    -0.203 F 
ATOM     63  C   UNL     1      -1.522   6.067  16.028  1.00  0.00     0.198 A 
ATOM     64  C   UNL     1       0.686   6.817  16.590  1.00  0.00     0.198 A 
ATOM     65  F   UNL     1       1.764   8.412  15.238  1.00  0.00    -0.203 F 
ATOM     66  F   UNL     1      -2.601   5.322  16.305  1.00  0.00    -0.200 F 
ATOM     67  C   UNL     1      -0.418   6.026  16.866  1.00  0.00     0.200 A 
ATOM     68  F   UNL     1       1.765   6.764  17.383  1.00  0.00    -0.200 F 
ATOM     69  F   UNL     1      -0.418   5.225  17.940  1.00  0.00    -0.200 F 
ENDBRANCH  35  59
BRANCH  47  70
ATOM     70  C   UNL     1      -4.037  13.247  12.396  1.00  0.00     0.064 A 
ATOM     71  C   UNL     1      -3.781  14.142  13.445  1.00  0.00     0.173 A 
ATOM     72  C   UNL     1      -5.338  13.201  11.873  1.00  0.00     0.173 A 
ATOM     73  F   UNL     1      -2.556  14.212  13.989  1.00  0.00    -0.203 F 
ATOM     74  C   UNL     1      -4.790  14.953  13.954  1.00  0.00     0.198 A 
ATOM     75  C   UNL     1      -6.337  14.037  12.363  1.00  0.00     0.198 A 
ATOM     76  F   UNL     1      -5.633  12.367  10.864  1.00  0.00    -0.203 F 
ATOM     77  F   UNL     1      -4.532  15.778  14.978  1.00  0.00    -0.200 F 
ATOM     78  C   UNL     1      -6.063  14.910  13.405  1.00  0.00     0.200 A 
ATOM     79  F   UNL     1      -7.561  14.007  11.818  1.00  0.00    -0.200 F 
ATOM     80  F   UNL     1      -7.027  15.710  13.880  1.00  0.00    -0.200 F 
ENDBRANCH  47  70
ENDBRANCH  21  22
ENDBRANCH  13  16
ENDBRANCH  11  12
ENDBRANCH  10  11
ENDBRANCH   9  10
ENDBRANCH   8   9
ENDBRANCH   7   8
ENDBRANCH   6   7
ENDBRANCH   4   6
ENDBRANCH   1   2
BRANCH   1  81
ATOM     81  C   UNL     1       3.954  -1.463  -0.385  1.00  0.00     0.119 CG0
ATOM     82  G   UNL     1       4.693  -2.283  -1.463  1.00  0.00     0.000 G0
BRANCH  81  83
ATOM     83  C   UNL     1       2.744  -0.936  -1.081  1.00  0.00     0.310 C 
ATOM     84  O   UNL     1       1.644  -1.413  -1.187  1.00  0.00    -0.252 OA
BRANCH  83  85
ATOM     85  O   UNL     1       3.329   0.105  -1.715  1.00  0.00    -0.455 OA
BRANCH  85  86
ATOM     86  C   UNL     1       2.891   0.652  -2.920  1.00  0.00     0.254 C 
ATOM     87  C   UNL     1       4.013   1.239  -3.760  1.00  0.00     0.267 C 
ATOM     88  C   UNL     1       1.848  -0.050  -3.728  1.00  0.00     0.205 CG1
ATOM     89  C   UNL     1       4.829   0.180  -4.440  1.00  0.00     0.290 C 
ATOM     90  O   UNL     1       2.406  -0.336  -5.049  1.00  0.00    -0.329 OA
ATOM     91  G   UNL     1       0.575   0.938  -3.584  1.00  0.00     0.000 G1
ATOM     92  C   UNL     1       3.802  -0.819  -5.081  1.00  0.00     0.357 C 
BRANCH  87  93
ATOM     93  O   UNL     1       3.519   2.326  -4.640  1.00  0.00    -0.450 OA
BRANCH  93  94
ATOM     94  C   UNL     1       2.640   2.391  -5.674  1.00  0.00     0.339 C 
ATOM     95  O   UNL     1       2.544   1.597  -6.590  1.00  0.00    -0.246 OA
BRANCH  94  96
ATOM     96  C   UNL     1       1.739   3.615  -5.570  1.00  0.00     0.075 A 
ATOM     97  C   UNL     1       0.458   3.576  -6.159  1.00  0.00     0.066 A 
ATOM     98  C   UNL     1       2.027   4.703  -4.707  1.00  0.00     0.043 A 
ATOM     99  C   UNL     1      -0.435   4.634  -5.956  1.00  0.00     0.162 A 
ATOM    100  C   UNL     1       1.194   5.830  -4.680  1.00  0.00     0.170 A 
ATOM    101  C   UNL     1      -0.042   5.783  -5.286  1.00  0.00     0.200 A 
BRANCH  98 102
ATOM    102  C   UNL     1       2.971   4.556  -3.615  1.00  0.00     0.001 A 
ATOM    103  C   UNL     1       4.316   4.932  -3.833  1.00  0.00     0.010 A 
ATOM    104  C   UNL     1       2.564   3.924  -2.410  1.00  0.00     0.068 A 
ATOM    105  C   UNL     1       5.277   4.693  -2.863  1.00  0.00     0.001 A 
ATOM    106  C   UNL     1       3.546   3.786  -1.406  1.00  0.00     0.016 A 
ATOM    107  C   UNL     1       4.888   4.153  -1.639  1.00  0.00     0.001 A 
BRANCH 104 108
ATOM    108  C   UNL     1       1.244   3.092  -2.251  1.00  0.00     0.338 C 
ATOM    109  O   UNL     1       0.829   2.773  -1.146  1.00  0.00    -0.246 OA
BRANCH 108 110
ATOM    110  O   UNL     1       0.933   2.415  -3.425  1.00  0.00    -0.459 OA
BRANCH 110 111
ATOM    111  C   UNL     1       0.575   0.938  -3.584  1.00  0.00     0.269 CG1
ATOM    112  G   UNL     1       1.848  -0.050  -3.728  1.00  0.00     0.000 G1
ENDBRANCH 110 111
ENDBRANCH 108 110
ENDBRANCH 104 108
ENDBRANCH  98 102
BRANCH  99 113
ATOM    113  O   UNL     1      -1.732   4.526  -6.369  1.00  0.00    -0.504 OA
ATOM    114  H   UNL     1      -2.017   3.757  -6.823  1.00  0.00     0.293 HD
ENDBRANCH  99 113
BRANCH 100 115
ATOM    115  O   UNL     1       1.500   6.966  -3.973  1.00  0.00    -0.504 OA
ATOM    116  H   UNL     1       0.913   7.697  -3.983  1.00  0.00     0.293 HD
ENDBRANCH 100 115
BRANCH 101 117
ATOM    117  O   UNL     1      -0.909   6.832  -5.149  1.00  0.00    -0.502 OA
ATOM    118  H   UNL     1      -1.750   6.801  -5.561  1.00  0.00     0.293 HD
ENDBRANCH 101 117
ENDBRANCH  94  96
ENDBRANCH  93  94
ENDBRANCH  87  93
BRANCH  89 119
ATOM    119  O   UNL     1       5.737  -0.590  -3.542  1.00  0.00    -0.448 OA
BRANCH 119 120
ATOM    120  C   UNL     1       6.483  -0.060  -2.530  1.00  0.00     0.339 C 
ATOM    121  O   UNL     1       6.691   1.119  -2.312  1.00  0.00    -0.246 OA
BRANCH 120 122
ATOM    122  C   UNL     1       6.988  -1.158  -1.629  1.00  0.00     0.071 A 
ATOM    123  C   UNL     1       8.291  -1.096  -1.118  1.00  0.00     0.066 A 
ATOM    124  C   UNL     1       6.163  -2.234  -1.223  1.00  0.00     0.021 A 
ATOM    125  C   UNL     1       8.769  -2.147  -0.325  1.00  0.00     0.162 A 
ATOM    126  C   UNL     1       6.672  -3.285  -0.463  1.00  0.00     0.180 A 
ATOM    127  C   UNL     1       4.693  -2.283  -1.463  1.00  0.00     0.079 CG0
ATOM    128  C   UNL     1       7.978  -3.252  -0.020  1.00  0.00     0.201 A 
ATOM    129  O   UNL     1       5.853  -4.384  -0.103  1.00  0.00    -0.420 OA
ATOM    130  C   UNL     1       4.304  -3.687  -1.867  1.00  0.00     0.232 C 
ATOM    131  G   UNL     1       3.954  -1.463  -0.385  1.00  0.00     0.000 G0
ATOM    132  C   UNL     1       4.615  -4.630  -0.721  1.00  0.00     0.341 C 
ATOM    133  O   UNL     1       3.906  -5.576  -0.405  1.00  0.00    -0.249 OA
BRANCH 125 134
ATOM    134  O   UNL     1      10.049  -2.092   0.148  1.00  0.00    -0.504 OA
ATOM    135  H   UNL     1      10.591  -1.354  -0.051  1.00  0.00     0.293 HD
ENDBRANCH 125 134
BRANCH 128 136
ATOM    136  O   UNL     1       8.512  -4.269   0.716  1.00  0.00    -0.502 OA
ATOM    137  H   UNL     1       9.402  -4.222   1.004  1.00  0.00     0.293 HD
ENDBRANCH 128 136
BRANCH 130 138
ATOM    138  O   UNL     1       3.012  -3.646  -2.431  1.00  0.00    -0.381 OA
ATOM    139  H   UNL     1       2.391  -3.268  -1.789  1.00  0.00     0.211 HD
ENDBRANCH 130 138
ENDBRANCH 120 122
ENDBRANCH 119 120
ENDBRANCH  89 119
BRANCH  92 140
ATOM    140  O   UNL     1       4.339  -1.006  -6.427  1.00  0.00    -0.428 OA
BRANCH 140 141
ATOM    141  C   UNL     1       4.787  -2.252  -6.700  1.00  0.00     0.340 C 
ATOM    142  O   UNL     1       4.373  -3.281  -6.185  1.00  0.00    -0.246 OA
BRANCH 141 143
ATOM    143  C   UNL     1       6.054  -2.252  -7.492  1.00  0.00     0.067 A 
ATOM    144  C   UNL     1       6.305  -1.417  -8.591  1.00  0.00     0.066 A 
ATOM    145  C   UNL     1       7.026  -3.198  -7.096  1.00  0.00     0.066 A 
ATOM    146  C   UNL     1       7.499  -1.581  -9.303  1.00  0.00     0.162 A 
ATOM    147  C   UNL     1       8.215  -3.325  -7.807  1.00  0.00     0.162 A 
ATOM    148  C   UNL     1       8.441  -2.532  -8.920  1.00  0.00     0.200 A 
BRANCH 146 149
ATOM    149  O   UNL     1       7.743  -0.815 -10.408  1.00  0.00    -0.504 OA
ATOM    150  H   UNL     1       7.119  -0.170 -10.678  1.00  0.00     0.293 HD
ENDBRANCH 146 149
BRANCH 147 151
ATOM    151  O   UNL     1       9.181  -4.226  -7.457  1.00  0.00    -0.504 OA
ATOM    152  H   UNL     1       9.970  -4.285  -7.959  1.00  0.00     0.293 HD
ENDBRANCH 147 151
BRANCH 148 153
ATOM    153  O   UNL     1       9.580  -2.688  -9.664  1.00  0.00    -0.502 OA
ATOM    154  H   UNL     1       9.726  -2.149 -10.416  1.00  0.00     0.293 HD
ENDBRANCH 148 153
ENDBRANCH 141 143
ENDBRANCH 140 141
ENDBRANCH  92 140
ENDBRANCH  85  86
ENDBRANCH  83  85
ENDBRANCH  81  83
ENDBRANCH   1  81
TORSDOF 26
