REMARK SMILES CCC[NH+]1CCN(c2cc(C(=O)NCCCCCCNC(=O)c3ccc(-c4c5nc(c(-c6c(F)c(F)c(F)c(F)c6F)c6ccc([nH]6)c(-c6c(F)c(F)c(F)c(F)c6F)c6nc(c(-c7c(F)c(F)c(F)c(F)c7F)c7ccc4[nH]7)C=C6)C=C5)cc3)c3cc(NC(=O)c4ccc(F)cc4)ccc3n2)CC1
REMARK SMILES IDX 16 1 15 2 14 3 13 4 11 5 12 6 10 8 8 9 9 10 102 11 101 12
REMARK SMILES IDX 86 13 100 14 87 15 99 16 88 17 7 18 4 19 5 20 104 21 6 23
REMARK SMILES IDX 103 24 3 25 2 26 1 27 89 28 90 29 91 31 92 32 93 33 98 34
REMARK SMILES IDX 94 35 97 36 95 37 96 38 17 39 18 40 19 41 20 42 21 43 22 45
REMARK SMILES IDX 23 46 24 47 85 48 25 49 84 50 26 51 27 52 28 53 78 54 29 55
REMARK SMILES IDX 83 56 77 57 79 58 30 59 82 60 76 61 75 62 31 64 63 65 43 66
REMARK SMILES IDX 62 67 44 68 47 69 61 70 80 71 45 72 46 73 60 75 81 76 48 77
REMARK SMILES IDX 32 78 33 79 41 80 34 81 35 82 39 83 42 84 36 85 37 86 40 87
REMARK SMILES IDX 38 88 64 89 65 90 73 91 66 92 67 93 71 94 74 95 68 96 69 97
REMARK SMILES IDX 72 98 70 99 49 100 50 101 58 102 51 103 52 104 56 105 59 106
REMARK SMILES IDX 53 107 54 108 57 109 55 110
REMARK H PARENT 13 7 4 22 89 30 20 44 79 63 47 74
REMARK Flexibility Score: inf
ROOT
ATOM      1  C   UNL     1       7.809  -9.655   7.622  1.00  0.00     0.002 C 
ENDROOT
BRANCH   1   2
ATOM      2  C   UNL     1       6.458  -8.925   7.716  1.00  0.00     0.021 C 
BRANCH   2   3
ATOM      3  C   UNL     1       6.284  -7.538   7.080  1.00  0.00     0.116 C 
BRANCH   3   4
ATOM      4  N   UNL     1       6.499  -7.452   5.641  1.00  0.00    -0.352 N 
ATOM      5  C   UNL     1       6.052  -6.607   4.636  1.00  0.00     0.252 C 
ATOM      6  O   UNL     1       6.484  -6.852   3.505  1.00  0.00    -0.269 OA
ATOM      7  H   UNL     1       7.100  -8.155   5.304  1.00  0.00     0.163 HD
BRANCH   5   8
ATOM      8  C   UNL     1       5.080  -5.459   4.765  1.00  0.00     0.052 A 
ATOM      9  C   UNL     1       3.484  -4.047   3.588  1.00  0.00     0.130 A 
ATOM     10  C   UNL     1       4.317  -5.164   3.618  1.00  0.00     0.061 A 
ATOM     11  N   UNL     1       3.263  -3.330   4.705  1.00  0.00    -0.231 NA
ATOM     12  C   UNL     1       4.000  -3.558   5.793  1.00  0.00     0.074 A 
ATOM     13  C   UNL     1       4.999  -4.543   5.829  1.00  0.00     0.015 A 
ATOM     14  C   UNL     1       3.831  -2.723   6.894  1.00  0.00     0.031 A 
ATOM     15  C   UNL     1       5.934  -4.461   6.864  1.00  0.00     0.037 A 
ATOM     16  C   UNL     1       4.728  -2.727   7.968  1.00  0.00     0.028 A 
ATOM     17  C   UNL     1       5.851  -3.537   7.901  1.00  0.00     0.042 A 
BRANCH   9  18
ATOM     18  N   UNL     1       2.969  -3.569   2.403  1.00  0.00    -0.345 N 
ATOM     19  N   UNL     1       0.515  -2.508   1.131  1.00  0.00    -0.332 N 
ATOM     20  C   UNL     1       0.718  -3.952   1.450  1.00  0.00     0.284 C 
ATOM     21  C   UNL     1       1.296  -1.742   2.136  1.00  0.00     0.284 C 
ATOM     22  H   UNL     1      -0.465  -2.230   1.190  1.00  0.00     0.348 HD
ATOM     23  C   UNL     1       2.197  -4.423   1.503  1.00  0.00     0.179 C 
ATOM     24  C   UNL     1       2.790  -2.119   2.237  1.00  0.00     0.179 C 
BRANCH  19  25
ATOM     25  C   UNL     1       0.903  -2.230  -0.264  1.00  0.00     0.262 C 
BRANCH  25  26
ATOM     26  C   UNL     1       0.284  -0.974  -0.899  1.00  0.00     0.058 C 
ATOM     27  C   UNL     1       0.837   0.357  -0.418  1.00  0.00     0.010 C 
ENDBRANCH  25  26
ENDBRANCH  19  25
ENDBRANCH   9  18
BRANCH  17  28
ATOM     28  N   UNL     1       6.863  -3.411   8.871  1.00  0.00    -0.322 N 
ATOM     29  C   UNL     1       8.187  -3.817   8.818  1.00  0.00     0.255 C 
ATOM     30  H   UNL     1       6.591  -2.970   9.708  1.00  0.00     0.170 HD
ATOM     31  O   UNL     1       8.840  -3.952   9.850  1.00  0.00    -0.269 OA
BRANCH  29  32
ATOM     32  C   UNL     1       8.847  -4.071   7.508  1.00  0.00     0.040 A 
ATOM     33  C   UNL     1       9.450  -5.316   7.296  1.00  0.00     0.017 A 
ATOM     34  C   UNL     1       8.769  -3.148   6.457  1.00  0.00     0.017 A 
ATOM     35  C   UNL     1       9.863  -5.688   6.017  1.00  0.00     0.040 A 
ATOM     36  C   UNL     1       9.213  -3.513   5.183  1.00  0.00     0.040 A 
ATOM     37  C   UNL     1       9.733  -4.786   4.969  1.00  0.00     0.123 A 
ATOM     38  F   UNL     1      10.113  -5.149   3.738  1.00  0.00    -0.207 F 
ENDBRANCH  29  32
ENDBRANCH  17  28
ENDBRANCH   5   8
ENDBRANCH   3   4
ENDBRANCH   2   3
ENDBRANCH   1   2
BRANCH   1  39
ATOM     39  C   UNL     1       9.103  -9.028   8.160  1.00  0.00     0.002 C 
BRANCH  39  40
ATOM     40  C   UNL     1       9.082  -8.254   9.477  1.00  0.00     0.021 C 
BRANCH  40  41
ATOM     41  C   UNL     1       8.626  -8.983  10.731  1.00  0.00     0.116 C 
BRANCH  41  42
ATOM     42  N   UNL     1       9.590  -9.948  11.225  1.00  0.00    -0.352 N 
ATOM     43  C   UNL     1      10.183 -10.064  12.460  1.00  0.00     0.251 C 
ATOM     44  H   UNL     1       9.863 -10.630  10.570  1.00  0.00     0.163 HD
ATOM     45  O   UNL     1      11.092 -10.880  12.606  1.00  0.00    -0.269 OA
BRANCH  43  46
ATOM     46  C   UNL     1       9.759  -9.246  13.630  1.00  0.00     0.039 A 
ATOM     47  C   UNL     1      10.721  -8.915  14.595  1.00  0.00     0.014 A 
ATOM     48  C   UNL     1       8.425  -8.894  13.857  1.00  0.00     0.014 A 
ATOM     49  C   UNL     1      10.351  -8.250  15.769  1.00  0.00     0.010 A 
ATOM     50  C   UNL     1       8.067  -8.159  14.989  1.00  0.00     0.010 A 
ATOM     51  C   UNL     1       9.016  -7.873  15.980  1.00  0.00    -0.014 A 
BRANCH  51  52
ATOM     52  C   UNL     1       8.584  -7.288  17.276  1.00  0.00     0.031 A 
ATOM     53  C   UNL     1       7.686  -8.083  18.190  1.00  0.00     0.074 A 
ATOM     54  C   UNL     1       8.975  -6.050  17.627  1.00  0.00     0.049 A 
ATOM     55  N   UNL     1       7.194  -7.762  19.361  1.00  0.00    -0.248 NA
ATOM     56  C   UNL     1       7.260  -9.408  17.709  1.00  0.00     0.031 C 
ATOM     57  C   UNL     1       9.799  -5.161  16.808  1.00  0.00     0.029 A 
ATOM     58  N   UNL     1       8.730  -5.323  18.766  1.00  0.00    -0.354 N 
ATOM     59  C   UNL     1       6.392  -8.832  19.742  1.00  0.00     0.074 A 
ATOM     60  C   UNL     1       6.417  -9.787  18.657  1.00  0.00     0.031 C 
ATOM     61  C   UNL     1      10.012  -4.018  17.481  1.00  0.00     0.029 A 
ATOM     62  C   UNL     1       9.328  -4.087  18.769  1.00  0.00     0.049 A 
ATOM     63  H   UNL     1       8.178  -5.657  19.510  1.00  0.00     0.167 HD
ATOM     64  C   UNL     1       5.718  -9.015  20.902  1.00  0.00     0.037 A 
ATOM     65  C   UNL     1       9.332  -3.126  19.713  1.00  0.00     0.037 A 
ATOM     66  C   UNL     1       5.728  -8.081  21.997  1.00  0.00     0.049 A 
ATOM     67  C   UNL     1       8.618  -3.374  21.015  1.00  0.00     0.074 A 
ATOM     68  C   UNL     1       5.129  -8.195  23.239  1.00  0.00     0.029 A 
ATOM     69  N   UNL     1       6.382  -6.858  21.978  1.00  0.00    -0.354 N 
ATOM     70  N   UNL     1       7.919  -4.417  21.390  1.00  0.00    -0.248 NA
ATOM     71  C   UNL     1       8.711  -2.317  22.032  1.00  0.00     0.031 C 
ATOM     72  C   UNL     1       5.393  -7.025  23.960  1.00  0.00     0.029 A 
ATOM     73  C   UNL     1       6.192  -6.202  23.183  1.00  0.00     0.049 A 
ATOM     74  H   UNL     1       6.904  -6.508  21.220  1.00  0.00     0.167 HD
ATOM     75  C   UNL     1       7.509  -4.156  22.690  1.00  0.00     0.074 A 
ATOM     76  C   UNL     1       8.055  -2.862  23.046  1.00  0.00     0.031 C 
ATOM     77  C   UNL     1       6.747  -4.915  23.516  1.00  0.00     0.037 A 
BRANCH  64  78
ATOM     78  C   UNL     1       4.917 -10.278  21.048  1.00  0.00     0.064 A 
ATOM     79  C   UNL     1       5.536 -11.531  21.185  1.00  0.00     0.173 A 
ATOM     80  C   UNL     1       3.515 -10.235  21.072  1.00  0.00     0.173 A 
ATOM     81  F   UNL     1       6.873 -11.630  21.156  1.00  0.00    -0.203 F 
ATOM     82  C   UNL     1       4.781 -12.695  21.308  1.00  0.00     0.198 A 
ATOM     83  C   UNL     1       2.764 -11.398  21.225  1.00  0.00     0.198 A 
ATOM     84  F   UNL     1       2.872  -9.065  20.949  1.00  0.00    -0.203 F 
ATOM     85  F   UNL     1       5.394 -13.884  21.384  1.00  0.00    -0.200 F 
ATOM     86  C   UNL     1       3.396 -12.627  21.334  1.00  0.00     0.200 A 
ATOM     87  F   UNL     1       1.425 -11.330  21.260  1.00  0.00    -0.200 F 
ATOM     88  F   UNL     1       2.671 -13.748  21.455  1.00  0.00    -0.200 F 
ENDBRANCH  64  78
BRANCH  65  89
ATOM     89  C   UNL     1      10.082  -1.865  19.479  1.00  0.00     0.064 A 
ATOM     90  C   UNL     1      11.271  -1.597  20.172  1.00  0.00     0.173 A 
ATOM     91  C   UNL     1       9.636  -0.911  18.554  1.00  0.00     0.173 A 
ATOM     92  F   UNL     1      11.727  -2.470  21.082  1.00  0.00    -0.203 F 
ATOM     93  C   UNL     1      11.978  -0.415  19.959  1.00  0.00     0.198 A 
ATOM     94  C   UNL     1      10.357   0.260  18.324  1.00  0.00     0.198 A 
ATOM     95  F   UNL     1       8.505  -1.121  17.864  1.00  0.00    -0.203 F 
ATOM     96  F   UNL     1      13.090  -0.166  20.663  1.00  0.00    -0.200 F 
ATOM     97  C   UNL     1      11.524   0.509  19.031  1.00  0.00     0.200 A 
ATOM     98  F   UNL     1       9.921   1.145  17.418  1.00  0.00    -0.200 F 
ATOM     99  F   UNL     1      12.206   1.643  18.822  1.00  0.00    -0.200 F 
ENDBRANCH  65  89
BRANCH  77 100
ATOM    100  C   UNL     1       6.482  -4.373  24.889  1.00  0.00     0.064 A 
ATOM    101  C   UNL     1       5.606  -3.297  25.096  1.00  0.00     0.173 A 
ATOM    102  C   UNL     1       7.092  -4.953  26.011  1.00  0.00     0.173 A 
ATOM    103  F   UNL     1       5.010  -2.702  24.053  1.00  0.00    -0.203 F 
ATOM    104  C   UNL     1       5.376  -2.801  26.376  1.00  0.00     0.198 A 
ATOM    105  C   UNL     1       6.837  -4.471  27.292  1.00  0.00     0.198 A 
ATOM    106  F   UNL     1       7.930  -5.990  25.866  1.00  0.00    -0.203 F 
ATOM    107  F   UNL     1       4.576  -1.739  26.546  1.00  0.00    -0.200 F 
ATOM    108  C   UNL     1       5.987  -3.391  27.473  1.00  0.00     0.200 A 
ATOM    109  F   UNL     1       7.419  -5.050  28.352  1.00  0.00    -0.200 F 
ATOM    110  F   UNL     1       5.764  -2.911  28.704  1.00  0.00    -0.200 F 
ENDBRANCH  77 100
ENDBRANCH  51  52
ENDBRANCH  43  46
ENDBRANCH  41  42
ENDBRANCH  40  41
ENDBRANCH  39  40
ENDBRANCH   1  39
TORSDOF 18
