REMARK SMILES Cc1cc([N+](=O)[O-])ccc1N1CCC(CC(=O)NCCCCCCNC(=O)c2ccc(-c3c4nc(c(-c5c(F)c(F)c(F)c(F)c5F)c5ccc([nH]5)c(-c5c(F)c(F)c(F)c(F)c5F)c5nc(c(-c6c(F)c(F)c(F)c(F)c6F)c6ccc3[nH]6)C=C5)C=C4)cc2)CC1
REMARK SMILES IDX 21 1 20 2 19 3 18 4 16 5 17 6 15 8 14 9 11 10 12 11 92 12
REMARK SMILES IDX 13 13 91 14 10 15 1 16 2 17 3 18 4 19 9 20 8 21 5 22 6 23
REMARK SMILES IDX 7 24 22 25 23 26 24 27 25 28 26 29 27 31 28 32 29 33 90 34
REMARK SMILES IDX 30 35 89 36 31 37 32 38 33 39 83 40 34 41 88 42 82 43 84 44
REMARK SMILES IDX 35 45 87 46 81 47 80 48 36 50 68 51 48 52 67 53 49 54 52 55
REMARK SMILES IDX 66 56 85 57 50 58 51 59 65 61 86 62 53 63 37 64 38 65 46 66
REMARK SMILES IDX 39 67 40 68 44 69 47 70 41 71 42 72 45 73 43 74 69 75 70 76
REMARK SMILES IDX 78 77 71 78 72 79 76 80 79 81 73 82 74 83 77 84 75 85 54 86
REMARK SMILES IDX 55 87 63 88 56 89 57 90 61 91 64 92 58 93 59 94 62 95 60 96
REMARK H PARENT 18 7 25 30 84 49 52 60
REMARK Flexibility Score: inf
ROOT
ATOM      1  C   UNL     1      -0.947   5.992   5.013  1.00  0.00     0.002 C 
ENDROOT
BRANCH   1   2
ATOM      2  C   UNL     1      -0.509   5.541   3.617  1.00  0.00     0.021 C 
BRANCH   2   3
ATOM      3  C   UNL     1      -0.759   6.543   2.480  1.00  0.00     0.116 C 
BRANCH   3   4
ATOM      4  N   UNL     1       0.429   7.333   2.195  1.00  0.00    -0.356 N 
ATOM      5  C   UNL     1       1.271   7.323   1.121  1.00  0.00     0.220 C 
ATOM      6  O   UNL     1       2.270   8.045   1.156  1.00  0.00    -0.275 OA
ATOM      7  H   UNL     1       0.666   7.984   2.895  1.00  0.00     0.163 HD
BRANCH   5   8
ATOM      8  C   UNL     1       0.990   6.449  -0.090  1.00  0.00     0.103 C 
BRANCH   8   9
ATOM      9  C   UNL     1       1.729   5.093  -0.083  1.00  0.00     0.002 C 
ATOM     10  N   UNL     1       1.330   2.263  -0.213  1.00  0.00    -0.371 N 
ATOM     11  C   UNL     1       1.762   2.797   1.062  1.00  0.00     0.117 C 
ATOM     12  C   UNL     1       1.875   2.882  -1.408  1.00  0.00     0.117 C 
ATOM     13  C   UNL     1       1.308   4.245   1.126  1.00  0.00     0.025 C 
ATOM     14  C   UNL     1       1.468   4.359  -1.421  1.00  0.00     0.025 C 
BRANCH  10  15
ATOM     15  C   UNL     1       0.610   1.093  -0.248  1.00  0.00     0.040 A 
ATOM     16  C   UNL     1       2.709  -0.358  -0.148  1.00  0.00     0.047 C 
ATOM     17  C   UNL     1       1.215  -0.175  -0.171  1.00  0.00    -0.021 A 
ATOM     18  C   UNL     1       0.411  -1.329  -0.127  1.00  0.00     0.091 A 
ATOM     19  C   UNL     1      -0.985  -1.220  -0.146  1.00  0.00     0.269 A 
ATOM     20  C   UNL     1      -0.794   1.174  -0.288  1.00  0.00     0.033 A 
ATOM     21  C   UNL     1      -1.595   0.032  -0.234  1.00  0.00     0.088 A 
BRANCH  19  22
ATOM     22  N   UNL     1      -1.813  -2.429  -0.047  1.00  0.00     0.062 N 
ATOM     23  O   UNL     1      -1.233  -3.523   0.008  1.00  0.00    -0.258 OA
ATOM     24  O   UNL     1      -3.043  -2.283  -0.005  1.00  0.00    -0.258 OA
ENDBRANCH  19  22
ENDBRANCH  10  15
ENDBRANCH   8   9
ENDBRANCH   5   8
ENDBRANCH   3   4
ENDBRANCH   2   3
ENDBRANCH   1   2
BRANCH   1  25
ATOM     25  C   UNL     1      -2.435   6.324   5.192  1.00  0.00     0.002 C 
BRANCH  25  26
ATOM     26  C   UNL     1      -3.423   5.325   4.588  1.00  0.00     0.021 C 
BRANCH  26  27
ATOM     27  C   UNL     1      -3.478   3.978   5.302  1.00  0.00     0.116 C 
BRANCH  27  28
ATOM     28  N   UNL     1      -4.520   3.910   6.320  1.00  0.00    -0.352 N 
ATOM     29  C   UNL     1      -4.871   2.874   7.165  1.00  0.00     0.251 C 
ATOM     30  H   UNL     1      -5.056   4.729   6.421  1.00  0.00     0.163 HD
ATOM     31  O   UNL     1      -5.825   2.992   7.917  1.00  0.00    -0.269 OA
BRANCH  29  32
ATOM     32  C   UNL     1      -3.994   1.683   7.262  1.00  0.00     0.039 A 
ATOM     33  C   UNL     1      -3.609   1.277   8.546  1.00  0.00     0.014 A 
ATOM     34  C   UNL     1      -3.403   1.113   6.137  1.00  0.00     0.014 A 
ATOM     35  C   UNL     1      -2.463   0.505   8.702  1.00  0.00     0.010 A 
ATOM     36  C   UNL     1      -2.224   0.406   6.288  1.00  0.00     0.010 A 
ATOM     37  C   UNL     1      -1.716   0.180   7.570  1.00  0.00    -0.014 A 
BRANCH  37  38
ATOM     38  C   UNL     1      -0.323  -0.240   7.658  1.00  0.00     0.031 A 
ATOM     39  C   UNL     1       0.049  -1.663   7.581  1.00  0.00     0.074 A 
ATOM     40  C   UNL     1       0.627   0.709   7.804  1.00  0.00     0.049 A 
ATOM     41  N   UNL     1       1.091  -2.175   8.146  1.00  0.00    -0.248 NA
ATOM     42  C   UNL     1      -0.773  -2.641   6.884  1.00  0.00     0.031 C 
ATOM     43  C   UNL     1       2.074   0.545   7.708  1.00  0.00     0.029 A 
ATOM     44  N   UNL     1       0.451   2.016   8.290  1.00  0.00    -0.354 N 
ATOM     45  C   UNL     1       1.219  -3.470   7.698  1.00  0.00     0.074 A 
ATOM     46  C   UNL     1      -0.001  -3.730   6.965  1.00  0.00     0.031 C 
ATOM     47  C   UNL     1       2.665   1.558   8.364  1.00  0.00     0.029 A 
ATOM     48  C   UNL     1       1.614   2.309   9.032  1.00  0.00     0.049 A 
ATOM     49  H   UNL     1      -0.325   2.605   8.143  1.00  0.00     0.167 HD
ATOM     50  C   UNL     1       2.401  -4.132   7.880  1.00  0.00     0.037 A 
ATOM     51  C   UNL     1       1.563   2.552  10.373  1.00  0.00     0.037 A 
ATOM     52  C   UNL     1       3.356  -3.315   8.625  1.00  0.00     0.049 A 
ATOM     53  C   UNL     1       2.422   1.628  11.199  1.00  0.00     0.074 A 
ATOM     54  C   UNL     1       4.386  -2.487   8.208  1.00  0.00     0.029 A 
ATOM     55  N   UNL     1       3.133  -3.024   9.966  1.00  0.00    -0.354 N 
ATOM     56  N   UNL     1       2.811   0.450  10.801  1.00  0.00    -0.248 NA
ATOM     57  C   UNL     1       2.842   1.934  12.563  1.00  0.00     0.031 C 
ATOM     58  C   UNL     1       4.751  -1.658   9.294  1.00  0.00     0.029 A 
ATOM     59  C   UNL     1       3.956  -1.991  10.377  1.00  0.00     0.049 A 
ATOM     60  H   UNL     1       2.482  -3.487  10.542  1.00  0.00     0.167 HD
ATOM     61  C   UNL     1       3.461  -0.176  11.832  1.00  0.00     0.074 A 
ATOM     62  C   UNL     1       3.483   0.803  12.901  1.00  0.00     0.031 C 
ATOM     63  C   UNL     1       3.897  -1.465  11.730  1.00  0.00     0.037 A 
BRANCH  50  64
ATOM     64  C   UNL     1       2.800  -5.364   7.091  1.00  0.00     0.064 A 
ATOM     65  C   UNL     1       4.151  -5.600   6.748  1.00  0.00     0.173 A 
ATOM     66  C   UNL     1       1.895  -6.309   6.576  1.00  0.00     0.173 A 
ATOM     67  F   UNL     1       5.146  -4.879   7.279  1.00  0.00    -0.203 F 
ATOM     68  C   UNL     1       4.535  -6.591   5.840  1.00  0.00     0.198 A 
ATOM     69  C   UNL     1       2.269  -7.265   5.624  1.00  0.00     0.198 A 
ATOM     70  F   UNL     1       0.634  -6.374   7.021  1.00  0.00    -0.203 F 
ATOM     71  F   UNL     1       5.832  -6.748   5.538  1.00  0.00    -0.200 F 
ATOM     72  C   UNL     1       3.588  -7.392   5.240  1.00  0.00     0.200 A 
ATOM     73  F   UNL     1       1.337  -8.062   5.080  1.00  0.00    -0.200 F 
ATOM     74  F   UNL     1       3.948  -8.300   4.324  1.00  0.00    -0.200 F 
ENDBRANCH  50  64
BRANCH  51  75
ATOM     75  C   UNL     1       0.262   3.094  10.848  1.00  0.00     0.064 A 
ATOM     76  C   UNL     1      -0.180   4.341  10.370  1.00  0.00     0.173 A 
ATOM     77  C   UNL     1      -0.673   2.284  11.504  1.00  0.00     0.173 A 
ATOM     78  F   UNL     1       0.674   5.155   9.728  1.00  0.00    -0.203 F 
ATOM     79  C   UNL     1      -1.518   4.720  10.462  1.00  0.00     0.198 A 
ATOM     80  C   UNL     1      -2.010   2.671  11.605  1.00  0.00     0.198 A 
ATOM     81  F   UNL     1      -0.321   1.076  11.966  1.00  0.00    -0.203 F 
ATOM     82  F   UNL     1      -1.925   5.874   9.914  1.00  0.00    -0.200 F 
ATOM     83  C   UNL     1      -2.436   3.874  11.061  1.00  0.00     0.200 A 
ATOM     84  F   UNL     1      -2.904   1.839  12.157  1.00  0.00    -0.200 F 
ATOM     85  F   UNL     1      -3.735   4.201  11.085  1.00  0.00    -0.200 F 
ENDBRANCH  51  75
BRANCH  63  86
ATOM     86  C   UNL     1       4.396  -2.300  12.877  1.00  0.00     0.064 A 
ATOM     87  C   UNL     1       3.913  -2.179  14.191  1.00  0.00     0.173 A 
ATOM     88  C   UNL     1       5.297  -3.365  12.650  1.00  0.00     0.173 A 
ATOM     89  F   UNL     1       2.965  -1.285  14.504  1.00  0.00    -0.203 F 
ATOM     90  C   UNL     1       4.356  -3.014  15.220  1.00  0.00     0.198 A 
ATOM     91  C   UNL     1       5.695  -4.231  13.667  1.00  0.00     0.198 A 
ATOM     92  F   UNL     1       5.798  -3.605  11.429  1.00  0.00    -0.203 F 
ATOM     93  F   UNL     1       3.900  -2.829  16.466  1.00  0.00    -0.200 F 
ATOM     94  C   UNL     1       5.238  -4.045  14.956  1.00  0.00     0.200 A 
ATOM     95  F   UNL     1       6.510  -5.258  13.387  1.00  0.00    -0.200 F 
ATOM     96  F   UNL     1       5.629  -4.869  15.937  1.00  0.00    -0.200 F 
ENDBRANCH  63  86
ENDBRANCH  37  38
ENDBRANCH  29  32
ENDBRANCH  27  28
ENDBRANCH  26  27
ENDBRANCH  25  26
ENDBRANCH   1  25
TORSDOF 16
