REMARK SMILES C[C@@H](C(=O)NCCCCCCNC(=O)c1ccc(-c2c3nc(c(-c4c(F)c(F)c(F)c(F)c4F)c4ccc([nH]4)c(-c4c(F)c(F)c(F)c(F)c4F)c4nc(c(-c5c(F)c(F)c(F)c(F)c5F)c5ccc2[nH]5)C=C4)C=C3)cc1)c1ccc(C[C@@H]2CCC[C@@H]2O)cc1Br
REMARK SMILES IDX 7 1 6 2 5 3 3 4 4 5 2 7 1 8 78 9 79 10 90 11 80 12 89 13
REMARK SMILES IDX 91 14 81 15 82 16 83 17 84 18 87 19 85 20 86 21 88 22 8 24
REMARK SMILES IDX 9 25 10 26 11 27 12 28 13 29 14 31 15 32 16 33 77 34 17 35
REMARK SMILES IDX 76 36 18 37 19 38 20 39 70 40 21 41 75 42 69 43 71 44 22 45
REMARK SMILES IDX 74 46 68 47 67 48 23 50 55 51 35 52 54 53 36 54 39 55 53 56
REMARK SMILES IDX 72 57 37 58 38 59 52 61 73 62 40 63 24 64 25 65 33 66 26 67
REMARK SMILES IDX 27 68 31 69 34 70 28 71 29 72 32 73 30 74 56 75 57 76 65 77
REMARK SMILES IDX 58 78 59 79 63 80 66 81 60 82 61 83 64 84 62 85 41 86 42 87
REMARK SMILES IDX 50 88 43 89 44 90 48 91 51 92 45 93 46 94 49 95 47 96
REMARK H PARENT 5 6 88 23 12 30 71 49 39 60
REMARK Flexibility Score: inf
ROOT
ATOM      1  C   UNL     1     -12.310   5.720   8.162  1.00  0.00     0.021 C 
ENDROOT
BRANCH   1   2
ATOM      2  C   UNL     1     -11.182   4.688   8.219  1.00  0.00     0.116 C 
BRANCH   2   3
ATOM      3  N   UNL     1     -11.470   3.607   7.303  1.00  0.00    -0.356 N 
ATOM      4  C   UNL     1     -11.092   3.451   6.002  1.00  0.00     0.227 C 
ATOM      5  O   UNL     1     -11.695   2.596   5.350  1.00  0.00    -0.274 OA
ATOM      6  H   UNL     1     -12.018   2.877   7.672  1.00  0.00     0.163 HD
BRANCH   4   7
ATOM      7  C   UNL     1      -9.896   4.246   5.451  1.00  0.00     0.106 C 
ATOM      8  C   UNL     1     -10.140   5.753   5.330  1.00  0.00     0.023 C 
BRANCH   7   9
ATOM      9  C   UNL     1      -9.332   3.563   4.205  1.00  0.00    -0.022 A 
ATOM     10  C   UNL     1      -8.499   2.447   4.446  1.00  0.00     0.006 A 
ATOM     11  C   UNL     1      -9.595   3.891   2.866  1.00  0.00     0.022 A 
ATOM     12  C   UNL     1      -7.882   1.751   3.408  1.00  0.00     0.004 A 
ATOM     13  C   UNL     1      -8.914   3.232   1.832  1.00  0.00     0.019 A 
ATOM     14  Br  UNL     1     -10.891   5.155   2.287  1.00  0.00    -0.051 Br
ATOM     15  C   UNL     1      -8.023   2.186   2.093  1.00  0.00    -0.047 A 
BRANCH  15  16
ATOM     16  C   UNL     1      -7.236   1.564   0.971  1.00  0.00     0.041 C 
BRANCH  16  17
ATOM     17  C   UNL     1      -5.725   1.880   0.904  1.00  0.00     0.022 C 
ATOM     18  C   UNL     1      -4.883   1.228   2.007  1.00  0.00     0.007 C 
ATOM     19  C   UNL     1      -5.296   3.352   0.970  1.00  0.00     0.117 C 
ATOM     20  C   UNL     1      -4.566   2.319   3.033  1.00  0.00     0.003 C 
ATOM     21  C   UNL     1      -5.067   3.634   2.448  1.00  0.00     0.032 C 
BRANCH  19  22
ATOM     22  O   UNL     1      -6.222   4.259   0.409  1.00  0.00    -0.393 OA
ATOM     23  H   UNL     1      -7.064   4.199   0.888  1.00  0.00     0.210 HD
ENDBRANCH  19  22
ENDBRANCH  16  17
ENDBRANCH  15  16
ENDBRANCH   7   9
ENDBRANCH   4   7
ENDBRANCH   2   3
ENDBRANCH   1   2
BRANCH   1  24
ATOM     24  C   UNL     1     -13.635   5.196   8.737  1.00  0.00     0.002 C 
BRANCH  24  25
ATOM     25  C   UNL     1     -13.563   4.758  10.203  1.00  0.00     0.002 C 
BRANCH  25  26
ATOM     26  C   UNL     1     -13.042   5.833  11.159  1.00  0.00     0.021 C 
BRANCH  26  27
ATOM     27  C   UNL     1     -13.890   7.099  11.187  1.00  0.00     0.116 C 
BRANCH  27  28
ATOM     28  N   UNL     1     -15.225   6.841  11.704  1.00  0.00    -0.352 N 
ATOM     29  C   UNL     1     -15.877   7.437  12.751  1.00  0.00     0.251 C 
ATOM     30  H   UNL     1     -15.732   6.140  11.234  1.00  0.00     0.163 HD
ATOM     31  O   UNL     1     -16.911   6.945  13.200  1.00  0.00    -0.269 OA
BRANCH  29  32
ATOM     32  C   UNL     1     -15.325   8.666  13.354  1.00  0.00     0.039 A 
ATOM     33  C   UNL     1     -15.296   8.784  14.745  1.00  0.00     0.014 A 
ATOM     34  C   UNL     1     -14.842   9.702  12.549  1.00  0.00     0.014 A 
ATOM     35  C   UNL     1     -14.734   9.919  15.330  1.00  0.00     0.010 A 
ATOM     36  C   UNL     1     -14.211  10.795  13.132  1.00  0.00     0.010 A 
ATOM     37  C   UNL     1     -14.157  10.919  14.529  1.00  0.00    -0.014 A 
BRANCH  37  38
ATOM     38  C   UNL     1     -13.501  12.104  15.137  1.00  0.00     0.031 A 
ATOM     39  C   UNL     1     -14.057  13.480  14.899  1.00  0.00     0.074 A 
ATOM     40  C   UNL     1     -12.376  11.943  15.861  1.00  0.00     0.049 A 
ATOM     41  N   UNL     1     -13.596  14.640  15.297  1.00  0.00    -0.248 NA
ATOM     42  C   UNL     1     -15.279  13.569  14.085  1.00  0.00     0.031 C 
ATOM     43  C   UNL     1     -11.716  10.663  16.124  1.00  0.00     0.029 A 
ATOM     44  N   UNL     1     -11.584  12.862  16.501  1.00  0.00    -0.354 N 
ATOM     45  C   UNL     1     -14.468  15.590  14.782  1.00  0.00     0.074 A 
ATOM     46  C   UNL     1     -15.445  14.880  13.987  1.00  0.00     0.031 C 
ATOM     47  C   UNL     1     -10.635  10.875  16.891  1.00  0.00     0.029 A 
ATOM     48  C   UNL     1     -10.501  12.307  17.138  1.00  0.00     0.049 A 
ATOM     49  H   UNL     1     -11.774  13.828  16.504  1.00  0.00     0.167 HD
ATOM     50  C   UNL     1     -14.471  16.930  14.978  1.00  0.00     0.037 A 
ATOM     51  C   UNL     1      -9.506  12.890  17.834  1.00  0.00     0.037 A 
ATOM     52  C   UNL     1     -13.501  17.632  15.778  1.00  0.00     0.049 A 
ATOM     53  C   UNL     1      -9.516  14.386  18.010  1.00  0.00     0.074 A 
ATOM     54  C   UNL     1     -13.436  18.983  16.068  1.00  0.00     0.029 A 
ATOM     55  N   UNL     1     -12.422  17.035  16.415  1.00  0.00    -0.354 N 
ATOM     56  N   UNL     1     -10.383  15.267  17.572  1.00  0.00    -0.248 NA
ATOM     57  C   UNL     1      -8.411  14.967  18.785  1.00  0.00     0.031 C 
ATOM     58  C   UNL     1     -12.290  19.211  16.837  1.00  0.00     0.029 A 
ATOM     59  C   UNL     1     -11.674  17.994  17.078  1.00  0.00     0.049 A 
ATOM     60  H   UNL     1     -12.218  16.072  16.397  1.00  0.00     0.167 HD
ATOM     61  C   UNL     1      -9.948  16.498  18.046  1.00  0.00     0.074 A 
ATOM     62  C   UNL     1      -8.751  16.248  18.820  1.00  0.00     0.031 C 
ATOM     63  C   UNL     1     -10.491  17.726  17.856  1.00  0.00     0.037 A 
BRANCH  50  64
ATOM     64  C   UNL     1     -15.563  17.726  14.322  1.00  0.00     0.064 A 
ATOM     65  C   UNL     1     -16.901  17.614  14.733  1.00  0.00     0.173 A 
ATOM     66  C   UNL     1     -15.268  18.637  13.296  1.00  0.00     0.173 A 
ATOM     67  F   UNL     1     -17.240  16.750  15.702  1.00  0.00    -0.203 F 
ATOM     68  C   UNL     1     -17.905  18.361  14.122  1.00  0.00     0.198 A 
ATOM     69  C   UNL     1     -16.270  19.407  12.711  1.00  0.00     0.198 A 
ATOM     70  F   UNL     1     -14.006  18.789  12.868  1.00  0.00    -0.203 F 
ATOM     71  F   UNL     1     -19.181  18.198  14.497  1.00  0.00    -0.200 F 
ATOM     72  C   UNL     1     -17.588  19.263  13.118  1.00  0.00     0.200 A 
ATOM     73  F   UNL     1     -15.960  20.290  11.751  1.00  0.00    -0.200 F 
ATOM     74  F   UNL     1     -18.553  19.988  12.537  1.00  0.00    -0.200 F 
ENDBRANCH  50  64
BRANCH  51  75
ATOM     75  C   UNL     1      -8.425  12.062  18.431  1.00  0.00     0.064 A 
ATOM     76  C   UNL     1      -8.287  11.949  19.822  1.00  0.00     0.173 A 
ATOM     77  C   UNL     1      -7.492  11.390  17.628  1.00  0.00     0.173 A 
ATOM     78  F   UNL     1      -9.142  12.588  20.634  1.00  0.00    -0.203 F 
ATOM     79  C   UNL     1      -7.240  11.222  20.386  1.00  0.00     0.198 A 
ATOM     80  C   UNL     1      -6.465  10.636  18.193  1.00  0.00     0.198 A 
ATOM     81  F   UNL     1      -7.581  11.459  16.291  1.00  0.00    -0.203 F 
ATOM     82  F   UNL     1      -7.097  11.181  21.717  1.00  0.00    -0.200 F 
ATOM     83  C   UNL     1      -6.332  10.563  19.571  1.00  0.00     0.200 A 
ATOM     84  F   UNL     1      -5.601   9.986  17.401  1.00  0.00    -0.200 F 
ATOM     85  F   UNL     1      -5.325   9.866  20.113  1.00  0.00    -0.200 F 
ENDBRANCH  51  75
BRANCH  63  86
ATOM     86  C   UNL     1      -9.821  18.887  18.534  1.00  0.00     0.064 A 
ATOM     87  C   UNL     1      -8.566  19.361  18.123  1.00  0.00     0.173 A 
ATOM     88  C   UNL     1     -10.460  19.555  19.590  1.00  0.00     0.173 A 
ATOM     89  F   UNL     1      -7.906  18.749  17.128  1.00  0.00    -0.203 F 
ATOM     90  C   UNL     1      -7.963  20.439  18.765  1.00  0.00     0.198 A 
ATOM     91  C   UNL     1      -9.870  20.654  20.206  1.00  0.00     0.198 A 
ATOM     92  F   UNL     1     -11.665  19.148  20.018  1.00  0.00    -0.203 F 
ATOM     93  F   UNL     1      -6.739  20.838  18.393  1.00  0.00    -0.200 F 
ATOM     94  C   UNL     1      -8.618  21.090  19.800  1.00  0.00     0.200 A 
ATOM     95  F   UNL     1     -10.512  21.292  21.195  1.00  0.00    -0.200 F 
ATOM     96  F   UNL     1      -8.039  22.132  20.412  1.00  0.00    -0.200 F 
ENDBRANCH  63  86
ENDBRANCH  37  38
ENDBRANCH  29  32
ENDBRANCH  27  28
ENDBRANCH  26  27
ENDBRANCH  25  26
ENDBRANCH  24  25
ENDBRANCH   1  24
TORSDOF 17
