REMARK SMILES [NH3+]C[C@H]1CC[C@@H](C(=O)Nc2ccc(C(=O)NCCCCCCNC(=O)c3ccc(-c4c5nc(c(-c6c(F)c(F)c(F)c(F)c6F)c6ccc([nH]6)c(-c6c(F)c(F)c(F)c(F)c6F)c6nc(c(-c7c(F)c(F)c(F)c(F)c7F)c7ccc4[nH]7)C=C6)C=C5)cc3)cc2Br)CC1
REMARK SMILES IDX 18 1 17 2 16 3 14 4 15 5 13 7 10 8 11 9 90 10 12 11 89 12
REMARK SMILES IDX 91 13 9 14 7 15 8 16 6 18 3 19 4 20 93 21 5 22 92 23 2 24
REMARK SMILES IDX 1 25 19 29 20 30 21 31 22 32 23 33 24 34 25 36 26 37 27 38
REMARK SMILES IDX 88 39 28 40 87 41 29 42 30 43 31 44 81 45 32 46 86 47 80 48
REMARK SMILES IDX 82 49 33 50 85 51 79 52 78 53 34 55 66 56 46 57 65 58 47 59
REMARK SMILES IDX 50 60 64 61 83 62 48 63 49 64 63 66 84 67 51 68 35 69 36 70
REMARK SMILES IDX 44 71 37 72 38 73 42 74 45 75 39 76 40 77 43 78 41 79 67 80
REMARK SMILES IDX 68 81 76 82 69 83 70 84 74 85 77 86 71 87 72 88 75 89 73 90
REMARK SMILES IDX 52 91 53 92 61 93 54 94 55 95 59 96 62 97 56 98 57 99 60 100
REMARK SMILES IDX 58 101
REMARK H PARENT 16 6 9 17 1 26 1 27 1 28 23 35 82 54 50 65
REMARK Flexibility Score: inf
ROOT
ATOM      1  C   UNL     1       1.920  -2.784   4.258  1.00  0.00     0.021 C 
ENDROOT
BRANCH   1   2
ATOM      2  C   UNL     1       1.877  -1.913   3.007  1.00  0.00     0.116 C 
BRANCH   2   3
ATOM      3  N   UNL     1       1.190  -2.605   1.927  1.00  0.00    -0.352 N 
ATOM      4  C   UNL     1      -0.014  -2.377   1.306  1.00  0.00     0.251 C 
ATOM      5  O   UNL     1      -0.369  -3.116   0.393  1.00  0.00    -0.269 OA
ATOM      6  H   UNL     1       1.681  -3.383   1.575  1.00  0.00     0.163 HD
BRANCH   4   7
ATOM      7  C   UNL     1      -0.827  -1.178   1.629  1.00  0.00     0.041 A 
ATOM      8  C   UNL     1      -1.756   1.424   2.055  1.00  0.00     0.055 A 
ATOM      9  C   UNL     1      -1.775   0.875   0.768  1.00  0.00     0.028 A 
ATOM     10  C   UNL     1      -1.520   0.573   3.144  1.00  0.00     0.042 A 
ATOM     11  C   UNL     1      -1.287  -0.414   0.550  1.00  0.00     0.016 A 
ATOM     12  C   UNL     1      -1.057  -0.734   2.930  1.00  0.00     0.031 A 
ATOM     13  Br  UNL     1      -1.863   1.098   4.935  1.00  0.00    -0.049 Br
BRANCH   8  14
ATOM     14  N   UNL     1      -2.120   2.767   2.171  1.00  0.00    -0.325 N 
ATOM     15  C   UNL     1      -1.494   3.871   2.663  1.00  0.00     0.227 C 
ATOM     16  O   UNL     1      -2.235   4.853   2.833  1.00  0.00    -0.274 OA
ATOM     17  H   UNL     1      -3.021   2.956   1.824  1.00  0.00     0.169 HD
BRANCH  15  18
ATOM     18  C   UNL     1       0.031   4.097   2.800  1.00  0.00     0.079 C 
ATOM     19  C   UNL     1       2.042   2.253   1.489  1.00  0.00     0.044 C 
ATOM     20  C   UNL     1       1.112   3.174   0.690  1.00  0.00     0.010 C 
ATOM     21  C   UNL     1       1.583   2.037   2.943  1.00  0.00     0.010 C 
ATOM     22  C   UNL     1       0.694   4.416   1.458  1.00  0.00     0.014 C 
ATOM     23  C   UNL     1       0.936   3.218   3.651  1.00  0.00     0.014 C 
BRANCH  19  24
ATOM     24  C   UNL     1       2.198   0.867   0.824  1.00  0.00     0.262 C 
BRANCH  24  25
ATOM     25  N   UNL     1       2.476   0.857  -0.601  1.00  0.00    -0.357 N 
ATOM     26  H   UNL     1       2.557  -0.106  -0.925  1.00  0.00     0.344 HD
ATOM     27  H   UNL     1       3.350   1.351  -0.780  1.00  0.00     0.344 HD
ATOM     28  H   UNL     1       1.716   1.321  -1.099  1.00  0.00     0.344 HD
ENDBRANCH  24  25
ENDBRANCH  19  24
ENDBRANCH  15  18
ENDBRANCH   8  14
ENDBRANCH   4   7
ENDBRANCH   2   3
ENDBRANCH   1   2
BRANCH   1  29
ATOM     29  C   UNL     1       2.978  -3.892   4.180  1.00  0.00     0.002 C 
BRANCH  29  30
ATOM     30  C   UNL     1       4.431  -3.402   4.223  1.00  0.00     0.002 C 
BRANCH  30  31
ATOM     31  C   UNL     1       4.803  -2.560   5.446  1.00  0.00     0.021 C 
BRANCH  31  32
ATOM     32  C   UNL     1       4.495  -3.209   6.791  1.00  0.00     0.116 C 
BRANCH  32  33
ATOM     33  N   UNL     1       5.225  -4.450   6.990  1.00  0.00    -0.352 N 
ATOM     34  C   UNL     1       6.002  -4.848   8.050  1.00  0.00     0.251 C 
ATOM     35  H   UNL     1       5.152  -5.102   6.255  1.00  0.00     0.163 HD
ATOM     36  O   UNL     1       6.683  -5.862   7.970  1.00  0.00    -0.269 OA
BRANCH  34  37
ATOM     37  C   UNL     1       6.036  -4.034   9.285  1.00  0.00     0.039 A 
ATOM     38  C   UNL     1       7.269  -3.790   9.894  1.00  0.00     0.014 A 
ATOM     39  C   UNL     1       4.863  -3.520   9.844  1.00  0.00     0.014 A 
ATOM     40  C   UNL     1       7.332  -2.981  11.030  1.00  0.00     0.010 A 
ATOM     41  C   UNL     1       4.936  -2.650  10.928  1.00  0.00     0.010 A 
ATOM     42  C   UNL     1       6.170  -2.374  11.535  1.00  0.00    -0.014 A 
BRANCH  42  43
ATOM     43  C   UNL     1       6.234  -1.443  12.691  1.00  0.00     0.031 A 
ATOM     44  C   UNL     1       5.528  -1.774  13.976  1.00  0.00     0.074 A 
ATOM     45  C   UNL     1       6.873  -0.265  12.558  1.00  0.00     0.049 A 
ATOM     46  N   UNL     1       5.429  -1.066  15.073  1.00  0.00    -0.248 NA
ATOM     47  C   UNL     1       4.812  -3.057  14.024  1.00  0.00     0.031 C 
ATOM     48  C   UNL     1       7.543   0.199  11.343  1.00  0.00     0.029 A 
ATOM     49  N   UNL     1       7.051   0.764  13.449  1.00  0.00    -0.354 N 
ATOM     50  C   UNL     1       4.628  -1.808  15.931  1.00  0.00     0.074 A 
ATOM     51  C   UNL     1       4.222  -2.993  15.208  1.00  0.00     0.031 C 
ATOM     52  C   UNL     1       8.074   1.410  11.568  1.00  0.00     0.029 A 
ATOM     53  C   UNL     1       7.748   1.827  12.929  1.00  0.00     0.049 A 
ATOM     54  H   UNL     1       6.710   0.743  14.373  1.00  0.00     0.167 HD
ATOM     55  C   UNL     1       4.280  -1.534  17.211  1.00  0.00     0.037 A 
ATOM     56  C   UNL     1       8.077   3.011  13.480  1.00  0.00     0.037 A 
ATOM     57  C   UNL     1       4.704  -0.360  17.930  1.00  0.00     0.049 A 
ATOM     58  C   UNL     1       7.686   3.291  14.905  1.00  0.00     0.074 A 
ATOM     59  C   UNL     1       4.478  -0.031  19.255  1.00  0.00     0.029 A 
ATOM     60  N   UNL     1       5.428   0.688  17.378  1.00  0.00    -0.354 N 
ATOM     61  N   UNL     1       7.008   2.540  15.740  1.00  0.00    -0.248 NA
ATOM     62  C   UNL     1       8.113   4.578  15.468  1.00  0.00     0.031 C 
ATOM     63  C   UNL     1       5.005   1.244  19.486  1.00  0.00     0.029 A 
ATOM     64  C   UNL     1       5.622   1.682  18.325  1.00  0.00     0.049 A 
ATOM     65  H   UNL     1       5.756   0.720  16.450  1.00  0.00     0.167 HD
ATOM     66  C   UNL     1       6.943   3.252  16.930  1.00  0.00     0.074 A 
ATOM     67  C   UNL     1       7.670   4.487  16.715  1.00  0.00     0.031 C 
ATOM     68  C   UNL     1       6.337   2.914  18.095  1.00  0.00     0.037 A 
BRANCH  55  69
ATOM     69  C   UNL     1       3.379  -2.514  17.910  1.00  0.00     0.064 A 
ATOM     70  C   UNL     1       3.803  -3.813  18.236  1.00  0.00     0.173 A 
ATOM     71  C   UNL     1       2.076  -2.144  18.276  1.00  0.00     0.173 A 
ATOM     72  F   UNL     1       5.037  -4.224  17.904  1.00  0.00    -0.203 F 
ATOM     73  C   UNL     1       2.943  -4.715  18.857  1.00  0.00     0.198 A 
ATOM     74  C   UNL     1       1.231  -3.036  18.931  1.00  0.00     0.198 A 
ATOM     75  F   UNL     1       1.619  -0.913  17.998  1.00  0.00    -0.203 F 
ATOM     76  F   UNL     1       3.349  -5.970  19.096  1.00  0.00    -0.200 F 
ATOM     77  C   UNL     1       1.660  -4.324  19.209  1.00  0.00     0.200 A 
ATOM     78  F   UNL     1      -0.003  -2.651  19.285  1.00  0.00    -0.200 F 
ATOM     79  F   UNL     1       0.834  -5.193  19.809  1.00  0.00    -0.200 F 
ENDBRANCH  55  69
BRANCH  56  80
ATOM     80  C   UNL     1       8.830   4.009  12.677  1.00  0.00     0.064 A 
ATOM     81  C   UNL     1      10.166   4.314  12.968  1.00  0.00     0.173 A 
ATOM     82  C   UNL     1       8.235   4.658  11.585  1.00  0.00     0.173 A 
ATOM     83  F   UNL     1      10.773   3.734  14.014  1.00  0.00    -0.203 F 
ATOM     84  C   UNL     1      10.875   5.240  12.205  1.00  0.00     0.198 A 
ATOM     85  C   UNL     1       8.954   5.561  10.804  1.00  0.00     0.198 A 
ATOM     86  F   UNL     1       6.961   4.396  11.259  1.00  0.00    -0.203 F 
ATOM     87  F   UNL     1      12.140   5.542  12.528  1.00  0.00    -0.200 F 
ATOM     88  C   UNL     1      10.272   5.856  11.119  1.00  0.00     0.200 A 
ATOM     89  F   UNL     1       8.373   6.138   9.744  1.00  0.00    -0.200 F 
ATOM     90  F   UNL     1      10.959   6.735  10.377  1.00  0.00    -0.200 F 
ENDBRANCH  56  80
BRANCH  68  91
ATOM     91  C   UNL     1       6.447   3.885  19.236  1.00  0.00     0.064 A 
ATOM     92  C   UNL     1       5.784   5.121  19.221  1.00  0.00     0.173 A 
ATOM     93  C   UNL     1       7.200   3.560  20.376  1.00  0.00     0.173 A 
ATOM     94  F   UNL     1       5.063   5.488  18.151  1.00  0.00    -0.203 F 
ATOM     95  C   UNL     1       5.894   6.007  20.291  1.00  0.00     0.198 A 
ATOM     96  C   UNL     1       7.278   4.433  21.458  1.00  0.00     0.198 A 
ATOM     97  F   UNL     1       7.849   2.388  20.447  1.00  0.00    -0.203 F 
ATOM     98  F   UNL     1       5.296   7.205  20.229  1.00  0.00    -0.200 F 
ATOM     99  C   UNL     1       6.633   5.659  21.411  1.00  0.00     0.200 A 
ATOM    100  F   UNL     1       7.979   4.087  22.546  1.00  0.00    -0.200 F 
ATOM    101  F   UNL     1       6.731   6.509  22.442  1.00  0.00    -0.200 F 
ENDBRANCH  68  91
ENDBRANCH  42  43
ENDBRANCH  34  37
ENDBRANCH  32  33
ENDBRANCH  31  32
ENDBRANCH  30  31
ENDBRANCH  29  30
ENDBRANCH   1  29
TORSDOF 17
