REMARK SMILES CO[C@@H]1C[NH2+][C@@H](O[C@@H]2C[C@@H](C(=O)NCCCCCCNC(=O)c3ccc(-c4c5nc(c(-c6c(F)c(F)c(F)c(F)c6F)c6ccc([nH]6)c(-c6c(F)c(F)c(F)c(F)c6F)c6nc(c(-c7c(F)c(F)c(F)c(F)c7F)c7ccc4[nH]7)C=C6)C=C5)cc3)N(C(=O)OC(C)(C)C)C2)c2cc(Cl)ccc21
REMARK SMILES IDX 16 1 15 2 14 3 13 4 11 5 12 6 10 8 8 9 9 10 94 11 86 12 7 13
REMARK SMILES IDX 6 14 3 15 4 16 101 17 5 18 95 19 100 20 96 23 99 24 97 25
REMARK SMILES IDX 98 26 2 27 1 28 87 29 88 30 89 31 90 32 91 33 92 34 93 35
REMARK SMILES IDX 17 36 18 37 19 38 20 39 21 40 22 42 23 43 24 44 85 45 25 46
REMARK SMILES IDX 84 47 26 48 27 49 28 50 78 51 29 52 83 53 77 54 79 55 30 56
REMARK SMILES IDX 82 57 76 58 75 59 31 61 63 62 43 63 62 64 44 65 47 66 61 67
REMARK SMILES IDX 80 68 45 69 46 70 60 72 81 73 48 74 32 75 33 76 41 77 34 78
REMARK SMILES IDX 35 79 39 80 42 81 36 82 37 83 40 84 38 85 64 86 65 87 73 88
REMARK SMILES IDX 66 89 67 90 71 91 74 92 68 93 69 94 72 95 70 96 49 97 50 98
REMARK SMILES IDX 58 99 51 100 52 101 56 102 59 103 53 104 54 105 57 106
REMARK SMILES IDX 55 107
REMARK H PARENT 13 7 5 21 5 22 20 41 79 60 47 71
REMARK Flexibility Score: inf
ROOT
ATOM      1  C   UNL     1      -3.091  -3.728   4.611  1.00  0.00     0.002 C 
ENDROOT
BRANCH   1   2
ATOM      2  C   UNL     1      -2.041  -3.535   3.525  1.00  0.00     0.021 C 
BRANCH   2   3
ATOM      3  C   UNL     1      -1.084  -2.301   3.584  1.00  0.00     0.116 C 
BRANCH   3   4
ATOM      4  N   UNL     1       0.173  -2.537   4.352  1.00  0.00    -0.354 N 
ATOM      5  C   UNL     1       1.539  -2.664   4.106  1.00  0.00     0.243 C 
ATOM      6  O   UNL     1       2.266  -2.684   5.106  1.00  0.00    -0.273 OA
ATOM      7  H   UNL     1      -0.018  -2.629   5.314  1.00  0.00     0.163 HD
BRANCH   5   8
ATOM      8  C   UNL     1       2.172  -2.729   2.668  1.00  0.00     0.180 C 
ATOM      9  C   UNL     1       3.766  -3.687   1.029  1.00  0.00     0.147 C 
ATOM     10  C   UNL     1       2.917  -4.029   2.285  1.00  0.00     0.069 C 
ATOM     11  C   UNL     1       4.114  -2.214   1.262  1.00  0.00     0.156 C 
ATOM     12  N   UNL     1       3.115  -1.697   2.198  1.00  0.00    -0.293 N 
BRANCH   9  13
ATOM     13  O   UNL     1       3.514  -4.093  -0.321  1.00  0.00    -0.320 OA
BRANCH  13  14
ATOM     14  C   UNL     1       2.376  -4.089  -1.185  1.00  0.00     0.354 C 
ATOM     15  C   UNL     1       0.304  -2.360  -0.093  1.00  0.00     0.203 C 
ATOM     16  C   UNL     1       1.446  -1.853  -1.016  1.00  0.00     0.300 C 
ATOM     17  C   UNL     1       0.313  -3.887   0.122  1.00  0.00    -0.002 A 
ATOM     18  N   UNL     1       2.100  -2.839  -1.857  1.00  0.00    -0.315 N 
ATOM     19  C   UNL     1       1.150  -4.718  -0.601  1.00  0.00     0.046 A 
ATOM     20  C   UNL     1      -0.224  -4.533   1.224  1.00  0.00     0.009 A 
ATOM     21  H   UNL     1       2.983  -2.447  -2.183  1.00  0.00     0.349 HD
ATOM     22  H   UNL     1       1.459  -3.048  -2.622  1.00  0.00     0.349 HD
ATOM     23  C   UNL     1       1.038  -6.131  -0.542  1.00  0.00     0.033 A 
ATOM     24  C   UNL     1      -0.211  -5.918   1.451  1.00  0.00     0.021 A 
ATOM     25  C   UNL     1       0.325  -6.731   0.483  1.00  0.00     0.041 A 
ATOM     26  Cl  UNL     1       0.282  -8.435   0.663  1.00  0.00    -0.084 Cl
BRANCH  15  27
ATOM     27  O   UNL     1      -0.983  -1.806  -0.418  1.00  0.00    -0.371 OA
ATOM     28  C   UNL     1      -0.992  -0.372  -0.261  1.00  0.00     0.196 C 
ENDBRANCH  15  27
ENDBRANCH  13  14
ENDBRANCH   9  13
BRANCH  12  29
ATOM     29  C   UNL     1       2.973  -0.338   2.352  1.00  0.00     0.411 C 
ATOM     30  O   UNL     1       3.726   0.480   1.859  1.00  0.00    -0.224 OA
BRANCH  29  31
ATOM     31  O   UNL     1       1.900  -0.047   3.122  1.00  0.00    -0.444 OA
BRANCH  31  32
ATOM     32  C   UNL     1       1.714   1.278   3.673  1.00  0.00     0.106 C 
ATOM     33  C   UNL     1       2.902   1.683   4.555  1.00  0.00     0.056 C 
ATOM     34  C   UNL     1       1.427   2.319   2.588  1.00  0.00     0.056 C 
ATOM     35  C   UNL     1       0.471   1.129   4.560  1.00  0.00     0.056 C 
ENDBRANCH  31  32
ENDBRANCH  29  31
ENDBRANCH  12  29
ENDBRANCH   5   8
ENDBRANCH   3   4
ENDBRANCH   2   3
ENDBRANCH   1   2
BRANCH   1  36
ATOM     36  C   UNL     1      -4.440  -3.052   4.360  1.00  0.00     0.002 C 
BRANCH  36  37
ATOM     37  C   UNL     1      -5.243  -3.530   3.139  1.00  0.00     0.021 C 
BRANCH  37  38
ATOM     38  C   UNL     1      -5.533  -5.029   3.066  1.00  0.00     0.116 C 
BRANCH  38  39
ATOM     39  N   UNL     1      -6.361  -5.490   4.175  1.00  0.00    -0.352 N 
ATOM     40  C   UNL     1      -7.670  -5.915   4.171  1.00  0.00     0.251 C 
ATOM     41  H   UNL     1      -5.919  -5.497   5.054  1.00  0.00     0.163 HD
ATOM     42  O   UNL     1      -8.292  -6.038   5.221  1.00  0.00    -0.269 OA
BRANCH  40  43
ATOM     43  C   UNL     1      -8.330  -6.210   2.883  1.00  0.00     0.039 A 
ATOM     44  C   UNL     1      -7.679  -7.001   1.936  1.00  0.00     0.014 A 
ATOM     45  C   UNL     1      -9.588  -5.669   2.606  1.00  0.00     0.014 A 
ATOM     46  C   UNL     1      -8.197  -7.097   0.651  1.00  0.00     0.010 A 
ATOM     47  C   UNL     1     -10.150  -5.844   1.338  1.00  0.00     0.010 A 
ATOM     48  C   UNL     1      -9.434  -6.513   0.332  1.00  0.00    -0.014 A 
BRANCH  48  49
ATOM     49  C   UNL     1      -9.944  -6.598  -1.063  1.00  0.00     0.031 A 
ATOM     50  C   UNL     1     -10.134  -5.354  -1.890  1.00  0.00     0.074 A 
ATOM     51  C   UNL     1     -10.178  -7.809  -1.606  1.00  0.00     0.049 A 
ATOM     52  N   UNL     1     -10.568  -5.238  -3.121  1.00  0.00    -0.248 NA
ATOM     53  C   UNL     1      -9.795  -4.070  -1.256  1.00  0.00     0.031 C 
ATOM     54  C   UNL     1     -10.007  -9.087  -0.914  1.00  0.00     0.029 A 
ATOM     55  N   UNL     1     -10.583  -8.166  -2.868  1.00  0.00    -0.354 N 
ATOM     56  C   UNL     1     -10.568  -3.877  -3.400  1.00  0.00     0.074 A 
ATOM     57  C   UNL     1     -10.126  -3.200  -2.201  1.00  0.00     0.031 C 
ATOM     58  C   UNL     1     -10.253 -10.088  -1.771  1.00  0.00     0.029 A 
ATOM     59  C   UNL     1     -10.672  -9.525  -3.050  1.00  0.00     0.049 A 
ATOM     60  H   UNL     1     -10.790  -7.512  -3.574  1.00  0.00     0.167 HD
ATOM     61  C   UNL     1     -10.889  -3.253  -4.559  1.00  0.00     0.037 A 
ATOM     62  C   UNL     1     -11.067 -10.240  -4.120  1.00  0.00     0.037 A 
ATOM     63  C   UNL     1     -11.304  -3.934  -5.759  1.00  0.00     0.049 A 
ATOM     64  C   UNL     1     -11.484  -9.516  -5.370  1.00  0.00     0.074 A 
ATOM     65  C   UNL     1     -11.634  -3.388  -6.987  1.00  0.00     0.029 A 
ATOM     66  N   UNL     1     -11.444  -5.309  -5.882  1.00  0.00    -0.354 N 
ATOM     67  N   UNL     1     -11.473  -8.230  -5.622  1.00  0.00    -0.248 NA
ATOM     68  C   UNL     1     -11.977 -10.342  -6.480  1.00  0.00     0.031 C 
ATOM     69  C   UNL     1     -12.027  -4.426  -7.836  1.00  0.00     0.029 A 
ATOM     70  C   UNL     1     -11.884  -5.625  -7.158  1.00  0.00     0.049 A 
ATOM     71  H   UNL     1     -11.259  -5.962  -5.170  1.00  0.00     0.167 HD
ATOM     72  C   UNL     1     -11.938  -8.093  -6.922  1.00  0.00     0.074 A 
ATOM     73  C   UNL     1     -12.201  -9.430  -7.415  1.00  0.00     0.031 C 
ATOM     74  C   UNL     1     -12.137  -6.960  -7.639  1.00  0.00     0.037 A 
BRANCH  61  75
ATOM     75  C   UNL     1     -10.811  -1.753  -4.601  1.00  0.00     0.064 A 
ATOM     76  C   UNL     1      -9.580  -1.079  -4.596  1.00  0.00     0.173 A 
ATOM     77  C   UNL     1     -11.977  -0.983  -4.739  1.00  0.00     0.173 A 
ATOM     78  F   UNL     1      -8.435  -1.764  -4.456  1.00  0.00    -0.203 F 
ATOM     79  C   UNL     1      -9.521   0.308  -4.714  1.00  0.00     0.198 A 
ATOM     80  C   UNL     1     -11.912   0.400  -4.888  1.00  0.00     0.198 A 
ATOM     81  F   UNL     1     -13.180  -1.576  -4.757  1.00  0.00    -0.203 F 
ATOM     82  F   UNL     1      -8.336   0.932  -4.675  1.00  0.00    -0.200 F 
ATOM     83  C   UNL     1     -10.685   1.044  -4.872  1.00  0.00     0.200 A 
ATOM     84  F   UNL     1     -13.038   1.108  -5.058  1.00  0.00    -0.200 F 
ATOM     85  F   UNL     1     -10.624   2.376  -5.009  1.00  0.00    -0.200 F 
ENDBRANCH  61  75
BRANCH  62  86
ATOM     86  C   UNL     1     -11.088 -11.725  -4.046  1.00  0.00     0.064 A 
ATOM     87  C   UNL     1     -10.210 -12.498  -4.816  1.00  0.00     0.173 A 
ATOM     88  C   UNL     1     -11.970 -12.400  -3.187  1.00  0.00     0.173 A 
ATOM     89  F   UNL     1      -9.363 -11.900  -5.668  1.00  0.00    -0.203 F 
ATOM     90  C   UNL     1     -10.217 -13.889  -4.738  1.00  0.00     0.198 A 
ATOM     91  C   UNL     1     -11.953 -13.789  -3.084  1.00  0.00     0.198 A 
ATOM     92  F   UNL     1     -12.830 -11.708  -2.427  1.00  0.00    -0.203 F 
ATOM     93  F   UNL     1      -9.393 -14.606  -5.514  1.00  0.00    -0.200 F 
ATOM     94  C   UNL     1     -11.081 -14.533  -3.864  1.00  0.00     0.200 A 
ATOM     95  F   UNL     1     -12.775 -14.405  -2.224  1.00  0.00    -0.200 F 
ATOM     96  F   UNL     1     -11.077 -15.870  -3.778  1.00  0.00    -0.200 F 
ENDBRANCH  62  86
BRANCH  74  97
ATOM     97  C   UNL     1     -12.649  -7.107  -9.043  1.00  0.00     0.064 A 
ATOM     98  C   UNL     1     -13.970  -7.501  -9.304  1.00  0.00     0.173 A 
ATOM     99  C   UNL     1     -11.833  -6.781 -10.137  1.00  0.00     0.173 A 
ATOM    100  F   UNL     1     -14.786  -7.837  -8.294  1.00  0.00    -0.203 F 
ATOM    101  C   UNL     1     -14.449  -7.579 -10.609  1.00  0.00     0.198 A 
ATOM    102  C   UNL     1     -12.325  -6.827 -11.438  1.00  0.00     0.198 A 
ATOM    103  F   UNL     1     -10.564  -6.390  -9.942  1.00  0.00    -0.203 F 
ATOM    104  F   UNL     1     -15.702  -7.995 -10.836  1.00  0.00    -0.200 F 
ATOM    105  C   UNL     1     -13.630  -7.231 -11.673  1.00  0.00     0.200 A 
ATOM    106  F   UNL     1     -11.539  -6.472 -12.463  1.00  0.00    -0.200 F 
ATOM    107  F   UNL     1     -14.100  -7.287 -12.927  1.00  0.00    -0.200 F 
ENDBRANCH  74  97
ENDBRANCH  48  49
ENDBRANCH  40  43
ENDBRANCH  38  39
ENDBRANCH  37  38
ENDBRANCH  36  37
ENDBRANCH   1  36
TORSDOF 19
