REMARK SMILES CCOc1cc2nccc(Nc3ccc(C(=O)NCCCCCCNC(=O)c4ccc(-c5c6nc(c(-c7c(F)c(F)c(F)c(F)c7F)c7ccc([nH]7)c(-c7c(F)c(F)c(F)c(F)c7F)c7nc(c(-c8c(F)c(F)c(F)c(F)c8F)c8ccc5[nH]8)C=C7)C=C6)cc4)cc3)c2cc1OCC
REMARK SMILES IDX 20 1 19 2 18 3 16 4 17 5 15 7 12 8 13 9 92 10 14 11 91 12
REMARK SMILES IDX 11 13 10 15 4 16 5 17 95 18 6 19 94 20 7 21 93 22 8 23 9 24
REMARK SMILES IDX 3 25 2 26 1 27 96 28 97 29 98 30 21 31 22 32 23 33 24 34
REMARK SMILES IDX 25 35 26 36 27 38 28 39 29 40 90 41 30 42 89 43 31 44 32 45
REMARK SMILES IDX 33 46 83 47 34 48 88 49 82 50 84 51 35 52 87 53 81 54 80 55
REMARK SMILES IDX 36 57 68 58 48 59 67 60 49 61 52 62 66 63 85 64 50 65 51 66
REMARK SMILES IDX 65 68 86 69 53 70 37 71 38 72 46 73 39 74 40 75 44 76 47 77
REMARK SMILES IDX 41 78 42 79 45 80 43 81 69 82 70 83 78 84 71 85 72 86 76 87
REMARK SMILES IDX 79 88 73 89 74 90 77 91 75 92 54 93 55 94 63 95 56 96 57 97
REMARK SMILES IDX 61 98 64 99 58 100 59 101 62 102 60 103
REMARK H PARENT 18 6 11 14 25 37 84 56 52 67
REMARK Flexibility Score: inf
ROOT
ATOM      1  C   UNL     1      13.860   4.122   0.785  1.00  0.00     0.021 C 
ENDROOT
BRANCH   1   2
ATOM      2  C   UNL     1      13.361   4.406  -0.633  1.00  0.00     0.116 C 
BRANCH   2   3
ATOM      3  N   UNL     1      13.736   3.309  -1.501  1.00  0.00    -0.352 N 
ATOM      4  C   UNL     1      13.020   2.260  -2.011  1.00  0.00     0.251 C 
ATOM      5  O   UNL     1      13.620   1.424  -2.685  1.00  0.00    -0.269 OA
ATOM      6  H   UNL     1      14.681   3.319  -1.774  1.00  0.00     0.163 HD
BRANCH   4   7
ATOM      7  C   UNL     1      11.546   2.152  -1.864  1.00  0.00     0.039 A 
ATOM      8  C   UNL     1       8.735   2.029  -1.863  1.00  0.00     0.038 A 
ATOM      9  C   UNL     1       9.468   1.537  -2.947  1.00  0.00     0.027 A 
ATOM     10  C   UNL     1       9.419   2.543  -0.761  1.00  0.00     0.027 A 
ATOM     11  C   UNL     1      10.858   1.606  -2.954  1.00  0.00     0.016 A 
ATOM     12  C   UNL     1      10.819   2.555  -0.740  1.00  0.00     0.016 A 
BRANCH   8  13
ATOM     13  N   UNL     1       7.340   2.010  -1.935  1.00  0.00    -0.355 N 
ATOM     14  H   UNL     1       6.963   1.132  -2.172  1.00  0.00     0.167 HD
BRANCH  13  15
ATOM     15  C   UNL     1       6.366   3.015  -1.732  1.00  0.00     0.050 A 
ATOM     16  C   UNL     1       2.325   1.896  -1.244  1.00  0.00     0.163 A 
ATOM     17  C   UNL     1       2.692   3.245  -1.366  1.00  0.00     0.079 A 
ATOM     18  C   UNL     1       3.317   0.920  -1.190  1.00  0.00     0.161 A 
ATOM     19  C   UNL     1       4.028   3.639  -1.474  1.00  0.00     0.076 A 
ATOM     20  C   UNL     1       4.645   1.294  -1.340  1.00  0.00     0.063 A 
ATOM     21  N   UNL     1       4.340   4.944  -1.569  1.00  0.00    -0.256 NA
ATOM     22  C   UNL     1       5.020   2.638  -1.512  1.00  0.00     0.028 A 
ATOM     23  C   UNL     1       5.644   5.281  -1.701  1.00  0.00     0.114 A 
ATOM     24  C   UNL     1       6.681   4.368  -1.778  1.00  0.00     0.047 A 
BRANCH  16  25
ATOM     25  O   UNL     1       1.023   1.489  -1.309  1.00  0.00    -0.490 OA
BRANCH  25  26
ATOM     26  C   UNL     1       0.136   2.114  -0.380  1.00  0.00     0.226 C 
ATOM     27  C   UNL     1      -0.954   1.100  -0.059  1.00  0.00     0.049 C 
ENDBRANCH  25  26
ENDBRANCH  16  25
BRANCH  18  28
ATOM     28  O   UNL     1       3.150  -0.426  -1.026  1.00  0.00    -0.490 OA
BRANCH  28  29
ATOM     29  C   UNL     1       2.205  -0.853  -0.045  1.00  0.00     0.226 C 
ATOM     30  C   UNL     1       2.440  -0.270   1.343  1.00  0.00     0.049 C 
ENDBRANCH  28  29
ENDBRANCH  18  28
ENDBRANCH  13  15
ENDBRANCH   8  13
ENDBRANCH   4   7
ENDBRANCH   2   3
ENDBRANCH   1   2
BRANCH   1  31
ATOM     31  C   UNL     1      15.360   4.401   0.949  1.00  0.00     0.002 C 
BRANCH  31  32
ATOM     32  C   UNL     1      15.752   5.874   0.778  1.00  0.00     0.002 C 
BRANCH  32  33
ATOM     33  C   UNL     1      15.015   6.844   1.705  1.00  0.00     0.021 C 
BRANCH  33  34
ATOM     34  C   UNL     1      15.228   6.572   3.190  1.00  0.00     0.116 C 
BRANCH  34  35
ATOM     35  N   UNL     1      16.620   6.742   3.571  1.00  0.00    -0.352 N 
ATOM     36  C   UNL     1      17.168   7.542   4.541  1.00  0.00     0.251 C 
ATOM     37  H   UNL     1      17.265   6.205   3.057  1.00  0.00     0.163 HD
ATOM     38  O   UNL     1      18.377   7.739   4.568  1.00  0.00    -0.269 OA
BRANCH  36  39
ATOM     39  C   UNL     1      16.297   8.175   5.554  1.00  0.00     0.039 A 
ATOM     40  C   UNL     1      16.543   9.501   5.918  1.00  0.00     0.014 A 
ATOM     41  C   UNL     1      15.264   7.457   6.166  1.00  0.00     0.014 A 
ATOM     42  C   UNL     1      15.726  10.120   6.864  1.00  0.00     0.010 A 
ATOM     43  C   UNL     1      14.406   8.097   7.054  1.00  0.00     0.010 A 
ATOM     44  C   UNL     1      14.636   9.431   7.421  1.00  0.00    -0.014 A 
BRANCH  44  45
ATOM     45  C   UNL     1      13.733  10.100   8.390  1.00  0.00     0.031 A 
ATOM     46  C   UNL     1      13.665   9.634   9.816  1.00  0.00     0.074 A 
ATOM     47  C   UNL     1      12.945  11.106   7.969  1.00  0.00     0.049 A 
ATOM     48  N   UNL     1      12.950  10.103  10.807  1.00  0.00    -0.248 NA
ATOM     49  C   UNL     1      14.488   8.468  10.169  1.00  0.00     0.031 C 
ATOM     50  C   UNL     1      12.884  11.612   6.598  1.00  0.00     0.029 A 
ATOM     51  N   UNL     1      12.050  11.887   8.654  1.00  0.00    -0.354 N 
ATOM     52  C   UNL     1      13.231   9.288  11.895  1.00  0.00     0.074 A 
ATOM     53  C   UNL     1      14.131   8.256  11.427  1.00  0.00     0.031 C 
ATOM     54  C   UNL     1      12.033  12.649   6.551  1.00  0.00     0.029 A 
ATOM     55  C   UNL     1      11.468  12.860   7.880  1.00  0.00     0.049 A 
ATOM     56  H   UNL     1      11.845  11.763   9.609  1.00  0.00     0.167 HD
ATOM     57  C   UNL     1      12.799   9.404  13.175  1.00  0.00     0.037 A 
ATOM     58  C   UNL     1      10.587  13.822   8.211  1.00  0.00     0.037 A 
ATOM     59  C   UNL     1      11.912  10.440  13.637  1.00  0.00     0.049 A 
ATOM     60  C   UNL     1      10.115  13.926   9.634  1.00  0.00     0.074 A 
ATOM     61  C   UNL     1      11.463  10.686  14.923  1.00  0.00     0.029 A 
ATOM     62  N   UNL     1      11.330  11.401  12.822  1.00  0.00    -0.354 N 
ATOM     63  N   UNL     1      10.448  13.201  10.673  1.00  0.00    -0.248 NA
ATOM     64  C   UNL     1       9.148  14.992   9.928  1.00  0.00     0.031 C 
ATOM     65  C   UNL     1      10.570  11.764  14.877  1.00  0.00     0.029 A 
ATOM     66  C   UNL     1      10.503  12.224  13.572  1.00  0.00     0.049 A 
ATOM     67  H   UNL     1      11.482  11.486  11.853  1.00  0.00     0.167 HD
ATOM     68  C   UNL     1       9.753  13.734  11.750  1.00  0.00     0.074 A 
ATOM     69  C   UNL     1       8.994  14.858  11.238  1.00  0.00     0.031 C 
ATOM     70  C   UNL     1       9.744  13.331  13.045  1.00  0.00     0.037 A 
BRANCH  57  71
ATOM     71  C   UNL     1      13.280   8.373  14.156  1.00  0.00     0.064 A 
ATOM     72  C   UNL     1      14.627   8.299  14.549  1.00  0.00     0.173 A 
ATOM     73  C   UNL     1      12.388   7.441  14.707  1.00  0.00     0.173 A 
ATOM     74  F   UNL     1      15.525   9.158  14.044  1.00  0.00    -0.203 F 
ATOM     75  C   UNL     1      15.070   7.303  15.415  1.00  0.00     0.198 A 
ATOM     76  C   UNL     1      12.828   6.467  15.601  1.00  0.00     0.198 A 
ATOM     77  F   UNL     1      11.089   7.468  14.374  1.00  0.00    -0.203 F 
ATOM     78  F   UNL     1      16.372   7.210  15.718  1.00  0.00    -0.200 F 
ATOM     79  C   UNL     1      14.170   6.390  15.944  1.00  0.00     0.200 A 
ATOM     80  F   UNL     1      11.955   5.593  16.121  1.00  0.00    -0.200 F 
ATOM     81  F   UNL     1      14.598   5.428  16.773  1.00  0.00    -0.200 F 
ENDBRANCH  57  71
BRANCH  58  82
ATOM     82  C   UNL     1      10.147  14.799   7.184  1.00  0.00     0.064 A 
ATOM     83  C   UNL     1      10.589  16.129   7.231  1.00  0.00     0.173 A 
ATOM     84  C   UNL     1       9.306  14.427   6.126  1.00  0.00     0.173 A 
ATOM     85  F   UNL     1      11.380  16.535   8.235  1.00  0.00    -0.203 F 
ATOM     86  C   UNL     1      10.197  17.052   6.265  1.00  0.00     0.198 A 
ATOM     87  C   UNL     1       8.935  15.345   5.146  1.00  0.00     0.198 A 
ATOM     88  F   UNL     1       8.862  13.165   6.034  1.00  0.00    -0.203 F 
ATOM     89  F   UNL     1      10.609  18.324   6.352  1.00  0.00    -0.200 F 
ATOM     90  C   UNL     1       9.377  16.658   5.219  1.00  0.00     0.200 A 
ATOM     91  F   UNL     1       8.154  14.957   4.129  1.00  0.00    -0.200 F 
ATOM     92  F   UNL     1       9.010  17.543   4.283  1.00  0.00    -0.200 F 
ENDBRANCH  58  82
BRANCH  70  93
ATOM     93  C   UNL     1       8.900  14.127  13.998  1.00  0.00     0.064 A 
ATOM     94  C   UNL     1       7.498  14.084  13.954  1.00  0.00     0.173 A 
ATOM     95  C   UNL     1       9.500  14.939  14.973  1.00  0.00     0.173 A 
ATOM     96  F   UNL     1       6.875  13.336  13.029  1.00  0.00    -0.203 F 
ATOM     97  C   UNL     1       6.729  14.851  14.825  1.00  0.00     0.198 A 
ATOM     98  C   UNL     1       8.728  15.680  15.864  1.00  0.00     0.198 A 
ATOM     99  F   UNL     1      10.836  15.012  15.064  1.00  0.00    -0.203 F 
ATOM    100  F   UNL     1       5.393  14.840  14.723  1.00  0.00    -0.200 F 
ATOM    101  C   UNL     1       7.344  15.644  15.782  1.00  0.00     0.200 A 
ATOM    102  F   UNL     1       9.323  16.435  16.797  1.00  0.00    -0.200 F 
ATOM    103  F   UNL     1       6.603  16.383  16.619  1.00  0.00    -0.200 F 
ENDBRANCH  70  93
ENDBRANCH  44  45
ENDBRANCH  36  39
ENDBRANCH  34  35
ENDBRANCH  33  34
ENDBRANCH  32  33
ENDBRANCH  31  32
ENDBRANCH   1  31
TORSDOF 19
