REMARK SMILES CC(C)(C)N(CC(=O)NCCCCCCNC(=O)c1ccc(-c2c3nc(c(-c4c(F)c(F)c(F)c(F)c4F)c4ccc([nH]4)c(-c4c(F)c(F)c(F)c(F)c4F)c4nc(c(-c5c(F)c(F)c(F)c(F)c5F)c5ccc2[nH]5)C=C4)C=C3)cc1)C(=O)C1(c2ccccc2)CCC1
REMARK SMILES IDX 11 1 10 2 9 3 7 4 8 5 6 7 5 8 2 9 1 10 3 11 4 12 82 13 83 14
REMARK SMILES IDX 84 15 91 16 93 17 92 18 85 19 86 20 90 21 87 22 89 23 88 24
REMARK SMILES IDX 12 25 13 26 14 27 15 28 16 29 17 30 18 32 19 33 20 34 81 35
REMARK SMILES IDX 21 36 80 37 22 38 23 39 24 40 74 41 25 42 79 43 73 44 75 45
REMARK SMILES IDX 26 46 78 47 72 48 71 49 27 51 59 52 39 53 58 54 40 55 43 56
REMARK SMILES IDX 57 57 76 58 41 59 42 60 56 62 77 63 44 64 28 65 29 66 37 67
REMARK SMILES IDX 30 68 31 69 35 70 38 71 32 72 33 73 36 74 34 75 60 76 61 77
REMARK SMILES IDX 69 78 62 79 63 80 67 81 70 82 64 83 65 84 68 85 66 86 45 87
REMARK SMILES IDX 46 88 54 89 47 90 48 91 52 92 55 93 49 94 50 95 53 96 51 97
REMARK H PARENT 9 6 16 31 75 50 43 61
REMARK Flexibility Score: inf
ROOT
ATOM      1  C   UNL     1       4.021   0.529  -3.053  1.00  0.00     0.021 C 
ENDROOT
BRANCH   1   2
ATOM      2  C   UNL     1       3.940   0.037  -1.603  1.00  0.00     0.116 C 
BRANCH   2   3
ATOM      3  N   UNL     1       3.918   1.098  -0.625  1.00  0.00    -0.355 N 
ATOM      4  C   UNL     1       2.933   2.035  -0.788  1.00  0.00     0.239 C 
ATOM      5  O   UNL     1       2.918   2.753  -1.786  1.00  0.00    -0.273 OA
ATOM      6  H   UNL     1       4.570   1.145   0.112  1.00  0.00     0.163 HD
BRANCH   4   7
ATOM      7  C   UNL     1       1.836   2.035   0.264  1.00  0.00     0.220 C 
BRANCH   7   8
ATOM      8  N   UNL     1       0.598   2.301  -0.445  1.00  0.00    -0.328 N 
BRANCH   8   9
ATOM      9  C   UNL     1      -0.183   1.103  -0.978  1.00  0.00     0.035 C 
ATOM     10  C   UNL     1       0.117  -0.214  -0.203  1.00  0.00     0.034 C 
ATOM     11  C   UNL     1       0.150   0.825  -2.458  1.00  0.00     0.034 C 
ATOM     12  C   UNL     1      -1.707   1.300  -0.832  1.00  0.00     0.034 C 
ENDBRANCH   8   9
BRANCH   8  13
ATOM     13  C   UNL     1       0.356   3.627  -0.951  1.00  0.00     0.234 C 
ATOM     14  O   UNL     1      -0.574   3.735  -1.778  1.00  0.00    -0.274 OA
BRANCH  13  15
ATOM     15  C   UNL     1       1.142   5.025  -0.477  1.00  0.00     0.074 C 
ATOM     16  C   UNL     1       0.927   6.182  -1.583  1.00  0.00     0.022 C 
ATOM     17  C   UNL     1       0.200   5.946   0.409  1.00  0.00     0.022 C 
ATOM     18  C   UNL     1       0.653   7.154  -0.430  1.00  0.00     0.003 C 
BRANCH  15  19
ATOM     19  C   UNL     1       2.724   4.958   0.051  1.00  0.00    -0.032 A 
ATOM     20  C   UNL     1       3.824   5.125  -0.827  1.00  0.00     0.005 A 
ATOM     21  C   UNL     1       3.081   4.754   1.403  1.00  0.00     0.005 A 
ATOM     22  C   UNL     1       5.152   4.914  -0.433  1.00  0.00     0.000 A 
ATOM     23  C   UNL     1       4.403   4.506   1.804  1.00  0.00     0.000 A 
ATOM     24  C   UNL     1       5.437   4.559   0.878  1.00  0.00     0.000 A 
ENDBRANCH  15  19
ENDBRANCH  13  15
ENDBRANCH   8  13
ENDBRANCH   7   8
ENDBRANCH   4   7
ENDBRANCH   2   3
ENDBRANCH   1   2
BRANCH   1  25
ATOM     25  C   UNL     1       5.303   1.306  -3.369  1.00  0.00     0.002 C 
BRANCH  25  26
ATOM     26  C   UNL     1       6.576   0.479  -3.192  1.00  0.00     0.002 C 
BRANCH  26  27
ATOM     27  C   UNL     1       6.479  -0.929  -3.774  1.00  0.00     0.021 C 
BRANCH  27  28
ATOM     28  C   UNL     1       6.019  -0.960  -5.224  1.00  0.00     0.116 C 
BRANCH  28  29
ATOM     29  N   UNL     1       7.066  -0.527  -6.123  1.00  0.00    -0.352 N 
ATOM     30  C   UNL     1       7.558  -1.211  -7.207  1.00  0.00     0.251 C 
ATOM     31  H   UNL     1       7.469   0.353  -5.939  1.00  0.00     0.163 HD
ATOM     32  O   UNL     1       8.581  -0.860  -7.772  1.00  0.00    -0.269 OA
BRANCH  30  33
ATOM     33  C   UNL     1       6.822  -2.411  -7.654  1.00  0.00     0.039 A 
ATOM     34  C   UNL     1       7.511  -3.616  -7.783  1.00  0.00     0.014 A 
ATOM     35  C   UNL     1       5.442  -2.346  -7.880  1.00  0.00     0.014 A 
ATOM     36  C   UNL     1       6.807  -4.772  -8.120  1.00  0.00     0.010 A 
ATOM     37  C   UNL     1       4.733  -3.513  -8.137  1.00  0.00     0.010 A 
ATOM     38  C   UNL     1       5.412  -4.733  -8.284  1.00  0.00    -0.014 A 
BRANCH  38  39
ATOM     39  C   UNL     1       4.649  -5.943  -8.678  1.00  0.00     0.031 A 
ATOM     40  C   UNL     1       3.945  -5.966 -10.008  1.00  0.00     0.074 A 
ATOM     41  C   UNL     1       4.554  -6.991  -7.838  1.00  0.00     0.049 A 
ATOM     42  N   UNL     1       3.147  -6.875 -10.509  1.00  0.00    -0.248 NA
ATOM     43  C   UNL     1       4.141  -4.795 -10.880  1.00  0.00     0.031 C 
ATOM     44  C   UNL     1       5.168  -7.075  -6.512  1.00  0.00     0.029 A 
ATOM     45  N   UNL     1       3.890  -8.186  -7.972  1.00  0.00    -0.354 N 
ATOM     46  C   UNL     1       2.743  -6.380 -11.742  1.00  0.00     0.074 A 
ATOM     47  C   UNL     1       3.328  -5.067 -11.889  1.00  0.00     0.031 C 
ATOM     48  C   UNL     1       4.865  -8.263  -5.961  1.00  0.00     0.029 A 
ATOM     49  C   UNL     1       4.003  -9.006  -6.875  1.00  0.00     0.049 A 
ATOM     50  H   UNL     1       3.382  -8.432  -8.778  1.00  0.00     0.167 HD
ATOM     51  C   UNL     1       1.978  -6.981 -12.683  1.00  0.00     0.037 A 
ATOM     52  C   UNL     1       3.458 -10.214  -6.634  1.00  0.00     0.037 A 
ATOM     53  C   UNL     1       1.421  -8.299 -12.546  1.00  0.00     0.049 A 
ATOM     54  C   UNL     1       2.591 -10.850  -7.691  1.00  0.00     0.074 A 
ATOM     55  C   UNL     1       0.652  -9.009 -13.450  1.00  0.00     0.029 A 
ATOM     56  N   UNL     1       1.582  -9.109 -11.432  1.00  0.00    -0.354 N 
ATOM     57  N   UNL     1       2.254 -10.392  -8.872  1.00  0.00    -0.248 NA
ATOM     58  C   UNL     1       2.034 -12.175  -7.384  1.00  0.00     0.031 C 
ATOM     59  C   UNL     1       0.315 -10.235 -12.869  1.00  0.00     0.029 A 
ATOM     60  C   UNL     1       0.920 -10.310 -11.624  1.00  0.00     0.049 A 
ATOM     61  H   UNL     1       2.091  -8.867 -10.625  1.00  0.00     0.167 HD
ATOM     62  C   UNL     1       1.487 -11.387  -9.463  1.00  0.00     0.074 A 
ATOM     63  C   UNL     1       1.414 -12.477  -8.515  1.00  0.00     0.031 C 
ATOM     64  C   UNL     1       0.894 -11.398 -10.682  1.00  0.00     0.037 A 
BRANCH  51  65
ATOM     65  C   UNL     1       1.714  -6.228 -13.954  1.00  0.00     0.064 A 
ATOM     66  C   UNL     1       2.729  -6.007 -14.897  1.00  0.00     0.173 A 
ATOM     67  C   UNL     1       0.423  -5.774 -14.261  1.00  0.00     0.173 A 
ATOM     68  F   UNL     1       3.984  -6.410 -14.645  1.00  0.00    -0.203 F 
ATOM     69  C   UNL     1       2.466  -5.343 -16.091  1.00  0.00     0.198 A 
ATOM     70  C   UNL     1       0.156  -5.137 -15.470  1.00  0.00     0.198 A 
ATOM     71  F   UNL     1      -0.585  -5.963 -13.395  1.00  0.00    -0.203 F 
ATOM     72  F   UNL     1       3.460  -5.108 -16.959  1.00  0.00    -0.200 F 
ATOM     73  C   UNL     1       1.178  -4.918 -16.381  1.00  0.00     0.200 A 
ATOM     74  F   UNL     1      -1.091  -4.740 -15.755  1.00  0.00    -0.200 F 
ATOM     75  F   UNL     1       0.922  -4.293 -17.539  1.00  0.00    -0.200 F 
ENDBRANCH  51  65
BRANCH  52  76
ATOM     76  C   UNL     1       3.712 -10.914  -5.345  1.00  0.00     0.064 A 
ATOM     77  C   UNL     1       4.438 -12.113  -5.304  1.00  0.00     0.173 A 
ATOM     78  C   UNL     1       3.195 -10.426  -4.136  1.00  0.00     0.173 A 
ATOM     79  F   UNL     1       4.938 -12.631  -6.436  1.00  0.00    -0.203 F 
ATOM     80  C   UNL     1       4.602 -12.817  -4.113  1.00  0.00     0.198 A 
ATOM     81  C   UNL     1       3.388 -11.114  -2.939  1.00  0.00     0.198 A 
ATOM     82  F   UNL     1       2.498  -9.280  -4.116  1.00  0.00    -0.203 F 
ATOM     83  F   UNL     1       5.241 -13.995  -4.116  1.00  0.00    -0.200 F 
ATOM     84  C   UNL     1       4.079 -12.316  -2.931  1.00  0.00     0.200 A 
ATOM     85  F   UNL     1       2.894 -10.617  -1.797  1.00  0.00    -0.200 F 
ATOM     86  F   UNL     1       4.228 -12.998  -1.787  1.00  0.00    -0.200 F 
ENDBRANCH  52  76
BRANCH  64  87
ATOM     87  C   UNL     1       0.176 -12.650 -11.094  1.00  0.00     0.064 A 
ATOM     88  C   UNL     1      -1.048 -13.025 -10.522  1.00  0.00     0.173 A 
ATOM     89  C   UNL     1       0.697 -13.453 -12.121  1.00  0.00     0.173 A 
ATOM     90  F   UNL     1      -1.579 -12.297  -9.528  1.00  0.00    -0.203 F 
ATOM     91  C   UNL     1      -1.713 -14.171 -10.947  1.00  0.00     0.198 A 
ATOM     92  C   UNL     1       0.013 -14.580 -12.565  1.00  0.00     0.198 A 
ATOM     93  F   UNL     1       1.860 -13.132 -12.707  1.00  0.00    -0.203 F 
ATOM     94  F   UNL     1      -2.859 -14.536 -10.356  1.00  0.00    -0.200 F 
ATOM     95  C   UNL     1      -1.187 -14.942 -11.974  1.00  0.00     0.200 A 
ATOM     96  F   UNL     1       0.514 -15.314 -13.569  1.00  0.00    -0.200 F 
ATOM     97  F   UNL     1      -1.836 -16.038 -12.390  1.00  0.00    -0.200 F 
ENDBRANCH  64  87
ENDBRANCH  38  39
ENDBRANCH  30  33
ENDBRANCH  28  29
ENDBRANCH  27  28
ENDBRANCH  26  27
ENDBRANCH  25  26
ENDBRANCH   1  25
TORSDOF 18
