REMARK SMILES O=C(C[NH+]1CC[NH+](Cc2cc(Cl)ccc2[N+](=O)[O-])CC1)NCCCCCCNC(=O)c1ccc(-c2c3nc(c(-c4c(F)c(F)c(F)c(F)c4F)c4ccc([nH]4)c(-c4c(F)c(F)c(F)c(F)c4F)c4nc(c(-c5c(F)c(F)c(F)c(F)c5F)c5ccc2[nH]5)C=C4)C=C3)cc1
REMARK SMILES IDX 23 1 22 2 21 3 1 4 2 5 3 7 4 8 5 9 20 10 6 12 19 13 7 14
REMARK SMILES IDX 8 16 9 17 10 18 15 19 11 20 14 21 12 22 13 23 16 24 17 25
REMARK SMILES IDX 18 26 24 27 25 28 26 29 27 30 28 31 29 32 30 34 31 35 32 36
REMARK SMILES IDX 93 37 33 38 92 39 34 40 35 41 36 42 86 43 37 44 91 45 85 46
REMARK SMILES IDX 87 47 38 48 90 49 84 50 83 51 39 53 71 54 51 55 70 56 52 57
REMARK SMILES IDX 55 58 69 59 88 60 53 61 54 62 68 64 89 65 56 66 40 67 41 68
REMARK SMILES IDX 49 69 42 70 43 71 47 72 50 73 44 74 45 75 48 76 46 77 72 78
REMARK SMILES IDX 73 79 81 80 74 81 75 82 79 83 82 84 76 85 77 86 80 87 78 88
REMARK SMILES IDX 57 89 58 90 66 91 59 92 60 93 64 94 67 95 61 96 62 97 65 98
REMARK SMILES IDX 63 99
REMARK H PARENT 21 6 4 11 7 15 28 33 87 52 55 63
REMARK Flexibility Score: inf
ROOT
ATOM      1  C   UNL     1       2.714  -3.392   1.195  1.00  0.00     0.021 C 
ENDROOT
BRANCH   1   2
ATOM      2  C   UNL     1       2.095  -2.055   1.595  1.00  0.00     0.116 C 
BRANCH   2   3
ATOM      3  N   UNL     1       2.512  -0.992   0.712  1.00  0.00    -0.351 N 
ATOM      4  O   UNL     1       0.459  -0.625  -0.255  1.00  0.00    -0.269 OA
ATOM      5  C   UNL     1       1.646  -0.335  -0.136  1.00  0.00     0.275 C 
ATOM      6  H   UNL     1       3.459  -0.723   0.715  1.00  0.00     0.163 HD
BRANCH   5   7
ATOM      7  C   UNL     1       2.303   0.762  -0.982  1.00  0.00     0.363 C 
BRANCH   7   8
ATOM      8  N   UNL     1       3.442   1.402  -0.282  1.00  0.00    -0.318 N 
ATOM      9  C   UNL     1       4.158   2.302  -1.211  1.00  0.00     0.325 C 
ATOM     10  C   UNL     1       3.022   2.139   0.932  1.00  0.00     0.325 C 
ATOM     11  H   UNL     1       4.067   0.658   0.028  1.00  0.00     0.348 HD
ATOM     12  C   UNL     1       3.580   3.731  -1.384  1.00  0.00     0.324 C 
ATOM     13  C   UNL     1       2.402   3.538   0.716  1.00  0.00     0.324 C 
ATOM     14  N   UNL     1       3.176   4.420  -0.156  1.00  0.00    -0.322 N 
ATOM     15  H   UNL     1       2.534   5.153  -0.459  1.00  0.00     0.348 HD
BRANCH  14  16
ATOM     16  C   UNL     1       4.166   5.292   0.493  1.00  0.00     0.306 C 
BRANCH  16  17
ATOM     17  C   UNL     1       5.333   4.612   1.188  1.00  0.00     0.085 A 
ATOM     18  C   UNL     1       6.399   4.200   0.355  1.00  0.00     0.037 A 
ATOM     19  C   UNL     1       5.411   4.262   2.556  1.00  0.00     0.278 A 
ATOM     20  C   UNL     1       7.398   3.339   0.812  1.00  0.00     0.042 A 
ATOM     21  C   UNL     1       6.438   3.403   3.012  1.00  0.00     0.088 A 
ATOM     22  Cl  UNL     1       8.575   2.743  -0.289  1.00  0.00    -0.084 Cl
ATOM     23  C   UNL     1       7.405   2.917   2.132  1.00  0.00     0.027 A 
BRANCH  19  24
ATOM     24  N   UNL     1       4.459   4.743   3.579  1.00  0.00     0.063 N 
ATOM     25  O   UNL     1       4.442   4.146   4.666  1.00  0.00    -0.258 OA
ATOM     26  O   UNL     1       3.758   5.727   3.325  1.00  0.00    -0.258 OA
ENDBRANCH  19  24
ENDBRANCH  16  17
ENDBRANCH  14  16
ENDBRANCH   7   8
ENDBRANCH   5   7
ENDBRANCH   2   3
ENDBRANCH   1   2
BRANCH   1  27
ATOM     27  C   UNL     1       4.231  -3.475   1.404  1.00  0.00     0.002 C 
BRANCH  27  28
ATOM     28  C   UNL     1       4.712  -3.253   2.842  1.00  0.00     0.002 C 
BRANCH  28  29
ATOM     29  C   UNL     1       4.046  -4.133   3.901  1.00  0.00     0.021 C 
BRANCH  29  30
ATOM     30  C   UNL     1       4.173  -5.633   3.662  1.00  0.00     0.116 C 
BRANCH  30  31
ATOM     31  N   UNL     1       5.549  -6.094   3.744  1.00  0.00    -0.352 N 
ATOM     32  C   UNL     1       6.070  -7.145   4.453  1.00  0.00     0.251 C 
ATOM     33  H   UNL     1       6.200  -5.578   3.215  1.00  0.00     0.163 HD
ATOM     34  O   UNL     1       7.291  -7.286   4.541  1.00  0.00    -0.269 OA
BRANCH  32  35
ATOM     35  C   UNL     1       5.173  -8.103   5.134  1.00  0.00     0.039 A 
ATOM     36  C   UNL     1       5.494  -8.531   6.425  1.00  0.00     0.014 A 
ATOM     37  C   UNL     1       4.029  -8.597   4.499  1.00  0.00     0.014 A 
ATOM     38  C   UNL     1       4.648  -9.418   7.094  1.00  0.00     0.010 A 
ATOM     39  C   UNL     1       3.146  -9.418   5.196  1.00  0.00     0.010 A 
ATOM     40  C   UNL     1       3.453  -9.850   6.495  1.00  0.00    -0.014 A 
BRANCH  40  41
ATOM     41  C   UNL     1       2.536 -10.788   7.195  1.00  0.00     0.031 A 
ATOM     42  C   UNL     1       2.285 -12.158   6.624  1.00  0.00     0.074 A 
ATOM     43  C   UNL     1       1.899 -10.397   8.317  1.00  0.00     0.049 A 
ATOM     44  N   UNL     1       1.468 -13.094   7.038  1.00  0.00    -0.248 NA
ATOM     45  C   UNL     1       3.035 -12.516   5.408  1.00  0.00     0.031 C 
ATOM     46  C   UNL     1       2.026  -9.084   8.950  1.00  0.00     0.029 A 
ATOM     47  N   UNL     1       1.007 -11.066   9.119  1.00  0.00    -0.354 N 
ATOM     48  C   UNL     1       1.605 -14.142   6.138  1.00  0.00     0.074 A 
ATOM     49  C   UNL     1       2.529 -13.704   5.115  1.00  0.00     0.031 C 
ATOM     50  C   UNL     1       1.254  -9.048  10.048  1.00  0.00     0.029 A 
ATOM     51  C   UNL     1       0.549 -10.319  10.177  1.00  0.00     0.049 A 
ATOM     52  H   UNL     1       0.723 -11.993   8.951  1.00  0.00     0.167 HD
ATOM     53  C   UNL     1       1.039 -15.372   6.176  1.00  0.00     0.037 A 
ATOM     54  C   UNL     1      -0.348 -10.623  11.135  1.00  0.00     0.037 A 
ATOM     55  C   UNL     1       0.131 -15.813   7.202  1.00  0.00     0.049 A 
ATOM     56  C   UNL     1      -0.978 -11.992  11.141  1.00  0.00     0.074 A 
ATOM     57  C   UNL     1      -0.489 -17.043   7.336  1.00  0.00     0.029 A 
ATOM     58  N   UNL     1      -0.282 -15.038   8.275  1.00  0.00    -0.354 N 
ATOM     59  N   UNL     1      -0.804 -12.990  10.309  1.00  0.00    -0.248 NA
ATOM     60  C   UNL     1      -1.920 -12.283  12.232  1.00  0.00     0.031 C 
ATOM     61  C   UNL     1      -1.306 -17.001   8.470  1.00  0.00     0.029 A 
ATOM     62  C   UNL     1      -1.150 -15.764   9.074  1.00  0.00     0.049 A 
ATOM     63  H   UNL     1      -0.001 -14.110   8.443  1.00  0.00     0.167 HD
ATOM     64  C   UNL     1      -1.575 -14.036  10.799  1.00  0.00     0.074 A 
ATOM     65  C   UNL     1      -2.208 -13.556  12.008  1.00  0.00     0.031 C 
ATOM     66  C   UNL     1      -1.746 -15.282  10.293  1.00  0.00     0.037 A 
BRANCH  53  67
ATOM     67  C   UNL     1       1.403 -16.340   5.088  1.00  0.00     0.064 A 
ATOM     68  C   UNL     1       2.688 -16.900   5.010  1.00  0.00     0.173 A 
ATOM     69  C   UNL     1       0.449 -16.758   4.148  1.00  0.00     0.173 A 
ATOM     70  F   UNL     1       3.642 -16.526   5.876  1.00  0.00    -0.203 F 
ATOM     71  C   UNL     1       3.010 -17.824   4.019  1.00  0.00     0.198 A 
ATOM     72  C   UNL     1       0.765 -17.706   3.178  1.00  0.00     0.198 A 
ATOM     73  F   UNL     1      -0.796 -16.259   4.180  1.00  0.00    -0.203 F 
ATOM     74  F   UNL     1       4.256 -18.311   3.938  1.00  0.00    -0.200 F 
ATOM     75  C   UNL     1       2.046 -18.233   3.111  1.00  0.00     0.200 A 
ATOM     76  F   UNL     1      -0.172 -18.112   2.310  1.00  0.00    -0.200 F 
ATOM     77  F   UNL     1       2.352 -19.134   2.167  1.00  0.00    -0.200 F 
ENDBRANCH  53  67
BRANCH  54  78
ATOM     78  C   UNL     1      -0.706  -9.624  12.178  1.00  0.00     0.064 A 
ATOM     79  C   UNL     1      -0.382  -9.836  13.527  1.00  0.00     0.173 A 
ATOM     80  C   UNL     1      -1.422  -8.461  11.858  1.00  0.00     0.173 A 
ATOM     81  F   UNL     1       0.287 -10.941  13.889  1.00  0.00    -0.203 F 
ATOM     82  C   UNL     1      -0.799  -8.949  14.517  1.00  0.00     0.198 A 
ATOM     83  C   UNL     1      -1.807  -7.556  12.845  1.00  0.00     0.198 A 
ATOM     84  F   UNL     1      -1.751  -8.204  10.584  1.00  0.00    -0.203 F 
ATOM     85  F   UNL     1      -0.539  -9.216  15.805  1.00  0.00    -0.200 F 
ATOM     86  C   UNL     1      -1.510  -7.809  14.175  1.00  0.00     0.200 A 
ATOM     87  F   UNL     1      -2.480  -6.447  12.508  1.00  0.00    -0.200 F 
ATOM     88  F   UNL     1      -1.919  -6.961  15.129  1.00  0.00    -0.200 F 
ENDBRANCH  54  78
BRANCH  66  89
ATOM     89  C   UNL     1      -2.590 -16.240  11.085  1.00  0.00     0.064 A 
ATOM     90  C   UNL     1      -3.979 -16.086  11.202  1.00  0.00     0.173 A 
ATOM     91  C   UNL     1      -1.998 -17.349  11.710  1.00  0.00     0.173 A 
ATOM     92  F   UNL     1      -4.593 -15.037  10.633  1.00  0.00    -0.203 F 
ATOM     93  C   UNL     1      -4.738 -16.985  11.946  1.00  0.00     0.198 A 
ATOM     94  C   UNL     1      -2.765 -18.265  12.423  1.00  0.00     0.198 A 
ATOM     95  F   UNL     1      -0.674 -17.549  11.621  1.00  0.00    -0.203 F 
ATOM     96  F   UNL     1      -6.055 -16.785  12.093  1.00  0.00    -0.200 F 
ATOM     97  C   UNL     1      -4.132 -18.077  12.550  1.00  0.00     0.200 A 
ATOM     98  F   UNL     1      -2.179 -19.329  12.991  1.00  0.00    -0.200 F 
ATOM     99  F   UNL     1      -4.866 -18.944  13.261  1.00  0.00    -0.200 F 
ENDBRANCH  66  89
ENDBRANCH  40  41
ENDBRANCH  32  35
ENDBRANCH  30  31
ENDBRANCH  29  30
ENDBRANCH  28  29
ENDBRANCH  27  28
ENDBRANCH   1  27
TORSDOF 17
