REMARK SMILES O=C(NCCCCCCNC(=O)c1ccc(-c2c3nc(c(-c4c(F)c(F)c(F)c(F)c4F)c4ccc([nH]4)c(-c4c(F)c(F)c(F)c(F)c4F)c4nc(c(-c5c(F)c(F)c(F)c(F)c5F)c5ccc2[nH]5)C=C4)C=C3)cc1)C1=NN(c2ccc(S(=O)(=O)[O-])cc2)C(=O)/C1=C\Nc1ccccc1
REMARK SMILES IDX 6 1 5 2 4 3 3 4 1 5 2 6 76 8 77 9 91 10 78 11 89 12 92 13
REMARK SMILES IDX 90 14 79 15 80 16 88 17 81 18 87 19 82 20 83 21 84 22 85 23
REMARK SMILES IDX 86 24 93 25 94 27 95 28 99 29 96 30 98 31 97 32 7 33 8 34
REMARK SMILES IDX 9 35 10 36 11 37 12 39 13 40 14 41 75 42 15 43 74 44 16 45
REMARK SMILES IDX 17 46 18 47 68 48 19 49 73 50 67 51 69 52 20 53 72 54 66 55
REMARK SMILES IDX 65 56 21 58 53 59 33 60 52 61 34 62 37 63 51 64 70 65 35 66
REMARK SMILES IDX 36 67 50 69 71 70 38 71 22 72 23 73 31 74 24 75 25 76 29 77
REMARK SMILES IDX 32 78 26 79 27 80 30 81 28 82 54 83 55 84 63 85 56 86 57 87
REMARK SMILES IDX 61 88 64 89 58 90 59 91 62 92 60 93 39 94 40 95 48 96 41 97
REMARK SMILES IDX 42 98 46 99 49 100 43 101 44 102 47 103 45 104
REMARK H PARENT 3 7 93 26 10 38 69 57 37 68
REMARK Flexibility Score: inf
ROOT
ATOM      1  C   UNL     1       4.126   3.281   1.932  1.00  0.00     0.002 C 
ENDROOT
BRANCH   1   2
ATOM      2  C   UNL     1       4.635   2.616   0.649  1.00  0.00     0.021 C 
BRANCH   2   3
ATOM      3  C   UNL     1       4.396   1.115   0.544  1.00  0.00     0.116 C 
BRANCH   3   4
ATOM      4  N   UNL     1       2.990   0.760   0.539  1.00  0.00    -0.351 N 
ATOM      5  O   UNL     1       1.169  -0.454  -0.057  1.00  0.00    -0.267 OA
ATOM      6  C   UNL     1       2.350  -0.185  -0.227  1.00  0.00     0.272 C 
ATOM      7  H   UNL     1       2.420   1.262   1.165  1.00  0.00     0.163 HD
BRANCH   6   8
ATOM      8  C   UNL     1       3.120  -0.939  -1.266  1.00  0.00     0.163 C 
ATOM      9  N   UNL     1       2.876  -0.877  -2.553  1.00  0.00    -0.158 NA
ATOM     10  C   UNL     1       4.231  -1.838  -0.946  1.00  0.00     0.091 C 
ATOM     11  N   UNL     1       3.779  -1.767  -3.141  1.00  0.00    -0.196 N 
ATOM     12  C   UNL     1       4.698  -2.331  -2.250  1.00  0.00     0.282 C 
ATOM     13  C   UNL     1       4.768  -2.198   0.223  1.00  0.00     0.099 C 
ATOM     14  O   UNL     1       5.660  -3.059  -2.430  1.00  0.00    -0.267 OA
BRANCH  11  15
ATOM     15  C   UNL     1       3.587  -2.176  -4.478  1.00  0.00     0.069 A 
ATOM     16  C   UNL     1       2.989  -1.334  -5.424  1.00  0.00     0.030 A 
ATOM     17  C   UNL     1       3.954  -3.476  -4.862  1.00  0.00     0.030 A 
ATOM     18  C   UNL     1       2.801  -1.773  -6.742  1.00  0.00     0.021 A 
ATOM     19  C   UNL     1       3.733  -3.936  -6.159  1.00  0.00     0.021 A 
ATOM     20  C   UNL     1       3.174  -3.074  -7.098  1.00  0.00     0.054 A 
BRANCH  20  21
ATOM     21  S   UNL     1       2.901  -3.638  -8.752  1.00  0.00     0.124 S 
ATOM     22  O   UNL     1       1.514  -3.404  -9.085  1.00  0.00    -0.237 OA
ATOM     23  O   UNL     1       3.978  -3.132  -9.574  1.00  0.00    -0.237 OA
ATOM     24  O   UNL     1       3.098  -5.241  -8.703  1.00  0.00    -0.744 OA
ENDBRANCH  20  21
ENDBRANCH  11  15
BRANCH  13  25
ATOM     25  N   UNL     1       5.921  -2.923   0.382  1.00  0.00    -0.361 N 
ATOM     26  H   UNL     1       6.449  -3.072  -0.436  1.00  0.00     0.166 HD
BRANCH  25  27
ATOM     27  C   UNL     1       6.447  -3.480   1.552  1.00  0.00     0.038 A 
ATOM     28  C   UNL     1       7.838  -3.527   1.712  1.00  0.00     0.026 A 
ATOM     29  C   UNL     1       5.637  -3.952   2.589  1.00  0.00     0.026 A 
ATOM     30  C   UNL     1       8.409  -4.061   2.867  1.00  0.00     0.002 A 
ATOM     31  C   UNL     1       6.206  -4.511   3.736  1.00  0.00     0.002 A 
ATOM     32  C   UNL     1       7.591  -4.564   3.875  1.00  0.00     0.000 A 
ENDBRANCH  25  27
ENDBRANCH  13  25
ENDBRANCH   6   8
ENDBRANCH   3   4
ENDBRANCH   2   3
ENDBRANCH   1   2
BRANCH   1  33
ATOM     33  C   UNL     1       4.643   2.698   3.251  1.00  0.00     0.002 C 
BRANCH  33  34
ATOM     34  C   UNL     1       6.163   2.587   3.389  1.00  0.00     0.021 C 
BRANCH  34  35
ATOM     35  C   UNL     1       6.946   3.873   3.144  1.00  0.00     0.116 C 
BRANCH  35  36
ATOM     36  N   UNL     1       6.618   4.927   4.088  1.00  0.00    -0.352 N 
ATOM     37  C   UNL     1       7.451   5.731   4.827  1.00  0.00     0.251 C 
ATOM     38  H   UNL     1       5.655   5.090   4.216  1.00  0.00     0.163 HD
ATOM     39  O   UNL     1       6.982   6.489   5.671  1.00  0.00    -0.269 OA
BRANCH  37  40
ATOM     40  C   UNL     1       8.918   5.668   4.635  1.00  0.00     0.039 A 
ATOM     41  C   UNL     1       9.741   5.644   5.765  1.00  0.00     0.014 A 
ATOM     42  C   UNL     1       9.486   5.646   3.358  1.00  0.00     0.014 A 
ATOM     43  C   UNL     1      11.126   5.531   5.616  1.00  0.00     0.010 A 
ATOM     44  C   UNL     1      10.860   5.465   3.212  1.00  0.00     0.010 A 
ATOM     45  C   UNL     1      11.694   5.404   4.339  1.00  0.00    -0.014 A 
BRANCH  45  46
ATOM     46  C   UNL     1      13.156   5.199   4.164  1.00  0.00     0.031 A 
ATOM     47  C   UNL     1      13.991   6.239   3.468  1.00  0.00     0.074 A 
ATOM     48  C   UNL     1      13.721   4.046   4.573  1.00  0.00     0.049 A 
ATOM     49  N   UNL     1      15.263   6.209   3.159  1.00  0.00    -0.248 NA
ATOM     50  C   UNL     1      13.299   7.465   3.040  1.00  0.00     0.031 C 
ATOM     51  C   UNL     1      13.014   2.943   5.224  1.00  0.00     0.029 A 
ATOM     52  N   UNL     1      15.020   3.606   4.493  1.00  0.00    -0.354 N 
ATOM     53  C   UNL     1      15.517   7.396   2.485  1.00  0.00     0.074 A 
ATOM     54  C   UNL     1      14.260   8.107   2.392  1.00  0.00     0.031 C 
ATOM     55  C   UNL     1      13.889   1.964   5.504  1.00  0.00     0.029 A 
ATOM     56  C   UNL     1      15.210   2.351   5.019  1.00  0.00     0.049 A 
ATOM     57  H   UNL     1      15.745   4.140   4.096  1.00  0.00     0.167 HD
ATOM     58  C   UNL     1      16.696   7.860   2.004  1.00  0.00     0.037 A 
ATOM     59  C   UNL     1      16.323   1.596   5.094  1.00  0.00     0.037 A 
ATOM     60  C   UNL     1      17.952   7.169   2.131  1.00  0.00     0.049 A 
ATOM     61  C   UNL     1      17.617   2.135   4.546  1.00  0.00     0.074 A 
ATOM     62  C   UNL     1      19.213   7.594   1.748  1.00  0.00     0.029 A 
ATOM     63  N   UNL     1      18.107   5.905   2.681  1.00  0.00    -0.354 N 
ATOM     64  N   UNL     1      17.859   3.293   3.981  1.00  0.00    -0.248 NA
ATOM     65  C   UNL     1      18.795   1.262   4.652  1.00  0.00     0.031 C 
ATOM     66  C   UNL     1      20.123   6.568   2.021  1.00  0.00     0.029 A 
ATOM     67  C   UNL     1      19.438   5.524   2.622  1.00  0.00     0.049 A 
ATOM     68  H   UNL     1      17.379   5.359   3.058  1.00  0.00     0.167 HD
ATOM     69  C   UNL     1      19.218   3.301   3.696  1.00  0.00     0.074 A 
ATOM     70  C   UNL     1      19.750   2.038   4.160  1.00  0.00     0.031 C 
ATOM     71  C   UNL     1      19.957   4.269   3.102  1.00  0.00     0.037 A 
BRANCH  58  72
ATOM     72  C   UNL     1      16.689   9.182   1.293  1.00  0.00     0.064 A 
ATOM     73  C   UNL     1      16.493  10.389   1.981  1.00  0.00     0.173 A 
ATOM     74  C   UNL     1      16.936   9.246  -0.087  1.00  0.00     0.173 A 
ATOM     75  F   UNL     1      16.244  10.382   3.299  1.00  0.00    -0.203 F 
ATOM     76  C   UNL     1      16.520  11.608   1.309  1.00  0.00     0.198 A 
ATOM     77  C   UNL     1      16.991  10.469  -0.750  1.00  0.00     0.198 A 
ATOM     78  F   UNL     1      17.136   8.122  -0.791  1.00  0.00    -0.203 F 
ATOM     79  F   UNL     1      16.287  12.745   1.980  1.00  0.00    -0.200 F 
ATOM     80  C   UNL     1      16.776  11.648  -0.053  1.00  0.00     0.200 A 
ATOM     81  F   UNL     1      17.252  10.507  -2.064  1.00  0.00    -0.200 F 
ATOM     82  F   UNL     1      16.812  12.824  -0.696  1.00  0.00    -0.200 F 
ENDBRANCH  58  72
BRANCH  59  83
ATOM     83  C   UNL     1      16.274   0.255   5.733  1.00  0.00     0.064 A 
ATOM     84  C   UNL     1      16.923   0.019   6.954  1.00  0.00     0.173 A 
ATOM     85  C   UNL     1      15.600  -0.819   5.134  1.00  0.00     0.173 A 
ATOM     86  F   UNL     1      17.599   1.010   7.554  1.00  0.00    -0.203 F 
ATOM     87  C   UNL     1      16.921  -1.246   7.538  1.00  0.00     0.198 A 
ATOM     88  C   UNL     1      15.575  -2.077   5.734  1.00  0.00     0.198 A 
ATOM     89  F   UNL     1      14.961  -0.646   3.969  1.00  0.00    -0.203 F 
ATOM     90  F   UNL     1      17.593  -1.455   8.678  1.00  0.00    -0.200 F 
ATOM     91  C   UNL     1      16.244  -2.292   6.930  1.00  0.00     0.200 A 
ATOM     92  F   UNL     1      14.907  -3.081   5.151  1.00  0.00    -0.200 F 
ATOM     93  F   UNL     1      16.242  -3.508   7.492  1.00  0.00    -0.200 F 
ENDBRANCH  59  83
BRANCH  71  94
ATOM     94  C   UNL     1      21.431   4.021   2.960  1.00  0.00     0.064 A 
ATOM     95  C   UNL     1      21.937   3.091   2.041  1.00  0.00     0.173 A 
ATOM     96  C   UNL     1      22.350   4.753   3.728  1.00  0.00     0.173 A 
ATOM     97  F   UNL     1      21.099   2.355   1.295  1.00  0.00    -0.203 F 
ATOM     98  C   UNL     1      23.308   2.884   1.913  1.00  0.00     0.198 A 
ATOM     99  C   UNL     1      23.721   4.566   3.576  1.00  0.00     0.198 A 
ATOM    100  F   UNL     1      21.917   5.660   4.617  1.00  0.00    -0.203 F 
ATOM    101  F   UNL     1      23.768   1.956   1.063  1.00  0.00    -0.200 F 
ATOM    102  C   UNL     1      24.198   3.627   2.675  1.00  0.00     0.200 A 
ATOM    103  F   UNL     1      24.579   5.294   4.304  1.00  0.00    -0.200 F 
ATOM    104  F   UNL     1      25.518   3.432   2.546  1.00  0.00    -0.200 F 
ENDBRANCH  71  94
ENDBRANCH  45  46
ENDBRANCH  37  40
ENDBRANCH  35  36
ENDBRANCH  34  35
ENDBRANCH  33  34
ENDBRANCH   1  33
TORSDOF 17
