REMARK SMILES C=C(C)C(=O)OCC[C@@H](C(C)=O)C(=O)NCCCCCCNC(=O)c1ccc(-c2c3nc(c(-c4c(F)c(F)c(F)c(F)c4F)c4ccc([nH]4)c(-c4c(F)c(F)c(F)c(F)c4F)c4nc(c(-c5c(F)c(F)c(F)c(F)c5F)c5ccc2[nH]5)C=C4)C=C3)cc1
REMARK SMILES IDX 17 1 16 2 15 3 13 4 14 5 9 7 8 8 7 9 6 10 4 11 5 12 2 13
REMARK SMILES IDX 1 14 3 15 10 16 11 17 12 18 18 19 19 20 20 21 21 22 22 23
REMARK SMILES IDX 23 24 24 26 25 27 26 28 87 29 27 30 86 31 28 32 29 33 30 34
REMARK SMILES IDX 80 35 31 36 85 37 79 38 81 39 32 40 84 41 78 42 77 43 33 45
REMARK SMILES IDX 65 46 45 47 64 48 46 49 49 50 63 51 82 52 47 53 48 54 62 56
REMARK SMILES IDX 83 57 50 58 34 59 35 60 43 61 36 62 37 63 41 64 44 65 38 66
REMARK SMILES IDX 39 67 42 68 40 69 66 70 67 71 75 72 68 73 69 74 73 75 76 76
REMARK SMILES IDX 70 77 71 78 74 79 72 80 51 81 52 82 60 83 53 84 54 85 58 86
REMARK SMILES IDX 61 87 55 88 56 89 59 90 57 91
REMARK H PARENT 15 6 22 25 81 44 49 55
REMARK Flexibility Score: inf
ROOT
ATOM      1  C   UNL     1       4.196   5.514   6.071  1.00  0.00     0.021 C 
ENDROOT
BRANCH   1   2
ATOM      2  C   UNL     1       4.558   4.834   4.759  1.00  0.00     0.116 C 
BRANCH   2   3
ATOM      3  N   UNL     1       4.417   3.394   4.867  1.00  0.00    -0.355 N 
ATOM      4  C   UNL     1       3.771   2.520   4.050  1.00  0.00     0.230 C 
ATOM      5  O   UNL     1       3.774   1.326   4.354  1.00  0.00    -0.274 OA
ATOM      6  H   UNL     1       4.856   2.988   5.649  1.00  0.00     0.163 HD
BRANCH   4   7
ATOM      7  C   UNL     1       3.059   3.010   2.804  1.00  0.00     0.148 C 
BRANCH   7   8
ATOM      8  C   UNL     1       1.755   3.723   3.219  1.00  0.00     0.063 C 
BRANCH   8   9
ATOM      9  C   UNL     1       0.778   4.017   2.082  1.00  0.00     0.234 C 
BRANCH   9  10
ATOM     10  O   UNL     1       0.131   2.817   1.645  1.00  0.00    -0.462 OA
BRANCH  10  11
ATOM     11  C   UNL     1       0.710   2.168   0.607  1.00  0.00     0.333 C 
ATOM     12  O   UNL     1       1.733   2.495   0.025  1.00  0.00    -0.247 OA
BRANCH  11  13
ATOM     13  C   UNL     1      -0.048   0.923   0.337  1.00  0.00     0.027 C 
ATOM     14  C   UNL     1       0.647  -0.144  -0.088  1.00  0.00     0.020 C 
ATOM     15  C   UNL     1      -1.530   0.939   0.531  1.00  0.00     0.051 C 
ENDBRANCH  11  13
ENDBRANCH  10  11
ENDBRANCH   9  10
ENDBRANCH   8   9
ENDBRANCH   7   8
BRANCH   7  16
ATOM     16  C   UNL     1       3.980   3.841   1.917  1.00  0.00     0.142 C 
ATOM     17  C   UNL     1       5.337   3.271   1.572  1.00  0.00     0.088 C 
ATOM     18  O   UNL     1       3.651   4.947   1.482  1.00  0.00    -0.299 OA
ENDBRANCH   7  16
ENDBRANCH   4   7
ENDBRANCH   2   3
ENDBRANCH   1   2
BRANCH   1  19
ATOM     19  C   UNL     1       5.210   5.257   7.187  1.00  0.00     0.002 C 
BRANCH  19  20
ATOM     20  C   UNL     1       6.652   5.643   6.838  1.00  0.00     0.002 C 
BRANCH  20  21
ATOM     21  C   UNL     1       6.824   7.077   6.332  1.00  0.00     0.021 C 
BRANCH  21  22
ATOM     22  C   UNL     1       6.276   8.141   7.275  1.00  0.00     0.116 C 
BRANCH  22  23
ATOM     23  N   UNL     1       6.929   8.100   8.573  1.00  0.00    -0.352 N 
ATOM     24  C   UNL     1       7.579   9.101   9.245  1.00  0.00     0.251 C 
ATOM     25  H   UNL     1       6.899   7.230   9.034  1.00  0.00     0.163 HD
ATOM     26  O   UNL     1       8.262   8.850  10.232  1.00  0.00    -0.269 OA
BRANCH  24  27
ATOM     27  C   UNL     1       7.465  10.489   8.757  1.00  0.00     0.039 A 
ATOM     28  C   UNL     1       8.620  11.264   8.647  1.00  0.00     0.014 A 
ATOM     29  C   UNL     1       6.220  11.014   8.396  1.00  0.00     0.014 A 
ATOM     30  C   UNL     1       8.536  12.550   8.114  1.00  0.00     0.010 A 
ATOM     31  C   UNL     1       6.149  12.265   7.795  1.00  0.00     0.010 A 
ATOM     32  C   UNL     1       7.306  13.045   7.650  1.00  0.00    -0.014 A 
BRANCH  32  33
ATOM     33  C   UNL     1       7.211  14.373   6.996  1.00  0.00     0.031 A 
ATOM     34  C   UNL     1       6.404  15.470   7.627  1.00  0.00     0.074 A 
ATOM     35  C   UNL     1       7.798  14.564   5.799  1.00  0.00     0.049 A 
ATOM     36  N   UNL     1       6.144  16.671   7.178  1.00  0.00    -0.248 NA
ATOM     37  C   UNL     1       5.784  15.167   8.927  1.00  0.00     0.031 C 
ATOM     38  C   UNL     1       8.574  13.561   5.069  1.00  0.00     0.029 A 
ATOM     39  N   UNL     1       7.824  15.665   4.981  1.00  0.00    -0.354 N 
ATOM     40  C   UNL     1       5.327  17.262   8.132  1.00  0.00     0.074 A 
ATOM     41  C   UNL     1       5.084  16.268   9.155  1.00  0.00     0.031 C 
ATOM     42  C   UNL     1       9.022  14.100   3.925  1.00  0.00     0.029 A 
ATOM     43  C   UNL     1       8.527  15.469   3.818  1.00  0.00     0.049 A 
ATOM     44  H   UNL     1       7.382  16.515   5.207  1.00  0.00     0.167 HD
ATOM     45  C   UNL     1       4.843  18.527   8.162  1.00  0.00     0.037 A 
ATOM     46  C   UNL     1       8.736  16.296   2.777  1.00  0.00     0.037 A 
ATOM     47  C   UNL     1       5.096  19.512   7.143  1.00  0.00     0.049 A 
ATOM     48  C   UNL     1       8.151  17.682   2.814  1.00  0.00     0.074 A 
ATOM     49  C   UNL     1       4.702  20.838   7.107  1.00  0.00     0.029 A 
ATOM     50  N   UNL     1       5.801  19.273   5.971  1.00  0.00    -0.354 N 
ATOM     51  N   UNL     1       7.442  18.256   3.755  1.00  0.00    -0.248 NA
ATOM     52  C   UNL     1       8.397  18.533   1.643  1.00  0.00     0.031 C 
ATOM     53  C   UNL     1       5.115  21.384   5.887  1.00  0.00     0.029 A 
ATOM     54  C   UNL     1       5.819  20.417   5.187  1.00  0.00     0.049 A 
ATOM     55  H   UNL     1       6.225  18.417   5.732  1.00  0.00     0.167 HD
ATOM     56  C   UNL     1       7.174  19.540   3.301  1.00  0.00     0.074 A 
ATOM     57  C   UNL     1       7.817  19.667   2.009  1.00  0.00     0.031 C 
ATOM     58  C   UNL     1       6.458  20.525   3.899  1.00  0.00     0.037 A 
BRANCH  45  59
ATOM     59  C   UNL     1       3.983  18.909   9.333  1.00  0.00     0.064 A 
ATOM     60  C   UNL     1       4.506  19.015  10.631  1.00  0.00     0.173 A 
ATOM     61  C   UNL     1       2.620  19.190   9.154  1.00  0.00     0.173 A 
ATOM     62  F   UNL     1       5.801  18.747  10.861  1.00  0.00    -0.203 F 
ATOM     63  C   UNL     1       3.691  19.346  11.710  1.00  0.00     0.198 A 
ATOM     64  C   UNL     1       1.814  19.556  10.230  1.00  0.00     0.198 A 
ATOM     65  F   UNL     1       2.066  19.112   7.934  1.00  0.00    -0.203 F 
ATOM     66  F   UNL     1       4.202  19.378  12.949  1.00  0.00    -0.200 F 
ATOM     67  C   UNL     1       2.348  19.622  11.508  1.00  0.00     0.200 A 
ATOM     68  F   UNL     1       0.519  19.837  10.030  1.00  0.00    -0.200 F 
ATOM     69  F   UNL     1       1.564  19.943  12.547  1.00  0.00    -0.200 F 
ENDBRANCH  45  59
BRANCH  46  70
ATOM     70  C   UNL     1       9.550  15.839   1.621  1.00  0.00     0.064 A 
ATOM     71  C   UNL     1      10.812  16.394   1.368  1.00  0.00     0.173 A 
ATOM     72  C   UNL     1       9.092  14.838   0.751  1.00  0.00     0.173 A 
ATOM     73  F   UNL     1      11.285  17.368   2.159  1.00  0.00    -0.203 F 
ATOM     74  C   UNL     1      11.578  15.976   0.282  1.00  0.00     0.198 A 
ATOM     75  C   UNL     1       9.871  14.400  -0.317  1.00  0.00     0.198 A 
ATOM     76  F   UNL     1       7.893  14.272   0.952  1.00  0.00    -0.203 F 
ATOM     77  F   UNL     1      12.763  16.553   0.039  1.00  0.00    -0.200 F 
ATOM     78  C   UNL     1      11.111  14.975  -0.555  1.00  0.00     0.200 A 
ATOM     79  F   UNL     1       9.423  13.421  -1.114  1.00  0.00    -0.200 F 
ATOM     80  F   UNL     1      11.851  14.567  -1.595  1.00  0.00    -0.200 F 
ENDBRANCH  46  70
BRANCH  58  81
ATOM     81  C   UNL     1       6.344  21.832   3.168  1.00  0.00     0.064 A 
ATOM     82  C   UNL     1       5.571  21.959   2.004  1.00  0.00     0.173 A 
ATOM     83  C   UNL     1       6.984  22.981   3.658  1.00  0.00     0.173 A 
ATOM     84  F   UNL     1       4.952  20.888   1.484  1.00  0.00    -0.203 F 
ATOM     85  C   UNL     1       5.464  23.181   1.345  1.00  0.00     0.198 A 
ATOM     86  C   UNL     1       6.848  24.208   3.016  1.00  0.00     0.198 A 
ATOM     87  F   UNL     1       7.731  22.916   4.771  1.00  0.00    -0.203 F 
ATOM     88  F   UNL     1       4.762  23.266   0.206  1.00  0.00    -0.200 F 
ATOM     89  C   UNL     1       6.095  24.305   1.855  1.00  0.00     0.200 A 
ATOM     90  F   UNL     1       7.445  25.297   3.520  1.00  0.00    -0.200 F 
ATOM     91  F   UNL     1       5.983  25.483   1.225  1.00  0.00    -0.200 F 
ENDBRANCH  58  81
ENDBRANCH  32  33
ENDBRANCH  24  27
ENDBRANCH  22  23
ENDBRANCH  21  22
ENDBRANCH  20  21
ENDBRANCH  19  20
ENDBRANCH   1  19
TORSDOF 19
