REMARK SMILES Cc1cc(C)c(C(=O)N[C@H](C(=O)NCCCCCCNC(=O)c2ccc(-c3c4nc(c(-c5c(F)c(F)c(F)c(F)c5F)c5ccc([nH]5)c(-c5c(F)c(F)c(F)c(F)c5F)c5nc(c(-c6c(F)c(F)c(F)c(F)c6F)c6ccc3[nH]6)C=C5)C=C4)cc2)C(C)C)c(=O)[nH]1
REMARK SMILES IDX 16 1 15 2 14 3 13 4 11 5 12 6 10 8 9 9 7 10 8 11 6 13 1 14
REMARK SMILES IDX 2 15 3 16 91 17 4 18 89 19 5 21 90 22 86 23 87 24 88 25
REMARK SMILES IDX 17 26 18 27 19 28 20 29 21 30 22 32 23 33 24 34 85 35 25 36
REMARK SMILES IDX 84 37 26 38 27 39 28 40 78 41 29 42 83 43 77 44 79 45 30 46
REMARK SMILES IDX 82 47 76 48 75 49 31 51 63 52 43 53 62 54 44 55 47 56 61 57
REMARK SMILES IDX 80 58 45 59 46 60 60 62 81 63 48 64 32 65 33 66 41 67 34 68
REMARK SMILES IDX 35 69 39 70 42 71 36 72 37 73 40 74 38 75 64 76 65 77 73 78
REMARK SMILES IDX 66 79 67 80 71 81 74 82 68 83 69 84 72 85 70 86 49 87 50 88
REMARK SMILES IDX 58 89 51 90 52 91 56 92 59 93 53 94 54 95 57 96 55 97
REMARK H PARENT 13 7 9 12 91 20 20 31 79 50 47 61
REMARK Flexibility Score: inf
ROOT
ATOM      1  C   UNL     1      -4.248   2.675  -8.947  1.00  0.00     0.002 C 
ENDROOT
BRANCH   1   2
ATOM      2  C   UNL     1      -3.553   3.695  -8.043  1.00  0.00     0.021 C 
BRANCH   2   3
ATOM      3  C   UNL     1      -3.213   3.138  -6.661  1.00  0.00     0.116 C 
BRANCH   3   4
ATOM      4  N   UNL     1      -1.877   2.581  -6.653  1.00  0.00    -0.354 N 
ATOM      5  C   UNL     1      -0.689   2.949  -6.122  1.00  0.00     0.242 C 
ATOM      6  O   UNL     1       0.284   2.344  -6.605  1.00  0.00    -0.273 OA
ATOM      7  H   UNL     1      -1.820   1.734  -7.152  1.00  0.00     0.163 HD
BRANCH   5   8
ATOM      8  C   UNL     1      -0.450   3.943  -4.928  1.00  0.00     0.174 C 
BRANCH   8   9
ATOM      9  N   UNL     1       0.931   4.424  -5.160  1.00  0.00    -0.340 N 
ATOM     10  C   UNL     1       1.933   4.822  -4.324  1.00  0.00     0.257 C 
ATOM     11  O   UNL     1       3.081   4.860  -4.770  1.00  0.00    -0.269 OA
ATOM     12  H   UNL     1       1.176   4.466  -6.112  1.00  0.00     0.164 HD
BRANCH  10  13
ATOM     13  C   UNL     1       1.632   5.331  -2.963  1.00  0.00     0.107 A 
ATOM     14  C   UNL     1       0.001   7.108   0.614  1.00  0.00     0.064 C 
ATOM     15  C   UNL     1       0.662   6.505  -0.584  1.00  0.00     0.015 A 
ATOM     16  C   UNL     1       1.553   7.155  -1.347  1.00  0.00     0.025 A 
ATOM     17  N   UNL     1       0.338   5.211  -0.900  1.00  0.00    -0.326 N 
ATOM     18  C   UNL     1       2.046   6.569  -2.591  1.00  0.00    -0.031 A 
ATOM     19  C   UNL     1       0.849   4.528  -1.977  1.00  0.00     0.261 A 
ATOM     20  H   UNL     1      -0.302   4.742  -0.318  1.00  0.00     0.169 HD
ATOM     21  C   UNL     1       2.914   7.506  -3.394  1.00  0.00     0.045 C 
ATOM     22  O   UNL     1       0.635   3.326  -2.100  1.00  0.00    -0.269 OA
ENDBRANCH  10  13
ENDBRANCH   8   9
BRANCH   8  23
ATOM     23  C   UNL     1      -1.525   5.027  -4.701  1.00  0.00     0.015 C 
ATOM     24  C   UNL     1      -2.567   4.484  -3.696  1.00  0.00     0.010 C 
ATOM     25  C   UNL     1      -1.103   6.412  -4.217  1.00  0.00     0.010 C 
ENDBRANCH   8  23
ENDBRANCH   5   8
ENDBRANCH   3   4
ENDBRANCH   2   3
ENDBRANCH   1   2
BRANCH   1  26
ATOM     26  C   UNL     1      -5.549   2.092  -8.377  1.00  0.00     0.002 C 
BRANCH  26  27
ATOM     27  C   UNL     1      -6.541   3.127  -7.841  1.00  0.00     0.021 C 
BRANCH  27  28
ATOM     28  C   UNL     1      -6.942   4.187  -8.859  1.00  0.00     0.116 C 
BRANCH  28  29
ATOM     29  N   UNL     1      -7.564   3.595 -10.032  1.00  0.00    -0.352 N 
ATOM     30  C   UNL     1      -8.838   3.758 -10.506  1.00  0.00     0.251 C 
ATOM     31  H   UNL     1      -6.989   2.994 -10.558  1.00  0.00     0.163 HD
ATOM     32  O   UNL     1      -9.287   3.009 -11.367  1.00  0.00    -0.269 OA
BRANCH  30  33
ATOM     33  C   UNL     1      -9.673   4.844  -9.961  1.00  0.00     0.039 A 
ATOM     34  C   UNL     1     -10.987   4.564  -9.585  1.00  0.00     0.014 A 
ATOM     35  C   UNL     1      -9.150   6.134  -9.823  1.00  0.00     0.014 A 
ATOM     36  C   UNL     1     -11.768   5.576  -9.030  1.00  0.00     0.010 A 
ATOM     37  C   UNL     1      -9.903   7.119  -9.197  1.00  0.00     0.010 A 
ATOM     38  C   UNL     1     -11.224   6.854  -8.813  1.00  0.00    -0.014 A 
BRANCH  38  39
ATOM     39  C   UNL     1     -12.048   7.931  -8.218  1.00  0.00     0.031 A 
ATOM     40  C   UNL     1     -12.422   9.129  -9.043  1.00  0.00     0.074 A 
ATOM     41  C   UNL     1     -12.441   7.835  -6.935  1.00  0.00     0.049 A 
ATOM     42  N   UNL     1     -13.155  10.161  -8.713  1.00  0.00    -0.248 NA
ATOM     43  C   UNL     1     -11.883   9.187 -10.411  1.00  0.00     0.031 C 
ATOM     44  C   UNL     1     -12.098   6.739  -6.029  1.00  0.00     0.029 A 
ATOM     45  N   UNL     1     -13.224   8.666  -6.174  1.00  0.00    -0.354 N 
ATOM     46  C   UNL     1     -13.170  10.982  -9.832  1.00  0.00     0.074 A 
ATOM     47  C   UNL     1     -12.311  10.371 -10.821  1.00  0.00     0.031 C 
ATOM     48  C   UNL     1     -12.707   6.940  -4.849  1.00  0.00     0.029 A 
ATOM     49  C   UNL     1     -13.456   8.192  -4.907  1.00  0.00     0.049 A 
ATOM     50  H   UNL     1     -13.585   9.520  -6.505  1.00  0.00     0.167 HD
ATOM     51  C   UNL     1     -13.868  12.125 -10.029  1.00  0.00     0.037 A 
ATOM     52  C   UNL     1     -14.203   8.705  -3.910  1.00  0.00     0.037 A 
ATOM     53  C   UNL     1     -14.733  12.717  -9.046  1.00  0.00     0.049 A 
ATOM     54  C   UNL     1     -14.947   9.991  -4.142  1.00  0.00     0.074 A 
ATOM     55  C   UNL     1     -15.519  13.849  -9.160  1.00  0.00     0.029 A 
ATOM     56  N   UNL     1     -14.923  12.223  -7.763  1.00  0.00    -0.354 N 
ATOM     57  N   UNL     1     -15.007  10.726  -5.226  1.00  0.00    -0.248 NA
ATOM     58  C   UNL     1     -15.730  10.517  -3.015  1.00  0.00     0.031 C 
ATOM     59  C   UNL     1     -16.148  14.067  -7.930  1.00  0.00     0.029 A 
ATOM     60  C   UNL     1     -15.794  13.043  -7.066  1.00  0.00     0.049 A 
ATOM     61  H   UNL     1     -14.501  11.409  -7.403  1.00  0.00     0.167 HD
ATOM     62  C   UNL     1     -15.846  11.790  -4.921  1.00  0.00     0.074 A 
ATOM     63  C   UNL     1     -16.285  11.595  -3.554  1.00  0.00     0.031 C 
ATOM     64  C   UNL     1     -16.217  12.833  -5.703  1.00  0.00     0.037 A 
BRANCH  51  65
ATOM     65  C   UNL     1     -13.736  12.794 -11.366  1.00  0.00     0.064 A 
ATOM     66  C   UNL     1     -14.273  12.219 -12.528  1.00  0.00     0.173 A 
ATOM     67  C   UNL     1     -13.098  14.037 -11.485  1.00  0.00     0.173 A 
ATOM     68  F   UNL     1     -14.881  11.024 -12.472  1.00  0.00    -0.203 F 
ATOM     69  C   UNL     1     -14.149  12.848 -13.764  1.00  0.00     0.198 A 
ATOM     70  C   UNL     1     -13.004  14.680 -12.717  1.00  0.00     0.198 A 
ATOM     71  F   UNL     1     -12.571  14.634 -10.405  1.00  0.00    -0.203 F 
ATOM     72  F   UNL     1     -14.625  12.255 -14.867  1.00  0.00    -0.200 F 
ATOM     73  C   UNL     1     -13.522  14.082 -13.856  1.00  0.00     0.200 A 
ATOM     74  F   UNL     1     -12.409  15.877 -12.803  1.00  0.00    -0.200 F 
ATOM     75  F   UNL     1     -13.412  14.691 -15.044  1.00  0.00    -0.200 F 
ENDBRANCH  51  65
BRANCH  52  76
ATOM     76  C   UNL     1     -14.323   7.962  -2.630  1.00  0.00     0.064 A 
ATOM     77  C   UNL     1     -15.521   7.319  -2.287  1.00  0.00     0.173 A 
ATOM     78  C   UNL     1     -13.239   7.836  -1.750  1.00  0.00     0.173 A 
ATOM     79  F   UNL     1     -16.590   7.424  -3.089  1.00  0.00    -0.203 F 
ATOM     80  C   UNL     1     -15.630   6.581  -1.110  1.00  0.00     0.198 A 
ATOM     81  C   UNL     1     -13.341   7.078  -0.586  1.00  0.00     0.198 A 
ATOM     82  F   UNL     1     -12.069   8.426  -2.037  1.00  0.00    -0.203 F 
ATOM     83  F   UNL     1     -16.793   5.995  -0.794  1.00  0.00    -0.200 F 
ATOM     84  C   UNL     1     -14.537   6.453  -0.265  1.00  0.00     0.200 A 
ATOM     85  F   UNL     1     -12.279   6.943   0.219  1.00  0.00    -0.200 F 
ATOM     86  F   UNL     1     -14.637   5.728   0.857  1.00  0.00    -0.200 F 
ENDBRANCH  52  76
BRANCH  64  87
ATOM     87  C   UNL     1     -17.147  13.851  -5.111  1.00  0.00     0.064 A 
ATOM     88  C   UNL     1     -16.703  14.773  -4.153  1.00  0.00     0.173 A 
ATOM     89  C   UNL     1     -18.467  13.963  -5.573  1.00  0.00     0.173 A 
ATOM     90  F   UNL     1     -15.454  14.698  -3.671  1.00  0.00    -0.203 F 
ATOM     91  C   UNL     1     -17.551  15.768  -3.673  1.00  0.00     0.198 A 
ATOM     92  C   UNL     1     -19.302  14.977  -5.113  1.00  0.00     0.198 A 
ATOM     93  F   UNL     1     -18.936  13.110  -6.496  1.00  0.00    -0.203 F 
ATOM     94  F   UNL     1     -17.115  16.622  -2.737  1.00  0.00    -0.200 F 
ATOM     95  C   UNL     1     -18.845  15.876  -4.162  1.00  0.00     0.200 A 
ATOM     96  F   UNL     1     -20.546  15.091  -5.599  1.00  0.00    -0.200 F 
ATOM     97  F   UNL     1     -19.651  16.849  -3.715  1.00  0.00    -0.200 F 
ENDBRANCH  64  87
ENDBRANCH  38  39
ENDBRANCH  30  33
ENDBRANCH  28  29
ENDBRANCH  27  28
ENDBRANCH  26  27
ENDBRANCH   1  26
TORSDOF 16
