REMARK SMILES C[C@@H](Oc1ccc(Oc2ccccc2)cc1)C(=O)NCCCCCCNC(=O)c1ccc(-c2c3nc(c(-c4c(F)c(F)c(F)c(F)c4F)c4ccc([nH]4)c(-c4c(F)c(F)c(F)c(F)c4F)c4nc(c(-c5c(F)c(F)c(F)c(F)c5F)c5ccc2[nH]5)C=C4)C=C3)cc1
REMARK SMILES IDX 21 1 20 2 19 3 17 4 18 5 2 7 1 8 3 9 4 10 5 11 16 12 6 13
REMARK SMILES IDX 15 14 7 15 8 16 9 17 10 18 14 19 11 20 13 21 12 22 22 23
REMARK SMILES IDX 23 24 24 25 25 26 26 27 27 28 28 30 29 31 30 32 91 33 31 34
REMARK SMILES IDX 90 35 32 36 33 37 34 38 84 39 35 40 89 41 83 42 85 43 36 44
REMARK SMILES IDX 88 45 82 46 81 47 37 49 69 50 49 51 68 52 50 53 53 54 67 55
REMARK SMILES IDX 86 56 51 57 52 58 66 60 87 61 54 62 38 63 39 64 47 65 40 66
REMARK SMILES IDX 41 67 45 68 48 69 42 70 43 71 46 72 44 73 70 74 71 75 79 76
REMARK SMILES IDX 72 77 73 78 77 79 80 80 74 81 75 82 78 83 76 84 55 85 56 86
REMARK SMILES IDX 64 87 57 88 58 89 62 90 65 91 59 92 60 93 63 94 61 95
REMARK H PARENT 19 6 26 29 85 48 53 59
REMARK Flexibility Score: inf
ROOT
ATOM      1  C   UNL     1      -1.541   2.338  -0.537  1.00  0.00     0.021 C 
ENDROOT
BRANCH   1   2
ATOM      2  C   UNL     1      -1.032   1.925   0.841  1.00  0.00     0.116 C 
BRANCH   2   3
ATOM      3  N   UNL     1      -1.562   0.633   1.244  1.00  0.00    -0.353 N 
ATOM      4  C   UNL     1      -0.898  -0.532   1.518  1.00  0.00     0.260 C 
ATOM      5  O   UNL     1      -1.563  -1.518   1.844  1.00  0.00    -0.271 OA
ATOM      6  H   UNL     1      -2.542   0.590   1.334  1.00  0.00     0.163 HD
BRANCH   4   7
ATOM      7  C   UNL     1       0.626  -0.617   1.347  1.00  0.00     0.258 C 
ATOM      8  C   UNL     1       0.922  -0.623  -0.154  1.00  0.00     0.064 C 
BRANCH   7   9
ATOM      9  O   UNL     1       1.159   0.471   2.114  1.00  0.00    -0.481 OA
BRANCH   9  10
ATOM     10  C   UNL     1       2.508   0.544   2.269  1.00  0.00     0.120 A 
ATOM     11  C   UNL     1       3.001   0.615   3.571  1.00  0.00     0.050 A 
ATOM     12  C   UNL     1       3.368   0.747   1.198  1.00  0.00     0.050 A 
ATOM     13  C   UNL     1       4.360   0.863   3.795  1.00  0.00     0.051 A 
ATOM     14  C   UNL     1       4.728   0.953   1.417  1.00  0.00     0.051 A 
ATOM     15  C   UNL     1       5.230   1.041   2.716  1.00  0.00     0.127 A 
BRANCH  15  16
ATOM     16  O   UNL     1       6.544   1.317   3.042  1.00  0.00    -0.457 OA
BRANCH  16  17
ATOM     17  C   UNL     1       7.436   1.502   2.013  1.00  0.00     0.127 A 
ATOM     18  C   UNL     1       8.422   0.536   1.824  1.00  0.00     0.047 A 
ATOM     19  C   UNL     1       7.378   2.629   1.188  1.00  0.00     0.047 A 
ATOM     20  C   UNL     1       9.312   0.660   0.758  1.00  0.00     0.004 A 
ATOM     21  C   UNL     1       8.254   2.738   0.109  1.00  0.00     0.004 A 
ATOM     22  C   UNL     1       9.216   1.751  -0.109  1.00  0.00     0.000 A 
ENDBRANCH  16  17
ENDBRANCH  15  16
ENDBRANCH   9  10
ENDBRANCH   7   9
ENDBRANCH   4   7
ENDBRANCH   2   3
ENDBRANCH   1   2
BRANCH   1  23
ATOM     23  C   UNL     1      -3.041   2.635  -0.586  1.00  0.00     0.002 C 
BRANCH  23  24
ATOM     24  C   UNL     1      -3.519   3.713   0.392  1.00  0.00     0.002 C 
BRANCH  24  25
ATOM     25  C   UNL     1      -2.792   5.056   0.283  1.00  0.00     0.021 C 
BRANCH  25  26
ATOM     26  C   UNL     1      -2.879   5.712  -1.091  1.00  0.00     0.116 C 
BRANCH  26  27
ATOM     27  N   UNL     1      -4.248   6.053  -1.447  1.00  0.00    -0.352 N 
ATOM     28  C   UNL     1      -4.770   7.260  -1.832  1.00  0.00     0.251 C 
ATOM     29  H   UNL     1      -4.892   5.309  -1.406  1.00  0.00     0.163 HD
ATOM     30  O   UNL     1      -5.987   7.415  -1.903  1.00  0.00    -0.269 OA
BRANCH  28  31
ATOM     31  C   UNL     1      -3.867   8.386  -2.146  1.00  0.00     0.039 A 
ATOM     32  C   UNL     1      -4.173   9.657  -1.652  1.00  0.00     0.014 A 
ATOM     33  C   UNL     1      -2.727   8.192  -2.930  1.00  0.00     0.014 A 
ATOM     34  C   UNL     1      -3.303  10.722  -1.897  1.00  0.00     0.010 A 
ATOM     35  C   UNL     1      -1.822   9.235  -3.107  1.00  0.00     0.010 A 
ATOM     36  C   UNL     1      -2.104  10.512  -2.598  1.00  0.00    -0.014 A 
BRANCH  36  37
ATOM     37  C   UNL     1      -1.135  11.616  -2.816  1.00  0.00     0.031 A 
ATOM     38  C   UNL     1      -0.821  12.081  -4.211  1.00  0.00     0.074 A 
ATOM     39  C   UNL     1      -0.492  12.158  -1.763  1.00  0.00     0.049 A 
ATOM     40  N   UNL     1       0.048  12.975  -4.611  1.00  0.00    -0.248 NA
ATOM     41  C   UNL     1      -1.564  11.436  -5.305  1.00  0.00     0.031 C 
ATOM     42  C   UNL     1      -0.679  11.765  -0.365  1.00  0.00     0.029 A 
ATOM     43  N   UNL     1       0.457  13.147  -1.704  1.00  0.00    -0.354 N 
ATOM     44  C   UNL     1      -0.036  12.989  -5.997  1.00  0.00     0.074 A 
ATOM     45  C   UNL     1      -0.996  11.975  -6.374  1.00  0.00     0.031 C 
ATOM     46  C   UNL     1       0.112  12.519   0.413  1.00  0.00     0.029 A 
ATOM     47  C   UNL     1       0.895  13.417  -0.430  1.00  0.00     0.049 A 
ATOM     48  H   UNL     1       0.793  13.619  -2.501  1.00  0.00     0.167 HD
ATOM     49  C   UNL     1       0.612  13.792  -6.875  1.00  0.00     0.037 A 
ATOM     50  C   UNL     1       1.830  14.282   0.006  1.00  0.00     0.037 A 
ATOM     51  C   UNL     1       1.552  14.813  -6.494  1.00  0.00     0.049 A 
ATOM     52  C   UNL     1       2.551  15.148  -0.993  1.00  0.00     0.074 A 
ATOM     53  C   UNL     1       2.221  15.715  -7.303  1.00  0.00     0.029 A 
ATOM     54  N   UNL     1       1.961  15.065  -5.192  1.00  0.00    -0.354 N 
ATOM     55  N   UNL     1       2.415  15.199  -2.296  1.00  0.00    -0.248 NA
ATOM     56  C   UNL     1       3.553  16.081  -0.459  1.00  0.00     0.031 C 
ATOM     57  C   UNL     1       3.077  16.474  -6.498  1.00  0.00     0.029 A 
ATOM     58  C   UNL     1       2.893  16.091  -5.180  1.00  0.00     0.049 A 
ATOM     59  H   UNL     1       1.636  14.587  -4.395  1.00  0.00     0.167 HD
ATOM     60  C   UNL     1       3.284  16.190  -2.733  1.00  0.00     0.074 A 
ATOM     61  C   UNL     1       3.933  16.724  -1.554  1.00  0.00     0.031 C 
ATOM     62  C   UNL     1       3.522  16.621  -3.996  1.00  0.00     0.037 A 
BRANCH  49  63
ATOM     63  C   UNL     1       0.328  13.598  -8.338  1.00  0.00     0.064 A 
ATOM     64  C   UNL     1      -0.918  13.922  -8.897  1.00  0.00     0.173 A 
ATOM     65  C   UNL     1       1.327  13.120  -9.200  1.00  0.00     0.173 A 
ATOM     66  F   UNL     1      -1.912  14.373  -8.117  1.00  0.00    -0.203 F 
ATOM     67  C   UNL     1      -1.162  13.747 -10.257  1.00  0.00     0.198 A 
ATOM     68  C   UNL     1       1.090  12.979 -10.565  1.00  0.00     0.198 A 
ATOM     69  F   UNL     1       2.538  12.800  -8.720  1.00  0.00    -0.203 F 
ATOM     70  F   UNL     1      -2.376  14.014 -10.758  1.00  0.00    -0.200 F 
ATOM     71  C   UNL     1      -0.156  13.283 -11.091  1.00  0.00     0.200 A 
ATOM     72  F   UNL     1       2.069  12.546 -11.371  1.00  0.00    -0.200 F 
ATOM     73  F   UNL     1      -0.389  13.124 -12.401  1.00  0.00    -0.200 F 
ENDBRANCH  49  63
BRANCH  50  74
ATOM     74  C   UNL     1       2.130  14.387   1.459  1.00  0.00     0.064 A 
ATOM     75  C   UNL     1       1.813  15.548   2.179  1.00  0.00     0.173 A 
ATOM     76  C   UNL     1       2.752  13.340   2.154  1.00  0.00     0.173 A 
ATOM     77  F   UNL     1       1.235  16.585   1.555  1.00  0.00    -0.203 F 
ATOM     78  C   UNL     1       2.132  15.668   3.530  1.00  0.00     0.198 A 
ATOM     79  C   UNL     1       3.041  13.448   3.513  1.00  0.00     0.198 A 
ATOM     80  F   UNL     1       3.072  12.205   1.515  1.00  0.00    -0.203 F 
ATOM     81  F   UNL     1       1.867  16.810   4.179  1.00  0.00    -0.200 F 
ATOM     82  C   UNL     1       2.740  14.616   4.197  1.00  0.00     0.200 A 
ATOM     83  F   UNL     1       3.615  12.423   4.157  1.00  0.00    -0.200 F 
ATOM     84  F   UNL     1       3.046  14.731   5.497  1.00  0.00    -0.200 F 
ENDBRANCH  50  74
BRANCH  62  85
ATOM     85  C   UNL     1       4.491  17.756  -4.169  1.00  0.00     0.064 A 
ATOM     86  C   UNL     1       5.867  17.595  -3.957  1.00  0.00     0.173 A 
ATOM     87  C   UNL     1       4.036  19.014  -4.597  1.00  0.00     0.173 A 
ATOM     88  F   UNL     1       6.352  16.417  -3.535  1.00  0.00    -0.203 F 
ATOM     89  C   UNL     1       6.749  18.657  -4.139  1.00  0.00     0.198 A 
ATOM     90  C   UNL     1       4.924  20.063  -4.811  1.00  0.00     0.198 A 
ATOM     91  F   UNL     1       2.730  19.220  -4.822  1.00  0.00    -0.203 F 
ATOM     92  F   UNL     1       8.054  18.494  -3.879  1.00  0.00    -0.200 F 
ATOM     93  C   UNL     1       6.279  19.887  -4.574  1.00  0.00     0.200 A 
ATOM     94  F   UNL     1       4.469  21.246  -5.248  1.00  0.00    -0.200 F 
ATOM     95  F   UNL     1       7.130  20.905  -4.758  1.00  0.00    -0.200 F 
ENDBRANCH  62  85
ENDBRANCH  36  37
ENDBRANCH  28  31
ENDBRANCH  26  27
ENDBRANCH  25  26
ENDBRANCH  24  25
ENDBRANCH  23  24
ENDBRANCH   1  23
TORSDOF 17
