REMARK SMILES CCc1nnc(/[NH+]=C2/S/C(=C/c3ccccc3OCCC(=O)NCCCCCCNC(=O)c3ccc(-c4c5nc(c(-c6c(F)c(F)c(F)c(F)c6F)c6ccc([nH]6)c(-c6c(F)c(F)c(F)c(F)c6F)c6nc(c(-c7c(F)c(F)c(F)c(F)c7F)c7ccc4[nH]7)C=C6)C=C5)cc3)C(=O)N2C)s1
REMARK SMILES IDX 24 1 23 2 21 3 22 4 20 6 19 7 18 8 17 9 12 10 13 11 14 12
REMARK SMILES IDX 16 13 15 14 11 15 7 16 8 17 9 19 98 20 10 21 96 22 99 23
REMARK SMILES IDX 97 24 6 25 3 26 4 27 100 28 5 29 2 30 1 31 25 32 26 33 27 34
REMARK SMILES IDX 28 35 29 36 30 37 31 38 32 40 33 41 34 42 95 43 35 44 94 45
REMARK SMILES IDX 36 46 37 47 38 48 88 49 39 50 93 51 87 52 89 53 40 54 92 55
REMARK SMILES IDX 86 56 85 57 41 59 73 60 53 61 72 62 54 63 57 64 71 65 90 66
REMARK SMILES IDX 55 67 56 68 70 70 91 71 58 72 42 73 43 74 51 75 44 76 45 77
REMARK SMILES IDX 49 78 52 79 46 80 47 81 50 82 48 83 74 84 75 85 83 86 76 87
REMARK SMILES IDX 77 88 81 89 84 90 78 91 79 92 82 93 80 94 59 95 60 96 68 97
REMARK SMILES IDX 61 98 62 99 66 100 69 101 63 102 64 103 67 104 65 105
REMARK H PARENT 23 5 7 18 30 39 89 58 57 69
REMARK Flexibility Score: inf
ROOT
ATOM      1  C   UNL     1       1.955  -1.226  -7.418  1.00  0.00     0.116 C 
ENDROOT
BRANCH   1   2
ATOM      2  N   UNL     1       2.978  -0.705  -6.565  1.00  0.00    -0.356 N 
ATOM      3  C   UNL     1       2.797   0.516  -5.982  1.00  0.00     0.223 C 
ATOM      4  O   UNL     1       3.813   1.190  -6.012  1.00  0.00    -0.275 OA
ATOM      5  H   UNL     1       3.801  -1.220  -6.400  1.00  0.00     0.163 HD
BRANCH   3   6
ATOM      6  C   UNL     1       1.369   0.985  -5.480  1.00  0.00     0.141 C 
BRANCH   6   7
ATOM      7  C   UNL     1       0.382   2.121  -6.039  1.00  0.00     0.239 C 
BRANCH   7   8
ATOM      8  O   UNL     1      -0.523   2.116  -7.188  1.00  0.00    -0.492 OA
BRANCH   8   9
ATOM      9  C   UNL     1      -0.029   1.729  -8.465  1.00  0.00     0.126 A 
ATOM     10  C   UNL     1       1.646   2.246  -8.853  1.00  0.00     0.018 A 
ATOM     11  C   UNL     1       2.736   0.994  -9.544  1.00  0.00     0.012 A 
ATOM     12  C   UNL     1       2.177  -0.723  -9.794  1.00  0.00     0.001 A 
ATOM     13  C   UNL     1      -0.716   0.071  -8.785  1.00  0.00     0.047 A 
ATOM     14  C   UNL     1       0.416  -1.201  -9.376  1.00  0.00     0.004 A 
BRANCH  10  15
ATOM     15  C   UNL     1       2.095   3.575  -8.077  1.00  0.00     0.035 C 
ATOM     16  N   UNL     1       1.583   4.777  -3.487  1.00  0.00    -0.226 N 
ATOM     17  C   UNL     1       2.378   4.496  -4.471  1.00  0.00     0.271 C 
ATOM     18  H   UNL     1       0.970   5.539  -3.596  1.00  0.00     0.268 HD
ATOM     19  S   UNL     1       2.162   5.398  -6.030  1.00  0.00    -0.012 SA
ATOM     20  N   UNL     1       3.364   3.567  -4.664  1.00  0.00    -0.222 N 
ATOM     21  C   UNL     1       2.834   4.015  -6.989  1.00  0.00     0.100 C 
ATOM     22  C   UNL     1       3.885   3.552  -5.974  1.00  0.00     0.321 C 
ATOM     23  C   UNL     1       3.974   2.744  -3.612  1.00  0.00     0.252 C 
ATOM     24  O   UNL     1       5.075   3.443  -6.254  1.00  0.00    -0.250 OA
BRANCH  16  25
ATOM     25  C   UNL     1       1.538   4.090  -2.310  1.00  0.00     0.345 A 
ATOM     26  C   UNL     1       0.925   2.601  -0.489  1.00  0.00     0.138 A 
ATOM     27  N   UNL     1       1.683   3.600  -0.092  1.00  0.00    -0.067 NA
ATOM     28  S   UNL     1       0.528   2.676  -2.159  1.00  0.00    -0.044 S 
ATOM     29  N   UNL     1       2.026   4.453  -1.136  1.00  0.00     0.023 NA
BRANCH  26  30
ATOM     30  C   UNL     1       0.421   1.498   0.402  1.00  0.00     0.068 C 
ATOM     31  C   UNL     1       1.028   0.141   0.063  1.00  0.00     0.012 C 
ENDBRANCH  26  30
ENDBRANCH  16  25
ENDBRANCH  10  15
ENDBRANCH   8   9
ENDBRANCH   7   8
ENDBRANCH   6   7
ENDBRANCH   3   6
ENDBRANCH   1   2
BRANCH   1  32
ATOM     32  C   UNL     1       1.309   0.126  -8.208  1.00  0.00     0.021 C 
BRANCH  32  33
ATOM     33  C   UNL     1       0.717   0.607 -10.254  1.00  0.00     0.002 C 
BRANCH  33  34
ATOM     34  C   UNL     1       0.782  -0.502 -11.741  1.00  0.00     0.002 C 
BRANCH  34  35
ATOM     35  C   UNL     1       0.651  -2.097 -11.784  1.00  0.00     0.021 C 
BRANCH  35  36
ATOM     36  C   UNL     1      -0.784  -2.627 -11.830  1.00  0.00     0.116 C 
BRANCH  36  37
ATOM     37  N   UNL     1      -1.139  -2.831 -13.220  1.00  0.00    -0.352 N 
ATOM     38  C   UNL     1      -1.582  -4.000 -13.780  1.00  0.00     0.251 C 
ATOM     39  H   UNL     1      -1.053  -2.054 -13.820  1.00  0.00     0.163 HD
ATOM     40  O   UNL     1      -1.297  -4.288 -14.937  1.00  0.00    -0.269 OA
BRANCH  38  41
ATOM     41  C   UNL     1      -2.443  -4.889 -12.975  1.00  0.00     0.039 A 
ATOM     42  C   UNL     1      -2.350  -6.273 -13.138  1.00  0.00     0.014 A 
ATOM     43  C   UNL     1      -3.395  -4.337 -12.111  1.00  0.00     0.014 A 
ATOM     44  C   UNL     1      -3.222  -7.104 -12.438  1.00  0.00     0.010 A 
ATOM     45  C   UNL     1      -4.209  -5.168 -11.355  1.00  0.00     0.010 A 
ATOM     46  C   UNL     1      -4.154  -6.556 -11.541  1.00  0.00    -0.014 A 
BRANCH  46  47
ATOM     47  C   UNL     1      -5.123  -7.423 -10.834  1.00  0.00     0.031 A 
ATOM     48  C   UNL     1      -6.592  -7.286 -11.120  1.00  0.00     0.074 A 
ATOM     49  C   UNL     1      -4.671  -8.312  -9.931  1.00  0.00     0.049 A 
ATOM     50  N   UNL     1      -7.600  -7.940 -10.601  1.00  0.00    -0.248 NA
ATOM     51  C   UNL     1      -6.987  -6.259 -12.099  1.00  0.00     0.031 C 
ATOM     52  C   UNL     1      -3.268  -8.495  -9.557  1.00  0.00     0.029 A 
ATOM     53  N   UNL     1      -5.341  -9.233  -9.170  1.00  0.00    -0.354 N 
ATOM     54  C   UNL     1      -8.738  -7.405 -11.192  1.00  0.00     0.074 A 
ATOM     55  C   UNL     1      -8.308  -6.320 -12.043  1.00  0.00     0.031 C 
ATOM     56  C   UNL     1      -3.176  -9.498  -8.671  1.00  0.00     0.029 A 
ATOM     57  C   UNL     1      -4.517  -9.994  -8.379  1.00  0.00     0.049 A 
ATOM     58  H   UNL     1      -6.320  -9.338  -9.188  1.00  0.00     0.167 HD
ATOM     59  C   UNL     1     -10.023  -7.811 -11.062  1.00  0.00     0.037 A 
ATOM     60  C   UNL     1      -4.819 -10.978  -7.512  1.00  0.00     0.037 A 
ATOM     61  C   UNL     1     -10.432  -8.899 -10.216  1.00  0.00     0.049 A 
ATOM     62  C   UNL     1      -6.263 -11.372  -7.349  1.00  0.00     0.074 A 
ATOM     63  C   UNL     1     -11.700  -9.416 -10.025  1.00  0.00     0.029 A 
ATOM     64  N   UNL     1      -9.572  -9.635  -9.411  1.00  0.00    -0.354 N 
ATOM     65  N   UNL     1      -7.326 -10.904  -7.960  1.00  0.00    -0.248 NA
ATOM     66  C   UNL     1      -6.550 -12.436  -6.379  1.00  0.00     0.031 C 
ATOM     67  C   UNL     1     -11.618 -10.419  -9.056  1.00  0.00     0.029 A 
ATOM     68  C   UNL     1     -10.288 -10.583  -8.699  1.00  0.00     0.049 A 
ATOM     69  H   UNL     1      -8.598  -9.503  -9.356  1.00  0.00     0.167 HD
ATOM     70  C   UNL     1      -8.399 -11.640  -7.478  1.00  0.00     0.074 A 
ATOM     71  C   UNL     1      -7.854 -12.600  -6.539  1.00  0.00     0.031 C 
ATOM     72  C   UNL     1      -9.717 -11.534  -7.779  1.00  0.00     0.037 A 
BRANCH  59  73
ATOM     73  C   UNL     1     -11.070  -7.076 -11.851  1.00  0.00     0.064 A 
ATOM     74  C   UNL     1     -11.118  -7.140 -13.253  1.00  0.00     0.173 A 
ATOM     75  C   UNL     1     -12.057  -6.322 -11.198  1.00  0.00     0.173 A 
ATOM     76  F   UNL     1     -10.191  -7.835 -13.930  1.00  0.00    -0.203 F 
ATOM     77  C   UNL     1     -12.093  -6.452 -13.971  1.00  0.00     0.198 A 
ATOM     78  C   UNL     1     -13.053  -5.667 -11.918  1.00  0.00     0.198 A 
ATOM     79  F   UNL     1     -12.062  -6.226  -9.860  1.00  0.00    -0.203 F 
ATOM     80  F   UNL     1     -12.082  -6.482 -15.311  1.00  0.00    -0.200 F 
ATOM     81  C   UNL     1     -13.065  -5.724 -13.303  1.00  0.00     0.200 A 
ATOM     82  F   UNL     1     -14.002  -4.977 -11.269  1.00  0.00    -0.200 F 
ATOM     83  F   UNL     1     -14.010  -5.072 -13.994  1.00  0.00    -0.200 F 
ENDBRANCH  59  73
BRANCH  60  84
ATOM     84  C   UNL     1      -3.744 -11.666  -6.749  1.00  0.00     0.064 A 
ATOM     85  C   UNL     1      -3.479 -13.030  -6.942  1.00  0.00     0.173 A 
ATOM     86  C   UNL     1      -2.978 -10.986  -5.790  1.00  0.00     0.173 A 
ATOM     87  F   UNL     1      -4.189 -13.729  -7.839  1.00  0.00    -0.203 F 
ATOM     88  C   UNL     1      -2.522 -13.694  -6.177  1.00  0.00     0.198 A 
ATOM     89  C   UNL     1      -1.995 -11.642  -5.054  1.00  0.00     0.198 A 
ATOM     90  F   UNL     1      -3.180  -9.678  -5.572  1.00  0.00    -0.203 F 
ATOM     91  F   UNL     1      -2.339 -15.012  -6.335  1.00  0.00    -0.200 F 
ATOM     92  C   UNL     1      -1.778 -12.999  -5.236  1.00  0.00     0.200 A 
ATOM     93  F   UNL     1      -1.263 -10.960  -4.162  1.00  0.00    -0.200 F 
ATOM     94  F   UNL     1      -0.861 -13.638  -4.498  1.00  0.00    -0.200 F 
ENDBRANCH  60  84
BRANCH  72  95
ATOM     95  C   UNL     1     -10.652 -12.512  -7.125  1.00  0.00     0.064 A 
ATOM     96  C   UNL     1     -10.922 -12.472  -5.749  1.00  0.00     0.173 A 
ATOM     97  C   UNL     1     -11.317 -13.478  -7.897  1.00  0.00     0.173 A 
ATOM     98  F   UNL     1     -10.303 -11.576  -4.964  1.00  0.00    -0.203 F 
ATOM     99  C   UNL     1     -11.792 -13.388  -5.165  1.00  0.00     0.198 A 
ATOM    100  C   UNL     1     -12.219 -14.363  -7.316  1.00  0.00     0.198 A 
ATOM    101  F   UNL     1     -11.104 -13.552  -9.219  1.00  0.00    -0.203 F 
ATOM    102  F   UNL     1     -11.984 -13.373  -3.838  1.00  0.00    -0.200 F 
ATOM    103  C   UNL     1     -12.447 -14.325  -5.949  1.00  0.00     0.200 A 
ATOM    104  F   UNL     1     -12.868 -15.252  -8.080  1.00  0.00    -0.200 F 
ATOM    105  F   UNL     1     -13.293 -15.199  -5.386  1.00  0.00    -0.200 F 
ENDBRANCH  72  95
ENDBRANCH  46  47
ENDBRANCH  38  41
ENDBRANCH  36  37
ENDBRANCH  35  36
ENDBRANCH  34  35
ENDBRANCH  33  34
ENDBRANCH  32  33
ENDBRANCH   1  32
TORSDOF 19
