REMARK SMILES O=C(NCCCCCCNC(=O)[C@H]1[C@@H](C(=O)NN2CCOCC2)[C@H]2C=C[C@@H]1CC2)c1ccc(-c2c3nc(c(-c4c(F)c(F)c(F)c(F)c4F)c4ccc([nH]4)c(-c4c(F)c(F)c(F)c(F)c4F)c4nc(c(-c5c(F)c(F)c(F)c(F)c5F)c5ccc2[nH]5)C=C4)C=C3)cc1
REMARK SMILES IDX 6 1 5 2 4 3 3 4 1 5 2 6 30 8 31 9 92 10 32 11 91 12 33 13
REMARK SMILES IDX 34 14 35 15 85 16 36 17 90 18 84 19 86 20 37 21 89 22 83 23
REMARK SMILES IDX 82 24 38 26 70 27 50 28 69 29 51 30 54 31 68 32 87 33 52 34
REMARK SMILES IDX 53 35 67 37 88 38 55 39 39 40 40 41 48 42 41 43 42 44 46 45
REMARK SMILES IDX 49 46 43 47 44 48 47 49 45 50 71 51 72 52 80 53 73 54 74 55
REMARK SMILES IDX 78 56 81 57 75 58 76 59 79 60 77 61 56 62 57 63 65 64 58 65
REMARK SMILES IDX 59 66 63 67 66 68 60 69 61 70 64 71 62 72 7 73 8 74 9 75
REMARK SMILES IDX 10 76 11 77 12 79 13 80 14 81 27 82 24 83 26 84 28 85 25 86
REMARK SMILES IDX 29 87 15 88 16 89 17 90 18 92 19 93 23 94 20 95 22 96 21 97
REMARK H PARENT 3 7 86 25 54 36 10 78 17 91
REMARK Flexibility Score: inf
ROOT
ATOM      1  C   UNL     1       7.243  11.068  -3.269  1.00  0.00     0.002 C 
ENDROOT
BRANCH   1   2
ATOM      2  C   UNL     1       6.434  11.406  -4.521  1.00  0.00     0.021 C 
BRANCH   2   3
ATOM      3  C   UNL     1       4.965  11.712  -4.282  1.00  0.00     0.116 C 
BRANCH   3   4
ATOM      4  N   UNL     1       4.753  12.917  -3.501  1.00  0.00    -0.352 N 
ATOM      5  O   UNL     1       3.880  14.947  -3.031  1.00  0.00    -0.269 OA
ATOM      6  C   UNL     1       3.851  13.930  -3.719  1.00  0.00     0.251 C 
ATOM      7  H   UNL     1       5.331  13.021  -2.711  1.00  0.00     0.163 HD
BRANCH   6   8
ATOM      8  C   UNL     1       2.858  13.804  -4.808  1.00  0.00     0.039 A 
ATOM      9  C   UNL     1       2.164  12.607  -5.004  1.00  0.00     0.014 A 
ATOM     10  C   UNL     1       2.616  14.898  -5.644  1.00  0.00     0.014 A 
ATOM     11  C   UNL     1       1.336  12.462  -6.109  1.00  0.00     0.010 A 
ATOM     12  C   UNL     1       1.710  14.780  -6.703  1.00  0.00     0.010 A 
ATOM     13  C   UNL     1       1.079  13.553  -6.956  1.00  0.00    -0.014 A 
BRANCH  13  14
ATOM     14  C   UNL     1       0.071  13.395  -8.035  1.00  0.00     0.031 A 
ATOM     15  C   UNL     1       0.452  13.465  -9.486  1.00  0.00     0.074 A 
ATOM     16  C   UNL     1      -1.201  13.132  -7.677  1.00  0.00     0.049 A 
ATOM     17  N   UNL     1      -0.303  13.289 -10.542  1.00  0.00    -0.248 NA
ATOM     18  C   UNL     1       1.854  13.778  -9.797  1.00  0.00     0.031 C 
ATOM     19  C   UNL     1      -1.687  13.065  -6.296  1.00  0.00     0.029 A 
ATOM     20  N   UNL     1      -2.309  12.843  -8.431  1.00  0.00    -0.354 N 
ATOM     21  C   UNL     1       0.526  13.479 -11.640  1.00  0.00     0.074 A 
ATOM     22  C   UNL     1       1.837  13.809 -11.124  1.00  0.00     0.031 C 
ATOM     23  C   UNL     1      -2.976  12.701  -6.299  1.00  0.00     0.029 A 
ATOM     24  C   UNL     1      -3.425  12.568  -7.679  1.00  0.00     0.049 A 
ATOM     25  H   UNL     1      -2.305  12.834  -9.415  1.00  0.00     0.167 HD
ATOM     26  C   UNL     1       0.216  13.376 -12.955  1.00  0.00     0.037 A 
ATOM     27  C   UNL     1      -4.677  12.255  -8.058  1.00  0.00     0.037 A 
ATOM     28  C   UNL     1      -1.091  13.038 -13.460  1.00  0.00     0.049 A 
ATOM     29  C   UNL     1      -4.985  12.152  -9.523  1.00  0.00     0.074 A 
ATOM     30  C   UNL     1      -1.500  12.896 -14.775  1.00  0.00     0.029 A 
ATOM     31  N   UNL     1      -2.204  12.790 -12.669  1.00  0.00    -0.354 N 
ATOM     32  N   UNL     1      -4.184  12.308 -10.549  1.00  0.00    -0.248 NA
ATOM     33  C   UNL     1      -6.372  11.831  -9.884  1.00  0.00     0.031 C 
ATOM     34  C   UNL     1      -2.867  12.597 -14.782  1.00  0.00     0.029 A 
ATOM     35  C   UNL     1      -3.301  12.509 -13.470  1.00  0.00     0.049 A 
ATOM     36  H   UNL     1      -2.213  12.810 -11.685  1.00  0.00     0.167 HD
ATOM     37  C   UNL     1      -4.966  12.103 -11.675  1.00  0.00     0.074 A 
ATOM     38  C   UNL     1      -6.296  11.773 -11.205  1.00  0.00     0.031 C 
ATOM     39  C   UNL     1      -4.619  12.192 -12.982  1.00  0.00     0.037 A 
BRANCH  26  40
ATOM     40  C   UNL     1       1.307  13.633 -13.955  1.00  0.00     0.064 A 
ATOM     41  C   UNL     1       2.335  12.705 -14.172  1.00  0.00     0.173 A 
ATOM     42  C   UNL     1       1.281  14.783 -14.758  1.00  0.00     0.173 A 
ATOM     43  F   UNL     1       2.411  11.594 -13.424  1.00  0.00    -0.203 F 
ATOM     44  C   UNL     1       3.304  12.924 -15.150  1.00  0.00     0.198 A 
ATOM     45  C   UNL     1       2.237  14.988 -15.750  1.00  0.00     0.198 A 
ATOM     46  F   UNL     1       0.315  15.700 -14.595  1.00  0.00    -0.203 F 
ATOM     47  F   UNL     1       4.292  12.035 -15.322  1.00  0.00    -0.200 F 
ATOM     48  C   UNL     1       3.248  14.059 -15.944  1.00  0.00     0.200 A 
ATOM     49  F   UNL     1       2.174  16.080 -16.525  1.00  0.00    -0.200 F 
ATOM     50  F   UNL     1       4.171  14.260 -16.894  1.00  0.00    -0.200 F 
ENDBRANCH  26  40
BRANCH  27  51
ATOM     51  C   UNL     1      -5.726  12.029  -7.032  1.00  0.00     0.064 A 
ATOM     52  C   UNL     1      -6.284  10.759  -6.833  1.00  0.00     0.173 A 
ATOM     53  C   UNL     1      -6.190  13.080  -6.227  1.00  0.00     0.173 A 
ATOM     54  F   UNL     1      -5.885   9.726  -7.590  1.00  0.00    -0.203 F 
ATOM     55  C   UNL     1      -7.280  10.553  -5.882  1.00  0.00     0.198 A 
ATOM     56  C   UNL     1      -7.163  12.866  -5.254  1.00  0.00     0.198 A 
ATOM     57  F   UNL     1      -5.683  14.313  -6.373  1.00  0.00    -0.203 F 
ATOM     58  F   UNL     1      -7.830   9.339  -5.744  1.00  0.00    -0.200 F 
ATOM     59  C   UNL     1      -7.714  11.605  -5.089  1.00  0.00     0.200 A 
ATOM     60  F   UNL     1      -7.565  13.881  -4.478  1.00  0.00    -0.200 F 
ATOM     61  F   UNL     1      -8.668  11.405  -4.170  1.00  0.00    -0.200 F 
ENDBRANCH  27  51
BRANCH  39  62
ATOM     62  C   UNL     1      -5.699  11.921 -13.985  1.00  0.00     0.064 A 
ATOM     63  C   UNL     1      -6.746  12.831 -14.196  1.00  0.00     0.173 A 
ATOM     64  C   UNL     1      -5.690  10.740 -14.741  1.00  0.00     0.173 A 
ATOM     65  F   UNL     1      -6.807  13.966 -13.483  1.00  0.00    -0.203 F 
ATOM     66  C   UNL     1      -7.763  12.553 -15.104  1.00  0.00     0.198 A 
ATOM     67  C   UNL     1      -6.694  10.478 -15.669  1.00  0.00     0.198 A 
ATOM     68  F   UNL     1      -4.709   9.839 -14.579  1.00  0.00    -0.203 F 
ATOM     69  F   UNL     1      -8.784  13.409 -15.247  1.00  0.00    -0.200 F 
ATOM     70  C   UNL     1      -7.734  11.379 -15.842  1.00  0.00     0.200 A 
ATOM     71  F   UNL     1      -6.661   9.347 -16.388  1.00  0.00    -0.200 F 
ATOM     72  F   UNL     1      -8.718  11.109 -16.712  1.00  0.00    -0.200 F 
ENDBRANCH  39  62
ENDBRANCH  13  14
ENDBRANCH   6   8
ENDBRANCH   3   4
ENDBRANCH   2   3
ENDBRANCH   1   2
BRANCH   1  73
ATOM     73  C   UNL     1       6.699   9.928  -2.401  1.00  0.00     0.002 C 
BRANCH  73  74
ATOM     74  C   UNL     1       6.395   8.609  -3.121  1.00  0.00     0.021 C 
BRANCH  74  75
ATOM     75  C   UNL     1       7.509   8.087  -4.021  1.00  0.00     0.116 C 
BRANCH  75  76
ATOM     76  N   UNL     1       8.738   7.817  -3.299  1.00  0.00    -0.356 N 
ATOM     77  C   UNL     1       9.625   6.786  -3.421  1.00  0.00     0.224 C 
ATOM     78  H   UNL     1       8.969   8.483  -2.611  1.00  0.00     0.163 HD
ATOM     79  O   UNL     1      10.653   6.832  -2.747  1.00  0.00    -0.275 OA
BRANCH  77  80
ATOM     80  C   UNL     1       9.295   5.630  -4.348  1.00  0.00     0.098 C 
ATOM     81  C   UNL     1       9.977   5.662  -5.747  1.00  0.00     0.100 C 
ATOM     82  C   UNL     1       9.539   4.252  -3.655  1.00  0.00     0.025 C 
ATOM     83  C   UNL     1      10.504   4.221  -6.065  1.00  0.00     0.025 C 
ATOM     84  C   UNL     1      11.000   3.875  -3.737  1.00  0.00    -0.027 C 
ATOM     85  C   UNL     1       8.789   3.191  -4.505  1.00  0.00     0.009 C 
ATOM     86  C   UNL     1      11.489   3.818  -4.984  1.00  0.00    -0.027 C 
ATOM     87  C   UNL     1       9.314   3.235  -5.962  1.00  0.00     0.009 C 
BRANCH  81  88
ATOM     88  C   UNL     1      11.102   6.686  -5.973  1.00  0.00     0.238 C 
ATOM     89  O   UNL     1      12.299   6.403  -5.867  1.00  0.00    -0.273 OA
ATOM     90  N   UNL     1      10.831   7.961  -6.400  1.00  0.00    -0.288 N 
ATOM     91  H   UNL     1      11.612   8.518  -6.620  1.00  0.00     0.185 HD
BRANCH  90  92
ATOM     92  N   UNL     1       9.577   8.566  -6.562  1.00  0.00    -0.217 NA
ATOM     93  C   UNL     1       8.981   8.318  -7.896  1.00  0.00     0.136 C 
ATOM     94  C   UNL     1       9.695  10.041  -6.377  1.00  0.00     0.136 C 
ATOM     95  C   UNL     1       9.657   9.084  -9.040  1.00  0.00     0.177 C 
ATOM     96  C   UNL     1      10.360  10.767  -7.559  1.00  0.00     0.177 C 
ATOM     97  O   UNL     1       9.668  10.492  -8.781  1.00  0.00    -0.379 OA
ENDBRANCH  90  92
ENDBRANCH  81  88
ENDBRANCH  77  80
ENDBRANCH  75  76
ENDBRANCH  74  75
ENDBRANCH  73  74
ENDBRANCH   1  73
TORSDOF 15
