REMARK SMILES Cc1ccc(-c2cc(Cl)cc3c2O[C@H](C(F)(F)F)C(C(=O)NCCCCCCNC(=O)c2ccc(-c4c5nc(c(-c6c(F)c(F)c(F)c(F)c6F)c6ccc([nH]6)c(-c6c(F)c(F)c(F)c(F)c6F)c6nc(c(-c7c(F)c(F)c(F)c(F)c7F)c7ccc4[nH]7)C=C6)C=C5)cc2)=C3)cc1F
REMARK SMILES IDX 26 1 25 2 24 3 23 4 22 5 20 6 21 7 19 9 6 10 7 11 12 12 8 13
REMARK SMILES IDX 11 14 13 15 9 16 10 17 95 18 14 19 5 20 1 21 2 22 3 23 97 24
REMARK SMILES IDX 4 25 96 26 98 27 15 28 16 29 17 30 18 31 27 32 28 33 29 34
REMARK SMILES IDX 30 35 31 37 32 38 33 39 94 40 34 41 93 42 35 43 36 44 37 45
REMARK SMILES IDX 87 46 38 47 92 48 86 49 88 50 39 51 91 52 85 53 84 54 40 56
REMARK SMILES IDX 72 57 52 58 71 59 53 60 56 61 70 62 89 63 54 64 55 65 69 67
REMARK SMILES IDX 90 68 57 69 41 70 42 71 50 72 43 73 44 74 48 75 51 76 45 77
REMARK SMILES IDX 46 78 49 79 47 80 73 81 74 82 82 83 75 84 76 85 80 86 83 87
REMARK SMILES IDX 77 88 78 89 81 90 79 91 58 92 59 93 67 94 60 95 61 96 65 97
REMARK SMILES IDX 68 98 62 99 63 100 66 101 64 102
REMARK H PARENT 22 8 29 36 88 55 56 66
REMARK Flexibility Score: inf
ROOT
ATOM      1  C   UNL     1      -1.011  -4.747   8.791  1.00  0.00     0.002 C 
ENDROOT
BRANCH   1   2
ATOM      2  C   UNL     1      -2.434  -4.367   8.383  1.00  0.00     0.002 C 
BRANCH   2   3
ATOM      3  C   UNL     1      -2.582  -3.821   6.957  1.00  0.00     0.021 C 
BRANCH   3   4
ATOM      4  C   UNL     1      -2.038  -4.755   5.874  1.00  0.00     0.116 C 
BRANCH   4   5
ATOM      5  N   UNL     1      -3.095  -5.515   5.233  1.00  0.00    -0.352 N 
ATOM      6  C   UNL     1      -3.808  -5.439   4.086  1.00  0.00     0.251 C 
ATOM      7  O   UNL     1      -4.691  -6.293   3.953  1.00  0.00    -0.270 OA
ATOM      8  H   UNL     1      -3.364  -6.292   5.776  1.00  0.00     0.163 HD
BRANCH   6   9
ATOM      9  C   UNL     1      -3.589  -4.434   3.005  1.00  0.00     0.067 C 
ATOM     10  C   UNL     1      -3.102  -1.724  -0.193  1.00  0.00     0.026 A 
ATOM     11  C   UNL     1      -4.041  -1.737  -1.235  1.00  0.00     0.033 A 
ATOM     12  C   UNL     1      -3.307  -2.597   0.896  1.00  0.00     0.135 A 
ATOM     13  C   UNL     1      -5.142  -2.595  -1.183  1.00  0.00     0.042 A 
ATOM     14  C   UNL     1      -4.407  -3.458   0.948  1.00  0.00     0.019 A 
ATOM     15  O   UNL     1      -2.420  -2.512   1.935  1.00  0.00    -0.475 OA
ATOM     16  Cl  UNL     1      -6.285  -2.590  -2.470  1.00  0.00    -0.084 Cl
ATOM     17  C   UNL     1      -5.329  -3.454  -0.100  1.00  0.00     0.032 A 
ATOM     18  C   UNL     1      -4.581  -4.335   2.100  1.00  0.00     0.025 C 
ATOM     19  C   UNL     1      -2.327  -3.640   2.839  1.00  0.00     0.314 C 
BRANCH  10  20
ATOM     20  C   UNL     1      -1.936  -0.826  -0.237  1.00  0.00    -0.012 A 
ATOM     21  C   UNL     1       1.517   1.773  -0.033  1.00  0.00     0.047 C 
ATOM     22  C   UNL     1       0.312   0.890  -0.134  1.00  0.00    -0.015 A 
ATOM     23  C   UNL     1      -0.983   1.419  -0.145  1.00  0.00     0.007 A 
ATOM     24  C   UNL     1       0.467  -0.495  -0.195  1.00  0.00     0.126 A 
ATOM     25  C   UNL     1      -2.094   0.568  -0.198  1.00  0.00     0.009 A 
ATOM     26  C   UNL     1      -0.632  -1.346  -0.253  1.00  0.00     0.048 A 
ATOM     27  F   UNL     1       1.698  -1.029  -0.179  1.00  0.00    -0.207 F 
ENDBRANCH  10  20
BRANCH  19  28
ATOM     28  C   UNL     1      -1.115  -4.499   2.440  1.00  0.00     0.429 C 
ATOM     29  F   UNL     1       0.032  -3.781   2.539  1.00  0.00    -0.167 F 
ATOM     30  F   UNL     1      -0.955  -5.579   3.239  1.00  0.00    -0.167 F 
ATOM     31  F   UNL     1      -1.198  -4.950   1.168  1.00  0.00    -0.167 F 
ENDBRANCH  19  28
ENDBRANCH   6   9
ENDBRANCH   4   5
ENDBRANCH   3   4
ENDBRANCH   2   3
ENDBRANCH   1   2
BRANCH   1  32
ATOM     32  C   UNL     1       0.059  -3.690   8.511  1.00  0.00     0.021 C 
BRANCH  32  33
ATOM     33  C   UNL     1       0.102  -2.472   9.417  1.00  0.00     0.116 C 
BRANCH  33  34
ATOM     34  N   UNL     1       0.158  -2.777  10.833  1.00  0.00    -0.352 N 
ATOM     35  C   UNL     1       1.152  -3.109  11.721  1.00  0.00     0.251 C 
ATOM     36  H   UNL     1      -0.728  -2.737  11.261  1.00  0.00     0.163 HD
ATOM     37  O   UNL     1       0.823  -3.283  12.889  1.00  0.00    -0.269 OA
BRANCH  35  38
ATOM     38  C   UNL     1       2.572  -3.359  11.344  1.00  0.00     0.039 A 
ATOM     39  C   UNL     1       3.299  -2.659  10.380  1.00  0.00     0.014 A 
ATOM     40  C   UNL     1       3.223  -4.370  12.067  1.00  0.00     0.014 A 
ATOM     41  C   UNL     1       4.606  -3.063  10.041  1.00  0.00     0.010 A 
ATOM     42  C   UNL     1       4.524  -4.758  11.746  1.00  0.00     0.010 A 
ATOM     43  C   UNL     1       5.207  -4.153  10.685  1.00  0.00    -0.014 A 
BRANCH  43  44
ATOM     44  C   UNL     1       6.518  -4.702  10.295  1.00  0.00     0.031 A 
ATOM     45  C   UNL     1       7.734  -3.853  10.148  1.00  0.00     0.074 A 
ATOM     46  C   UNL     1       6.646  -6.001   9.923  1.00  0.00     0.049 A 
ATOM     47  N   UNL     1       8.643  -4.043   9.241  1.00  0.00    -0.248 NA
ATOM     48  C   UNL     1       8.015  -2.709  11.009  1.00  0.00     0.031 C 
ATOM     49  C   UNL     1       7.892  -6.726   9.684  1.00  0.00     0.029 A 
ATOM     50  N   UNL     1       5.649  -6.893   9.495  1.00  0.00    -0.354 N 
ATOM     51  C   UNL     1       9.727  -3.257   9.560  1.00  0.00     0.074 A 
ATOM     52  C   UNL     1       9.252  -2.376  10.608  1.00  0.00     0.031 C 
ATOM     53  C   UNL     1       7.641  -7.794   8.913  1.00  0.00     0.029 A 
ATOM     54  C   UNL     1       6.246  -7.747   8.528  1.00  0.00     0.049 A 
ATOM     55  H   UNL     1       4.715  -6.921   9.805  1.00  0.00     0.167 HD
ATOM     56  C   UNL     1      10.957  -3.518   9.025  1.00  0.00     0.037 A 
ATOM     57  C   UNL     1       5.762  -7.895   7.256  1.00  0.00     0.037 A 
ATOM     58  C   UNL     1      10.960  -4.692   8.164  1.00  0.00     0.049 A 
ATOM     59  C   UNL     1       6.722  -7.567   6.149  1.00  0.00     0.074 A 
ATOM     60  C   UNL     1      11.283  -6.021   8.393  1.00  0.00     0.029 A 
ATOM     61  N   UNL     1      10.370  -4.645   6.916  1.00  0.00    -0.354 N 
ATOM     62  N   UNL     1       7.918  -7.110   6.352  1.00  0.00    -0.248 NA
ATOM     63  C   UNL     1       6.347  -7.572   4.732  1.00  0.00     0.031 C 
ATOM     64  C   UNL     1      10.911  -6.772   7.254  1.00  0.00     0.029 A 
ATOM     65  C   UNL     1      10.337  -5.904   6.345  1.00  0.00     0.049 A 
ATOM     66  H   UNL     1      10.022  -3.828   6.491  1.00  0.00     0.167 HD
ATOM     67  C   UNL     1       8.442  -6.709   5.158  1.00  0.00     0.074 A 
ATOM     68  C   UNL     1       7.435  -7.023   4.167  1.00  0.00     0.031 C 
ATOM     69  C   UNL     1       9.658  -6.109   5.083  1.00  0.00     0.037 A 
BRANCH  56  70
ATOM     70  C   UNL     1      12.242  -2.878   9.502  1.00  0.00     0.064 A 
ATOM     71  C   UNL     1      13.451  -3.610   9.544  1.00  0.00     0.173 A 
ATOM     72  C   UNL     1      12.337  -1.547   9.940  1.00  0.00     0.173 A 
ATOM     73  F   UNL     1      13.542  -4.854   9.061  1.00  0.00    -0.203 F 
ATOM     74  C   UNL     1      14.624  -3.091  10.094  1.00  0.00     0.198 A 
ATOM     75  C   UNL     1      13.502  -1.040  10.528  1.00  0.00     0.198 A 
ATOM     76  F   UNL     1      11.315  -0.695   9.780  1.00  0.00    -0.203 F 
ATOM     77  F   UNL     1      15.734  -3.844  10.122  1.00  0.00    -0.200 F 
ATOM     78  C   UNL     1      14.641  -1.818  10.621  1.00  0.00     0.200 A 
ATOM     79  F   UNL     1      13.514   0.210  11.013  1.00  0.00    -0.200 F 
ATOM     80  F   UNL     1      15.751  -1.339  11.196  1.00  0.00    -0.200 F 
ENDBRANCH  56  70
BRANCH  57  81
ATOM     81  C   UNL     1       4.322  -7.572   7.153  1.00  0.00     0.064 A 
ATOM     82  C   UNL     1       3.422  -8.437   7.791  1.00  0.00     0.173 A 
ATOM     83  C   UNL     1       4.009  -6.215   7.046  1.00  0.00     0.173 A 
ATOM     84  F   UNL     1       3.674  -9.753   7.848  1.00  0.00    -0.203 F 
ATOM     85  C   UNL     1       2.389  -7.914   8.549  1.00  0.00     0.198 A 
ATOM     86  C   UNL     1       3.011  -5.696   7.842  1.00  0.00     0.198 A 
ATOM     87  F   UNL     1       4.813  -5.372   6.382  1.00  0.00    -0.203 F 
ATOM     88  F   UNL     1       1.621  -8.720   9.295  1.00  0.00    -0.200 F 
ATOM     89  C   UNL     1       2.248  -6.541   8.646  1.00  0.00     0.200 A 
ATOM     90  F   UNL     1       2.896  -4.364   7.902  1.00  0.00    -0.200 F 
ATOM     91  F   UNL     1       1.421  -6.051   9.577  1.00  0.00    -0.200 F 
ENDBRANCH  57  81
BRANCH  69  92
ATOM     92  C   UNL     1      10.313  -5.745   3.800  1.00  0.00     0.064 A 
ATOM     93  C   UNL     1      10.422  -6.665   2.745  1.00  0.00     0.173 A 
ATOM     94  C   UNL     1      10.988  -4.521   3.652  1.00  0.00     0.173 A 
ATOM     95  F   UNL     1       9.841  -7.871   2.826  1.00  0.00    -0.203 F 
ATOM     96  C   UNL     1      11.157  -6.370   1.599  1.00  0.00     0.198 A 
ATOM     97  C   UNL     1      11.753  -4.244   2.522  1.00  0.00     0.198 A 
ATOM     98  F   UNL     1      10.908  -3.571   4.596  1.00  0.00    -0.203 F 
ATOM     99  F   UNL     1      11.220  -7.262   0.601  1.00  0.00    -0.200 F 
ATOM    100  C   UNL     1      11.835  -5.167   1.495  1.00  0.00     0.200 A 
ATOM    101  F   UNL     1      12.418  -3.083   2.438  1.00  0.00    -0.200 F 
ATOM    102  F   UNL     1      12.568  -4.898   0.407  1.00  0.00    -0.200 F 
ENDBRANCH  69  92
ENDBRANCH  43  44
ENDBRANCH  35  38
ENDBRANCH  33  34
ENDBRANCH  32  33
ENDBRANCH   1  32
TORSDOF 15
