REMARK SMILES O=C(NCCCCCCNC(=O)c1ccc(-c2c3nc(c(-c4c(F)c(F)c(F)c(F)c4F)c4ccc([nH]4)c(-c4c(F)c(F)c(F)c(F)c4F)c4nc(c(-c5c(F)c(F)c(F)c(F)c5F)c5ccc2[nH]5)C=C4)C=C3)cc1)C1=Cc2cc(S(F)(F)(F)(F)F)ccc2O[C@@H]1C(F)(F)F
REMARK SMILES IDX 7 1 6 2 5 3 4 4 3 5 1 6 2 7 76 9 77 10 91 11 78 12 90 13
REMARK SMILES IDX 79 14 89 15 80 16 88 17 87 18 92 19 93 20 94 21 95 22 81 23
REMARK SMILES IDX 82 24 83 25 84 26 85 27 86 28 8 29 9 30 10 31 11 32 12 34
REMARK SMILES IDX 13 35 14 36 75 37 15 38 74 39 16 40 17 41 18 42 68 43 19 44
REMARK SMILES IDX 73 45 67 46 69 47 20 48 72 49 66 50 65 51 21 53 53 54 33 55
REMARK SMILES IDX 52 56 34 57 37 58 51 59 70 60 35 61 36 62 50 64 71 65 38 66
REMARK SMILES IDX 22 67 23 68 31 69 24 70 25 71 29 72 32 73 26 74 27 75 30 76
REMARK SMILES IDX 28 77 54 78 55 79 63 80 56 81 57 82 61 83 64 84 58 85 59 86
REMARK SMILES IDX 62 87 60 88 39 89 40 90 48 91 41 92 42 93 46 94 49 95 43 96
REMARK SMILES IDX 44 97 47 98 45 99
REMARK H PARENT 3 8 10 33 69 52 37 63
REMARK Flexibility Score: inf
ROOT
ATOM      1  C   UNL     1       5.058   0.246  -4.067  1.00  0.00     0.002 C 
ENDROOT
BRANCH   1   2
ATOM      2  C   UNL     1       4.551  -1.038  -3.432  1.00  0.00     0.002 C 
BRANCH   2   3
ATOM      3  C   UNL     1       5.058  -1.130  -2.002  1.00  0.00     0.021 C 
BRANCH   3   4
ATOM      4  C   UNL     1       4.551   0.062  -1.207  1.00  0.00     0.116 C 
BRANCH   4   5
ATOM      5  N   UNL     1       3.081   0.062  -1.207  1.00  0.00    -0.352 N 
ATOM      6  O   UNL     1       1.075  -0.019   0.063  1.00  0.00    -0.270 OA
ATOM      7  C   UNL     1       2.346  -0.019   0.063  1.00  0.00     0.251 C 
ATOM      8  H   UNL     1       2.589   0.117  -2.058  1.00  0.00     0.163 HD
BRANCH   7   9
ATOM      9  C   UNL     1       3.106  -0.104   1.377  1.00  0.00     0.067 C 
ATOM     10  C   UNL     1       4.466  -0.104   1.377  1.00  0.00     0.025 C 
ATOM     11  C   UNL     1       2.346  -0.188   2.691  1.00  0.00     0.314 C 
ATOM     12  C   UNL     1       5.226  -0.019   0.063  1.00  0.00     0.019 A 
ATOM     13  O   UNL     1       3.643   1.595  -0.668  1.00  0.00    -0.475 OA
ATOM     14  C   UNL     1       6.303  -0.863  -0.154  1.00  0.00     0.036 A 
ATOM     15  C   UNL     1       4.843   0.860  -0.855  1.00  0.00     0.128 A 
ATOM     16  C   UNL     1       7.098  -0.502  -1.268  1.00  0.00     0.107 A 
ATOM     17  C   UNL     1       5.598   1.065  -1.985  1.00  0.00     0.048 A 
ATOM     18  C   UNL     1       6.708   0.307  -2.236  1.00  0.00     0.028 A 
BRANCH  11  19
ATOM     19  C   UNL     1       2.713   0.999   3.566  1.00  0.00     0.429 C 
ATOM     20  F   UNL     1       2.392   2.128   2.939  1.00  0.00    -0.167 F 
ATOM     21  F   UNL     1       2.048   0.925   4.715  1.00  0.00    -0.167 F 
ATOM     22  F   UNL     1       4.021   0.984   3.808  1.00  0.00    -0.167 F 
ENDBRANCH  11  19
BRANCH  16  23
ATOM     23  S   UNL     1       8.766  -1.197  -1.372  1.00  0.00     0.310 S 
ATOM     24  F   UNL     1       8.930  -1.204   0.206  1.00  0.00    -0.094 F 
ATOM     25  F   UNL     1       9.348   0.267  -1.358  1.00  0.00    -0.094 F 
ATOM     26  F   UNL     1      10.198  -1.795  -1.462  1.00  0.00    -0.094 F 
ATOM     27  F   UNL     1       8.174  -2.656  -1.244  1.00  0.00    -0.094 F 
ATOM     28  F   UNL     1       7.315  -0.606  -1.167  1.00  0.00    -0.094 F 
ENDBRANCH  16  23
ENDBRANCH   7   9
ENDBRANCH   4   5
ENDBRANCH   3   4
ENDBRANCH   2   3
ENDBRANCH   1   2
BRANCH   1  29
ATOM     29  C   UNL     1       6.578   0.246  -4.067  1.00  0.00     0.021 C 
BRANCH  29  30
ATOM     30  C   UNL     1       7.084  -0.946  -4.862  1.00  0.00     0.116 C 
BRANCH  30  31
ATOM     31  N   UNL     1       6.594  -0.857  -6.245  1.00  0.00    -0.352 N 
ATOM     32  C   UNL     1       7.550  -0.785  -7.360  1.00  0.00     0.251 C 
ATOM     33  H   UNL     1       5.626  -0.846  -6.425  1.00  0.00     0.163 HD
ATOM     34  O   UNL     1       7.126  -0.709  -8.556  1.00  0.00    -0.269 OA
BRANCH  32  35
ATOM     35  C   UNL     1       9.044  -0.803  -7.083  1.00  0.00     0.039 A 
ATOM     36  C   UNL     1       9.868   0.094  -7.742  1.00  0.00     0.014 A 
ATOM     37  C   UNL     1       9.535  -1.679  -6.214  1.00  0.00     0.014 A 
ATOM     38  C   UNL     1      11.246  -0.205  -7.630  1.00  0.00     0.010 A 
ATOM     39  C   UNL     1      10.892  -1.824  -6.058  1.00  0.00     0.010 A 
ATOM     40  C   UNL     1      11.767  -1.010  -6.722  1.00  0.00    -0.014 A 
BRANCH  40  41
ATOM     41  C   UNL     1      13.259  -1.031  -6.432  1.00  0.00     0.031 A 
ATOM     42  C   UNL     1      13.948  -2.229  -6.625  1.00  0.00     0.074 A 
ATOM     43  C   UNL     1      13.851   0.140  -5.991  1.00  0.00     0.049 A 
ATOM     44  N   UNL     1      15.253  -2.453  -6.463  1.00  0.00    -0.248 NA
ATOM     45  C   UNL     1      13.315  -3.483  -7.061  1.00  0.00     0.031 C 
ATOM     46  C   UNL     1      13.165   1.356  -5.802  1.00  0.00     0.029 A 
ATOM     47  N   UNL     1      15.173   0.347  -5.662  1.00  0.00    -0.354 N 
ATOM     48  C   UNL     1      15.544  -3.720  -6.763  1.00  0.00     0.074 A 
ATOM     49  C   UNL     1      14.301  -4.403  -7.145  1.00  0.00     0.031 C 
ATOM     50  C   UNL     1      14.057   2.278  -5.354  1.00  0.00     0.029 A 
ATOM     51  C   UNL     1      15.316   1.656  -5.257  1.00  0.00     0.049 A 
ATOM     52  H   UNL     1      15.891  -0.324  -5.709  1.00  0.00     0.167 HD
ATOM     53  C   UNL     1      16.798  -4.333  -6.734  1.00  0.00     0.037 A 
ATOM     54  C   UNL     1      16.469   2.288  -4.822  1.00  0.00     0.037 A 
ATOM     55  C   UNL     1      17.960  -3.688  -6.340  1.00  0.00     0.049 A 
ATOM     56  C   UNL     1      17.714   1.659  -4.737  1.00  0.00     0.074 A 
ATOM     57  C   UNL     1      19.233  -4.289  -6.313  1.00  0.00     0.029 A 
ATOM     58  N   UNL     1      18.098  -2.386  -5.912  1.00  0.00    -0.354 N 
ATOM     59  N   UNL     1      18.012   0.403  -5.074  1.00  0.00    -0.248 NA
ATOM     60  C   UNL     1      18.936   2.310  -4.247  1.00  0.00     0.031 C 
ATOM     61  C   UNL     1      20.125  -3.366  -5.865  1.00  0.00     0.029 A 
ATOM     62  C   UNL     1      19.424  -2.173  -5.604  1.00  0.00     0.049 A 
ATOM     63  H   UNL     1      17.374  -1.723  -5.837  1.00  0.00     0.167 HD
ATOM     64  C   UNL     1      19.310   0.169  -4.872  1.00  0.00     0.074 A 
ATOM     65  C   UNL     1      19.922   1.390  -4.330  1.00  0.00     0.031 C 
ATOM     66  C   UNL     1      20.009  -1.013  -5.122  1.00  0.00     0.037 A 
BRANCH  53  67
ATOM     67  C   UNL     1      16.895  -5.789  -7.159  1.00  0.00     0.064 A 
ATOM     68  C   UNL     1      16.515  -6.104  -8.453  1.00  0.00     0.173 A 
ATOM     69  C   UNL     1      17.339  -6.723  -6.325  1.00  0.00     0.173 A 
ATOM     70  F   UNL     1      16.309  -5.184  -9.392  1.00  0.00    -0.203 F 
ATOM     71  C   UNL     1      16.367  -7.491  -8.686  1.00  0.00     0.198 A 
ATOM     72  C   UNL     1      17.289  -8.051  -6.673  1.00  0.00     0.198 A 
ATOM     73  F   UNL     1      17.835  -6.369  -5.143  1.00  0.00    -0.203 F 
ATOM     74  F   UNL     1      15.673  -7.868  -9.757  1.00  0.00    -0.200 F 
ATOM     75  C   UNL     1      16.869  -8.438  -7.915  1.00  0.00     0.200 A 
ATOM     76  F   UNL     1      17.655  -8.974  -5.788  1.00  0.00    -0.200 F 
ATOM     77  F   UNL     1      16.961  -9.700  -8.324  1.00  0.00    -0.200 F 
ENDBRANCH  53  67
BRANCH  54  78
ATOM     78  C   UNL     1      16.375   3.749  -4.414  1.00  0.00     0.064 A 
ATOM     79  C   UNL     1      17.145   4.713  -5.045  1.00  0.00     0.173 A 
ATOM     80  C   UNL     1      15.557   4.065  -3.417  1.00  0.00     0.173 A 
ATOM     81  F   UNL     1      17.777   4.497  -6.195  1.00  0.00    -0.203 F 
ATOM     82  C   UNL     1      17.196   5.948  -4.356  1.00  0.00     0.198 A 
ATOM     83  C   UNL     1      15.564   5.330  -2.880  1.00  0.00     0.198 A 
ATOM     84  F   UNL     1      14.724   3.149  -2.933  1.00  0.00    -0.203 F 
ATOM     85  F   UNL     1      18.170   6.795  -4.675  1.00  0.00    -0.200 F 
ATOM     86  C   UNL     1      16.344   6.317  -3.417  1.00  0.00     0.200 A 
ATOM     87  F   UNL     1      14.802   5.599  -1.824  1.00  0.00    -0.200 F 
ATOM     88  F   UNL     1      16.250   7.582  -3.014  1.00  0.00    -0.200 F 
ENDBRANCH  54  78
BRANCH  66  89
ATOM     89  C   UNL     1      21.504  -1.029  -4.847  1.00  0.00     0.064 A 
ATOM     90  C   UNL     1      21.962  -0.776  -3.565  1.00  0.00     0.173 A 
ATOM     91  C   UNL     1      22.346  -1.286  -5.841  1.00  0.00     0.173 A 
ATOM     92  F   UNL     1      21.166  -0.766  -2.499  1.00  0.00    -0.203 F 
ATOM     93  C   UNL     1      23.354  -0.530  -3.491  1.00  0.00     0.198 A 
ATOM     94  C   UNL     1      23.702  -1.156  -5.660  1.00  0.00     0.198 A 
ATOM     95  F   UNL     1      21.873  -1.672  -7.023  1.00  0.00    -0.203 F 
ATOM     96  F   UNL     1      23.819   0.066  -2.397  1.00  0.00    -0.200 F 
ATOM     97  C   UNL     1      24.222  -0.850  -4.433  1.00  0.00     0.200 A 
ATOM     98  F   UNL     1      24.521  -1.330  -6.694  1.00  0.00    -0.200 F 
ATOM     99  F   UNL     1      25.531  -0.873  -4.201  1.00  0.00    -0.200 F 
ENDBRANCH  66  89
ENDBRANCH  40  41
ENDBRANCH  32  35
ENDBRANCH  30  31
ENDBRANCH  29  30
ENDBRANCH   1  29
TORSDOF 15
