REMARK SMILES CC(C)(C)OC(=O)N1CC[C@@H]2CO[C@@H](CC(=O)NCCCCCCNC(=O)c3ccc(-c4c5nc(c(-c6c(F)c(F)c(F)c(F)c6F)c6ccc([nH]6)c(-c6c(F)c(F)c(F)c(F)c6F)c6nc(c(-c7c(F)c(F)c(F)c(F)c7F)c7ccc4[nH]7)C=C6)C=C5)cc3)[C@@H]2C1
REMARK SMILES IDX 20 1 19 2 18 3 16 4 17 5 15 7 14 8 8 9 9 10 92 11 10 12
REMARK SMILES IDX 91 13 11 14 12 15 13 16 6 17 7 18 5 19 2 20 1 21 3 22 4 23
REMARK SMILES IDX 21 24 22 25 23 26 24 27 25 28 26 29 27 31 28 32 29 33 90 34
REMARK SMILES IDX 30 35 89 36 31 37 32 38 33 39 83 40 34 41 88 42 82 43 84 44
REMARK SMILES IDX 35 45 87 46 81 47 80 48 36 50 68 51 48 52 67 53 49 54 52 55
REMARK SMILES IDX 66 56 85 57 50 58 51 59 65 61 86 62 53 63 37 64 38 65 46 66
REMARK SMILES IDX 39 67 40 68 44 69 47 70 41 71 42 72 45 73 43 74 69 75 70 76
REMARK SMILES IDX 78 77 71 78 72 79 76 80 79 81 73 82 74 83 77 84 75 85 54 86
REMARK SMILES IDX 55 87 63 88 56 89 57 90 61 91 64 92 58 93 59 94 62 95 60 96
REMARK H PARENT 18 6 25 30 84 49 52 60
REMARK Flexibility Score: inf
ROOT
ATOM      1  C   UNL     1       6.244  -7.020   6.512  1.00  0.00     0.021 C 
ENDROOT
BRANCH   1   2
ATOM      2  C   UNL     1       6.645  -7.122   5.038  1.00  0.00     0.116 C 
BRANCH   2   3
ATOM      3  N   UNL     1       5.785  -8.038   4.308  1.00  0.00    -0.356 N 
ATOM      4  C   UNL     1       4.925  -7.778   3.280  1.00  0.00     0.222 C 
ATOM      5  O   UNL     1       4.193  -8.682   2.874  1.00  0.00    -0.275 OA
ATOM      6  H   UNL     1       5.828  -8.979   4.595  1.00  0.00     0.163 HD
BRANCH   4   7
ATOM      7  C   UNL     1       4.915  -6.412   2.628  1.00  0.00     0.132 C 
BRANCH   7   8
ATOM      8  C   UNL     1       4.135  -5.307   3.347  1.00  0.00     0.132 C 
ATOM      9  N   UNL     1       0.841  -3.467   3.382  1.00  0.00    -0.308 N 
ATOM     10  C   UNL     1       0.179  -4.367   4.310  1.00  0.00     0.123 C 
ATOM     11  C   UNL     1       2.271  -3.659   3.184  1.00  0.00     0.129 C 
ATOM     12  C   UNL     1       0.463  -5.821   3.957  1.00  0.00     0.028 C 
ATOM     13  C   UNL     1       2.682  -5.117   2.908  1.00  0.00     0.044 C 
ATOM     14  C   UNL     1       1.952  -6.109   3.797  1.00  0.00     0.024 C 
ATOM     15  C   UNL     1       2.756  -6.058   5.088  1.00  0.00     0.164 C 
ATOM     16  O   UNL     1       4.057  -5.531   4.763  1.00  0.00    -0.377 OA
BRANCH   9  17
ATOM     17  C   UNL     1       0.214  -2.276   3.049  1.00  0.00     0.410 C 
ATOM     18  O   UNL     1      -0.827  -1.893   3.570  1.00  0.00    -0.224 OA
BRANCH  17  19
ATOM     19  O   UNL     1       0.876  -1.611   2.070  1.00  0.00    -0.444 OA
BRANCH  19  20
ATOM     20  C   UNL     1       0.422  -0.327   1.567  1.00  0.00     0.106 C 
ATOM     21  C   UNL     1       1.157  -0.157   0.229  1.00  0.00     0.056 C 
ATOM     22  C   UNL     1       0.867   0.771   2.535  1.00  0.00     0.056 C 
ATOM     23  C   UNL     1      -1.086  -0.263   1.294  1.00  0.00     0.056 C 
ENDBRANCH  19  20
ENDBRANCH  17  19
ENDBRANCH   9  17
ENDBRANCH   7   8
ENDBRANCH   4   7
ENDBRANCH   2   3
ENDBRANCH   1   2
BRANCH   1  24
ATOM     24  C   UNL     1       6.486  -8.289   7.334  1.00  0.00     0.002 C 
BRANCH  24  25
ATOM     25  C   UNL     1       7.949  -8.720   7.456  1.00  0.00     0.002 C 
BRANCH  25  26
ATOM     26  C   UNL     1       8.905  -7.651   7.992  1.00  0.00     0.021 C 
BRANCH  26  27
ATOM     27  C   UNL     1       8.512  -7.036   9.333  1.00  0.00     0.116 C 
BRANCH  27  28
ATOM     28  N   UNL     1       8.486  -8.011  10.410  1.00  0.00    -0.352 N 
ATOM     29  C   UNL     1       9.065  -7.951  11.654  1.00  0.00     0.251 C 
ATOM     30  H   UNL     1       7.980  -8.834  10.221  1.00  0.00     0.163 HD
ATOM     31  O   UNL     1       9.059  -8.935  12.387  1.00  0.00    -0.269 OA
BRANCH  29  32
ATOM     32  C   UNL     1       9.722  -6.706  12.106  1.00  0.00     0.039 A 
ATOM     33  C   UNL     1      10.985  -6.790  12.698  1.00  0.00     0.014 A 
ATOM     34  C   UNL     1       9.093  -5.465  11.965  1.00  0.00     0.014 A 
ATOM     35  C   UNL     1      11.646  -5.625  13.093  1.00  0.00     0.010 A 
ATOM     36  C   UNL     1       9.776  -4.299  12.308  1.00  0.00     0.010 A 
ATOM     37  C   UNL     1      11.059  -4.369  12.874  1.00  0.00    -0.014 A 
BRANCH  37  38
ATOM     38  C   UNL     1      11.771  -3.116  13.232  1.00  0.00     0.031 A 
ATOM     39  C   UNL     1      11.250  -2.238  14.333  1.00  0.00     0.074 A 
ATOM     40  C   UNL     1      12.851  -2.739  12.520  1.00  0.00     0.049 A 
ATOM     41  N   UNL     1      11.688  -1.073  14.740  1.00  0.00    -0.248 NA
ATOM     42  C   UNL     1      10.065  -2.721  15.057  1.00  0.00     0.031 C 
ATOM     43  C   UNL     1      13.428  -3.484  11.401  1.00  0.00     0.029 A 
ATOM     44  N   UNL     1      13.647  -1.626  12.626  1.00  0.00    -0.354 N 
ATOM     45  C   UNL     1      10.823  -0.677  15.751  1.00  0.00     0.074 A 
ATOM     46  C   UNL     1       9.812  -1.705  15.870  1.00  0.00     0.031 C 
ATOM     47  C   UNL     1      14.495  -2.815  10.933  1.00  0.00     0.029 A 
ATOM     48  C   UNL     1      14.658  -1.582  11.698  1.00  0.00     0.049 A 
ATOM     49  H   UNL     1      13.506  -0.925  13.303  1.00  0.00     0.167 HD
ATOM     50  C   UNL     1      10.878   0.436  16.521  1.00  0.00     0.037 A 
ATOM     51  C   UNL     1      15.605  -0.650  11.485  1.00  0.00     0.037 A 
ATOM     52  C   UNL     1      11.903   1.441  16.426  1.00  0.00     0.049 A 
ATOM     53  C   UNL     1      15.651   0.570  12.363  1.00  0.00     0.074 A 
ATOM     54  C   UNL     1      12.082   2.570  17.208  1.00  0.00     0.029 A 
ATOM     55  N   UNL     1      12.926   1.437  15.490  1.00  0.00    -0.354 N 
ATOM     56  N   UNL     1      14.864   0.903  13.356  1.00  0.00    -0.248 NA
ATOM     57  C   UNL     1      16.722   1.540  12.094  1.00  0.00     0.031 C 
ATOM     58  C   UNL     1      13.194   3.266  16.723  1.00  0.00     0.029 A 
ATOM     59  C   UNL     1      13.730   2.553  15.664  1.00  0.00     0.049 A 
ATOM     60  H   UNL     1      13.061   0.745  14.803  1.00  0.00     0.167 HD
ATOM     61  C   UNL     1      15.356   2.105  13.846  1.00  0.00     0.074 A 
ATOM     62  C   UNL     1      16.518   2.438  13.048  1.00  0.00     0.031 C 
ATOM     63  C   UNL     1      14.888   2.864  14.866  1.00  0.00     0.037 A 
BRANCH  50  64
ATOM     64  C   UNL     1       9.796   0.623  17.544  1.00  0.00     0.064 A 
ATOM     65  C   UNL     1       9.741  -0.161  18.705  1.00  0.00     0.173 A 
ATOM     66  C   UNL     1       8.826   1.623  17.378  1.00  0.00     0.173 A 
ATOM     67  F   UNL     1      10.639  -1.138  18.903  1.00  0.00    -0.203 F 
ATOM     68  C   UNL     1       8.739   0.031  19.652  1.00  0.00     0.198 A 
ATOM     69  C   UNL     1       7.840   1.830  18.339  1.00  0.00     0.198 A 
ATOM     70  F   UNL     1       8.838   2.404  16.287  1.00  0.00    -0.203 F 
ATOM     71  F   UNL     1       8.680  -0.758  20.733  1.00  0.00    -0.200 F 
ATOM     72  C   UNL     1       7.793   1.030  19.472  1.00  0.00     0.200 A 
ATOM     73  F   UNL     1       6.934   2.802  18.169  1.00  0.00    -0.200 F 
ATOM     74  F   UNL     1       6.832   1.218  20.387  1.00  0.00    -0.200 F 
ENDBRANCH  50  64
BRANCH  51  75
ATOM     75  C   UNL     1      16.609  -0.848  10.409  1.00  0.00     0.064 A 
ATOM     76  C   UNL     1      17.941  -1.150  10.719  1.00  0.00     0.173 A 
ATOM     77  C   UNL     1      16.260  -0.739   9.055  1.00  0.00     0.173 A 
ATOM     78  F   UNL     1      18.325  -1.243  12.001  1.00  0.00    -0.203 F 
ATOM     79  C   UNL     1      18.892  -1.321   9.716  1.00  0.00     0.198 A 
ATOM     80  C   UNL     1      17.207  -0.933   8.052  1.00  0.00     0.198 A 
ATOM     81  F   UNL     1      14.996  -0.454   8.708  1.00  0.00    -0.203 F 
ATOM     82  F   UNL     1      20.168  -1.572  10.041  1.00  0.00    -0.200 F 
ATOM     83  C   UNL     1      18.523  -1.218   8.383  1.00  0.00     0.200 A 
ATOM     84  F   UNL     1      16.845  -0.843   6.765  1.00  0.00    -0.200 F 
ATOM     85  F   UNL     1      19.438  -1.385   7.418  1.00  0.00    -0.200 F 
ENDBRANCH  51  75
BRANCH  63  86
ATOM     86  C   UNL     1      15.649   4.112  15.198  1.00  0.00     0.064 A 
ATOM     87  C   UNL     1      15.577   5.252  14.385  1.00  0.00     0.173 A 
ATOM     88  C   UNL     1      16.427   4.180  16.363  1.00  0.00     0.173 A 
ATOM     89  F   UNL     1      14.859   5.229  13.252  1.00  0.00    -0.203 F 
ATOM     90  C   UNL     1      16.274   6.411  14.717  1.00  0.00     0.198 A 
ATOM     91  C   UNL     1      17.104   5.348  16.704  1.00  0.00     0.198 A 
ATOM     92  F   UNL     1      16.524   3.117  17.175  1.00  0.00    -0.203 F 
ATOM     93  F   UNL     1      16.224   7.476  13.905  1.00  0.00    -0.200 F 
ATOM     94  C   UNL     1      17.031   6.460  15.878  1.00  0.00     0.200 A 
ATOM     95  F   UNL     1      17.827   5.397  17.831  1.00  0.00    -0.200 F 
ATOM     96  F   UNL     1      17.698   7.577  16.198  1.00  0.00    -0.200 F 
ENDBRANCH  63  86
ENDBRANCH  37  38
ENDBRANCH  29  32
ENDBRANCH  27  28
ENDBRANCH  26  27
ENDBRANCH  25  26
ENDBRANCH  24  25
ENDBRANCH   1  24
TORSDOF 17
