REMARK SMILES Cc1cc(N2CC[NH+]([C@@H](C(=O)NCCCCCCNC(=O)c3ccc(-c4c5nc(c(-c6c(F)c(F)c(F)c(F)c6F)c6ccc([nH]6)c(-c6c(F)c(F)c(F)c(F)c6F)c6nc(c(-c7c(F)c(F)c(F)c(F)c7F)c7ccc4[nH]7)C=C6)C=C5)cc3)c3c[nH]c4ccccc34)CC2)nc2ccccc12
REMARK SMILES IDX 15 1 14 2 13 3 12 4 10 5 11 6 9 8 8 9 5 10 6 11 95 12 7 13
REMARK SMILES IDX 94 14 4 16 1 17 2 18 3 19 102 20 97 21 101 22 96 23 98 24
REMARK SMILES IDX 100 25 99 26 85 27 86 28 93 29 87 30 88 31 92 32 89 34 91 35
REMARK SMILES IDX 90 36 16 37 17 38 18 39 19 40 20 41 21 43 22 44 23 45 84 46
REMARK SMILES IDX 24 47 83 48 25 49 26 50 27 51 77 52 28 53 82 54 76 55 78 56
REMARK SMILES IDX 29 57 81 58 75 59 74 60 30 62 62 63 42 64 61 65 43 66 46 67
REMARK SMILES IDX 60 68 79 69 44 70 45 71 59 73 80 74 47 75 31 76 32 77 40 78
REMARK SMILES IDX 33 79 34 80 38 81 41 82 35 83 36 84 39 85 37 86 63 87 64 88
REMARK SMILES IDX 72 89 65 90 66 91 70 92 73 93 67 94 68 95 71 96 69 97 48 98
REMARK SMILES IDX 49 99 57 100 50 101 51 102 55 103 58 104 52 105 53 106
REMARK SMILES IDX 56 107 54 108
REMARK H PARENT 12 7 8 15 87 33 19 42 78 61 46 72
REMARK Flexibility Score: inf
ROOT
ATOM      1  C   UNL     1      -2.775  -2.104  -3.457  1.00  0.00     0.002 C 
ENDROOT
BRANCH   1   2
ATOM      2  C   UNL     1      -4.224  -2.597  -3.278  1.00  0.00     0.021 C 
BRANCH   2   3
ATOM      3  C   UNL     1      -4.424  -4.096  -2.892  1.00  0.00     0.116 C 
BRANCH   3   4
ATOM      4  N   UNL     1      -3.402  -4.694  -2.021  1.00  0.00    -0.351 N 
ATOM      5  C   UNL     1      -3.282  -5.183  -0.737  1.00  0.00     0.283 C 
ATOM      6  O   UNL     1      -2.183  -5.713  -0.524  1.00  0.00    -0.268 OA
ATOM      7  H   UNL     1      -2.544  -4.766  -2.498  1.00  0.00     0.163 HD
BRANCH   5   8
ATOM      8  C   UNL     1      -4.415  -5.181   0.341  1.00  0.00     0.307 C 
BRANCH   8   9
ATOM      9  N   UNL     1      -4.865  -3.865   0.943  1.00  0.00    -0.318 N 
ATOM     10  N   UNL     1      -2.867  -1.732   1.085  1.00  0.00    -0.345 N 
ATOM     11  C   UNL     1      -2.786  -2.842   2.024  1.00  0.00     0.179 C 
ATOM     12  C   UNL     1      -3.509  -2.056  -0.187  1.00  0.00     0.179 C 
ATOM     13  C   UNL     1      -4.233  -3.343   2.177  1.00  0.00     0.284 C 
ATOM     14  C   UNL     1      -4.886  -2.726   0.028  1.00  0.00     0.284 C 
ATOM     15  H   UNL     1      -5.793  -4.210   1.192  1.00  0.00     0.349 HD
BRANCH  10  16
ATOM     16  C   UNL     1      -1.779  -0.894   0.914  1.00  0.00     0.129 A 
ATOM     17  C   UNL     1      -1.472   2.740   0.004  1.00  0.00     0.045 C 
ATOM     18  C   UNL     1      -1.074   1.327   0.305  1.00  0.00    -0.038 A 
ATOM     19  C   UNL     1      -2.073   0.443   0.684  1.00  0.00     0.051 A 
ATOM     20  C   UNL     1       0.243   0.840   0.220  1.00  0.00     0.003 A 
ATOM     21  C   UNL     1       0.456  -0.539   0.473  1.00  0.00     0.073 A 
ATOM     22  C   UNL     1       1.341   1.660  -0.109  1.00  0.00     0.010 A 
ATOM     23  N   UNL     1      -0.533  -1.382   0.817  1.00  0.00    -0.231 NA
ATOM     24  C   UNL     1       1.742  -1.044   0.335  1.00  0.00     0.029 A 
ATOM     25  C   UNL     1       2.624   1.129  -0.215  1.00  0.00     0.001 A 
ATOM     26  C   UNL     1       2.824  -0.228  -0.007  1.00  0.00     0.002 A 
ENDBRANCH  10  16
ENDBRANCH   8   9
BRANCH   8  27
ATOM     27  C   UNL     1      -4.255  -6.249   1.476  1.00  0.00     0.044 A 
ATOM     28  C   UNL     1      -5.348  -6.831   2.123  1.00  0.00     0.094 A 
ATOM     29  C   UNL     1      -3.232  -6.359   2.499  1.00  0.00     0.009 A 
ATOM     30  N   UNL     1      -5.267  -6.255   3.381  1.00  0.00    -0.361 N 
ATOM     31  C   UNL     1      -3.930  -6.120   3.694  1.00  0.00     0.046 A 
ATOM     32  C   UNL     1      -1.825  -6.410   2.574  1.00  0.00     0.011 A 
ATOM     33  H   UNL     1      -6.026  -5.991   3.949  1.00  0.00     0.166 HD
ATOM     34  C   UNL     1      -3.310  -5.673   4.867  1.00  0.00     0.026 A 
ATOM     35  C   UNL     1      -1.186  -6.124   3.794  1.00  0.00     0.001 A 
ATOM     36  C   UNL     1      -1.916  -5.679   4.894  1.00  0.00     0.002 A 
ENDBRANCH   8  27
ENDBRANCH   5   8
ENDBRANCH   3   4
ENDBRANCH   2   3
ENDBRANCH   1   2
BRANCH   1  37
ATOM     37  C   UNL     1      -2.427  -1.621  -4.868  1.00  0.00     0.002 C 
BRANCH  37  38
ATOM     38  C   UNL     1      -3.171  -0.368  -5.340  1.00  0.00     0.021 C 
BRANCH  38  39
ATOM     39  C   UNL     1      -2.886   0.899  -4.535  1.00  0.00     0.116 C 
BRANCH  39  40
ATOM     40  N   UNL     1      -1.559   1.432  -4.806  1.00  0.00    -0.352 N 
ATOM     41  C   UNL     1      -1.212   2.577  -5.489  1.00  0.00     0.251 C 
ATOM     42  H   UNL     1      -0.807   0.902  -4.454  1.00  0.00     0.163 HD
ATOM     43  O   UNL     1      -0.065   2.767  -5.861  1.00  0.00    -0.269 OA
BRANCH  41  44
ATOM     44  C   UNL     1      -2.255   3.586  -5.775  1.00  0.00     0.039 A 
ATOM     45  C   UNL     1      -2.385   4.093  -7.070  1.00  0.00     0.014 A 
ATOM     46  C   UNL     1      -3.105   4.024  -4.756  1.00  0.00     0.014 A 
ATOM     47  C   UNL     1      -3.409   4.998  -7.355  1.00  0.00     0.010 A 
ATOM     48  C   UNL     1      -4.171   4.865  -5.059  1.00  0.00     0.010 A 
ATOM     49  C   UNL     1      -4.330   5.367  -6.360  1.00  0.00    -0.014 A 
BRANCH  49  50
ATOM     50  C   UNL     1      -5.465   6.278  -6.662  1.00  0.00     0.031 A 
ATOM     51  C   UNL     1      -5.565   7.615  -5.982  1.00  0.00     0.074 A 
ATOM     52  C   UNL     1      -6.443   5.872  -7.494  1.00  0.00     0.049 A 
ATOM     53  N   UNL     1      -6.501   8.526  -6.078  1.00  0.00    -0.248 NA
ATOM     54  C   UNL     1      -4.487   7.960  -5.044  1.00  0.00     0.031 C 
ATOM     55  C   UNL     1      -6.494   4.572  -8.162  1.00  0.00     0.029 A 
ATOM     56  N   UNL     1      -7.589   6.505  -7.905  1.00  0.00    -0.354 N 
ATOM     57  C   UNL     1      -6.133   9.539  -5.202  1.00  0.00     0.074 A 
ATOM     58  C   UNL     1      -4.923   9.104  -4.540  1.00  0.00     0.031 C 
ATOM     59  C   UNL     1      -7.604   4.509  -8.914  1.00  0.00     0.029 A 
ATOM     60  C   UNL     1      -8.362   5.746  -8.750  1.00  0.00     0.049 A 
ATOM     61  H   UNL     1      -7.835   7.415  -7.622  1.00  0.00     0.167 HD
ATOM     62  C   UNL     1      -6.737  10.733  -4.987  1.00  0.00     0.037 A 
ATOM     63  C   UNL     1      -9.553   6.011  -9.320  1.00  0.00     0.037 A 
ATOM     64  C   UNL     1      -7.933  11.165  -5.662  1.00  0.00     0.049 A 
ATOM     65  C   UNL     1     -10.204   7.345  -9.076  1.00  0.00     0.074 A 
ATOM     66  C   UNL     1      -8.577  12.386  -5.582  1.00  0.00     0.029 A 
ATOM     67  N   UNL     1      -8.677  10.379  -6.532  1.00  0.00    -0.354 N 
ATOM     68  N   UNL     1      -9.797   8.337  -8.321  1.00  0.00    -0.248 NA
ATOM     69  C   UNL     1     -11.472   7.600  -9.771  1.00  0.00     0.031 C 
ATOM     70  C   UNL     1      -9.747  12.315  -6.346  1.00  0.00     0.029 A 
ATOM     71  C   UNL     1      -9.796  11.075  -6.962  1.00  0.00     0.049 A 
ATOM     72  H   UNL     1      -8.444   9.461  -6.804  1.00  0.00     0.167 HD
ATOM     73  C   UNL     1     -10.747   9.340  -8.462  1.00  0.00     0.074 A 
ATOM     74  C   UNL     1     -11.741   8.842  -9.391  1.00  0.00     0.031 C 
ATOM     75  C   UNL     1     -10.788  10.563  -7.876  1.00  0.00     0.037 A 
BRANCH  62  76
ATOM     76  C   UNL     1      -6.120  11.644  -3.961  1.00  0.00     0.064 A 
ATOM     77  C   UNL     1      -4.856  12.226  -4.145  1.00  0.00     0.173 A 
ATOM     78  C   UNL     1      -6.806  11.941  -2.773  1.00  0.00     0.173 A 
ATOM     79  F   UNL     1      -4.150  11.972  -5.258  1.00  0.00    -0.203 F 
ATOM     80  C   UNL     1      -4.280  13.024  -3.159  1.00  0.00     0.198 A 
ATOM     81  C   UNL     1      -6.245  12.772  -1.806  1.00  0.00     0.198 A 
ATOM     82  F   UNL     1      -8.022  11.422  -2.545  1.00  0.00    -0.203 F 
ATOM     83  F   UNL     1      -3.041  13.505  -3.327  1.00  0.00    -0.200 F 
ATOM     84  C   UNL     1      -4.977  13.301  -1.993  1.00  0.00     0.200 A 
ATOM     85  F   UNL     1      -6.928  13.052  -0.687  1.00  0.00    -0.200 F 
ATOM     86  F   UNL     1      -4.422  14.066  -1.044  1.00  0.00    -0.200 F 
ENDBRANCH  62  76
BRANCH  63  87
ATOM     87  C   UNL     1     -10.188   4.986 -10.189  1.00  0.00     0.064 A 
ATOM     88  C   UNL     1     -10.270   5.161 -11.577  1.00  0.00     0.173 A 
ATOM     89  C   UNL     1     -10.687   3.790  -9.652  1.00  0.00     0.173 A 
ATOM     90  F   UNL     1      -9.824   6.296 -12.136  1.00  0.00    -0.203 F 
ATOM     91  C   UNL     1     -10.831   4.182 -12.394  1.00  0.00     0.198 A 
ATOM     92  C   UNL     1     -11.221   2.799 -10.472  1.00  0.00     0.198 A 
ATOM     93  F   UNL     1     -10.625   3.570  -8.330  1.00  0.00    -0.203 F 
ATOM     94  F   UNL     1     -10.924   4.386 -13.715  1.00  0.00    -0.200 F 
ATOM     95  C   UNL     1     -11.297   2.997 -11.842  1.00  0.00     0.200 A 
ATOM     96  F   UNL     1     -11.650   1.648  -9.936  1.00  0.00    -0.200 F 
ATOM     97  F   UNL     1     -11.818   2.047 -12.630  1.00  0.00    -0.200 F 
ENDBRANCH  63  87
BRANCH  75  98
ATOM     98  C   UNL     1     -11.940  11.460  -8.234  1.00  0.00     0.064 A 
ATOM     99  C   UNL     1     -13.248  11.189  -7.805  1.00  0.00     0.173 A 
ATOM    100  C   UNL     1     -11.725  12.630  -8.980  1.00  0.00     0.173 A 
ATOM    101  F   UNL     1     -13.512  10.078  -7.101  1.00  0.00    -0.203 F 
ATOM    102  C   UNL     1     -14.301  12.041  -8.134  1.00  0.00     0.198 A 
ATOM    103  C   UNL     1     -12.773  13.496  -9.276  1.00  0.00     0.198 A 
ATOM    104  F   UNL     1     -10.492  12.941  -9.409  1.00  0.00    -0.203 F 
ATOM    105  F   UNL     1     -15.550  11.734  -7.758  1.00  0.00    -0.200 F 
ATOM    106  C   UNL     1     -14.061  13.197  -8.861  1.00  0.00     0.200 A 
ATOM    107  F   UNL     1     -12.535  14.622  -9.963  1.00  0.00    -0.200 F 
ATOM    108  F   UNL     1     -15.073  14.020  -9.167  1.00  0.00    -0.200 F 
ENDBRANCH  75  98
ENDBRANCH  49  50
ENDBRANCH  41  44
ENDBRANCH  39  40
ENDBRANCH  38  39
ENDBRANCH  37  38
ENDBRANCH   1  37
TORSDOF 16
