REMARK SMILES Nc1ccc(C(=O)N[C@H]2CCCCC[C@@H]2C(=O)NCCCCCCNC(=O)c2ccc(-c3c4nc(c(-c5c(F)c(F)c(F)c(F)c5F)c5ccc([nH]5)c(-c5c(F)c(F)c(F)c(F)c5F)c5nc(c(-c6c(F)c(F)c(F)c(F)c6F)c6ccc3[nH]6)C=C5)C=C4)cc2)cc1Cl
REMARK SMILES IDX 20 1 19 2 18 3 16 4 17 5 15 7 9 8 8 9 6 10 7 11 5 13 2 14
REMARK SMILES IDX 3 15 92 16 4 17 91 18 93 19 1 20 10 23 11 24 14 26 13 27
REMARK SMILES IDX 12 28 21 30 22 31 23 32 24 33 25 34 26 35 27 37 28 38 29 39
REMARK SMILES IDX 90 40 30 41 89 42 31 43 32 44 33 45 83 46 34 47 88 48 82 49
REMARK SMILES IDX 84 50 35 51 87 52 81 53 80 54 36 56 68 57 48 58 67 59 49 60
REMARK SMILES IDX 52 61 66 62 85 63 50 64 51 65 65 67 86 68 53 69 37 70 38 71
REMARK SMILES IDX 46 72 39 73 40 74 44 75 47 76 41 77 42 78 45 79 43 80 69 81
REMARK SMILES IDX 70 82 78 83 71 84 72 85 76 86 79 87 73 88 74 89 77 90 75 91
REMARK SMILES IDX 54 92 55 93 63 94 56 95 57 96 61 97 64 98 58 99 59 100
REMARK SMILES IDX 62 101 60 102
REMARK H PARENT 18 6 8 12 1 21 1 22 25 36 84 55 52 66
REMARK Flexibility Score: 90.00
ROOT
ATOM      1  C   UNL     1       1.574   3.488   1.713  1.00  0.00     0.021 C 
ENDROOT
BRANCH   1   2
ATOM      2  C   UNL     1       2.834   2.814   1.183  1.00  0.00     0.116 C 
BRANCH   2   3
ATOM      3  N   UNL     1       4.034   3.278   1.844  1.00  0.00    -0.356 N 
ATOM      4  C   UNL     1       5.282   2.755   1.908  1.00  0.00     0.225 C 
ATOM      5  O   UNL     1       6.122   3.418   2.529  1.00  0.00    -0.275 OA
ATOM      6  H   UNL     1       3.924   4.125   2.334  1.00  0.00     0.163 HD
BRANCH   4   7
ATOM      7  C   UNL     1       5.664   1.373   1.362  1.00  0.00     0.101 C 
BRANCH   7   8
ATOM      8  C   UNL     1       5.193   1.061  -0.085  1.00  0.00     0.094 C 
BRANCH   8   9
ATOM      9  N   UNL     1       6.258   1.153  -1.118  1.00  0.00    -0.349 N 
ATOM     10  C   UNL     1       6.481   2.125  -2.073  1.00  0.00     0.251 C 
ATOM     11  O   UNL     1       6.908   1.790  -3.175  1.00  0.00    -0.269 OA
ATOM     12  H   UNL     1       6.901   0.408  -1.123  1.00  0.00     0.164 HD
BRANCH  10  13
ATOM     13  C   UNL     1       6.272   3.565  -1.793  1.00  0.00     0.041 A 
ATOM     14  C   UNL     1       6.020   6.334  -1.273  1.00  0.00     0.050 A 
ATOM     15  C   UNL     1       6.406   5.448  -0.268  1.00  0.00     0.028 A 
ATOM     16  C   UNL     1       5.785   5.811  -2.558  1.00  0.00     0.064 A 
ATOM     17  C   UNL     1       6.593   4.093  -0.548  1.00  0.00     0.016 A 
ATOM     18  C   UNL     1       5.905   4.439  -2.821  1.00  0.00     0.036 A 
ATOM     19  Cl  UNL     1       5.378   6.868  -3.868  1.00  0.00    -0.082 Cl
BRANCH  14  20
ATOM     20  N   UNL     1       5.793   7.667  -0.950  1.00  0.00    -0.398 N 
ATOM     21  H   UNL     1       5.972   7.990  -0.037  1.00  0.00     0.156 HD
ATOM     22  H   UNL     1       5.454   8.289  -1.634  1.00  0.00     0.156 HD
ENDBRANCH  14  20
ENDBRANCH  10  13
ENDBRANCH   8   9
BRANCH   8  23
ATOM     23  C   UNL     1       4.493  -0.313  -0.244  1.00  0.00     0.026 C 
BRANCH  23  24
ATOM     24  C   UNL     1       5.356  -1.546   0.063  1.00  0.00     0.002 CG0
ATOM     25  G   UNL     1       5.381  -1.954   1.530  1.00  0.00     0.000 G0
ENDBRANCH  23  24
ENDBRANCH   8  23
ENDBRANCH   7   8
BRANCH   7  26
ATOM     26  C   UNL     1       5.268   0.394   2.486  1.00  0.00     0.015 C 
BRANCH  26  27
ATOM     27  C   UNL     1       6.021  -0.929   2.449  1.00  0.00     0.001 C 
BRANCH  27  28
ATOM     28  C   UNL     1       5.381  -1.954   1.530  1.00  0.00     0.000 CG0
ATOM     29  G   UNL     1       5.356  -1.546   0.063  1.00  0.00     0.000 G0
ENDBRANCH  27  28
ENDBRANCH  26  27
ENDBRANCH   7  26
ENDBRANCH   4   7
ENDBRANCH   2   3
ENDBRANCH   1   2
BRANCH   1  30
ATOM     30  C   UNL     1       1.494   5.002   1.471  1.00  0.00     0.002 C 
BRANCH  30  31
ATOM     31  C   UNL     1       1.637   5.471   0.020  1.00  0.00     0.002 C 
BRANCH  31  32
ATOM     32  C   UNL     1       0.692   4.828  -0.996  1.00  0.00     0.021 C 
BRANCH  32  33
ATOM     33  C   UNL     1      -0.784   4.804  -0.616  1.00  0.00     0.116 C 
BRANCH  33  34
ATOM     34  N   UNL     1      -1.342   6.118  -0.356  1.00  0.00    -0.352 N 
ATOM     35  C   UNL     1      -2.589   6.606  -0.672  1.00  0.00     0.251 C 
ATOM     36  H   UNL     1      -0.746   6.748   0.110  1.00  0.00     0.163 HD
ATOM     37  O   UNL     1      -2.877   7.770  -0.436  1.00  0.00    -0.269 OA
BRANCH  35  38
ATOM     38  C   UNL     1      -3.572   5.724  -1.341  1.00  0.00     0.039 A 
ATOM     39  C   UNL     1      -4.247   6.213  -2.463  1.00  0.00     0.014 A 
ATOM     40  C   UNL     1      -3.822   4.428  -0.882  1.00  0.00     0.014 A 
ATOM     41  C   UNL     1      -5.123   5.381  -3.163  1.00  0.00     0.010 A 
ATOM     42  C   UNL     1      -4.641   3.577  -1.621  1.00  0.00     0.010 A 
ATOM     43  C   UNL     1      -5.300   4.045  -2.769  1.00  0.00    -0.014 A 
BRANCH  43  44
ATOM     44  C   UNL     1      -6.168   3.125  -3.547  1.00  0.00     0.031 A 
ATOM     45  C   UNL     1      -7.416   2.559  -2.931  1.00  0.00     0.074 A 
ATOM     46  C   UNL     1      -5.801   2.753  -4.789  1.00  0.00     0.049 A 
ATOM     47  N   UNL     1      -8.267   1.696  -3.425  1.00  0.00    -0.248 NA
ATOM     48  C   UNL     1      -7.737   3.003  -1.565  1.00  0.00     0.031 C 
ATOM     49  C   UNL     1      -4.589   3.197  -5.481  1.00  0.00     0.029 A 
ATOM     50  N   UNL     1      -6.405   1.909  -5.688  1.00  0.00    -0.354 N 
ATOM     51  C   UNL     1      -9.213   1.485  -2.431  1.00  0.00     0.074 A 
ATOM     52  C   UNL     1      -8.804   2.269  -1.286  1.00  0.00     0.031 C 
ATOM     53  C   UNL     1      -4.550   2.639  -6.701  1.00  0.00     0.029 A 
ATOM     54  C   UNL     1      -5.713   1.771  -6.865  1.00  0.00     0.049 A 
ATOM     55  H   UNL     1      -7.255   1.447  -5.505  1.00  0.00     0.167 HD
ATOM     56  C   UNL     1     -10.333   0.725  -2.478  1.00  0.00     0.037 A 
ATOM     57  C   UNL     1      -5.981   1.022  -7.952  1.00  0.00     0.037 A 
ATOM     58  C   UNL     1     -10.751  -0.033  -3.628  1.00  0.00     0.049 A 
ATOM     59  C   UNL     1      -7.231   0.183  -7.977  1.00  0.00     0.074 A 
ATOM     60  C   UNL     1     -11.900  -0.785  -3.795  1.00  0.00     0.029 A 
ATOM     61  N   UNL     1     -10.032  -0.135  -4.810  1.00  0.00    -0.354 N 
ATOM     62  N   UNL     1      -8.153   0.045  -7.055  1.00  0.00    -0.248 NA
ATOM     63  C   UNL     1      -7.480  -0.598  -9.196  1.00  0.00     0.031 C 
ATOM     64  C   UNL     1     -11.855  -1.380  -5.060  1.00  0.00     0.029 A 
ATOM     65  C   UNL     1     -10.702  -0.957  -5.702  1.00  0.00     0.049 A 
ATOM     66  H   UNL     1      -9.172   0.311  -4.989  1.00  0.00     0.167 HD
ATOM     67  C   UNL     1      -9.103  -0.813  -7.592  1.00  0.00     0.074 A 
ATOM     68  C   UNL     1      -8.653  -1.153  -8.926  1.00  0.00     0.031 C 
ATOM     69  C   UNL     1     -10.245  -1.278  -7.030  1.00  0.00     0.037 A 
BRANCH  56  70
ATOM     70  C   UNL     1     -11.192   0.678  -1.247  1.00  0.00     0.064 A 
ATOM     71  C   UNL     1     -11.937   1.791  -0.826  1.00  0.00     0.173 A 
ATOM     72  C   UNL     1     -11.301  -0.504  -0.499  1.00  0.00     0.173 A 
ATOM     73  F   UNL     1     -11.859   2.949  -1.499  1.00  0.00    -0.203 F 
ATOM     74  C   UNL     1     -12.735   1.730   0.313  1.00  0.00     0.198 A 
ATOM     75  C   UNL     1     -12.125  -0.570   0.622  1.00  0.00     0.198 A 
ATOM     76  F   UNL     1     -10.615  -1.599  -0.860  1.00  0.00    -0.203 F 
ATOM     77  F   UNL     1     -13.398   2.820   0.723  1.00  0.00    -0.200 F 
ATOM     78  C   UNL     1     -12.834   0.548   1.031  1.00  0.00     0.200 A 
ATOM     79  F   UNL     1     -12.229  -1.717   1.308  1.00  0.00    -0.200 F 
ATOM     80  F   UNL     1     -13.609   0.489   2.124  1.00  0.00    -0.200 F 
ENDBRANCH  56  70
BRANCH  57  81
ATOM     81  C   UNL     1      -5.061   1.050  -9.119  1.00  0.00     0.064 A 
ATOM     82  C   UNL     1      -5.450   1.643 -10.329  1.00  0.00     0.173 A 
ATOM     83  C   UNL     1      -3.782   0.479  -9.055  1.00  0.00     0.173 A 
ATOM     84  F   UNL     1      -6.673   2.183 -10.446  1.00  0.00    -0.203 F 
ATOM     85  C   UNL     1      -4.603   1.647 -11.435  1.00  0.00     0.198 A 
ATOM     86  C   UNL     1      -2.925   0.508 -10.152  1.00  0.00     0.198 A 
ATOM     87  F   UNL     1      -3.360  -0.097  -7.920  1.00  0.00    -0.203 F 
ATOM     88  F   UNL     1      -5.019   2.178 -12.592  1.00  0.00    -0.200 F 
ATOM     89  C   UNL     1      -3.339   1.084 -11.344  1.00  0.00     0.200 A 
ATOM     90  F   UNL     1      -1.699  -0.024 -10.057  1.00  0.00    -0.200 F 
ATOM     91  F   UNL     1      -2.523   1.089 -12.407  1.00  0.00    -0.200 F 
ENDBRANCH  57  81
BRANCH  69  92
ATOM     92  C   UNL     1     -11.108  -2.177  -7.867  1.00  0.00     0.064 A 
ATOM     93  C   UNL     1     -10.732  -3.496  -8.161  1.00  0.00     0.173 A 
ATOM     94  C   UNL     1     -12.347  -1.724  -8.347  1.00  0.00     0.173 A 
ATOM     95  F   UNL     1      -9.550  -3.970  -7.738  1.00  0.00    -0.203 F 
ATOM     96  C   UNL     1     -11.553  -4.320  -8.926  1.00  0.00     0.198 A 
ATOM     97  C   UNL     1     -13.179  -2.561  -9.086  1.00  0.00     0.198 A 
ATOM     98  F   UNL     1     -12.757  -0.473  -8.088  1.00  0.00    -0.203 F 
ATOM     99  F   UNL     1     -11.152  -5.561  -9.234  1.00  0.00    -0.200 F 
ATOM    100  C   UNL     1     -12.778  -3.855  -9.381  1.00  0.00     0.200 A 
ATOM    101  F   UNL     1     -14.368  -2.115  -9.512  1.00  0.00    -0.200 F 
ATOM    102  F   UNL     1     -13.570  -4.653 -10.110  1.00  0.00    -0.200 F 
ENDBRANCH  69  92
ENDBRANCH  43  44
ENDBRANCH  35  38
ENDBRANCH  33  34
ENDBRANCH  32  33
ENDBRANCH  31  32
ENDBRANCH  30  31
ENDBRANCH   1  30
TORSDOF 16
