REMARK SMILES CN(Cc1ncc(C(=O)NCCCCCCNC(=O)c2ccc(-c3c4nc(c(-c5c(F)c(F)c(F)c(F)c5F)c5ccc([nH]5)c(-c5c(F)c(F)c(F)c(F)c5F)c5nc(c(-c6c(F)c(F)c(F)c(F)c6F)c6ccc3[nH]6)C=C5)C=C4)cc2)cn1)S(=O)(=O)c1ccc(Cl)cc1
REMARK SMILES IDX 12 1 11 2 10 3 8 4 9 5 7 7 4 8 5 9 84 10 6 11 83 12 3 13
REMARK SMILES IDX 2 14 1 15 85 16 86 17 87 18 88 19 89 20 94 21 90 22 93 23
REMARK SMILES IDX 91 24 92 25 13 26 14 27 15 28 16 29 17 30 18 31 19 33 20 34
REMARK SMILES IDX 21 35 82 36 22 37 81 38 23 39 24 40 25 41 75 42 26 43 80 44
REMARK SMILES IDX 74 45 76 46 27 47 79 48 73 49 72 50 28 52 60 53 40 54 59 55
REMARK SMILES IDX 41 56 44 57 58 58 77 59 42 60 43 61 57 63 78 64 45 65 29 66
REMARK SMILES IDX 30 67 38 68 31 69 32 70 36 71 39 72 33 73 34 74 37 75 35 76
REMARK SMILES IDX 61 77 62 78 70 79 63 80 64 81 68 82 71 83 65 84 66 85 69 86
REMARK SMILES IDX 67 87 46 88 47 89 55 90 48 91 49 92 53 93 56 94 50 95 51 96
REMARK SMILES IDX 54 97 52 98
REMARK H PARENT 10 6 17 32 76 51 44 62
REMARK Flexibility Score: inf
ROOT
ATOM      1  C   UNL     1      -4.030  -4.544  -4.841  1.00  0.00     0.021 C 
ENDROOT
BRANCH   1   2
ATOM      2  C   UNL     1      -2.769  -3.686  -4.968  1.00  0.00     0.116 C 
BRANCH   2   3
ATOM      3  N   UNL     1      -3.123  -2.308  -5.264  1.00  0.00    -0.352 N 
ATOM      4  C   UNL     1      -3.098  -1.176  -4.493  1.00  0.00     0.254 C 
ATOM      5  O   UNL     1      -3.401  -0.102  -5.010  1.00  0.00    -0.269 OA
ATOM      6  H   UNL     1      -3.438  -2.162  -6.185  1.00  0.00     0.163 HD
BRANCH   4   7
ATOM      7  C   UNL     1      -2.667  -1.184  -3.090  1.00  0.00     0.076 A 
ATOM      8  C   UNL     1      -1.678  -1.110  -0.562  1.00  0.00     0.143 A 
ATOM      9  N   UNL     1      -2.432  -2.175  -0.908  1.00  0.00    -0.239 NA
ATOM     10  N   UNL     1      -1.475  -0.030  -1.345  1.00  0.00    -0.239 NA
ATOM     11  C   UNL     1      -2.920  -2.174  -2.170  1.00  0.00     0.128 A 
ATOM     12  C   UNL     1      -1.974  -0.099  -2.599  1.00  0.00     0.128 A 
BRANCH   8  13
ATOM     13  C   UNL     1      -0.953  -1.163   0.768  1.00  0.00     0.179 C 
BRANCH  13  14
ATOM     14  N   UNL     1       0.547  -1.253   0.737  1.00  0.00    -0.193 NA
ATOM     15  C   UNL     1       1.166   0.029   0.309  1.00  0.00     0.125 C 
BRANCH  14  16
ATOM     16  S   UNL     1       1.233  -2.591  -0.076  1.00  0.00     0.243 S 
ATOM     17  O   UNL     1       0.667  -2.662  -1.407  1.00  0.00    -0.207 OA
ATOM     18  O   UNL     1       2.666  -2.524   0.111  1.00  0.00    -0.207 OA
BRANCH  16  19
ATOM     19  C   UNL     1       0.700  -4.035   0.812  1.00  0.00     0.082 A 
ATOM     20  C   UNL     1       0.401  -3.977   2.176  1.00  0.00     0.023 A 
ATOM     21  C   UNL     1       0.628  -5.248   0.117  1.00  0.00     0.023 A 
ATOM     22  C   UNL     1       0.001  -5.139   2.841  1.00  0.00     0.022 A 
ATOM     23  C   UNL     1       0.251  -6.411   0.791  1.00  0.00     0.022 A 
ATOM     24  C   UNL     1      -0.067  -6.350   2.148  1.00  0.00     0.041 A 
ATOM     25  Cl  UNL     1      -0.537  -7.782   2.977  1.00  0.00    -0.084 Cl
ENDBRANCH  16  19
ENDBRANCH  14  16
ENDBRANCH  13  14
ENDBRANCH   8  13
ENDBRANCH   4   7
ENDBRANCH   2   3
ENDBRANCH   1   2
BRANCH   1  26
ATOM     26  C   UNL     1      -4.720  -4.829  -6.182  1.00  0.00     0.002 C 
BRANCH  26  27
ATOM     27  C   UNL     1      -3.892  -5.652  -7.176  1.00  0.00     0.002 C 
BRANCH  27  28
ATOM     28  C   UNL     1      -3.376  -6.994  -6.647  1.00  0.00     0.021 C 
BRANCH  28  29
ATOM     29  C   UNL     1      -4.458  -7.957  -6.167  1.00  0.00     0.116 C 
BRANCH  29  30
ATOM     30  N   UNL     1      -5.341  -8.368  -7.245  1.00  0.00    -0.352 N 
ATOM     31  C   UNL     1      -5.754  -9.622  -7.612  1.00  0.00     0.251 C 
ATOM     32  H   UNL     1      -5.696  -7.633  -7.796  1.00  0.00     0.163 HD
ATOM     33  O   UNL     1      -6.356  -9.779  -8.671  1.00  0.00    -0.269 OA
BRANCH  31  34
ATOM     34  C   UNL     1      -5.476 -10.795  -6.752  1.00  0.00     0.039 A 
ATOM     35  C   UNL     1      -5.104 -11.995  -7.366  1.00  0.00     0.014 A 
ATOM     36  C   UNL     1      -5.642 -10.744  -5.365  1.00  0.00     0.014 A 
ATOM     37  C   UNL     1      -4.871 -13.132  -6.590  1.00  0.00     0.010 A 
ATOM     38  C   UNL     1      -5.354 -11.864  -4.585  1.00  0.00     0.010 A 
ATOM     39  C   UNL     1      -4.982 -13.073  -5.192  1.00  0.00    -0.014 A 
BRANCH  39  40
ATOM     40  C   UNL     1      -4.736 -14.280  -4.364  1.00  0.00     0.031 A 
ATOM     41  C   UNL     1      -5.870 -14.941  -3.630  1.00  0.00     0.074 A 
ATOM     42  C   UNL     1      -3.486 -14.766  -4.251  1.00  0.00     0.049 A 
ATOM     43  N   UNL     1      -5.852 -16.002  -2.862  1.00  0.00    -0.248 NA
ATOM     44  C   UNL     1      -7.194 -14.314  -3.757  1.00  0.00     0.031 C 
ATOM     45  C   UNL     1      -2.296 -14.185  -4.873  1.00  0.00     0.029 A 
ATOM     46  N   UNL     1      -3.009 -15.859  -3.573  1.00  0.00    -0.354 N 
ATOM     47  C   UNL     1      -7.154 -16.161  -2.406  1.00  0.00     0.074 A 
ATOM     48  C   UNL     1      -7.928 -15.063  -2.945  1.00  0.00     0.031 C 
ATOM     49  C   UNL     1      -1.228 -14.941  -4.568  1.00  0.00     0.029 A 
ATOM     50  C   UNL     1      -1.656 -16.047  -3.716  1.00  0.00     0.049 A 
ATOM     51  H   UNL     1      -3.581 -16.453  -3.036  1.00  0.00     0.167 HD
ATOM     52  C   UNL     1      -7.663 -17.145  -1.627  1.00  0.00     0.037 A 
ATOM     53  C   UNL     1      -0.854 -17.009  -3.222  1.00  0.00     0.037 A 
ATOM     54  C   UNL     1      -6.901 -18.254  -1.117  1.00  0.00     0.049 A 
ATOM     55  C   UNL     1      -1.451 -18.113  -2.394  1.00  0.00     0.074 A 
ATOM     56  C   UNL     1      -7.335 -19.328  -0.361  1.00  0.00     0.029 A 
ATOM     57  N   UNL     1      -5.540 -18.431  -1.317  1.00  0.00    -0.354 N 
ATOM     58  N   UNL     1      -2.697 -18.289  -2.025  1.00  0.00    -0.248 NA
ATOM     59  C   UNL     1      -0.533 -19.161  -1.928  1.00  0.00     0.031 C 
ATOM     60  C   UNL     1      -6.232 -20.142  -0.079  1.00  0.00     0.029 A 
ATOM     61  C   UNL     1      -5.117 -19.593  -0.693  1.00  0.00     0.049 A 
ATOM     62  H   UNL     1      -4.959 -17.821  -1.828  1.00  0.00     0.167 HD
ATOM     63  C   UNL     1      -2.718 -19.479  -1.311  1.00  0.00     0.074 A 
ATOM     64  C   UNL     1      -1.363 -19.989  -1.308  1.00  0.00     0.031 C 
ATOM     65  C   UNL     1      -3.767 -20.093  -0.713  1.00  0.00     0.037 A 
BRANCH  52  66
ATOM     66  C   UNL     1      -9.123 -17.071  -1.285  1.00  0.00     0.064 A 
ATOM     67  C   UNL     1     -10.114 -17.324  -2.244  1.00  0.00     0.173 A 
ATOM     68  C   UNL     1      -9.534 -16.776   0.024  1.00  0.00     0.173 A 
ATOM     69  F   UNL     1      -9.773 -17.598  -3.512  1.00  0.00    -0.203 F 
ATOM     70  C   UNL     1     -11.465 -17.259  -1.913  1.00  0.00     0.198 A 
ATOM     71  C   UNL     1     -10.885 -16.738   0.358  1.00  0.00     0.198 A 
ATOM     72  F   UNL     1      -8.626 -16.531   0.980  1.00  0.00    -0.203 F 
ATOM     73  F   UNL     1     -12.396 -17.459  -2.856  1.00  0.00    -0.200 F 
ATOM     74  C   UNL     1     -11.849 -16.972  -0.611  1.00  0.00     0.200 A 
ATOM     75  F   UNL     1     -11.255 -16.471   1.618  1.00  0.00    -0.200 F 
ATOM     76  F   UNL     1     -13.150 -16.914  -0.293  1.00  0.00    -0.200 F 
ENDBRANCH  52  66
BRANCH  53  77
ATOM     77  C   UNL     1       0.595 -16.999  -3.546  1.00  0.00     0.064 A 
ATOM     78  C   UNL     1       1.137 -17.936  -4.436  1.00  0.00     0.173 A 
ATOM     79  C   UNL     1       1.462 -16.053  -2.983  1.00  0.00     0.173 A 
ATOM     80  F   UNL     1       0.348 -18.872  -4.985  1.00  0.00    -0.203 F 
ATOM     81  C   UNL     1       2.497 -17.939  -4.736  1.00  0.00     0.198 A 
ATOM     82  C   UNL     1       2.818 -16.042  -3.302  1.00  0.00     0.198 A 
ATOM     83  F   UNL     1       0.989 -15.131  -2.131  1.00  0.00    -0.203 F 
ATOM     84  F   UNL     1       2.997 -18.870  -5.560  1.00  0.00    -0.200 F 
ATOM     85  C   UNL     1       3.336 -16.989  -4.173  1.00  0.00     0.200 A 
ATOM     86  F   UNL     1       3.623 -15.114  -2.766  1.00  0.00    -0.200 F 
ATOM     87  F   UNL     1       4.643 -16.989  -4.466  1.00  0.00    -0.200 F 
ENDBRANCH  53  77
BRANCH  65  88
ATOM     88  C   UNL     1      -3.498 -21.406  -0.039  1.00  0.00     0.064 A 
ATOM     89  C   UNL     1      -2.809 -21.479   1.180  1.00  0.00     0.173 A 
ATOM     90  C   UNL     1      -3.961 -22.602  -0.608  1.00  0.00     0.173 A 
ATOM     91  F   UNL     1      -2.334 -20.363   1.755  1.00  0.00    -0.203 F 
ATOM     92  C   UNL     1      -2.571 -22.706   1.793  1.00  0.00     0.198 A 
ATOM     93  C   UNL     1      -3.743 -23.824   0.021  1.00  0.00     0.198 A 
ATOM     94  F   UNL     1      -4.629 -22.583  -1.771  1.00  0.00    -0.203 F 
ATOM     95  F   UNL     1      -1.872 -22.757   2.936  1.00  0.00    -0.200 F 
ATOM     96  C   UNL     1      -3.042 -23.876   1.216  1.00  0.00     0.200 A 
ATOM     97  F   UNL     1      -4.206 -24.953  -0.533  1.00  0.00    -0.200 F 
ATOM     98  F   UNL     1      -2.813 -25.056   1.809  1.00  0.00    -0.200 F 
ENDBRANCH  65  88
ENDBRANCH  39  40
ENDBRANCH  31  34
ENDBRANCH  29  30
ENDBRANCH  28  29
ENDBRANCH  27  28
ENDBRANCH  26  27
ENDBRANCH   1  26
TORSDOF 17
