REMARK SMILES O=C(C[C@H](NS(=O)(=O)c1cccs1)c1ccccc1Cl)NCCCCCCNC(=O)c1ccc(-c2c3nc(c(-c4c(F)c(F)c(F)c(F)c4F)c4ccc([nH]4)c(-c4c(F)c(F)c(F)c(F)c4F)c4nc(c(-c5c(F)c(F)c(F)c(F)c5F)c5ccc2[nH]5)C=C4)C=C3)cc1
REMARK SMILES IDX 23 1 22 2 21 3 1 4 2 5 3 7 4 8 14 9 15 10 19 11 16 12 18 13
REMARK SMILES IDX 20 14 17 15 5 16 6 18 7 19 8 20 9 21 10 22 13 23 11 24 12 25
REMARK SMILES IDX 24 26 25 27 26 28 27 29 28 30 29 31 30 33 31 34 32 35 93 36
REMARK SMILES IDX 33 37 92 38 34 39 35 40 36 41 86 42 37 43 91 44 85 45 87 46
REMARK SMILES IDX 38 47 90 48 84 49 83 50 39 52 71 53 51 54 70 55 52 56 55 57
REMARK SMILES IDX 69 58 88 59 53 60 54 61 68 63 89 64 56 65 40 66 41 67 49 68
REMARK SMILES IDX 42 69 43 70 47 71 50 72 44 73 45 74 48 75 46 76 72 77 73 78
REMARK SMILES IDX 81 79 74 80 75 81 79 82 82 83 76 84 77 85 80 86 78 87 57 88
REMARK SMILES IDX 58 89 66 90 59 91 60 92 64 93 67 94 61 95 62 96 65 97 63 98
REMARK H PARENT 21 6 5 17 28 32 87 51 55 62
REMARK Flexibility Score: inf
ROOT
ATOM      1  C   UNL     1       4.795   1.123  -3.396  1.00  0.00     0.021 C 
ENDROOT
BRANCH   1   2
ATOM      2  C   UNL     1       5.371   1.482  -2.029  1.00  0.00     0.116 C 
BRANCH   2   3
ATOM      3  N   UNL     1       4.997   0.508  -1.030  1.00  0.00    -0.356 N 
ATOM      4  O   UNL     1       6.763   0.894   0.388  1.00  0.00    -0.275 OA
ATOM      5  C   UNL     1       5.721   0.309   0.119  1.00  0.00     0.221 C 
ATOM      6  H   UNL     1       4.189  -0.034  -1.178  1.00  0.00     0.163 HD
BRANCH   5   7
ATOM      7  C   UNL     1       5.090  -0.699   1.043  1.00  0.00     0.125 C 
BRANCH   7   8
ATOM      8  C   UNL     1       4.003  -0.084   1.936  1.00  0.00     0.111 C 
BRANCH   8   9
ATOM      9  C   UNL     1       4.615   0.843   2.990  1.00  0.00    -0.011 A 
ATOM     10  C   UNL     1       5.318   0.219   4.047  1.00  0.00     0.007 A 
ATOM     11  C   UNL     1       4.583   2.252   2.979  1.00  0.00     0.045 A 
ATOM     12  C   UNL     1       5.944   0.959   5.051  1.00  0.00     0.000 A 
ATOM     13  C   UNL     1       5.188   2.988   4.008  1.00  0.00     0.021 A 
ATOM     14  Cl  UNL     1       3.855   3.194   1.722  1.00  0.00    -0.084 Cl
ATOM     15  C   UNL     1       5.868   2.345   5.039  1.00  0.00     0.002 A 
ENDBRANCH   8   9
BRANCH   8  16
ATOM     16  N   UNL     1       2.886   0.528   1.197  1.00  0.00    -0.202 NA
ATOM     17  H   UNL     1       3.312   1.135   0.497  1.00  0.00     0.142 HD
BRANCH  16  18
ATOM     18  S   UNL     1       1.734  -0.363   0.390  1.00  0.00     0.250 S 
ATOM     19  O   UNL     1       0.903   0.601  -0.301  1.00  0.00    -0.206 OA
ATOM     20  O   UNL     1       2.420  -1.414  -0.320  1.00  0.00    -0.206 OA
BRANCH  18  21
ATOM     21  C   UNL     1       0.689  -1.127   1.595  1.00  0.00     0.134 A 
ATOM     22  C   UNL     1       0.584  -0.979   2.966  1.00  0.00     0.033 A 
ATOM     23  S   UNL     1      -0.451  -2.251   0.994  1.00  0.00    -0.131 S 
ATOM     24  C   UNL     1      -0.428  -1.812   3.524  1.00  0.00     0.013 A 
ATOM     25  C   UNL     1      -1.072  -2.554   2.559  1.00  0.00     0.066 A 
ENDBRANCH  18  21
ENDBRANCH  16  18
ENDBRANCH   8  16
ENDBRANCH   7   8
ENDBRANCH   5   7
ENDBRANCH   2   3
ENDBRANCH   1   2
BRANCH   1  26
ATOM     26  C   UNL     1       3.261   1.082  -3.457  1.00  0.00     0.002 C 
BRANCH  26  27
ATOM     27  C   UNL     1       2.553   2.394  -3.109  1.00  0.00     0.002 C 
BRANCH  27  28
ATOM     28  C   UNL     1       2.959   3.596  -3.962  1.00  0.00     0.021 C 
BRANCH  28  29
ATOM     29  C   UNL     1       2.818   3.396  -5.468  1.00  0.00     0.116 C 
BRANCH  29  30
ATOM     30  N   UNL     1       1.439   3.213  -5.890  1.00  0.00    -0.352 N 
ATOM     31  C   UNL     1       0.793   3.766  -6.970  1.00  0.00     0.251 C 
ATOM     32  H   UNL     1       0.896   2.613  -5.329  1.00  0.00     0.163 HD
ATOM     33  O   UNL     1      -0.414   3.613  -7.126  1.00  0.00    -0.269 OA
BRANCH  31  34
ATOM     34  C   UNL     1       1.560   4.584  -7.933  1.00  0.00     0.039 A 
ATOM     35  C   UNL     1       1.073   5.845  -8.289  1.00  0.00     0.014 A 
ATOM     36  C   UNL     1       2.766   4.119  -8.464  1.00  0.00     0.014 A 
ATOM     37  C   UNL     1       1.830   6.669  -9.125  1.00  0.00     0.010 A 
ATOM     38  C   UNL     1       3.547   4.965  -9.246  1.00  0.00     0.010 A 
ATOM     39  C   UNL     1       3.089   6.250  -9.582  1.00  0.00    -0.014 A 
BRANCH  39  40
ATOM     40  C   UNL     1       3.951   7.132 -10.410  1.00  0.00     0.031 A 
ATOM     41  C   UNL     1       4.290   6.736 -11.820  1.00  0.00     0.074 A 
ATOM     42  C   UNL     1       4.501   8.236  -9.867  1.00  0.00     0.049 A 
ATOM     43  N   UNL     1       5.128   7.292 -12.658  1.00  0.00    -0.248 NA
ATOM     44  C   UNL     1       3.615   5.540 -12.351  1.00  0.00     0.031 C 
ATOM     45  C   UNL     1       4.281   8.707  -8.499  1.00  0.00     0.029 A 
ATOM     46  N   UNL     1       5.378   9.151 -10.395  1.00  0.00    -0.354 N 
ATOM     47  C   UNL     1       5.106   6.497 -13.797  1.00  0.00     0.074 A 
ATOM     48  C   UNL     1       4.195   5.404 -13.535  1.00  0.00     0.031 C 
ATOM     49  C   UNL     1       4.998   9.825  -8.298  1.00  0.00     0.029 A 
ATOM     50  C   UNL     1       5.759  10.128  -9.506  1.00  0.00     0.049 A 
ATOM     51  H   UNL     1       5.704   9.111 -11.323  1.00  0.00     0.167 HD
ATOM     52  C   UNL     1       5.776   6.673 -14.960  1.00  0.00     0.037 A 
ATOM     53  C   UNL     1       6.636  11.140  -9.646  1.00  0.00     0.037 A 
ATOM     54  C   UNL     1       6.641   7.789 -15.237  1.00  0.00     0.049 A 
ATOM     55  C   UNL     1       7.359  11.314 -10.956  1.00  0.00     0.074 A 
ATOM     56  C   UNL     1       7.295   8.098 -16.417  1.00  0.00     0.029 A 
ATOM     57  N   UNL     1       6.969   8.779 -14.324  1.00  0.00    -0.354 N 
ATOM     58  N   UNL     1       7.274  10.597 -12.050  1.00  0.00    -0.248 NA
ATOM     59  C   UNL     1       8.299  12.441 -11.051  1.00  0.00     0.031 C 
ATOM     60  C   UNL     1       8.053   9.254 -16.206  1.00  0.00     0.029 A 
ATOM     61  C   UNL     1       7.834   9.689 -14.909  1.00  0.00     0.049 A 
ATOM     62  H   UNL     1       6.638   8.828 -13.399  1.00  0.00     0.167 HD
ATOM     63  C   UNL     1       8.114  11.207 -12.971  1.00  0.00     0.074 A 
ATOM     64  C   UNL     1       8.697  12.355 -12.312  1.00  0.00     0.031 C 
ATOM     65  C   UNL     1       8.380  10.846 -14.250  1.00  0.00     0.037 A 
BRANCH  52  66
ATOM     66  C   UNL     1       5.603   5.641 -16.034  1.00  0.00     0.064 A 
ATOM     67  C   UNL     1       4.417   5.543 -16.775  1.00  0.00     0.173 A 
ATOM     68  C   UNL     1       6.667   4.793 -16.378  1.00  0.00     0.173 A 
ATOM     69  F   UNL     1       3.369   6.326 -16.478  1.00  0.00    -0.203 F 
ATOM     70  C   UNL     1       4.296   4.622 -17.812  1.00  0.00     0.198 A 
ATOM     71  C   UNL     1       6.552   3.892 -17.432  1.00  0.00     0.198 A 
ATOM     72  F   UNL     1       7.825   4.853 -15.704  1.00  0.00    -0.203 F 
ATOM     73  F   UNL     1       3.143   4.524 -18.488  1.00  0.00    -0.200 F 
ATOM     74  C   UNL     1       5.366   3.804 -18.146  1.00  0.00     0.200 A 
ATOM     75  F   UNL     1       7.591   3.112 -17.763  1.00  0.00    -0.200 F 
ATOM     76  F   UNL     1       5.254   2.932 -19.157  1.00  0.00    -0.200 F 
ENDBRANCH  52  66
BRANCH  53  77
ATOM     77  C   UNL     1       6.885  12.081  -8.521  1.00  0.00     0.064 A 
ATOM     78  C   UNL     1       6.477  13.420  -8.602  1.00  0.00     0.173 A 
ATOM     79  C   UNL     1       7.568  11.676  -7.366  1.00  0.00     0.173 A 
ATOM     80  F   UNL     1       5.842  13.861  -9.698  1.00  0.00    -0.203 F 
ATOM     81  C   UNL     1       6.771  14.325  -7.585  1.00  0.00     0.198 A 
ATOM     82  C   UNL     1       7.835  12.575  -6.335  1.00  0.00     0.198 A 
ATOM     83  F   UNL     1       7.978  10.405  -7.237  1.00  0.00    -0.203 F 
ATOM     84  F   UNL     1       6.423  15.613  -7.716  1.00  0.00    -0.200 F 
ATOM     85  C   UNL     1       7.447  13.902  -6.451  1.00  0.00     0.200 A 
ATOM     86  F   UNL     1       8.480  12.160  -5.237  1.00  0.00    -0.200 F 
ATOM     87  F   UNL     1       7.737  14.774  -5.476  1.00  0.00    -0.200 F 
ENDBRANCH  53  77
BRANCH  65  88
ATOM     88  C   UNL     1       9.294  11.730 -15.044  1.00  0.00     0.064 A 
ATOM     89  C   UNL     1      10.677  11.757 -14.815  1.00  0.00     0.173 A 
ATOM     90  C   UNL     1       8.783  12.519 -16.086  1.00  0.00     0.173 A 
ATOM     91  F   UNL     1      11.210  11.032 -13.820  1.00  0.00    -0.203 F 
ATOM     92  C   UNL     1      11.514  12.555 -15.589  1.00  0.00     0.198 A 
ATOM     93  C   UNL     1       9.626  13.295 -16.876  1.00  0.00     0.198 A 
ATOM     94  F   UNL     1       7.468  12.523 -16.349  1.00  0.00    -0.203 F 
ATOM     95  F   UNL     1      12.828  12.595 -15.329  1.00  0.00    -0.200 F 
ATOM     96  C   UNL     1      10.989  13.316 -16.624  1.00  0.00     0.200 A 
ATOM     97  F   UNL     1       9.120  14.018 -17.884  1.00  0.00    -0.200 F 
ATOM     98  F   UNL     1      11.799  14.074 -17.377  1.00  0.00    -0.200 F 
ENDBRANCH  65  88
ENDBRANCH  39  40
ENDBRANCH  31  34
ENDBRANCH  29  30
ENDBRANCH  28  29
ENDBRANCH  27  28
ENDBRANCH  26  27
ENDBRANCH   1  26
TORSDOF 18
