REMARK SMILES CCn1c(N2CCC(C(=O)NCCCCCCNC(=O)c3ccc(-c4c5nc(c(-c6c(F)c(F)c(F)c(F)c6F)c6ccc([nH]6)c(-c6c(F)c(F)c(F)c(F)c6F)c6nc(c(-c7c(F)c(F)c(F)c(F)c7F)c7ccc4[nH]7)C=C6)C=C5)cc3)CC2)nc2cc(C)ccc21
REMARK SMILES IDX 14 1 13 2 12 3 11 4 9 5 10 6 8 8 5 9 6 10 85 11 7 12 84 13
REMARK SMILES IDX 4 14 3 15 93 16 86 17 87 18 92 19 88 20 91 21 89 22 90 23
REMARK SMILES IDX 2 24 1 25 15 26 16 27 17 28 18 29 19 30 20 32 21 33 22 34
REMARK SMILES IDX 83 35 23 36 82 37 24 38 25 39 26 40 76 41 27 42 81 43 75 44
REMARK SMILES IDX 77 45 28 46 80 47 74 48 73 49 29 51 61 52 41 53 60 54 42 55
REMARK SMILES IDX 45 56 59 57 78 58 43 59 44 60 58 62 79 63 46 64 30 65 31 66
REMARK SMILES IDX 39 67 32 68 33 69 37 70 40 71 34 72 35 73 38 74 36 75 62 76
REMARK SMILES IDX 63 77 71 78 64 79 65 80 69 81 72 82 66 83 67 84 70 85 68 86
REMARK SMILES IDX 47 87 48 88 56 89 49 90 50 91 54 92 57 93 51 94 52 95 55 96
REMARK SMILES IDX 53 97
REMARK H PARENT 11 7 18 31 77 50 45 61
REMARK Flexibility Score: inf
ROOT
ATOM      1  C   UNL     1      -1.742   7.784   4.195  1.00  0.00     0.002 C 
ENDROOT
BRANCH   1   2
ATOM      2  C   UNL     1      -0.979   6.615   3.568  1.00  0.00     0.021 C 
BRANCH   2   3
ATOM      3  C   UNL     1      -1.880   5.595   2.880  1.00  0.00     0.116 C 
BRANCH   3   4
ATOM      4  N   UNL     1      -2.437   6.134   1.649  1.00  0.00    -0.356 N 
ATOM      5  C   UNL     1      -2.274   5.734   0.357  1.00  0.00     0.223 C 
ATOM      6  O   UNL     1      -2.822   6.391  -0.531  1.00  0.00    -0.275 OA
ATOM      7  H   UNL     1      -3.026   6.913   1.768  1.00  0.00     0.163 HD
BRANCH   5   8
ATOM      8  C   UNL     1      -1.466   4.493   0.013  1.00  0.00     0.082 C 
ATOM      9  N   UNL     1       0.039   2.346   1.117  1.00  0.00    -0.342 N 
ATOM     10  C   UNL     1       0.791   3.370   0.412  1.00  0.00     0.120 C 
ATOM     11  C   UNL     1      -1.277   2.014   0.608  1.00  0.00     0.120 C 
ATOM     12  C   UNL     1       0.017   4.675   0.365  1.00  0.00     0.035 C 
ATOM     13  C   UNL     1      -2.160   3.248   0.588  1.00  0.00     0.035 C 
BRANCH   9  14
ATOM     14  C   UNL     1       0.581   1.749   2.205  1.00  0.00     0.206 A 
ATOM     15  N   UNL     1       0.804   0.386   2.275  1.00  0.00    -0.310 N 
ATOM     16  C   UNL     1       1.424   0.116   3.479  1.00  0.00     0.070 A 
ATOM     17  N   UNL     1       1.060   2.355   3.270  1.00  0.00    -0.213 NA
ATOM     18  C   UNL     1       1.550   1.362   4.083  1.00  0.00     0.091 A 
ATOM     19  C   UNL     1       1.881  -1.062   4.084  1.00  0.00     0.029 A 
ATOM     20  C   UNL     1       2.131   1.451   5.361  1.00  0.00     0.034 A 
ATOM     21  C   UNL     1       2.460  -0.954   5.354  1.00  0.00     0.006 A 
ATOM     22  C   UNL     1       2.584   0.281   6.001  1.00  0.00    -0.049 A 
ATOM     23  C   UNL     1       3.186   0.364   7.374  1.00  0.00     0.044 C 
BRANCH  15  24
ATOM     24  C   UNL     1       0.488  -0.606   1.265  1.00  0.00     0.122 C 
ATOM     25  C   UNL     1       1.227  -0.424  -0.052  1.00  0.00     0.028 C 
ENDBRANCH  15  24
ENDBRANCH   9  14
ENDBRANCH   5   8
ENDBRANCH   3   4
ENDBRANCH   2   3
ENDBRANCH   1   2
BRANCH   1  26
ATOM     26  C   UNL     1      -2.746   7.388   5.283  1.00  0.00     0.002 C 
BRANCH  26  27
ATOM     27  C   UNL     1      -2.169   6.552   6.435  1.00  0.00     0.021 C 
BRANCH  27  28
ATOM     28  C   UNL     1      -0.931   7.159   7.096  1.00  0.00     0.116 C 
BRANCH  28  29
ATOM     29  N   UNL     1      -1.129   8.525   7.535  1.00  0.00    -0.352 N 
ATOM     30  C   UNL     1      -1.621   9.124   8.654  1.00  0.00     0.251 C 
ATOM     31  H   UNL     1      -0.837   9.179   6.859  1.00  0.00     0.163 HD
ATOM     32  O   UNL     1      -1.572  10.360   8.672  1.00  0.00    -0.269 OA
BRANCH  30  33
ATOM     33  C   UNL     1      -2.251   8.424   9.804  1.00  0.00     0.039 A 
ATOM     34  C   UNL     1      -2.362   7.043   9.961  1.00  0.00     0.014 A 
ATOM     35  C   UNL     1      -2.823   9.261  10.783  1.00  0.00     0.014 A 
ATOM     36  C   UNL     1      -3.110   6.516  11.009  1.00  0.00     0.010 A 
ATOM     37  C   UNL     1      -3.555   8.741  11.841  1.00  0.00     0.010 A 
ATOM     38  C   UNL     1      -3.742   7.368  11.921  1.00  0.00    -0.014 A 
BRANCH  38  39
ATOM     39  C   UNL     1      -4.512   6.761  13.001  1.00  0.00     0.031 A 
ATOM     40  C   UNL     1      -3.709   5.911  13.917  1.00  0.00     0.074 A 
ATOM     41  C   UNL     1      -5.822   7.008  13.217  1.00  0.00     0.049 A 
ATOM     42  N   UNL     1      -3.824   4.639  14.116  1.00  0.00    -0.248 NA
ATOM     43  C   UNL     1      -2.570   6.524  14.619  1.00  0.00     0.031 C 
ATOM     44  C   UNL     1      -6.641   8.045  12.584  1.00  0.00     0.029 A 
ATOM     45  N   UNL     1      -6.682   6.447  14.121  1.00  0.00    -0.354 N 
ATOM     46  C   UNL     1      -2.908   4.326  15.117  1.00  0.00     0.074 A 
ATOM     47  C   UNL     1      -2.066   5.481  15.282  1.00  0.00     0.031 C 
ATOM     48  C   UNL     1      -7.789   8.198  13.282  1.00  0.00     0.029 A 
ATOM     49  C   UNL     1      -7.858   7.166  14.302  1.00  0.00     0.049 A 
ATOM     50  H   UNL     1      -6.487   5.609  14.600  1.00  0.00     0.167 HD
ATOM     51  C   UNL     1      -3.103   3.239  15.913  1.00  0.00     0.037 A 
ATOM     52  C   UNL     1      -8.804   6.953  15.247  1.00  0.00     0.037 A 
ATOM     53  C   UNL     1      -4.077   2.344  15.350  1.00  0.00     0.049 A 
ATOM     54  C   UNL     1      -8.702   5.546  15.693  1.00  0.00     0.074 A 
ATOM     55  C   UNL     1      -4.099   1.319  14.431  1.00  0.00     0.029 A 
ATOM     56  N   UNL     1      -5.367   2.752  15.535  1.00  0.00    -0.354 N 
ATOM     57  N   UNL     1      -8.977   4.525  14.930  1.00  0.00    -0.248 NA
ATOM     58  C   UNL     1      -7.995   5.232  16.931  1.00  0.00     0.031 C 
ATOM     59  C   UNL     1      -5.454   1.195  13.995  1.00  0.00     0.029 A 
ATOM     60  C   UNL     1      -6.230   2.124  14.680  1.00  0.00     0.049 A 
ATOM     61  H   UNL     1      -5.643   3.418  16.205  1.00  0.00     0.167 HD
ATOM     62  C   UNL     1      -8.120   3.541  15.369  1.00  0.00     0.074 A 
ATOM     63  C   UNL     1      -7.689   3.954  16.697  1.00  0.00     0.031 C 
ATOM     64  C   UNL     1      -7.554   2.666  14.492  1.00  0.00     0.037 A 
BRANCH  51  65
ATOM     65  C   UNL     1      -2.802   3.207  17.395  1.00  0.00     0.064 A 
ATOM     66  C   UNL     1      -2.888   1.987  18.097  1.00  0.00     0.173 A 
ATOM     67  C   UNL     1      -2.748   4.366  18.201  1.00  0.00     0.173 A 
ATOM     68  F   UNL     1      -2.987   0.824  17.435  1.00  0.00    -0.203 F 
ATOM     69  C   UNL     1      -2.954   1.939  19.494  1.00  0.00     0.198 A 
ATOM     70  C   UNL     1      -2.763   4.311  19.594  1.00  0.00     0.198 A 
ATOM     71  F   UNL     1      -2.799   5.596  17.674  1.00  0.00    -0.203 F 
ATOM     72  F   UNL     1      -3.141   0.765  20.114  1.00  0.00    -0.200 F 
ATOM     73  C   UNL     1      -2.890   3.101  20.241  1.00  0.00     0.200 A 
ATOM     74  F   UNL     1      -2.733   5.452  20.298  1.00  0.00    -0.200 F 
ATOM     75  F   UNL     1      -3.000   3.062  21.576  1.00  0.00    -0.200 F 
ENDBRANCH  51  65
BRANCH  52  76
ATOM     76  C   UNL     1      -9.602   7.949  16.004  1.00  0.00     0.064 A 
ATOM     77  C   UNL     1     -10.725   7.551  16.750  1.00  0.00     0.173 A 
ATOM     78  C   UNL     1      -9.092   9.233  16.273  1.00  0.00     0.173 A 
ATOM     79  F   UNL     1     -11.255   6.332  16.574  1.00  0.00    -0.203 F 
ATOM     80  C   UNL     1     -11.264   8.363  17.752  1.00  0.00     0.198 A 
ATOM     81  C   UNL     1      -9.636  10.045  17.269  1.00  0.00     0.198 A 
ATOM     82  F   UNL     1      -7.992   9.680  15.651  1.00  0.00    -0.203 F 
ATOM     83  F   UNL     1     -12.280   7.913  18.502  1.00  0.00    -0.200 F 
ATOM     84  C   UNL     1     -10.707   9.601  18.024  1.00  0.00     0.200 A 
ATOM     85  F   UNL     1      -9.069  11.228  17.545  1.00  0.00    -0.200 F 
ATOM     86  F   UNL     1     -11.169  10.344  19.039  1.00  0.00    -0.200 F 
ENDBRANCH  52  76
BRANCH  64  87
ATOM     87  C   UNL     1      -8.276   2.406  13.210  1.00  0.00     0.064 A 
ATOM     88  C   UNL     1      -8.473   3.359  12.199  1.00  0.00     0.173 A 
ATOM     89  C   UNL     1      -8.754   1.108  12.983  1.00  0.00     0.173 A 
ATOM     90  F   UNL     1      -7.981   4.599  12.314  1.00  0.00    -0.203 F 
ATOM     91  C   UNL     1      -9.159   3.032  11.029  1.00  0.00     0.198 A 
ATOM     92  C   UNL     1      -9.405   0.776  11.800  1.00  0.00     0.198 A 
ATOM     93  F   UNL     1      -8.562   0.150  13.903  1.00  0.00    -0.203 F 
ATOM     94  F   UNL     1      -9.358   3.963  10.084  1.00  0.00    -0.200 F 
ATOM     95  C   UNL     1      -9.618   1.740  10.829  1.00  0.00     0.200 A 
ATOM     96  F   UNL     1      -9.812  -0.485  11.597  1.00  0.00    -0.200 F 
ATOM     97  F   UNL     1     -10.250   1.417   9.692  1.00  0.00    -0.200 F 
ENDBRANCH  64  87
ENDBRANCH  38  39
ENDBRANCH  30  33
ENDBRANCH  28  29
ENDBRANCH  27  28
ENDBRANCH  26  27
ENDBRANCH   1  26
TORSDOF 15
