REMARK SMILES CC1(C)CCSC[C@@]1(Nc1ccccc1Br)C(=O)NCCCCCCNC(=O)c1ccc(-c2c3nc(c(-c4c(F)c(F)c(F)c(F)c4F)c4ccc([nH]4)c(-c4c(F)c(F)c(F)c(F)c4F)c4nc(c(-c5c(F)c(F)c(F)c(F)c5F)c5ccc2[nH]5)C=C4)C=C3)cc1
REMARK SMILES IDX 22 1 21 2 20 3 19 4 17 5 18 6 8 8 1 9 2 10 3 11 4 12 5 13
REMARK SMILES IDX 7 14 6 15 9 16 10 18 11 19 15 20 12 21 14 22 16 23 13 24
REMARK SMILES IDX 23 25 24 26 25 27 26 28 27 29 28 31 29 32 30 33 91 34 31 35
REMARK SMILES IDX 90 36 32 37 33 38 34 39 84 40 35 41 89 42 83 43 85 44 36 45
REMARK SMILES IDX 88 46 82 47 81 48 37 50 69 51 49 52 68 53 50 54 53 55 67 56
REMARK SMILES IDX 86 57 51 58 52 59 66 61 87 62 54 63 38 64 39 65 47 66 40 67
REMARK SMILES IDX 41 68 45 69 48 70 42 71 43 72 46 73 44 74 70 75 71 76 79 77
REMARK SMILES IDX 72 78 73 79 77 80 80 81 74 82 75 83 78 84 76 85 55 86 56 87
REMARK SMILES IDX 64 88 57 89 58 90 62 91 65 92 59 93 60 94 63 95 61 96
REMARK H PARENT 19 7 9 17 26 30 85 49 53 60
REMARK Flexibility Score: inf
ROOT
ATOM      1  C   UNL     1      -2.703   0.956   2.681  1.00  0.00     0.002 C 
ENDROOT
BRANCH   1   2
ATOM      2  C   UNL     1      -2.219   0.951   1.231  1.00  0.00     0.021 C 
BRANCH   2   3
ATOM      3  C   UNL     1      -0.946   0.161   0.961  1.00  0.00     0.116 C 
BRANCH   3   4
ATOM      4  N   UNL     1      -1.160  -1.240   0.667  1.00  0.00    -0.354 N 
ATOM      5  C   UNL     1      -0.299  -2.151   0.118  1.00  0.00     0.247 C 
ATOM      6  O   UNL     1      -0.216  -3.202   0.777  1.00  0.00    -0.272 OA
ATOM      7  H   UNL     1      -2.052  -1.586   0.896  1.00  0.00     0.163 HD
BRANCH   5   8
ATOM      8  C   UNL     1       0.441  -2.033  -1.307  1.00  0.00     0.131 C 
ATOM      9  C   UNL     1       1.751   0.123  -0.641  1.00  0.00     0.014 C 
ATOM     10  C   UNL     1       0.940  -0.587  -1.767  1.00  0.00    -0.002 C 
ATOM     11  C   UNL     1      -0.265   0.287  -2.242  1.00  0.00     0.014 C 
ATOM     12  C   UNL     1       1.880  -0.633  -3.024  1.00  0.00     0.020 C 
ATOM     13  C   UNL     1       3.166  -1.437  -2.905  1.00  0.00     0.070 C 
ATOM     14  C   UNL     1       1.686  -2.977  -1.139  1.00  0.00     0.108 C 
ATOM     15  S   UNL     1       2.837  -3.165  -2.549  1.00  0.00    -0.159 SA
BRANCH   8  16
ATOM     16  N   UNL     1      -0.501  -2.546  -2.383  1.00  0.00    -0.369 N 
ATOM     17  H   UNL     1      -0.836  -1.909  -3.055  1.00  0.00     0.161 HD
BRANCH  16  18
ATOM     18  C   UNL     1      -0.917  -3.880  -2.470  1.00  0.00     0.049 A 
ATOM     19  C   UNL     1      -0.186  -4.751  -3.299  1.00  0.00     0.027 A 
ATOM     20  C   UNL     1      -2.026  -4.422  -1.798  1.00  0.00     0.041 A 
ATOM     21  C   UNL     1      -0.478  -6.114  -3.387  1.00  0.00     0.002 A 
ATOM     22  C   UNL     1      -2.317  -5.794  -1.877  1.00  0.00     0.018 A 
ATOM     23  Br  UNL     1      -3.308  -3.339  -0.903  1.00  0.00    -0.049 Br
ATOM     24  C   UNL     1      -1.534  -6.641  -2.658  1.00  0.00     0.001 A 
ENDBRANCH  16  18
ENDBRANCH   8  16
ENDBRANCH   5   8
ENDBRANCH   3   4
ENDBRANCH   2   3
ENDBRANCH   1   2
BRANCH   1  25
ATOM     25  C   UNL     1      -1.660   1.280   3.757  1.00  0.00     0.002 C 
BRANCH  25  26
ATOM     26  C   UNL     1      -0.766   2.505   3.527  1.00  0.00     0.021 C 
BRANCH  26  27
ATOM     27  C   UNL     1      -1.473   3.829   3.249  1.00  0.00     0.116 C 
BRANCH  27  28
ATOM     28  N   UNL     1      -2.464   4.163   4.252  1.00  0.00    -0.352 N 
ATOM     29  C   UNL     1      -2.674   5.318   4.955  1.00  0.00     0.251 C 
ATOM     30  H   UNL     1      -3.092   3.435   4.465  1.00  0.00     0.163 HD
ATOM     31  O   UNL     1      -3.516   5.324   5.854  1.00  0.00    -0.269 OA
BRANCH  29  32
ATOM     32  C   UNL     1      -1.903   6.553   4.682  1.00  0.00     0.039 A 
ATOM     33  C   UNL     1      -1.535   7.346   5.774  1.00  0.00     0.014 A 
ATOM     34  C   UNL     1      -1.599   6.982   3.386  1.00  0.00     0.014 A 
ATOM     35  C   UNL     1      -0.836   8.537   5.575  1.00  0.00     0.010 A 
ATOM     36  C   UNL     1      -0.846   8.144   3.189  1.00  0.00     0.010 A 
ATOM     37  C   UNL     1      -0.465   8.938   4.281  1.00  0.00    -0.014 A 
BRANCH  37  38
ATOM     38  C   UNL     1       0.331  10.178   4.087  1.00  0.00     0.031 A 
ATOM     39  C   UNL     1      -0.260  11.376   3.396  1.00  0.00     0.074 A 
ATOM     40  C   UNL     1       1.605  10.216   4.526  1.00  0.00     0.049 A 
ATOM     41  N   UNL     1       0.275  12.553   3.182  1.00  0.00    -0.248 NA
ATOM     42  C   UNL     1      -1.618  11.229   2.850  1.00  0.00     0.031 C 
ATOM     43  C   UNL     1       2.316   9.097   5.148  1.00  0.00     0.029 A 
ATOM     44  N   UNL     1       2.528  11.232   4.517  1.00  0.00    -0.354 N 
ATOM     45  C   UNL     1      -0.672  13.279   2.471  1.00  0.00     0.074 A 
ATOM     46  C   UNL     1      -1.800  12.399   2.252  1.00  0.00     0.031 C 
ATOM     47  C   UNL     1       3.554   9.493   5.481  1.00  0.00     0.029 A 
ATOM     48  C   UNL     1       3.732  10.886   5.081  1.00  0.00     0.049 A 
ATOM     49  H   UNL     1       2.345  12.123   4.141  1.00  0.00     0.167 HD
ATOM     50  C   UNL     1      -0.612  14.567   2.057  1.00  0.00     0.037 A 
ATOM     51  C   UNL     1       4.851  11.612   5.262  1.00  0.00     0.037 A 
ATOM     52  C   UNL     1       0.493  15.454   2.313  1.00  0.00     0.049 A 
ATOM     53  C   UNL     1       4.865  13.057   4.843  1.00  0.00     0.074 A 
ATOM     54  C   UNL     1       0.604  16.803   2.020  1.00  0.00     0.029 A 
ATOM     55  N   UNL     1       1.682  15.080   2.921  1.00  0.00    -0.354 N 
ATOM     56  N   UNL     1       3.921  13.761   4.267  1.00  0.00    -0.248 NA
ATOM     57  C   UNL     1       6.094  13.814   5.117  1.00  0.00     0.031 C 
ATOM     58  C   UNL     1       1.875  17.235   2.411  1.00  0.00     0.029 A 
ATOM     59  C   UNL     1       2.541  16.166   2.989  1.00  0.00     0.049 A 
ATOM     60  H   UNL     1       1.885  14.176   3.256  1.00  0.00     0.167 HD
ATOM     61  C   UNL     1       4.434  15.043   4.126  1.00  0.00     0.074 A 
ATOM     62  C   UNL     1       5.761  15.028   4.704  1.00  0.00     0.031 C 
ATOM     63  C   UNL     1       3.861  16.134   3.562  1.00  0.00     0.037 A 
BRANCH  50  64
ATOM     64  C   UNL     1      -1.778  15.114   1.287  1.00  0.00     0.064 A 
ATOM     65  C   UNL     1      -2.999  15.408   1.912  1.00  0.00     0.173 A 
ATOM     66  C   UNL     1      -1.647  15.423  -0.076  1.00  0.00     0.173 A 
ATOM     67  F   UNL     1      -3.178  15.125   3.211  1.00  0.00    -0.203 F 
ATOM     68  C   UNL     1      -4.050  15.978   1.198  1.00  0.00     0.198 A 
ATOM     69  C   UNL     1      -2.691  16.015  -0.781  1.00  0.00     0.198 A 
ATOM     70  F   UNL     1      -0.498  15.167  -0.719  1.00  0.00    -0.203 F 
ATOM     71  F   UNL     1      -5.218  16.225   1.808  1.00  0.00    -0.200 F 
ATOM     72  C   UNL     1      -3.892  16.290  -0.145  1.00  0.00     0.200 A 
ATOM     73  F   UNL     1      -2.533  16.327  -2.075  1.00  0.00    -0.200 F 
ATOM     74  F   UNL     1      -4.899  16.854  -0.826  1.00  0.00    -0.200 F 
ENDBRANCH  50  64
BRANCH  51  75
ATOM     75  C   UNL     1       6.046  10.994   5.892  1.00  0.00     0.064 A 
ATOM     76  C   UNL     1       6.469  11.376   7.173  1.00  0.00     0.173 A 
ATOM     77  C   UNL     1       6.802  10.025   5.217  1.00  0.00     0.173 A 
ATOM     78  F   UNL     1       5.790  12.314   7.850  1.00  0.00    -0.203 F 
ATOM     79  C   UNL     1       7.620  10.835   7.742  1.00  0.00     0.198 A 
ATOM     80  C   UNL     1       7.936   9.463   5.800  1.00  0.00     0.198 A 
ATOM     81  F   UNL     1       6.436   9.620   3.992  1.00  0.00    -0.203 F 
ATOM     82  F   UNL     1       8.032  11.259   8.945  1.00  0.00    -0.200 F 
ATOM     83  C   UNL     1       8.350   9.876   7.057  1.00  0.00     0.200 A 
ATOM     84  F   UNL     1       8.631   8.527   5.140  1.00  0.00    -0.200 F 
ATOM     85  F   UNL     1       9.458   9.358   7.604  1.00  0.00    -0.200 F 
ENDBRANCH  51  75
BRANCH  63  86
ATOM     86  C   UNL     1       4.666  17.399   3.556  1.00  0.00     0.064 A 
ATOM     87  C   UNL     1       5.788  17.549   2.727  1.00  0.00     0.173 A 
ATOM     88  C   UNL     1       4.308  18.477   4.379  1.00  0.00     0.173 A 
ATOM     89  F   UNL     1       6.180  16.540   1.933  1.00  0.00    -0.203 F 
ATOM     90  C   UNL     1       6.542  18.718   2.748  1.00  0.00     0.198 A 
ATOM     91  C   UNL     1       5.047  19.657   4.375  1.00  0.00     0.198 A 
ATOM     92  F   UNL     1       3.239  18.388   5.185  1.00  0.00    -0.203 F 
ATOM     93  F   UNL     1       7.643  18.817   1.990  1.00  0.00    -0.200 F 
ATOM     94  C   UNL     1       6.169  19.773   3.568  1.00  0.00     0.200 A 
ATOM     95  F   UNL     1       4.679  20.679   5.159  1.00  0.00    -0.200 F 
ATOM     96  F   UNL     1       6.898  20.897   3.589  1.00  0.00    -0.200 F 
ENDBRANCH  63  86
ENDBRANCH  37  38
ENDBRANCH  29  32
ENDBRANCH  27  28
ENDBRANCH  26  27
ENDBRANCH  25  26
ENDBRANCH   1  25
TORSDOF 15
