REMARK SMILES CC(C)c1ncc(SC[C@H](O)CO)c(C(=O)NCCCCCCNC(=O)c2ccc(-c3c4nc(c(-c5c(F)c(F)c(F)c(F)c5F)c5ccc([nH]5)c(-c5c(F)c(F)c(F)c(F)c5F)c5nc(c(-c6c(F)c(F)c(F)c(F)c6F)c6ccc3[nH]6)C=C5)C=C4)cc2)n1
REMARK SMILES IDX 19 1 18 2 17 3 15 4 16 5 14 7 4 8 5 9 90 10 6 11 7 12 2 13
REMARK SMILES IDX 1 14 3 15 8 16 9 17 10 18 12 19 13 20 11 22 20 24 21 25
REMARK SMILES IDX 22 26 23 27 24 28 25 29 26 31 27 32 28 33 89 34 29 35 88 36
REMARK SMILES IDX 30 37 31 38 32 39 82 40 33 41 87 42 81 43 83 44 34 45 86 46
REMARK SMILES IDX 80 47 79 48 35 50 67 51 47 52 66 53 48 54 51 55 65 56 84 57
REMARK SMILES IDX 49 58 50 59 64 61 85 62 52 63 36 64 37 65 45 66 38 67 39 68
REMARK SMILES IDX 43 69 46 70 40 71 41 72 44 73 42 74 68 75 69 76 77 77 70 78
REMARK SMILES IDX 71 79 75 80 78 81 72 82 73 83 76 84 74 85 53 86 54 87 62 88
REMARK SMILES IDX 55 89 56 90 60 91 63 92 57 93 58 94 61 95 59 96
REMARK H PARENT 17 6 13 21 11 23 24 30 83 49 51 60
REMARK Flexibility Score: inf
ROOT
ATOM      1  C   UNL     1      -1.571  -4.215  -2.191  1.00  0.00     0.021 C 
ENDROOT
BRANCH   1   2
ATOM      2  C   UNL     1      -2.858  -5.025  -2.386  1.00  0.00     0.116 C 
BRANCH   2   3
ATOM      3  N   UNL     1      -2.578  -6.417  -2.143  1.00  0.00    -0.351 N 
ATOM      4  C   UNL     1      -2.789  -7.257  -1.082  1.00  0.00     0.271 C 
ATOM      5  O   UNL     1      -2.228  -8.356  -1.175  1.00  0.00    -0.267 OA
ATOM      6  H   UNL     1      -2.141  -6.861  -2.905  1.00  0.00     0.163 HD
BRANCH   4   7
ATOM      7  C   UNL     1      -3.696  -7.022   0.102  1.00  0.00     0.145 A 
ATOM      8  C   UNL     1      -5.008  -8.308   1.543  1.00  0.00     0.131 A 
ATOM      9  N   UNL     1      -5.111  -7.316   2.433  1.00  0.00    -0.240 NA
ATOM     10  N   UNL     1      -4.359  -8.186   0.380  1.00  0.00    -0.226 NA
ATOM     11  C   UNL     1      -4.476  -6.171   2.119  1.00  0.00     0.130 A 
ATOM     12  C   UNL     1      -3.758  -5.924   0.953  1.00  0.00     0.057 A 
BRANCH   8  13
ATOM     13  C   UNL     1      -5.466  -9.684   1.970  1.00  0.00     0.051 C 
ATOM     14  C   UNL     1      -6.317 -10.364   0.900  1.00  0.00     0.016 C 
ATOM     15  C   UNL     1      -4.248 -10.540   2.327  1.00  0.00     0.016 C 
ENDBRANCH   8  13
BRANCH  12  16
ATOM     16  S   UNL     1      -2.869  -4.399   0.950  1.00  0.00    -0.119 SA
BRANCH  16  17
ATOM     17  C   UNL     1      -4.061  -3.065   0.465  1.00  0.00     0.109 C 
BRANCH  17  18
ATOM     18  C   UNL     1      -5.600  -3.099   0.452  1.00  0.00     0.150 C 
BRANCH  18  19
ATOM     19  C   UNL     1      -6.321  -4.337  -0.076  1.00  0.00     0.188 C 
BRANCH  19  20
ATOM     20  O   UNL     1      -7.665  -3.986  -0.417  1.00  0.00    -0.394 OA
ATOM     21  H   UNL     1      -8.121  -3.650   0.370  1.00  0.00     0.210 HD
ENDBRANCH  19  20
ENDBRANCH  18  19
BRANCH  18  22
ATOM     22  O   UNL     1      -6.136  -2.755   1.737  1.00  0.00    -0.390 OA
ATOM     23  H   UNL     1      -5.921  -3.453   2.375  1.00  0.00     0.211 HD
ENDBRANCH  18  22
ENDBRANCH  17  18
ENDBRANCH  16  17
ENDBRANCH  12  16
ENDBRANCH   4   7
ENDBRANCH   2   3
ENDBRANCH   1   2
BRANCH   1  24
ATOM     24  C   UNL     1      -0.745  -4.042  -3.470  1.00  0.00     0.002 C 
BRANCH  24  25
ATOM     25  C   UNL     1      -1.384  -3.132  -4.525  1.00  0.00     0.002 C 
BRANCH  25  26
ATOM     26  C   UNL     1      -1.831  -1.756  -4.021  1.00  0.00     0.021 C 
BRANCH  26  27
ATOM     27  C   UNL     1      -0.735  -0.930  -3.352  1.00  0.00     0.116 C 
BRANCH  27  28
ATOM     28  N   UNL     1       0.324  -0.580  -4.282  1.00  0.00    -0.352 N 
ATOM     29  C   UNL     1       0.753   0.657  -4.694  1.00  0.00     0.251 C 
ATOM     30  H   UNL     1       0.805  -1.343  -4.676  1.00  0.00     0.163 HD
ATOM     31  O   UNL     1       1.510   0.759  -5.653  1.00  0.00    -0.269 OA
BRANCH  29  32
ATOM     32  C   UNL     1       0.296   1.874  -3.989  1.00  0.00     0.039 A 
ATOM     33  C   UNL     1      -0.096   2.983  -4.743  1.00  0.00     0.014 A 
ATOM     34  C   UNL     1       0.291   1.938  -2.592  1.00  0.00     0.014 A 
ATOM     35  C   UNL     1      -0.543   4.138  -4.098  1.00  0.00     0.010 A 
ATOM     36  C   UNL     1      -0.214   3.066  -1.951  1.00  0.00     0.010 A 
ATOM     37  C   UNL     1      -0.630   4.180  -2.697  1.00  0.00    -0.014 A 
BRANCH  37  38
ATOM     38  C   UNL     1      -1.146   5.382  -1.996  1.00  0.00     0.031 A 
ATOM     39  C   UNL     1      -0.239   6.189  -1.110  1.00  0.00     0.074 A 
ATOM     40  C   UNL     1      -2.447   5.711  -2.109  1.00  0.00     0.049 A 
ATOM     41  N   UNL     1      -0.519   7.226  -0.361  1.00  0.00    -0.248 NA
ATOM     42  C   UNL     1       1.165   5.756  -1.034  1.00  0.00     0.031 C 
ATOM     43  C   UNL     1      -3.436   4.983  -2.904  1.00  0.00     0.029 A 
ATOM     44  N   UNL     1      -3.163   6.737  -1.545  1.00  0.00    -0.354 N 
ATOM     45  C   UNL     1       0.666   7.558   0.283  1.00  0.00     0.074 A 
ATOM     46  C   UNL     1       1.656   6.584  -0.124  1.00  0.00     0.031 C 
ATOM     47  C   UNL     1      -4.626   5.594  -2.792  1.00  0.00     0.029 A 
ATOM     48  C   UNL     1      -4.492   6.735  -1.891  1.00  0.00     0.049 A 
ATOM     49  H   UNL     1      -2.762   7.410  -0.949  1.00  0.00     0.167 HD
ATOM     50  C   UNL     1       0.910   8.594   1.120  1.00  0.00     0.037 A 
ATOM     51  C   UNL     1      -5.491   7.557  -1.517  1.00  0.00     0.037 A 
ATOM     52  C   UNL     1      -0.070   9.578   1.500  1.00  0.00     0.049 A 
ATOM     53  C   UNL     1      -5.193   8.700  -0.586  1.00  0.00     0.074 A 
ATOM     54  C   UNL     1       0.096  10.702   2.291  1.00  0.00     0.029 A 
ATOM     55  N   UNL     1      -1.403   9.553   1.116  1.00  0.00    -0.354 N 
ATOM     56  N   UNL     1      -4.054   9.043  -0.035  1.00  0.00    -0.248 NA
ATOM     57  C   UNL     1      -6.319   9.573  -0.229  1.00  0.00     0.031 C 
ATOM     58  C   UNL     1      -1.146  11.333   2.420  1.00  0.00     0.029 A 
ATOM     59  C   UNL     1      -2.076  10.629   1.672  1.00  0.00     0.049 A 
ATOM     60  H   UNL     1      -1.810   8.871   0.534  1.00  0.00     0.167 HD
ATOM     61  C   UNL     1      -4.319  10.182   0.712  1.00  0.00     0.074 A 
ATOM     62  C   UNL     1      -5.725  10.482   0.531  1.00  0.00     0.031 C 
ATOM     63  C   UNL     1      -3.475  10.914   1.479  1.00  0.00     0.037 A 
BRANCH  50  64
ATOM     64  C   UNL     1       2.297   8.720   1.682  1.00  0.00     0.064 A 
ATOM     65  C   UNL     1       3.385   9.093   0.879  1.00  0.00     0.173 A 
ATOM     66  C   UNL     1       2.535   8.498   3.047  1.00  0.00     0.173 A 
ATOM     67  F   UNL     1       3.212   9.306  -0.434  1.00  0.00    -0.203 F 
ATOM     68  C   UNL     1       4.665   9.209   1.415  1.00  0.00     0.198 A 
ATOM     69  C   UNL     1       3.811   8.644   3.585  1.00  0.00     0.198 A 
ATOM     70  F   UNL     1       1.529   8.145   3.861  1.00  0.00    -0.203 F 
ATOM     71  F   UNL     1       5.697   9.519   0.618  1.00  0.00    -0.200 F 
ATOM     72  C   UNL     1       4.876   8.992   2.768  1.00  0.00     0.200 A 
ATOM     73  F   UNL     1       4.011   8.445   4.895  1.00  0.00    -0.200 F 
ATOM     74  F   UNL     1       6.107   9.110   3.283  1.00  0.00    -0.200 F 
ENDBRANCH  50  64
BRANCH  51  75
ATOM     75  C   UNL     1      -6.862   7.343  -2.046  1.00  0.00     0.064 A 
ATOM     76  C   UNL     1      -7.423   8.235  -2.970  1.00  0.00     0.173 A 
ATOM     77  C   UNL     1      -7.638   6.246  -1.643  1.00  0.00     0.173 A 
ATOM     78  F   UNL     1      -6.727   9.310  -3.369  1.00  0.00    -0.203 F 
ATOM     79  C   UNL     1      -8.715   8.049  -3.458  1.00  0.00     0.198 A 
ATOM     80  C   UNL     1      -8.919   6.046  -2.152  1.00  0.00     0.198 A 
ATOM     81  F   UNL     1      -7.144   5.361  -0.765  1.00  0.00    -0.203 F 
ATOM     82  F   UNL     1      -9.242   8.940  -4.308  1.00  0.00    -0.200 F 
ATOM     83  C   UNL     1      -9.460   6.951  -3.053  1.00  0.00     0.200 A 
ATOM     84  F   UNL     1      -9.630   4.977  -1.769  1.00  0.00    -0.200 F 
ATOM     85  F   UNL     1     -10.700   6.769  -3.526  1.00  0.00    -0.200 F 
ENDBRANCH  51  75
BRANCH  63  86
ATOM     86  C   UNL     1      -4.041  12.126   2.159  1.00  0.00     0.064 A 
ATOM     87  C   UNL     1      -4.906  12.014   3.258  1.00  0.00     0.173 A 
ATOM     88  C   UNL     1      -3.684  13.413   1.731  1.00  0.00     0.173 A 
ATOM     89  F   UNL     1      -5.289  10.804   3.694  1.00  0.00    -0.203 F 
ATOM     90  C   UNL     1      -5.411  13.147   3.888  1.00  0.00     0.198 A 
ATOM     91  C   UNL     1      -4.169  14.544   2.382  1.00  0.00     0.198 A 
ATOM     92  F   UNL     1      -2.856  13.574   0.689  1.00  0.00    -0.203 F 
ATOM     93  F   UNL     1      -6.272  13.017   4.908  1.00  0.00    -0.200 F 
ATOM     94  C   UNL     1      -5.037  14.411   3.455  1.00  0.00     0.200 A 
ATOM     95  F   UNL     1      -3.797  15.764   1.970  1.00  0.00    -0.200 F 
ATOM     96  F   UNL     1      -5.519  15.501   4.068  1.00  0.00    -0.200 F 
ENDBRANCH  63  86
ENDBRANCH  37  38
ENDBRANCH  29  32
ENDBRANCH  27  28
ENDBRANCH  26  27
ENDBRANCH  25  26
ENDBRANCH  24  25
ENDBRANCH   1  24
TORSDOF 20
