REMARK SMILES O=C(NCCCCCCNC(=O)[C@@H]1[C@H](C(=O)Nc2ccc(Cn3cncn3)cc2)[C@@H]2C=C[C@H]1CC2)c1ccc(-c2c3nc(c(-c4c(F)c(F)c(F)c(F)c4F)c4ccc([nH]4)c(-c4c(F)c(F)c(F)c(F)c4F)c4nc(c(-c5c(F)c(F)c(F)c(F)c5F)c5ccc2[nH]5)C=C4)C=C3)cc1
REMARK SMILES IDX 7 1 6 2 5 3 4 4 3 5 1 6 2 7 36 9 37 10 98 11 38 12 97 13
REMARK SMILES IDX 39 14 40 15 41 16 91 17 42 18 96 19 90 20 92 21 43 22 95 23
REMARK SMILES IDX 89 24 88 25 44 27 76 28 56 29 75 30 57 31 60 32 74 33 93 34
REMARK SMILES IDX 58 35 59 36 73 38 94 39 61 40 45 41 46 42 54 43 47 44 48 45
REMARK SMILES IDX 52 46 55 47 49 48 50 49 53 50 51 51 77 52 78 53 86 54 79 55
REMARK SMILES IDX 80 56 84 57 87 58 81 59 82 60 85 61 83 62 62 63 63 64 71 65
REMARK SMILES IDX 64 66 65 67 69 68 72 69 66 70 67 71 70 72 68 73 8 74 9 75
REMARK SMILES IDX 10 76 11 77 12 79 13 80 14 81 33 82 30 83 32 84 34 85 31 86
REMARK SMILES IDX 35 87 15 88 16 89 17 90 18 92 19 93 29 94 20 95 28 96 21 97
REMARK SMILES IDX 22 98 23 99 24 100 27 101 25 102 26 103
REMARK H PARENT 3 8 92 26 60 37 10 78 17 91
REMARK Flexibility Score: inf
ROOT
ATOM      1  C   UNL     1       3.522   1.110  -4.740  1.00  0.00     0.002 C 
ENDROOT
BRANCH   1   2
ATOM      2  C   UNL     1       3.490  -0.298  -4.134  1.00  0.00     0.002 C 
BRANCH   2   3
ATOM      3  C   UNL     1       4.071  -0.576  -2.737  1.00  0.00     0.021 C 
BRANCH   3   4
ATOM      4  C   UNL     1       4.168   0.565  -1.732  1.00  0.00     0.116 C 
BRANCH   4   5
ATOM      5  N   UNL     1       2.943   1.059  -1.133  1.00  0.00    -0.352 N 
ATOM      6  O   UNL     1       1.271   1.359   0.314  1.00  0.00    -0.269 OA
ATOM      7  C   UNL     1       2.135   0.622  -0.113  1.00  0.00     0.251 C 
ATOM      8  H   UNL     1       2.620   1.890  -1.550  1.00  0.00     0.163 HD
BRANCH   7   9
ATOM      9  C   UNL     1       2.215  -0.756   0.435  1.00  0.00     0.039 A 
ATOM     10  C   UNL     1       3.397  -1.465   0.648  1.00  0.00     0.014 A 
ATOM     11  C   UNL     1       0.985  -1.338   0.774  1.00  0.00     0.014 A 
ATOM     12  C   UNL     1       3.346  -2.798   1.046  1.00  0.00     0.010 A 
ATOM     13  C   UNL     1       0.933  -2.650   1.215  1.00  0.00     0.010 A 
ATOM     14  C   UNL     1       2.110  -3.401   1.286  1.00  0.00    -0.014 A 
BRANCH  14  15
ATOM     15  C   UNL     1       2.064  -4.810   1.687  1.00  0.00     0.031 A 
ATOM     16  C   UNL     1       2.626  -5.151   3.036  1.00  0.00     0.074 A 
ATOM     17  C   UNL     1       1.335  -5.694   0.972  1.00  0.00     0.049 A 
ATOM     18  N   UNL     1       3.332  -6.178   3.400  1.00  0.00    -0.248 NA
ATOM     19  C   UNL     1       2.376  -4.191   4.127  1.00  0.00     0.031 C 
ATOM     20  C   UNL     1       0.496  -5.413  -0.200  1.00  0.00     0.029 A 
ATOM     21  N   UNL     1       1.060  -7.002   1.237  1.00  0.00    -0.354 N 
ATOM     22  C   UNL     1       3.485  -6.073   4.786  1.00  0.00     0.074 A 
ATOM     23  C   UNL     1       2.957  -4.790   5.165  1.00  0.00     0.031 C 
ATOM     24  C   UNL     1      -0.371  -6.431  -0.379  1.00  0.00     0.029 A 
ATOM     25  C   UNL     1      -0.068  -7.475   0.584  1.00  0.00     0.049 A 
ATOM     26  H   UNL     1       1.610  -7.558   1.835  1.00  0.00     0.167 HD
ATOM     27  C   UNL     1       3.875  -7.115   5.572  1.00  0.00     0.037 A 
ATOM     28  C   UNL     1      -0.776  -8.589   0.887  1.00  0.00     0.037 A 
ATOM     29  C   UNL     1       4.612  -8.103   4.840  1.00  0.00     0.049 A 
ATOM     30  C   UNL     1       0.075  -9.455   1.736  1.00  0.00     0.074 A 
ATOM     31  C   UNL     1       5.805  -8.108   4.144  1.00  0.00     0.029 A 
ATOM     32  N   UNL     1       4.001  -9.285   4.511  1.00  0.00    -0.354 N 
ATOM     33  N   UNL     1       1.152 -10.063   1.324  1.00  0.00    -0.248 NA
ATOM     34  C   UNL     1      -0.055  -9.320   3.179  1.00  0.00     0.031 C 
ATOM     35  C   UNL     1       5.604  -9.021   3.069  1.00  0.00     0.029 A 
ATOM     36  C   UNL     1       4.309  -9.523   3.197  1.00  0.00     0.049 A 
ATOM     37  H   UNL     1       3.451  -9.851   5.101  1.00  0.00     0.167 HD
ATOM     38  C   UNL     1       2.014 -10.031   2.410  1.00  0.00     0.074 A 
ATOM     39  C   UNL     1       1.184  -9.651   3.548  1.00  0.00     0.031 C 
ATOM     40  C   UNL     1       3.368 -10.043   2.238  1.00  0.00     0.037 A 
BRANCH  27  41
ATOM     41  C   UNL     1       3.328  -7.375   6.956  1.00  0.00     0.064 A 
ATOM     42  C   UNL     1       3.918  -8.362   7.771  1.00  0.00     0.173 A 
ATOM     43  C   UNL     1       2.069  -6.903   7.386  1.00  0.00     0.173 A 
ATOM     44  F   UNL     1       5.103  -8.899   7.446  1.00  0.00    -0.203 F 
ATOM     45  C   UNL     1       3.261  -8.886   8.890  1.00  0.00     0.198 A 
ATOM     46  C   UNL     1       1.440  -7.391   8.531  1.00  0.00     0.198 A 
ATOM     47  F   UNL     1       1.352  -6.037   6.660  1.00  0.00    -0.203 F 
ATOM     48  F   UNL     1       3.806  -9.908   9.563  1.00  0.00    -0.200 F 
ATOM     49  C   UNL     1       2.021  -8.404   9.265  1.00  0.00     0.200 A 
ATOM     50  F   UNL     1       0.230  -6.923   8.869  1.00  0.00    -0.200 F 
ATOM     51  F   UNL     1       1.363  -8.947  10.298  1.00  0.00    -0.200 F 
ENDBRANCH  27  41
BRANCH  28  52
ATOM     52  C   UNL     1      -2.242  -8.768   0.770  1.00  0.00     0.064 A 
ATOM     53  C   UNL     1      -2.823 -10.043   0.722  1.00  0.00     0.173 A 
ATOM     54  C   UNL     1      -3.127  -7.683   0.940  1.00  0.00     0.173 A 
ATOM     55  F   UNL     1      -2.047 -11.132   0.624  1.00  0.00    -0.203 F 
ATOM     56  C   UNL     1      -4.207 -10.221   0.833  1.00  0.00     0.198 A 
ATOM     57  C   UNL     1      -4.506  -7.859   1.035  1.00  0.00     0.198 A 
ATOM     58  F   UNL     1      -2.663  -6.436   1.107  1.00  0.00    -0.203 F 
ATOM     59  F   UNL     1      -4.723 -11.458   0.833  1.00  0.00    -0.200 F 
ATOM     60  C   UNL     1      -5.046  -9.130   0.991  1.00  0.00     0.200 A 
ATOM     61  F   UNL     1      -5.301  -6.796   1.226  1.00  0.00    -0.200 F 
ATOM     62  F   UNL     1      -6.366  -9.304   1.141  1.00  0.00    -0.200 F 
ENDBRANCH  28  52
BRANCH  40  63
ATOM     63  C   UNL     1       3.896 -10.323   0.862  1.00  0.00     0.064 A 
ATOM     64  C   UNL     1       3.692  -9.459  -0.228  1.00  0.00     0.173 A 
ATOM     65  C   UNL     1       4.769 -11.401   0.675  1.00  0.00     0.173 A 
ATOM     66  F   UNL     1       2.967  -8.343  -0.093  1.00  0.00    -0.203 F 
ATOM     67  C   UNL     1       4.295  -9.693  -1.461  1.00  0.00     0.198 A 
ATOM     68  C   UNL     1       5.401 -11.612  -0.548  1.00  0.00     0.198 A 
ATOM     69  F   UNL     1       5.058 -12.217   1.701  1.00  0.00    -0.203 F 
ATOM     70  F   UNL     1       4.079  -8.853  -2.485  1.00  0.00    -0.200 F 
ATOM     71  C   UNL     1       5.156 -10.765  -1.618  1.00  0.00     0.200 A 
ATOM     72  F   UNL     1       6.278 -12.617  -0.680  1.00  0.00    -0.200 F 
ATOM     73  F   UNL     1       5.777 -10.963  -2.789  1.00  0.00    -0.200 F 
ENDBRANCH  40  63
ENDBRANCH  14  15
ENDBRANCH   7   9
ENDBRANCH   4   5
ENDBRANCH   3   4
ENDBRANCH   2   3
ENDBRANCH   1   2
BRANCH   1  74
ATOM     74  C   UNL     1       4.796   1.657  -5.412  1.00  0.00     0.021 C 
BRANCH  74  75
ATOM     75  C   UNL     1       5.566   0.781  -6.430  1.00  0.00     0.116 C 
BRANCH  75  76
ATOM     76  N   UNL     1       6.525   1.582  -7.237  1.00  0.00    -0.356 N 
ATOM     77  C   UNL     1       7.832   1.783  -7.510  1.00  0.00     0.224 C 
ATOM     78  H   UNL     1       6.003   2.211  -7.786  1.00  0.00     0.163 HD
ATOM     79  O   UNL     1       7.988   2.705  -8.338  1.00  0.00    -0.275 OA
BRANCH  77  80
ATOM     80  C   UNL     1       9.147   1.118  -7.012  1.00  0.00     0.098 C 
ATOM     81  C   UNL     1       9.368  -0.294  -6.457  1.00  0.00     0.098 C 
ATOM     82  C   UNL     1      10.220   2.102  -6.358  1.00  0.00     0.025 C 
ATOM     83  C   UNL     1      10.754  -0.366  -5.723  1.00  0.00     0.025 C 
ATOM     84  C   UNL     1      10.463   1.845  -4.874  1.00  0.00    -0.027 C 
ATOM     85  C   UNL     1      11.608   1.720  -6.941  1.00  0.00     0.009 C 
ATOM     86  C   UNL     1      10.738   0.572  -4.545  1.00  0.00    -0.027 C 
ATOM     87  C   UNL     1      11.875   0.213  -6.643  1.00  0.00     0.009 C 
BRANCH  81  88
ATOM     88  C   UNL     1       8.276  -1.063  -5.727  1.00  0.00     0.228 C 
ATOM     89  O   UNL     1       7.802  -2.068  -6.281  1.00  0.00    -0.274 OA
ATOM     90  N   UNL     1       7.854  -0.838  -4.450  1.00  0.00    -0.326 N 
ATOM     91  H   UNL     1       7.520  -1.653  -4.011  1.00  0.00     0.169 HD
BRANCH  90  92
ATOM     92  C   UNL     1       7.789   0.293  -3.619  1.00  0.00     0.041 A 
ATOM     93  C   UNL     1       7.627   0.118  -2.248  1.00  0.00     0.026 A 
ATOM     94  C   UNL     1       7.758   1.593  -4.094  1.00  0.00     0.026 A 
ATOM     95  C   UNL     1       7.470   1.227  -1.395  1.00  0.00     0.008 A 
ATOM     96  C   UNL     1       7.601   2.704  -3.271  1.00  0.00     0.008 A 
ATOM     97  C   UNL     1       7.440   2.533  -1.906  1.00  0.00    -0.026 A 
BRANCH  97  98
ATOM     98  C   UNL     1       7.155   3.747  -1.062  1.00  0.00     0.181 C 
BRANCH  98  99
ATOM     99  N   UNL     1       5.767   4.156  -1.193  1.00  0.00    -0.249 N 
ATOM    100  C   UNL     1       4.715   3.750  -0.435  1.00  0.00     0.220 A 
ATOM    101  N   UNL     1       5.366   5.019  -2.151  1.00  0.00    -0.160 NA
ATOM    102  N   UNL     1       3.609   4.287  -0.896  1.00  0.00    -0.224 NA
ATOM    103  C   UNL     1       4.051   5.071  -1.923  1.00  0.00     0.246 A 
ENDBRANCH  98  99
ENDBRANCH  97  98
ENDBRANCH  90  92
ENDBRANCH  81  88
ENDBRANCH  77  80
ENDBRANCH  75  76
ENDBRANCH  74  75
ENDBRANCH   1  74
TORSDOF 17
