REMARK SMILES COC(=O)CCS(=O)(=O)Nc1ccc(C(=O)NCCCCCCNC(=O)c2ccc(-c3c4nc(c(-c5c(F)c(F)c(F)c(F)c5F)c5ccc([nH]5)c(-c5c(F)c(F)c(F)c(F)c5F)c5nc(c(-c6c(F)c(F)c(F)c(F)c6F)c6ccc3[nH]6)C=C5)C=C4)cc2)cc1
REMARK SMILES IDX 18 1 17 2 15 3 16 4 14 6 11 7 12 8 91 9 13 10 90 11 10 12
REMARK SMILES IDX 7 14 8 15 9 16 6 17 5 18 3 19 4 20 2 21 1 22 19 23 20 24
REMARK SMILES IDX 21 25 22 26 23 27 24 28 25 29 26 31 27 32 28 33 89 34 29 35
REMARK SMILES IDX 88 36 30 37 31 38 32 39 82 40 33 41 87 42 81 43 83 44 34 45
REMARK SMILES IDX 86 46 80 47 79 48 35 50 67 51 47 52 66 53 48 54 51 55 65 56
REMARK SMILES IDX 84 57 49 58 50 59 64 61 85 62 52 63 36 64 37 65 45 66 38 67
REMARK SMILES IDX 39 68 43 69 46 70 40 71 41 72 44 73 42 74 68 75 69 76 77 77
REMARK SMILES IDX 70 78 71 79 75 80 78 81 72 82 73 83 76 84 74 85 53 86 54 87
REMARK SMILES IDX 62 88 55 89 56 90 60 91 63 92 57 93 58 94 61 95 59 96
REMARK H PARENT 17 5 10 13 24 30 83 49 51 60
REMARK Flexibility Score: inf
ROOT
ATOM      1  C   UNL     1       3.012   3.257   2.859  1.00  0.00     0.116 C 
ENDROOT
BRANCH   1   2
ATOM      2  N   UNL     1       3.950   2.147   2.981  1.00  0.00    -0.352 N 
ATOM      3  C   UNL     1       4.372   1.173   2.099  1.00  0.00     0.251 C 
ATOM      4  O   UNL     1       5.134   0.303   2.523  1.00  0.00    -0.269 OA
ATOM      5  H   UNL     1       4.365   2.078   3.871  1.00  0.00     0.163 HD
BRANCH   3   6
ATOM      6  C   UNL     1       3.903   1.080   0.686  1.00  0.00     0.039 A 
ATOM      7  C   UNL     1       2.554   0.729  -1.768  1.00  0.00     0.049 A 
ATOM      8  C   UNL     1       3.202  -0.350  -1.161  1.00  0.00     0.027 A 
ATOM      9  C   UNL     1       2.789   1.997  -1.255  1.00  0.00     0.027 A 
ATOM     10  C   UNL     1       3.873  -0.176   0.061  1.00  0.00     0.016 A 
ATOM     11  C   UNL     1       3.471   2.175  -0.048  1.00  0.00     0.016 A 
BRANCH   7  12
ATOM     12  N   UNL     1       1.446   0.426  -2.607  1.00  0.00    -0.284 N 
ATOM     13  H   UNL     1       1.036  -0.454  -2.441  1.00  0.00     0.180 HD
BRANCH  12  14
ATOM     14  S   UNL     1       0.731   1.297  -3.808  1.00  0.00     0.233 S 
ATOM     15  O   UNL     1      -0.534   0.627  -4.048  1.00  0.00    -0.207 OA
ATOM     16  O   UNL     1       1.687   1.435  -4.883  1.00  0.00    -0.207 OA
BRANCH  14  17
ATOM     17  C   UNL     1       0.339   2.941  -3.238  1.00  0.00     0.171 C 
BRANCH  17  18
ATOM     18  C   UNL     1      -0.654   3.103  -2.107  1.00  0.00     0.141 C 
BRANCH  18  19
ATOM     19  C   UNL     1      -0.359   2.395  -0.811  1.00  0.00     0.306 C 
ATOM     20  O   UNL     1       0.119   2.951   0.170  1.00  0.00    -0.252 OA
BRANCH  19  21
ATOM     21  O   UNL     1      -0.723   1.091  -0.877  1.00  0.00    -0.469 OA
ATOM     22  C   UNL     1      -0.502   0.341   0.319  1.00  0.00     0.282 C 
ENDBRANCH  19  21
ENDBRANCH  18  19
ENDBRANCH  17  18
ENDBRANCH  14  17
ENDBRANCH  12  14
ENDBRANCH   7  12
ENDBRANCH   3   6
ENDBRANCH   1   2
BRANCH   1  23
ATOM     23  C   UNL     1       2.018   3.348   4.020  1.00  0.00     0.021 C 
BRANCH  23  24
ATOM     24  C   UNL     1       2.531   4.058   5.277  1.00  0.00     0.002 C 
BRANCH  24  25
ATOM     25  C   UNL     1       2.915   5.533   5.097  1.00  0.00     0.002 C 
BRANCH  25  26
ATOM     26  C   UNL     1       1.805   6.453   4.576  1.00  0.00     0.021 C 
BRANCH  26  27
ATOM     27  C   UNL     1       0.565   6.537   5.463  1.00  0.00     0.116 C 
BRANCH  27  28
ATOM     28  N   UNL     1       0.876   7.037   6.795  1.00  0.00    -0.352 N 
ATOM     29  C   UNL     1       0.388   8.130   7.465  1.00  0.00     0.251 C 
ATOM     30  H   UNL     1       1.541   6.508   7.292  1.00  0.00     0.163 HD
ATOM     31  O   UNL     1       0.934   8.517   8.493  1.00  0.00    -0.269 OA
BRANCH  29  32
ATOM     32  C   UNL     1      -0.792   8.854   6.947  1.00  0.00     0.039 A 
ATOM     33  C   UNL     1      -0.789  10.252   6.962  1.00  0.00     0.014 A 
ATOM     34  C   UNL     1      -1.907   8.160   6.470  1.00  0.00     0.014 A 
ATOM     35  C   UNL     1      -1.876  10.953   6.437  1.00  0.00     0.010 A 
ATOM     36  C   UNL     1      -2.957   8.858   5.881  1.00  0.00     0.010 A 
ATOM     37  C   UNL     1      -2.951  10.261   5.856  1.00  0.00    -0.014 A 
BRANCH  37  38
ATOM     38  C   UNL     1      -4.066  10.987   5.198  1.00  0.00     0.031 A 
ATOM     39  C   UNL     1      -5.464  10.887   5.737  1.00  0.00     0.074 A 
ATOM     40  C   UNL     1      -3.825  11.678   4.066  1.00  0.00     0.049 A 
ATOM     41  N   UNL     1      -6.574  11.393   5.259  1.00  0.00    -0.248 NA
ATOM     42  C   UNL     1      -5.645  10.091   6.960  1.00  0.00     0.031 C 
ATOM     43  C   UNL     1      -2.519  11.805   3.418  1.00  0.00     0.029 A 
ATOM     44  N   UNL     1      -4.670  12.390   3.253  1.00  0.00    -0.354 N 
ATOM     45  C   UNL     1      -7.582  10.966   6.113  1.00  0.00     0.074 A 
ATOM     46  C   UNL     1      -6.962  10.116   7.106  1.00  0.00     0.031 C 
ATOM     47  C   UNL     1      -2.645  12.566   2.320  1.00  0.00     0.029 A 
ATOM     48  C   UNL     1      -4.046  12.944   2.162  1.00  0.00     0.049 A 
ATOM     49  H   UNL     1      -5.632  12.495   3.435  1.00  0.00     0.167 HD
ATOM     50  C   UNL     1      -8.901  11.273   6.081  1.00  0.00     0.037 A 
ATOM     51  C   UNL     1      -4.549  13.663   1.141  1.00  0.00     0.037 A 
ATOM     52  C   UNL     1      -9.508  12.132   5.097  1.00  0.00     0.049 A 
ATOM     53  C   UNL     1      -6.019  13.978   1.121  1.00  0.00     0.074 A 
ATOM     54  C   UNL     1     -10.820  12.563   5.021  1.00  0.00     0.029 A 
ATOM     55  N   UNL     1      -8.842  12.682   4.010  1.00  0.00    -0.354 N 
ATOM     56  N   UNL     1      -6.950  13.638   1.978  1.00  0.00    -0.248 NA
ATOM     57  C   UNL     1      -6.508  14.782  -0.008  1.00  0.00     0.031 C 
ATOM     58  C   UNL     1     -10.964  13.323   3.854  1.00  0.00     0.029 A 
ATOM     59  C   UNL     1      -9.727  13.418   3.237  1.00  0.00     0.049 A 
ATOM     60  H   UNL     1      -7.884  12.567   3.817  1.00  0.00     0.167 HD
ATOM     61  C   UNL     1      -8.129  14.201   1.508  1.00  0.00     0.074 A 
ATOM     62  C   UNL     1      -7.790  14.922   0.298  1.00  0.00     0.031 C 
ATOM     63  C   UNL     1      -9.377  14.126   2.030  1.00  0.00     0.037 A 
BRANCH  50  64
ATOM     64  C   UNL     1      -9.781  10.667   7.138  1.00  0.00     0.064 A 
ATOM     65  C   UNL     1      -9.677  11.036   8.488  1.00  0.00     0.173 A 
ATOM     66  C   UNL     1     -10.761   9.724   6.792  1.00  0.00     0.173 A 
ATOM     67  F   UNL     1      -8.752  11.927   8.876  1.00  0.00    -0.203 F 
ATOM     68  C   UNL     1     -10.495  10.457   9.456  1.00  0.00     0.198 A 
ATOM     69  C   UNL     1     -11.600   9.173   7.757  1.00  0.00     0.198 A 
ATOM     70  F   UNL     1     -10.909   9.339   5.516  1.00  0.00    -0.203 F 
ATOM     71  F   UNL     1     -10.338  10.784  10.746  1.00  0.00    -0.200 F 
ATOM     72  C   UNL     1     -11.460   9.532   9.089  1.00  0.00     0.200 A 
ATOM     73  F   UNL     1     -12.543   8.290   7.398  1.00  0.00    -0.200 F 
ATOM     74  F   UNL     1     -12.250   8.980  10.020  1.00  0.00    -0.200 F 
ENDBRANCH  50  64
BRANCH  51  75
ATOM     75  C   UNL     1      -3.645  14.146   0.065  1.00  0.00     0.064 A 
ATOM     76  C   UNL     1      -3.350  15.509  -0.072  1.00  0.00     0.173 A 
ATOM     77  C   UNL     1      -3.045  13.254  -0.838  1.00  0.00     0.173 A 
ATOM     78  F   UNL     1      -3.914  16.402   0.754  1.00  0.00    -0.203 F 
ATOM     79  C   UNL     1      -2.503  15.964  -1.080  1.00  0.00     0.198 A 
ATOM     80  C   UNL     1      -2.175  13.708  -1.826  1.00  0.00     0.198 A 
ATOM     81  F   UNL     1      -3.289  11.939  -0.745  1.00  0.00    -0.203 F 
ATOM     82  F   UNL     1      -2.270  17.277  -1.214  1.00  0.00    -0.200 F 
ATOM     83  C   UNL     1      -1.910  15.063  -1.951  1.00  0.00     0.200 A 
ATOM     84  F   UNL     1      -1.590  12.831  -2.654  1.00  0.00    -0.200 F 
ATOM     85  F   UNL     1      -1.087  15.500  -2.914  1.00  0.00    -0.200 F 
ENDBRANCH  51  75
BRANCH  63  86
ATOM     86  C   UNL     1     -10.471  14.859   1.307  1.00  0.00     0.064 A 
ATOM     87  C   UNL     1     -10.956  14.421   0.066  1.00  0.00     0.173 A 
ATOM     88  C   UNL     1     -11.070  15.990   1.883  1.00  0.00     0.173 A 
ATOM     89  F   UNL     1     -10.407  13.355  -0.535  1.00  0.00    -0.203 F 
ATOM     90  C   UNL     1     -11.982  15.103  -0.583  1.00  0.00     0.198 A 
ATOM     91  C   UNL     1     -12.119  16.649   1.247  1.00  0.00     0.198 A 
ATOM     92  F   UNL     1     -10.649  16.448   3.072  1.00  0.00    -0.203 F 
ATOM     93  F   UNL     1     -12.395  14.695  -1.791  1.00  0.00    -0.200 F 
ATOM     94  C   UNL     1     -12.569  16.210   0.011  1.00  0.00     0.200 A 
ATOM     95  F   UNL     1     -12.694  17.709   1.831  1.00  0.00    -0.200 F 
ATOM     96  F   UNL     1     -13.563  16.858  -0.610  1.00  0.00    -0.200 F 
ENDBRANCH  63  86
ENDBRANCH  37  38
ENDBRANCH  29  32
ENDBRANCH  27  28
ENDBRANCH  26  27
ENDBRANCH  25  26
ENDBRANCH  24  25
ENDBRANCH  23  24
ENDBRANCH   1  23
TORSDOF 19
