REMARK SMILES O=C(Cn1c2ccccc2c(=O)c2ccccc21)N[C@@H](Cc1ccccc1)C(=O)NCCCCCCNC(=O)c1ccc(-c2c3nc(c(-c4c(F)c(F)c(F)c(F)c4F)c4ccc([nH]4)c(-c4c(F)c(F)c(F)c(F)c4F)c4nc(c(-c5c(F)c(F)c(F)c(F)c5F)c5ccc2[nH]5)C=C4)C=C3)cc1
REMARK SMILES IDX 33 1 32 2 31 3 30 4 28 5 29 6 20 8 19 9 1 10 2 11 3 13 4 14
REMARK SMILES IDX 5 15 18 16 6 17 10 18 13 19 17 20 7 21 9 22 11 23 14 24
REMARK SMILES IDX 16 25 8 26 12 27 15 28 21 29 22 30 23 31 27 32 24 33 26 34
REMARK SMILES IDX 25 35 34 36 35 37 36 38 37 39 38 40 39 42 40 43 41 44 102 45
REMARK SMILES IDX 42 46 101 47 43 48 44 49 45 50 95 51 46 52 100 53 94 54
REMARK SMILES IDX 96 55 47 56 99 57 93 58 92 59 48 61 80 62 60 63 79 64 61 65
REMARK SMILES IDX 64 66 78 67 97 68 62 69 63 70 77 72 98 73 65 74 49 75 50 76
REMARK SMILES IDX 58 77 51 78 52 79 56 80 59 81 53 82 54 83 57 84 55 85 81 86
REMARK SMILES IDX 82 87 90 88 83 89 84 90 88 91 91 92 85 93 86 94 89 95 87 96
REMARK SMILES IDX 66 97 67 98 75 99 68 100 69 101 73 102 76 103 70 104 71 105
REMARK SMILES IDX 74 106 72 107
REMARK H PARENT 30 7 19 12 37 41 96 60 64 71
REMARK Flexibility Score: inf
ROOT
ATOM      1  C   UNL     1       6.702   0.617  -5.212  1.00  0.00     0.002 C 
ENDROOT
BRANCH   1   2
ATOM      2  C   UNL     1       5.910   0.599  -3.907  1.00  0.00     0.021 C 
BRANCH   2   3
ATOM      3  C   UNL     1       4.878   1.701  -3.735  1.00  0.00     0.116 C 
BRANCH   3   4
ATOM      4  N   UNL     1       3.537   1.345  -4.119  1.00  0.00    -0.354 N 
ATOM      5  C   UNL     1       2.373   1.525  -3.425  1.00  0.00     0.242 C 
ATOM      6  O   UNL     1       1.326   1.446  -4.078  1.00  0.00    -0.273 OA
ATOM      7  H   UNL     1       3.445   0.914  -5.000  1.00  0.00     0.163 HD
BRANCH   5   8
ATOM      8  C   UNL     1       2.326   1.835  -1.902  1.00  0.00     0.175 C 
BRANCH   8   9
ATOM      9  N   UNL     1       2.969   0.803  -1.070  1.00  0.00    -0.342 N 
ATOM     10  O   UNL     1       1.041   0.198   0.007  1.00  0.00    -0.273 OA
ATOM     11  C   UNL     1       2.257   0.067  -0.138  1.00  0.00     0.240 C 
ATOM     12  H   UNL     1       3.933   0.632  -1.179  1.00  0.00     0.164 HD
BRANCH  11  13
ATOM     13  C   UNL     1       3.063  -0.795   0.850  1.00  0.00     0.222 C 
BRANCH  13  14
ATOM     14  N   UNL     1       3.855  -1.886   0.233  1.00  0.00    -0.331 N 
ATOM     15  C   UNL     1       5.138  -1.599  -0.292  1.00  0.00     0.053 A 
ATOM     16  C   UNL     1       3.355  -3.216   0.243  1.00  0.00     0.053 A 
ATOM     17  C   UNL     1       5.886  -0.459   0.048  1.00  0.00     0.027 A 
ATOM     18  C   UNL     1       5.764  -2.520  -1.152  1.00  0.00     0.046 A 
ATOM     19  C   UNL     1       3.983  -4.201  -0.551  1.00  0.00     0.046 A 
ATOM     20  C   UNL     1       2.321  -3.674   1.078  1.00  0.00     0.027 A 
ATOM     21  C   UNL     1       7.173  -0.244  -0.460  1.00  0.00     0.002 A 
ATOM     22  C   UNL     1       7.037  -2.297  -1.693  1.00  0.00     0.014 A 
ATOM     23  C   UNL     1       5.099  -3.806  -1.430  1.00  0.00     0.197 A 
ATOM     24  C   UNL     1       3.633  -5.559  -0.496  1.00  0.00     0.014 A 
ATOM     25  C   UNL     1       1.978  -5.036   1.154  1.00  0.00     0.002 A 
ATOM     26  C   UNL     1       7.747  -1.160  -1.333  1.00  0.00     0.001 A 
ATOM     27  O   UNL     1       5.508  -4.547  -2.317  1.00  0.00    -0.288 OA
ATOM     28  C   UNL     1       2.638  -5.979   0.375  1.00  0.00     0.001 A 
ENDBRANCH  13  14
ENDBRANCH  11  13
ENDBRANCH   8   9
BRANCH   8  29
ATOM     29  C   UNL     1       2.615   3.303  -1.468  1.00  0.00     0.070 C 
BRANCH  29  30
ATOM     30  C   UNL     1       4.021   3.873  -1.478  1.00  0.00    -0.045 A 
ATOM     31  C   UNL     1       4.307   5.024  -2.229  1.00  0.00     0.004 A 
ATOM     32  C   UNL     1       5.065   3.295  -0.739  1.00  0.00     0.004 A 
ATOM     33  C   UNL     1       5.612   5.517  -2.321  1.00  0.00     0.000 A 
ATOM     34  C   UNL     1       6.378   3.759  -0.867  1.00  0.00     0.000 A 
ATOM     35  C   UNL     1       6.654   4.864  -1.667  1.00  0.00     0.000 A 
ENDBRANCH  29  30
ENDBRANCH   8  29
ENDBRANCH   5   8
ENDBRANCH   3   4
ENDBRANCH   2   3
ENDBRANCH   1   2
BRANCH   1  36
ATOM     36  C   UNL     1       7.527   1.883  -5.485  1.00  0.00     0.002 C 
BRANCH  36  37
ATOM     37  C   UNL     1       8.488   2.331  -4.380  1.00  0.00     0.021 C 
BRANCH  37  38
ATOM     38  C   UNL     1       9.532   1.307  -3.946  1.00  0.00     0.116 C 
BRANCH  38  39
ATOM     39  N   UNL     1      10.463   0.938  -5.000  1.00  0.00    -0.352 N 
ATOM     40  C   UNL     1      11.836   0.989  -5.046  1.00  0.00     0.251 C 
ATOM     41  H   UNL     1      10.038   0.594  -5.819  1.00  0.00     0.163 HD
ATOM     42  O   UNL     1      12.421   0.716  -6.092  1.00  0.00    -0.269 OA
BRANCH  40  43
ATOM     43  C   UNL     1      12.623   1.414  -3.865  1.00  0.00     0.039 A 
ATOM     44  C   UNL     1      12.309   0.971  -2.580  1.00  0.00     0.014 A 
ATOM     45  C   UNL     1      13.703   2.284  -4.051  1.00  0.00     0.014 A 
ATOM     46  C   UNL     1      12.935   1.548  -1.477  1.00  0.00     0.010 A 
ATOM     47  C   UNL     1      14.396   2.789  -2.946  1.00  0.00     0.010 A 
ATOM     48  C   UNL     1      13.973   2.480  -1.644  1.00  0.00    -0.014 A 
BRANCH  48  49
ATOM     49  C   UNL     1      14.571   3.139  -0.449  1.00  0.00     0.031 A 
ATOM     50  C   UNL     1      14.455   4.629  -0.252  1.00  0.00     0.074 A 
ATOM     51  C   UNL     1      15.171   2.390   0.496  1.00  0.00     0.049 A 
ATOM     52  N   UNL     1      14.857   5.364   0.757  1.00  0.00    -0.248 NA
ATOM     53  C   UNL     1      13.813   5.400  -1.327  1.00  0.00     0.031 C 
ATOM     54  C   UNL     1      15.362   0.942   0.422  1.00  0.00     0.029 A 
ATOM     55  N   UNL     1      15.712   2.735   1.711  1.00  0.00    -0.354 N 
ATOM     56  C   UNL     1      14.536   6.675   0.428  1.00  0.00     0.074 A 
ATOM     57  C   UNL     1      13.942   6.645  -0.889  1.00  0.00     0.031 C 
ATOM     58  C   UNL     1      15.926   0.514   1.561  1.00  0.00     0.029 A 
ATOM     59  C   UNL     1      16.192   1.663   2.423  1.00  0.00     0.049 A 
ATOM     60  H   UNL     1      15.751   3.662   2.040  1.00  0.00     0.167 HD
ATOM     61  C   UNL     1      14.703   7.799   1.165  1.00  0.00     0.037 A 
ATOM     62  C   UNL     1      16.791   1.605   3.628  1.00  0.00     0.037 A 
ATOM     63  C   UNL     1      15.263   7.825   2.491  1.00  0.00     0.049 A 
ATOM     64  C   UNL     1      16.996   2.870   4.415  1.00  0.00     0.074 A 
ATOM     65  C   UNL     1      15.401   8.906   3.344  1.00  0.00     0.029 A 
ATOM     66  N   UNL     1      15.787   6.724   3.152  1.00  0.00    -0.354 N 
ATOM     67  N   UNL     1      16.624   4.092   4.120  1.00  0.00    -0.248 NA
ATOM     68  C   UNL     1      17.708   2.752   5.695  1.00  0.00     0.031 C 
ATOM     69  C   UNL     1      16.066   8.473   4.494  1.00  0.00     0.029 A 
ATOM     70  C   UNL     1      16.292   7.110   4.383  1.00  0.00     0.049 A 
ATOM     71  H   UNL     1      15.799   5.805   2.799  1.00  0.00     0.167 HD
ATOM     72  C   UNL     1      17.054   4.887   5.173  1.00  0.00     0.074 A 
ATOM     73  C   UNL     1      17.692   4.006   6.129  1.00  0.00     0.031 C 
ATOM     74  C   UNL     1      16.935   6.228   5.325  1.00  0.00     0.037 A 
BRANCH  61  75
ATOM     75  C   UNL     1      14.279   9.108   0.560  1.00  0.00     0.064 A 
ATOM     76  C   UNL     1      12.928   9.429   0.364  1.00  0.00     0.173 A 
ATOM     77  C   UNL     1      15.237  10.080   0.231  1.00  0.00     0.173 A 
ATOM     78  F   UNL     1      11.972   8.534   0.655  1.00  0.00    -0.203 F 
ATOM     79  C   UNL     1      12.553  10.663  -0.161  1.00  0.00     0.198 A 
ATOM     80  C   UNL     1      14.857  11.325  -0.265  1.00  0.00     0.198 A 
ATOM     81  F   UNL     1      16.543   9.830   0.408  1.00  0.00    -0.203 F 
ATOM     82  F   UNL     1      11.258  10.930  -0.380  1.00  0.00    -0.200 F 
ATOM     83  C   UNL     1      13.517  11.613  -0.467  1.00  0.00     0.200 A 
ATOM     84  F   UNL     1      15.789  12.247  -0.543  1.00  0.00    -0.200 F 
ATOM     85  F   UNL     1      13.152  12.804  -0.961  1.00  0.00    -0.200 F 
ENDBRANCH  61  75
BRANCH  62  86
ATOM     86  C   UNL     1      17.230   0.286   4.154  1.00  0.00     0.064 A 
ATOM     87  C   UNL     1      16.570  -0.316   5.233  1.00  0.00     0.173 A 
ATOM     88  C   UNL     1      18.275  -0.426   3.547  1.00  0.00     0.173 A 
ATOM     89  F   UNL     1      15.578   0.334   5.859  1.00  0.00    -0.203 F 
ATOM     90  C   UNL     1      16.934  -1.585   5.679  1.00  0.00     0.198 A 
ATOM     91  C   UNL     1      18.619  -1.706   3.975  1.00  0.00     0.198 A 
ATOM     92  F   UNL     1      18.935   0.107   2.508  1.00  0.00    -0.203 F 
ATOM     93  F   UNL     1      16.298  -2.133   6.724  1.00  0.00    -0.200 F 
ATOM     94  C   UNL     1      17.948  -2.284   5.042  1.00  0.00     0.200 A 
ATOM     95  F   UNL     1      19.585  -2.385   3.342  1.00  0.00    -0.200 F 
ATOM     96  F   UNL     1      18.278  -3.516   5.454  1.00  0.00    -0.200 F 
ENDBRANCH  62  86
BRANCH  74  97
ATOM     97  C   UNL     1      17.517   6.852   6.560  1.00  0.00     0.064 A 
ATOM     98  C   UNL     1      18.903   7.010   6.708  1.00  0.00     0.173 A 
ATOM     99  C   UNL     1      16.683   7.402   7.546  1.00  0.00     0.173 A 
ATOM    100  F   UNL     1      19.742   6.490   5.800  1.00  0.00    -0.203 F 
ATOM    101  C   UNL     1      19.432   7.699   7.796  1.00  0.00     0.198 A 
ATOM    102  C   UNL     1      17.215   8.114   8.617  1.00  0.00     0.198 A 
ATOM    103  F   UNL     1      15.351   7.285   7.446  1.00  0.00    -0.203 F 
ATOM    104  F   UNL     1      20.760   7.824   7.926  1.00  0.00    -0.200 F 
ATOM    105  C   UNL     1      18.588   8.263   8.741  1.00  0.00     0.200 A 
ATOM    106  F   UNL     1      16.396   8.675   9.519  1.00  0.00    -0.200 F 
ATOM    107  F   UNL     1      19.098   8.954   9.770  1.00  0.00    -0.200 F 
ENDBRANCH  74  97
ENDBRANCH  48  49
ENDBRANCH  40  43
ENDBRANCH  38  39
ENDBRANCH  37  38
ENDBRANCH  36  37
ENDBRANCH   1  36
TORSDOF 18
