REMARK SMILES COc1ccc([C@@H](C(=O)NCCCCCCNC(=O)c2ccc(-c3c4nc(c(-c5c(F)c(F)c(F)c(F)c5F)c5ccc([nH]5)c(-c5c(F)c(F)c(F)c(F)c5F)c5nc(c(-c6c(F)c(F)c(F)c(F)c6F)c6ccc3[nH]6)C=C5)C=C4)cc2)[NH+]2CCC(C(N)=O)CC2)c(C)c1
REMARK SMILES IDX 13 1 12 2 11 3 10 4 8 5 9 6 7 8 6 9 3 10 4 11 94 12 5 13
REMARK SMILES IDX 92 14 93 15 2 16 1 17 83 18 84 19 91 20 85 22 90 23 86 24
REMARK SMILES IDX 87 25 88 26 89 27 14 30 15 31 16 32 17 33 18 34 19 36 20 37
REMARK SMILES IDX 21 38 82 39 22 40 81 41 23 42 24 43 25 44 75 45 26 46 80 47
REMARK SMILES IDX 74 48 76 49 27 50 79 51 73 52 72 53 28 55 60 56 40 57 59 58
REMARK SMILES IDX 41 59 44 60 58 61 77 62 42 63 43 64 57 66 78 67 45 68 29 69
REMARK SMILES IDX 30 70 38 71 31 72 32 73 36 74 39 75 33 76 34 77 37 78 35 79
REMARK SMILES IDX 61 80 62 81 70 82 63 83 64 84 68 85 71 86 65 87 66 88 69 89
REMARK SMILES IDX 67 90 46 91 47 92 55 93 48 94 49 95 53 96 56 97 50 98 51 99
REMARK SMILES IDX 54 100 52 101
REMARK H PARENT 10 7 83 21 88 28 88 29 17 35 76 54 44 65
REMARK Flexibility Score: inf
ROOT
ATOM      1  C   UNL     1       2.685   6.722   3.658  1.00  0.00     0.002 C 
ENDROOT
BRANCH   1   2
ATOM      2  C   UNL     1       2.807   5.193   3.571  1.00  0.00     0.021 C 
BRANCH   2   3
ATOM      3  C   UNL     1       3.265   4.490   4.850  1.00  0.00     0.116 C 
BRANCH   3   4
ATOM      4  N   UNL     1       2.301   4.605   5.924  1.00  0.00    -0.351 N 
ATOM      5  C   UNL     1       1.521   3.647   6.521  1.00  0.00     0.283 C 
ATOM      6  O   UNL     1       0.848   4.031   7.482  1.00  0.00    -0.268 OA
ATOM      7  H   UNL     1       2.187   5.515   6.282  1.00  0.00     0.163 HD
BRANCH   5   8
ATOM      8  C   UNL     1       1.562   2.170   6.014  1.00  0.00     0.305 C 
BRANCH   8   9
ATOM      9  C   UNL     1       1.190   1.972   4.533  1.00  0.00     0.022 A 
ATOM     10  C   UNL     1       0.728   1.393   1.790  1.00  0.00     0.119 A 
ATOM     11  C   UNL     1       1.867   0.910   2.412  1.00  0.00     0.047 A 
ATOM     12  C   UNL     1      -0.160   2.184   2.520  1.00  0.00     0.050 A 
ATOM     13  C   UNL     1       2.087   1.188   3.763  1.00  0.00     0.014 A 
ATOM     14  C   UNL     1       0.050   2.490   3.883  1.00  0.00    -0.038 A 
ATOM     15  C   UNL     1      -1.023   3.323   4.532  1.00  0.00     0.045 C 
BRANCH  10  16
ATOM     16  O   UNL     1       0.388   1.186   0.482  1.00  0.00    -0.497 OA
ATOM     17  C   UNL     1       0.942   0.024  -0.124  1.00  0.00     0.278 C 
ENDBRANCH  10  16
ENDBRANCH   8   9
BRANCH   8  18
ATOM     18  N   UNL     1       0.930   1.202   6.971  1.00  0.00    -0.321 N 
ATOM     19  C   UNL     1      -0.526   1.322   7.092  1.00  0.00     0.263 C 
ATOM     20  C   UNL     1       1.347  -0.185   6.721  1.00  0.00     0.263 C 
ATOM     21  H   UNL     1       1.292   1.475   7.884  1.00  0.00     0.349 HD
ATOM     22  C   UNL     1      -1.087   0.399   8.177  1.00  0.00     0.075 C 
ATOM     23  C   UNL     1       0.815  -1.153   7.781  1.00  0.00     0.075 C 
ATOM     24  C   UNL     1      -0.705  -1.048   7.879  1.00  0.00     0.089 C 
BRANCH  24  25
ATOM     25  C   UNL     1      -1.252  -1.970   8.949  1.00  0.00     0.220 C 
ATOM     26  N   UNL     1      -2.344  -2.697   8.573  1.00  0.00    -0.369 N 
ATOM     27  O   UNL     1      -0.792  -2.070  10.080  1.00  0.00    -0.275 OA
ATOM     28  H   UNL     1      -2.704  -2.608   7.661  1.00  0.00     0.159 HD
ATOM     29  H   UNL     1      -2.771  -3.311   9.213  1.00  0.00     0.159 HD
ENDBRANCH  24  25
ENDBRANCH   8  18
ENDBRANCH   5   8
ENDBRANCH   3   4
ENDBRANCH   2   3
ENDBRANCH   1   2
BRANCH   1  30
ATOM     30  C   UNL     1       3.894   7.483   4.226  1.00  0.00     0.002 C 
BRANCH  30  31
ATOM     31  C   UNL     1       5.255   7.134   3.620  1.00  0.00     0.021 C 
BRANCH  31  32
ATOM     32  C   UNL     1       5.436   7.592   2.179  1.00  0.00     0.116 C 
BRANCH  32  33
ATOM     33  N   UNL     1       6.264   8.786   2.035  1.00  0.00    -0.352 N 
ATOM     34  C   UNL     1       6.572   9.482   0.877  1.00  0.00     0.251 C 
ATOM     35  H   UNL     1       6.652   9.142   2.867  1.00  0.00     0.163 HD
ATOM     36  O   UNL     1       7.262  10.485   0.902  1.00  0.00    -0.269 OA
BRANCH  34  37
ATOM     37  C   UNL     1       5.943   9.034  -0.386  1.00  0.00     0.039 A 
ATOM     38  C   UNL     1       5.135   9.940  -1.079  1.00  0.00     0.014 A 
ATOM     39  C   UNL     1       5.967   7.686  -0.737  1.00  0.00     0.014 A 
ATOM     40  C   UNL     1       4.176   9.451  -1.962  1.00  0.00     0.010 A 
ATOM     41  C   UNL     1       4.960   7.193  -1.544  1.00  0.00     0.010 A 
ATOM     42  C   UNL     1       4.021   8.070  -2.099  1.00  0.00    -0.014 A 
BRANCH  42  43
ATOM     43  C   UNL     1       2.842   7.462  -2.705  1.00  0.00     0.031 A 
ATOM     44  C   UNL     1       2.892   6.915  -4.075  1.00  0.00     0.074 A 
ATOM     45  C   UNL     1       1.699   7.362  -1.990  1.00  0.00     0.049 A 
ATOM     46  N   UNL     1       1.857   6.767  -4.833  1.00  0.00    -0.248 NA
ATOM     47  C   UNL     1       4.137   6.517  -4.715  1.00  0.00     0.031 C 
ATOM     48  C   UNL     1       0.496   6.610  -2.341  1.00  0.00     0.029 A 
ATOM     49  N   UNL     1       1.313   8.135  -0.882  1.00  0.00    -0.354 N 
ATOM     50  C   UNL     1       2.240   6.047  -5.939  1.00  0.00     0.074 A 
ATOM     51  C   UNL     1       3.681   5.955  -5.840  1.00  0.00     0.031 C 
ATOM     52  C   UNL     1      -0.554   7.171  -1.723  1.00  0.00     0.029 A 
ATOM     53  C   UNL     1      -0.073   8.369  -1.060  1.00  0.00     0.049 A 
ATOM     54  H   UNL     1       1.883   8.446  -0.141  1.00  0.00     0.167 HD
ATOM     55  C   UNL     1       1.284   5.517  -6.758  1.00  0.00     0.037 A 
ATOM     56  C   UNL     1      -0.550   9.632  -1.256  1.00  0.00     0.037 A 
ATOM     57  C   UNL     1      -0.063   5.906  -6.344  1.00  0.00     0.049 A 
ATOM     58  C   UNL     1      -1.272   9.845  -2.570  1.00  0.00     0.074 A 
ATOM     59  C   UNL     1      -1.079   5.288  -5.633  1.00  0.00     0.029 A 
ATOM     60  N   UNL     1      -0.422   7.239  -6.435  1.00  0.00    -0.354 N 
ATOM     61  N   UNL     1      -1.383   8.947  -3.509  1.00  0.00    -0.248 NA
ATOM     62  C   UNL     1      -1.833  11.138  -2.968  1.00  0.00     0.031 C 
ATOM     63  C   UNL     1      -2.061   6.269  -5.312  1.00  0.00     0.029 A 
ATOM     64  C   UNL     1      -1.637   7.480  -5.824  1.00  0.00     0.049 A 
ATOM     65  H   UNL     1       0.120   7.929  -6.879  1.00  0.00     0.167 HD
ATOM     66  C   UNL     1      -1.956   9.518  -4.614  1.00  0.00     0.074 A 
ATOM     67  C   UNL     1      -2.217  10.891  -4.231  1.00  0.00     0.031 C 
ATOM     68  C   UNL     1      -2.139   8.840  -5.784  1.00  0.00     0.037 A 
BRANCH  55  69
ATOM     69  C   UNL     1       1.558   4.463  -7.806  1.00  0.00     0.064 A 
ATOM     70  C   UNL     1       0.580   3.501  -8.139  1.00  0.00     0.173 A 
ATOM     71  C   UNL     1       2.780   4.317  -8.487  1.00  0.00     0.173 A 
ATOM     72  F   UNL     1      -0.670   3.578  -7.665  1.00  0.00    -0.203 F 
ATOM     73  C   UNL     1       0.849   2.413  -8.973  1.00  0.00     0.198 A 
ATOM     74  C   UNL     1       3.072   3.196  -9.271  1.00  0.00     0.198 A 
ATOM     75  F   UNL     1       3.709   5.281  -8.462  1.00  0.00    -0.203 F 
ATOM     76  F   UNL     1      -0.120   1.527  -9.243  1.00  0.00    -0.200 F 
ATOM     77  C   UNL     1       2.110   2.235  -9.502  1.00  0.00     0.200 A 
ATOM     78  F   UNL     1       4.296   3.056  -9.802  1.00  0.00    -0.200 F 
ATOM     79  F   UNL     1       2.387   1.161 -10.253  1.00  0.00    -0.200 F 
ENDBRANCH  55  69
BRANCH  56  80
ATOM     80  C   UNL     1       0.249  10.666  -0.546  1.00  0.00     0.064 A 
ATOM     81  C   UNL     1       0.354  10.588   0.857  1.00  0.00     0.173 A 
ATOM     82  C   UNL     1       1.170  11.475  -1.220  1.00  0.00     0.173 A 
ATOM     83  F   UNL     1      -0.504   9.825   1.553  1.00  0.00    -0.203 F 
ATOM     84  C   UNL     1       1.409  11.190   1.538  1.00  0.00     0.198 A 
ATOM     85  C   UNL     1       2.211  12.097  -0.531  1.00  0.00     0.198 A 
ATOM     86  F   UNL     1       1.137  11.574  -2.557  1.00  0.00    -0.203 F 
ATOM     87  F   UNL     1       1.553  10.993   2.856  1.00  0.00    -0.200 F 
ATOM     88  C   UNL     1       2.352  11.923   0.839  1.00  0.00     0.200 A 
ATOM     89  F   UNL     1       3.135  12.790  -1.211  1.00  0.00    -0.200 F 
ATOM     90  F   UNL     1       3.417  12.428   1.476  1.00  0.00    -0.200 F 
ENDBRANCH  56  80
BRANCH  68  91
ATOM     91  C   UNL     1      -2.799   9.431  -6.996  1.00  0.00     0.064 A 
ATOM     92  C   UNL     1      -3.976  10.193  -6.915  1.00  0.00     0.173 A 
ATOM     93  C   UNL     1      -2.329   9.154  -8.297  1.00  0.00     0.173 A 
ATOM     94  F   UNL     1      -4.549  10.447  -5.729  1.00  0.00    -0.203 F 
ATOM     95  C   UNL     1      -4.605  10.695  -8.056  1.00  0.00     0.198 A 
ATOM     96  C   UNL     1      -2.987   9.613  -9.436  1.00  0.00     0.198 A 
ATOM     97  F   UNL     1      -1.205   8.451  -8.500  1.00  0.00    -0.203 F 
ATOM     98  F   UNL     1      -5.694  11.467  -7.930  1.00  0.00    -0.200 F 
ATOM     99  C   UNL     1      -4.116  10.398  -9.316  1.00  0.00     0.200 A 
ATOM    100  F   UNL     1      -2.515   9.295 -10.650  1.00  0.00    -0.200 F 
ATOM    101  F   UNL     1      -4.730  10.866 -10.410  1.00  0.00    -0.200 F 
ENDBRANCH  68  91
ENDBRANCH  42  43
ENDBRANCH  34  37
ENDBRANCH  32  33
ENDBRANCH  31  32
ENDBRANCH  30  31
ENDBRANCH   1  30
TORSDOF 17
