REMARK SMILES CC[C@@]1(C(=O)NCCCCCCNC(=O)c2ccc(-c3c4nc(c(-c5c(F)c(F)c(F)c(F)c5F)c5ccc([nH]5)c(-c5c(F)c(F)c(F)c(F)c5F)c5nc(c(-c6c(F)c(F)c(F)c(F)c6F)c6ccc3[nH]6)C=C5)C=C4)cc2)CCC[N@@H+](Cc2ccc(C3CC3)cc2)C1
REMARK SMILES IDX 9 1 8 2 7 3 6 4 4 5 5 6 3 8 79 9 93 10 80 11 82 12 81 13
REMARK SMILES IDX 2 15 1 16 83 17 84 18 85 19 92 20 86 21 91 22 87 23 88 24
REMARK SMILES IDX 89 25 90 26 10 27 11 28 12 29 13 30 14 31 15 33 16 34 17 35
REMARK SMILES IDX 78 36 18 37 77 38 19 39 20 40 21 41 71 42 22 43 76 44 70 45
REMARK SMILES IDX 72 46 23 47 75 48 69 49 68 50 24 52 56 53 36 54 55 55 37 56
REMARK SMILES IDX 40 57 54 58 73 59 38 60 39 61 53 63 74 64 41 65 25 66 26 67
REMARK SMILES IDX 34 68 27 69 28 70 32 71 35 72 29 73 30 74 33 75 31 76 57 77
REMARK SMILES IDX 58 78 66 79 59 80 60 81 64 82 67 83 61 84 62 85 65 86 63 87
REMARK SMILES IDX 42 88 43 89 51 90 44 91 45 92 49 93 52 94 46 95 47 96 50 97
REMARK SMILES IDX 48 98
REMARK H PARENT 6 7 82 14 13 32 72 51 40 62
REMARK Flexibility Score: inf
ROOT
ATOM      1  C   UNL     1       0.516   2.547   2.156  1.00  0.00     0.002 C 
ENDROOT
BRANCH   1   2
ATOM      2  C   UNL     1       1.089   1.419   1.296  1.00  0.00     0.021 C 
BRANCH   2   3
ATOM      3  C   UNL     1       0.138   0.238   1.093  1.00  0.00     0.116 C 
BRANCH   3   4
ATOM      4  N   UNL     1      -0.444   0.220  -0.230  1.00  0.00    -0.355 N 
ATOM      5  C   UNL     1      -0.215  -0.516  -1.345  1.00  0.00     0.231 C 
ATOM      6  O   UNL     1      -0.840  -0.117  -2.339  1.00  0.00    -0.274 OA
ATOM      7  H   UNL     1      -1.160   0.886  -0.347  1.00  0.00     0.163 HD
BRANCH   5   8
ATOM      8  C   UNL     1       0.796  -1.696  -1.476  1.00  0.00     0.098 C 
ATOM      9  C   UNL     1       0.853  -2.718  -0.308  1.00  0.00     0.028 C 
ATOM     10  C   UNL     1       2.180  -1.079  -1.761  1.00  0.00     0.279 C 
ATOM     11  C   UNL     1       2.042  -2.644   0.672  1.00  0.00     0.063 C 
ATOM     12  N   UNL     1       2.797  -0.602  -0.527  1.00  0.00    -0.330 N 
ATOM     13  C   UNL     1       3.216  -1.736   0.291  1.00  0.00     0.262 C 
ATOM     14  H   UNL     1       2.096  -0.097   0.015  1.00  0.00     0.348 HD
BRANCH   8  15
ATOM     15  C   UNL     1       0.405  -2.494  -2.780  1.00  0.00     0.019 C 
ATOM     16  C   UNL     1      -1.028  -3.027  -2.826  1.00  0.00     0.005 C 
ENDBRANCH   8  15
BRANCH  12  17
ATOM     17  C   UNL     1       3.828   0.422  -0.752  1.00  0.00     0.299 C 
BRANCH  17  18
ATOM     18  C   UNL     1       5.207  -0.078  -1.101  1.00  0.00     0.006 A 
ATOM     19  C   UNL     1       6.221  -0.040  -0.138  1.00  0.00     0.010 A 
ATOM     20  C   UNL     1       5.489  -0.629  -2.351  1.00  0.00     0.010 A 
ATOM     21  C   UNL     1       7.468  -0.607  -0.403  1.00  0.00     0.004 A 
ATOM     22  C   UNL     1       6.738  -1.204  -2.602  1.00  0.00     0.004 A 
ATOM     23  C   UNL     1       7.750  -1.235  -1.627  1.00  0.00    -0.045 A 
BRANCH  23  24
ATOM     24  C   UNL     1       9.084  -1.924  -1.823  1.00  0.00     0.019 C 
ATOM     25  C   UNL     1       9.204  -3.151  -2.694  1.00  0.00     0.009 C 
ATOM     26  C   UNL     1       9.818  -1.853  -3.136  1.00  0.00     0.009 C 
ENDBRANCH  23  24
ENDBRANCH  17  18
ENDBRANCH  12  17
ENDBRANCH   5   8
ENDBRANCH   3   4
ENDBRANCH   2   3
ENDBRANCH   1   2
BRANCH   1  27
ATOM     27  C   UNL     1       0.178   2.162   3.602  1.00  0.00     0.002 C 
BRANCH  27  28
ATOM     28  C   UNL     1       1.326   1.557   4.418  1.00  0.00     0.021 C 
BRANCH  28  29
ATOM     29  C   UNL     1       2.575   2.430   4.527  1.00  0.00     0.116 C 
BRANCH  29  30
ATOM     30  N   UNL     1       2.278   3.741   5.083  1.00  0.00    -0.352 N 
ATOM     31  C   UNL     1       2.575   4.281   6.305  1.00  0.00     0.251 C 
ATOM     32  H   UNL     1       1.780   4.340   4.480  1.00  0.00     0.163 HD
ATOM     33  O   UNL     1       2.012   5.314   6.668  1.00  0.00    -0.269 OA
BRANCH  31  34
ATOM     34  C   UNL     1       3.566   3.646   7.199  1.00  0.00     0.039 A 
ATOM     35  C   UNL     1       3.306   3.607   8.573  1.00  0.00     0.014 A 
ATOM     36  C   UNL     1       4.779   3.160   6.705  1.00  0.00     0.014 A 
ATOM     37  C   UNL     1       4.239   3.038   9.444  1.00  0.00     0.010 A 
ATOM     38  C   UNL     1       5.681   2.535   7.564  1.00  0.00     0.010 A 
ATOM     39  C   UNL     1       5.423   2.476   8.943  1.00  0.00    -0.014 A 
BRANCH  39  40
ATOM     40  C   UNL     1       6.407   1.827   9.844  1.00  0.00     0.031 A 
ATOM     41  C   UNL     1       7.779   2.415  10.021  1.00  0.00     0.074 A 
ATOM     42  C   UNL     1       6.092   0.662  10.440  1.00  0.00     0.049 A 
ATOM     43  N   UNL     1       8.798   1.952  10.700  1.00  0.00    -0.248 NA
ATOM     44  C   UNL     1       8.050   3.677   9.316  1.00  0.00     0.031 C 
ATOM     45  C   UNL     1       4.815  -0.038  10.299  1.00  0.00     0.029 A 
ATOM     46  N   UNL     1       6.828  -0.149  11.267  1.00  0.00    -0.354 N 
ATOM     47  C   UNL     1       9.836   2.849  10.482  1.00  0.00     0.074 A 
ATOM     48  C   UNL     1       9.336   3.861   9.576  1.00  0.00     0.031 C 
ATOM     49  C   UNL     1       4.853  -1.169  11.020  1.00  0.00     0.029 A 
ATOM     50  C   UNL     1       6.166  -1.290  11.648  1.00  0.00     0.049 A 
ATOM     51  H   UNL     1       7.743   0.067  11.559  1.00  0.00     0.167 HD
ATOM     52  C   UNL     1      11.086   2.838  11.005  1.00  0.00     0.037 A 
ATOM     53  C   UNL     1       6.574  -2.322  12.409  1.00  0.00     0.037 A 
ATOM     54  C   UNL     1      11.566   1.848  11.934  1.00  0.00     0.049 A 
ATOM     55  C   UNL     1       7.954  -2.296  13.006  1.00  0.00     0.074 A 
ATOM     56  C   UNL     1      12.781   1.800  12.594  1.00  0.00     0.029 A 
ATOM     57  N   UNL     1      10.852   0.727  12.331  1.00  0.00    -0.354 N 
ATOM     58  N   UNL     1       8.899  -1.400  12.862  1.00  0.00    -0.248 NA
ATOM     59  C   UNL     1       8.320  -3.420  13.878  1.00  0.00     0.031 C 
ATOM     60  C   UNL     1      12.821   0.626  13.354  1.00  0.00     0.029 A 
ATOM     61  C   UNL     1      11.612  -0.034  13.205  1.00  0.00     0.049 A 
ATOM     62  H   UNL     1       9.940   0.504  12.034  1.00  0.00     0.167 HD
ATOM     63  C   UNL     1       9.963  -1.839  13.637  1.00  0.00     0.074 A 
ATOM     64  C   UNL     1       9.541  -3.075  14.262  1.00  0.00     0.031 C 
ATOM     65  C   UNL     1      11.180  -1.267  13.814  1.00  0.00     0.037 A 
BRANCH  52  66
ATOM     66  C   UNL     1      12.025   3.929  10.576  1.00  0.00     0.064 A 
ATOM     67  C   UNL     1      11.842   5.262  10.973  1.00  0.00     0.173 A 
ATOM     68  C   UNL     1      13.134   3.633   9.769  1.00  0.00     0.173 A 
ATOM     69  F   UNL     1      10.792   5.600  11.737  1.00  0.00    -0.203 F 
ATOM     70  C   UNL     1      12.711   6.263  10.548  1.00  0.00     0.198 A 
ATOM     71  C   UNL     1      14.018   4.632   9.370  1.00  0.00     0.198 A 
ATOM     72  F   UNL     1      13.361   2.373   9.366  1.00  0.00    -0.203 F 
ATOM     73  F   UNL     1      12.482   7.538  10.893  1.00  0.00    -0.200 F 
ATOM     74  C   UNL     1      13.800   5.947   9.751  1.00  0.00     0.200 A 
ATOM     75  F   UNL     1      15.078   4.323   8.610  1.00  0.00    -0.200 F 
ATOM     76  F   UNL     1      14.636   6.912   9.342  1.00  0.00    -0.200 F 
ENDBRANCH  52  66
BRANCH  53  77
ATOM     77  C   UNL     1       5.644  -3.450  12.667  1.00  0.00     0.064 A 
ATOM     78  C   UNL     1       5.045  -3.616  13.922  1.00  0.00     0.173 A 
ATOM     79  C   UNL     1       5.308  -4.361  11.655  1.00  0.00     0.173 A 
ATOM     80  F   UNL     1       5.351  -2.780  14.925  1.00  0.00    -0.203 F 
ATOM     81  C   UNL     1       4.149  -4.656  14.159  1.00  0.00     0.198 A 
ATOM     82  C   UNL     1       4.393  -5.385  11.885  1.00  0.00     0.198 A 
ATOM     83  F   UNL     1       5.850  -4.238  10.434  1.00  0.00    -0.203 F 
ATOM     84  F   UNL     1       3.610  -4.809  15.376  1.00  0.00    -0.200 F 
ATOM     85  C   UNL     1       3.817  -5.534  13.138  1.00  0.00     0.200 A 
ATOM     86  F   UNL     1       4.063  -6.223  10.893  1.00  0.00    -0.200 F 
ATOM     87  F   UNL     1       2.944  -6.526  13.362  1.00  0.00    -0.200 F 
ENDBRANCH  53  77
BRANCH  65  88
ATOM     88  C   UNL     1      12.138  -1.965  14.734  1.00  0.00     0.064 A 
ATOM     89  C   UNL     1      12.781  -3.154  14.358  1.00  0.00     0.173 A 
ATOM     90  C   UNL     1      12.448  -1.417  15.988  1.00  0.00     0.173 A 
ATOM     91  F   UNL     1      12.506  -3.725  13.176  1.00  0.00    -0.203 F 
ATOM     92  C   UNL     1      13.683  -3.780  15.214  1.00  0.00     0.198 A 
ATOM     93  C   UNL     1      13.371  -2.031  16.829  1.00  0.00     0.198 A 
ATOM     94  F   UNL     1      11.864  -0.279  16.391  1.00  0.00    -0.203 F 
ATOM     95  F   UNL     1      14.254  -4.938  14.853  1.00  0.00    -0.200 F 
ATOM     96  C   UNL     1      13.983  -3.215  16.445  1.00  0.00     0.200 A 
ATOM     97  F   UNL     1      13.668  -1.478  18.013  1.00  0.00    -0.200 F 
ATOM     98  F   UNL     1      14.857  -3.815  17.264  1.00  0.00    -0.200 F 
ENDBRANCH  65  88
ENDBRANCH  39  40
ENDBRANCH  31  34
ENDBRANCH  29  30
ENDBRANCH  28  29
ENDBRANCH  27  28
ENDBRANCH   1  27
TORSDOF 17
