REMARK SMILES Cc1cc(C(=O)NC2(CC(=O)NCCCCCCNC(=O)c3ccc(-c4c5nc(c(-c6c(F)c(F)c(F)c(F)c6F)c6ccc([nH]6)c(-c6c(F)c(F)c(F)c(F)c6F)c6nc(c(-c7c(F)c(F)c(F)c(F)c7F)c7ccc4[nH]7)C=C6)C=C5)cc3)CCC2)sc1C
REMARK SMILES IDX 15 1 14 2 13 3 12 4 10 5 11 6 9 8 8 9 85 10 87 11 86 12 7 13
REMARK SMILES IDX 5 14 6 15 4 17 1 18 2 19 3 20 89 21 88 22 90 23 16 24 17 25
REMARK SMILES IDX 18 26 19 27 20 28 21 30 22 31 23 32 84 33 24 34 83 35 25 36
REMARK SMILES IDX 26 37 27 38 77 39 28 40 82 41 76 42 78 43 29 44 81 45 75 46
REMARK SMILES IDX 74 47 30 49 62 50 42 51 61 52 43 53 46 54 60 55 79 56 44 57
REMARK SMILES IDX 45 58 59 60 80 61 47 62 31 63 32 64 40 65 33 66 34 67 38 68
REMARK SMILES IDX 41 69 35 70 36 71 39 72 37 73 63 74 64 75 72 76 65 77 66 78
REMARK SMILES IDX 70 79 73 80 67 81 68 82 71 83 69 84 48 85 49 86 57 87 50 88
REMARK SMILES IDX 51 89 55 90 58 91 52 92 53 93 56 94 54 95
REMARK H PARENT 12 7 7 16 19 29 78 48 46 59
REMARK Flexibility Score: inf
ROOT
ATOM      1  C   UNL     1       7.227  -1.756   3.959  1.00  0.00     0.002 C 
ENDROOT
BRANCH   1   2
ATOM      2  C   UNL     1       6.505  -0.938   2.884  1.00  0.00     0.021 C 
BRANCH   2   3
ATOM      3  C   UNL     1       7.202  -0.955   1.520  1.00  0.00     0.116 C 
BRANCH   3   4
ATOM      4  N   UNL     1       6.849  -2.158   0.799  1.00  0.00    -0.356 N 
ATOM      5  C   UNL     1       5.895  -2.336  -0.151  1.00  0.00     0.222 C 
ATOM      6  O   UNL     1       5.544  -3.486  -0.422  1.00  0.00    -0.275 OA
ATOM      7  H   UNL     1       7.373  -2.959   1.028  1.00  0.00     0.163 HD
BRANCH   5   8
ATOM      8  C   UNL     1       5.266  -1.161  -0.864  1.00  0.00     0.128 C 
BRANCH   8   9
ATOM      9  C   UNL     1       3.884  -0.693  -0.343  1.00  0.00     0.049 C 
ATOM     10  C   UNL     1       3.324   0.392  -1.298  1.00  0.00     0.029 C 
ATOM     11  C   UNL     1       3.969   0.378   0.771  1.00  0.00     0.029 C 
ATOM     12  C   UNL     1       3.776   1.470  -0.294  1.00  0.00     0.005 C 
BRANCH   9  13
ATOM     13  N   UNL     1       3.022  -1.865  -0.054  1.00  0.00    -0.345 N 
ATOM     14  C   UNL     1       1.683  -2.143   0.151  1.00  0.00     0.261 C 
ATOM     15  O   UNL     1       1.444  -3.351   0.274  1.00  0.00    -0.268 OA
ATOM     16  H   UNL     1       3.561  -2.686   0.011  1.00  0.00     0.164 HD
BRANCH  14  17
ATOM     17  C   UNL     1       0.590  -1.182   0.167  1.00  0.00     0.092 A 
ATOM     18  C   UNL     1      -3.073  -0.434  -0.393  1.00  0.00     0.045 C 
ATOM     19  C   UNL     1      -1.615  -0.355  -0.089  1.00  0.00    -0.037 A 
ATOM     20  C   UNL     1      -0.729  -1.484  -0.144  1.00  0.00     0.029 A 
ATOM     21  C   UNL     1      -0.915   0.785   0.257  1.00  0.00     0.005 A 
ATOM     22  S   UNL     1       0.663   0.404   0.770  1.00  0.00    -0.135 S 
ATOM     23  C   UNL     1      -1.371   2.205   0.290  1.00  0.00     0.056 C 
ENDBRANCH  14  17
ENDBRANCH   9  13
ENDBRANCH   8   9
ENDBRANCH   5   8
ENDBRANCH   3   4
ENDBRANCH   2   3
ENDBRANCH   1   2
BRANCH   1  24
ATOM     24  C   UNL     1       8.635  -1.259   4.306  1.00  0.00     0.002 C 
BRANCH  24  25
ATOM     25  C   UNL     1       8.734   0.231   4.651  1.00  0.00     0.021 C 
BRANCH  25  26
ATOM     26  C   UNL     1       7.853   0.674   5.816  1.00  0.00     0.116 C 
BRANCH  26  27
ATOM     27  N   UNL     1       8.228   0.017   7.056  1.00  0.00    -0.352 N 
ATOM     28  C   UNL     1       8.676   0.559   8.232  1.00  0.00     0.251 C 
ATOM     29  H   UNL     1       8.148  -0.965   7.050  1.00  0.00     0.163 HD
ATOM     30  O   UNL     1       9.166  -0.161   9.096  1.00  0.00    -0.269 OA
BRANCH  28  31
ATOM     31  C   UNL     1       8.580   2.016   8.462  1.00  0.00     0.039 A 
ATOM     32  C   UNL     1       9.670   2.681   9.030  1.00  0.00     0.014 A 
ATOM     33  C   UNL     1       7.410   2.717   8.158  1.00  0.00     0.014 A 
ATOM     34  C   UNL     1       9.604   4.058   9.248  1.00  0.00     0.010 A 
ATOM     35  C   UNL     1       7.367   4.100   8.318  1.00  0.00     0.010 A 
ATOM     36  C   UNL     1       8.461   4.782   8.871  1.00  0.00    -0.014 A 
BRANCH  36  37
ATOM     37  C   UNL     1       8.397   6.253   9.053  1.00  0.00     0.031 A 
ATOM     38  C   UNL     1       7.426   6.855  10.030  1.00  0.00     0.074 A 
ATOM     39  C   UNL     1       9.178   7.049   8.298  1.00  0.00     0.049 A 
ATOM     40  N   UNL     1       7.196   8.116  10.297  1.00  0.00    -0.248 NA
ATOM     41  C   UNL     1       6.584   5.917  10.788  1.00  0.00     0.031 C 
ATOM     42  C   UNL     1      10.122   6.586   7.281  1.00  0.00     0.029 A 
ATOM     43  N   UNL     1       9.294   8.416   8.263  1.00  0.00    -0.354 N 
ATOM     44  C   UNL     1       6.177   8.122  11.241  1.00  0.00     0.074 A 
ATOM     45  C   UNL     1       5.799   6.743  11.464  1.00  0.00     0.031 C 
ATOM     46  C   UNL     1      10.737   7.648   6.737  1.00  0.00     0.029 A 
ATOM     47  C   UNL     1      10.211   8.866   7.345  1.00  0.00     0.049 A 
ATOM     48  H   UNL     1       8.771   9.017   8.842  1.00  0.00     0.167 HD
ATOM     49  C   UNL     1       5.623   9.180  11.879  1.00  0.00     0.037 A 
ATOM     50  C   UNL     1      10.583  10.121   7.030  1.00  0.00     0.037 A 
ATOM     51  C   UNL     1       6.021  10.548  11.675  1.00  0.00     0.049 A 
ATOM     52  C   UNL     1       9.963  11.278   7.764  1.00  0.00     0.074 A 
ATOM     53  C   UNL     1       5.566  11.686  12.319  1.00  0.00     0.029 A 
ATOM     54  N   UNL     1       6.972  10.964  10.755  1.00  0.00    -0.354 N 
ATOM     55  N   UNL     1       9.052  11.267   8.705  1.00  0.00    -0.248 NA
ATOM     56  C   UNL     1      10.433  12.621   7.398  1.00  0.00     0.031 C 
ATOM     57  C   UNL     1       6.214  12.793  11.762  1.00  0.00     0.029 A 
ATOM     58  C   UNL     1       7.105  12.342  10.802  1.00  0.00     0.049 A 
ATOM     59  H   UNL     1       7.479  10.367  10.157  1.00  0.00     0.167 HD
ATOM     60  C   UNL     1       8.857  12.593   9.064  1.00  0.00     0.074 A 
ATOM     61  C   UNL     1       9.755  13.383   8.247  1.00  0.00     0.031 C 
ATOM     62  C   UNL     1       8.010  13.111   9.986  1.00  0.00     0.037 A 
BRANCH  49  63
ATOM     63  C   UNL     1       4.527   8.899  12.865  1.00  0.00     0.064 A 
ATOM     64  C   UNL     1       4.789   8.283  14.098  1.00  0.00     0.173 A 
ATOM     65  C   UNL     1       3.206   9.283  12.591  1.00  0.00     0.173 A 
ATOM     66  F   UNL     1       6.034   7.888  14.404  1.00  0.00    -0.203 F 
ATOM     67  C   UNL     1       3.764   8.037  15.008  1.00  0.00     0.198 A 
ATOM     68  C   UNL     1       2.188   9.060  13.515  1.00  0.00     0.198 A 
ATOM     69  F   UNL     1       2.902   9.880  11.429  1.00  0.00    -0.203 F 
ATOM     70  F   UNL     1       4.031   7.405  16.160  1.00  0.00    -0.200 F 
ATOM     71  C   UNL     1       2.467   8.431  14.719  1.00  0.00     0.200 A 
ATOM     72  F   UNL     1       0.937   9.452  13.239  1.00  0.00    -0.200 F 
ATOM     73  F   UNL     1       1.483   8.198  15.599  1.00  0.00    -0.200 F 
ENDBRANCH  49  63
BRANCH  50  74
ATOM     74  C   UNL     1      11.622  10.344   5.993  1.00  0.00     0.064 A 
ATOM     75  C   UNL     1      12.903  10.791   6.345  1.00  0.00     0.173 A 
ATOM     76  C   UNL     1      11.361  10.109   4.635  1.00  0.00     0.173 A 
ATOM     77  F   UNL     1      13.193  11.047   7.629  1.00  0.00    -0.203 F 
ATOM     78  C   UNL     1      13.879  11.012   5.376  1.00  0.00     0.198 A 
ATOM     79  C   UNL     1      12.346  10.306   3.670  1.00  0.00     0.198 A 
ATOM     80  F   UNL     1      10.153   9.675   4.249  1.00  0.00    -0.203 F 
ATOM     81  F   UNL     1      15.083  11.477   5.735  1.00  0.00    -0.200 F 
ATOM     82  C   UNL     1      13.602  10.764   4.040  1.00  0.00     0.200 A 
ATOM     83  F   UNL     1      12.079  10.052   2.381  1.00  0.00    -0.200 F 
ATOM     84  F   UNL     1      14.543  10.971   3.109  1.00  0.00    -0.200 F 
ENDBRANCH  50  74
BRANCH  62  85
ATOM     85  C   UNL     1       8.037  14.598  10.185  1.00  0.00     0.064 A 
ATOM     86  C   UNL     1       7.491  15.475   9.237  1.00  0.00     0.173 A 
ATOM     87  C   UNL     1       8.582  15.147  11.355  1.00  0.00     0.173 A 
ATOM     88  F   UNL     1       6.973  14.998   8.095  1.00  0.00    -0.203 F 
ATOM     89  C   UNL     1       7.511  16.852   9.444  1.00  0.00     0.198 A 
ATOM     90  C   UNL     1       8.576  16.522  11.571  1.00  0.00     0.198 A 
ATOM     91  F   UNL     1       9.112  14.349  12.294  1.00  0.00    -0.203 F 
ATOM     92  F   UNL     1       7.023  17.675   8.506  1.00  0.00    -0.200 F 
ATOM     93  C   UNL     1       8.046  17.373  10.613  1.00  0.00     0.200 A 
ATOM     94  F   UNL     1       9.083  17.023  12.705  1.00  0.00    -0.200 F 
ATOM     95  F   UNL     1       8.058  18.698  10.812  1.00  0.00    -0.200 F 
ENDBRANCH  62  85
ENDBRANCH  36  37
ENDBRANCH  28  31
ENDBRANCH  26  27
ENDBRANCH  25  26
ENDBRANCH  24  25
ENDBRANCH   1  24
TORSDOF 16
