REMARK SMILES NS(=O)(=O)c1ccc(-n2ccnc2-c2ccc(O)c(C(=O)NCCCCCCNC(=O)c3ccc(-c4c5nc(c(-c6c(F)c(F)c(F)c(F)c6F)c6ccc([nH]6)c(-c6c(F)c(F)c(F)c(F)c6F)c6nc(c(-c7c(F)c(F)c(F)c(F)c7F)c7ccc4[nH]7)C=C6)C=C5)cc3)c2)cc1
REMARK SMILES IDX 24 1 23 2 22 3 20 4 21 5 19 7 14 8 15 9 95 10 16 11 17 12
REMARK SMILES IDX 13 13 9 14 10 15 11 16 12 17 8 18 5 19 6 20 97 21 7 22 96 23
REMARK SMILES IDX 2 24 3 25 4 26 1 27 18 30 25 32 26 33 27 34 28 35 29 36
REMARK SMILES IDX 30 37 31 39 32 40 33 41 94 42 34 43 93 44 35 45 36 46 37 47
REMARK SMILES IDX 87 48 38 49 92 50 86 51 88 52 39 53 91 54 85 55 84 56 40 58
REMARK SMILES IDX 72 59 52 60 71 61 53 62 56 63 70 64 89 65 54 66 55 67 69 69
REMARK SMILES IDX 90 70 57 71 41 72 42 73 50 74 43 75 44 76 48 77 51 78 45 79
REMARK SMILES IDX 46 80 49 81 47 82 73 83 74 84 82 85 75 86 76 87 80 88 83 89
REMARK SMILES IDX 77 90 78 91 81 92 79 93 58 94 59 95 67 96 60 97 61 98 65 99
REMARK SMILES IDX 68 100 62 101 63 102 66 103 64 104
REMARK H PARENT 22 6 1 28 1 29 18 31 29 38 88 57 56 68
REMARK Flexibility Score: inf
ROOT
ATOM      1  C   UNL     1       6.695  -1.721   5.780  1.00  0.00     0.021 C 
ENDROOT
BRANCH   1   2
ATOM      2  C   UNL     1       5.670  -2.086   4.714  1.00  0.00     0.116 C 
BRANCH   2   3
ATOM      3  N   UNL     1       6.221  -2.413   3.407  1.00  0.00    -0.352 N 
ATOM      4  C   UNL     1       5.909  -3.398   2.490  1.00  0.00     0.255 C 
ATOM      5  O   UNL     1       6.563  -3.452   1.445  1.00  0.00    -0.269 OA
ATOM      6  H   UNL     1       6.956  -1.822   3.123  1.00  0.00     0.163 HD
BRANCH   4   7
ATOM      7  C   UNL     1       4.867  -4.442   2.710  1.00  0.00     0.082 A 
ATOM      8  C   UNL     1       2.949  -5.290   3.975  1.00  0.00     0.019 A 
ATOM      9  C   UNL     1       3.091  -6.533   3.360  1.00  0.00     0.016 A 
ATOM     10  C   UNL     1       3.798  -4.244   3.578  1.00  0.00     0.029 A 
ATOM     11  C   UNL     1       4.056  -6.710   2.363  1.00  0.00     0.048 A 
ATOM     12  C   UNL     1       4.945  -5.677   2.053  1.00  0.00     0.128 A 
BRANCH   8  13
ATOM     13  C   UNL     1       2.046  -5.090   5.123  1.00  0.00     0.144 A 
ATOM     14  N   UNL     1       1.355  -3.909   5.412  1.00  0.00    -0.300 N 
ATOM     15  C   UNL     1       1.065  -3.947   6.757  1.00  0.00     0.113 A 
ATOM     16  C   UNL     1       1.406  -5.210   7.173  1.00  0.00     0.132 A 
ATOM     17  N   UNL     1       1.985  -5.916   6.155  1.00  0.00    -0.236 NA
BRANCH  14  18
ATOM     18  C   UNL     1       1.067  -2.839   4.526  1.00  0.00     0.047 A 
ATOM     19  C   UNL     1       0.671  -0.758   2.723  1.00  0.00     0.082 A 
ATOM     20  C   UNL     1       0.550  -2.079   2.285  1.00  0.00     0.024 A 
ATOM     21  C   UNL     1       0.981  -0.470   4.056  1.00  0.00     0.024 A 
ATOM     22  C   UNL     1       0.753  -3.120   3.187  1.00  0.00     0.028 A 
ATOM     23  C   UNL     1       1.157  -1.513   4.969  1.00  0.00     0.028 A 
BRANCH  19  24
ATOM     24  S   UNL     1       0.443   0.565   1.572  1.00  0.00     0.238 S 
ATOM     25  O   UNL     1       1.254   1.690   2.002  1.00  0.00    -0.207 OA
ATOM     26  O   UNL     1      -0.957   0.675   1.280  1.00  0.00    -0.207 OA
BRANCH  24  27
ATOM     27  N   UNL     1       1.186   0.001   0.175  1.00  0.00    -0.225 NA
ATOM     28  H   UNL     1       1.108   0.704  -0.560  1.00  0.00     0.137 HD
ATOM     29  H   UNL     1       0.731  -0.860  -0.128  1.00  0.00     0.137 HD
ENDBRANCH  24  27
ENDBRANCH  19  24
ENDBRANCH  14  18
ENDBRANCH   8  13
BRANCH  12  30
ATOM     30  O   UNL     1       5.880  -5.952   1.090  1.00  0.00    -0.507 OA
ATOM     31  H   UNL     1       5.894  -6.793   0.677  1.00  0.00     0.293 HD
ENDBRANCH  12  30
ENDBRANCH   4   7
ENDBRANCH   2   3
ENDBRANCH   1   2
BRANCH   1  32
ATOM     32  C   UNL     1       7.489  -0.436   5.569  1.00  0.00     0.002 C 
BRANCH  32  33
ATOM     33  C   UNL     1       6.690   0.839   5.267  1.00  0.00     0.002 C 
BRANCH  33  34
ATOM     34  C   UNL     1       5.529   1.192   6.209  1.00  0.00     0.021 C 
BRANCH  34  35
ATOM     35  C   UNL     1       5.930   1.407   7.660  1.00  0.00     0.116 C 
BRANCH  35  36
ATOM     36  N   UNL     1       6.803   2.563   7.851  1.00  0.00    -0.352 N 
ATOM     37  C   UNL     1       7.335   3.044   9.033  1.00  0.00     0.251 C 
ATOM     38  H   UNL     1       7.043   3.062   7.037  1.00  0.00     0.163 HD
ATOM     39  O   UNL     1       7.747   4.194   9.125  1.00  0.00    -0.269 OA
BRANCH  37  40
ATOM     40  C   UNL     1       7.409   2.139  10.192  1.00  0.00     0.039 A 
ATOM     41  C   UNL     1       7.123   2.578  11.490  1.00  0.00     0.014 A 
ATOM     42  C   UNL     1       7.757   0.816   9.947  1.00  0.00     0.014 A 
ATOM     43  C   UNL     1       7.117   1.650  12.530  1.00  0.00     0.010 A 
ATOM     44  C   UNL     1       7.582  -0.119  10.928  1.00  0.00     0.010 A 
ATOM     45  C   UNL     1       7.334   0.299  12.234  1.00  0.00    -0.014 A 
BRANCH  45  46
ATOM     46  C   UNL     1       7.195  -0.745  13.244  1.00  0.00     0.031 A 
ATOM     47  C   UNL     1       5.837  -0.851  13.850  1.00  0.00     0.074 A 
ATOM     48  C   UNL     1       8.139  -1.708  13.356  1.00  0.00     0.049 A 
ATOM     49  N   UNL     1       5.523  -0.831  15.104  1.00  0.00    -0.248 NA
ATOM     50  C   UNL     1       4.666  -0.870  12.952  1.00  0.00     0.031 C 
ATOM     51  C   UNL     1       9.377  -1.848  12.577  1.00  0.00     0.029 A 
ATOM     52  N   UNL     1       8.114  -2.865  14.070  1.00  0.00    -0.354 N 
ATOM     53  C   UNL     1       4.145  -1.031  15.163  1.00  0.00     0.074 A 
ATOM     54  C   UNL     1       3.654  -0.866  13.821  1.00  0.00     0.031 C 
ATOM     55  C   UNL     1       9.827  -3.117  12.662  1.00  0.00     0.029 A 
ATOM     56  C   UNL     1       9.007  -3.835  13.617  1.00  0.00     0.049 A 
ATOM     57  H   UNL     1       7.518  -3.006  14.841  1.00  0.00     0.167 HD
ATOM     58  C   UNL     1       3.560  -1.568  16.270  1.00  0.00     0.037 A 
ATOM     59  C   UNL     1       9.002  -5.150  13.954  1.00  0.00     0.037 A 
ATOM     60  C   UNL     1       4.434  -1.472  17.412  1.00  0.00     0.049 A 
ATOM     61  C   UNL     1       8.220  -5.268  15.214  1.00  0.00     0.074 A 
ATOM     62  C   UNL     1       5.051  -0.422  18.066  1.00  0.00     0.029 A 
ATOM     63  N   UNL     1       5.109  -2.601  17.811  1.00  0.00    -0.354 N 
ATOM     64  N   UNL     1       8.611  -4.763  16.354  1.00  0.00    -0.248 NA
ATOM     65  C   UNL     1       6.789  -5.504  15.092  1.00  0.00     0.031 C 
ATOM     66  C   UNL     1       6.354  -0.906  18.383  1.00  0.00     0.029 A 
ATOM     67  C   UNL     1       6.420  -2.243  17.992  1.00  0.00     0.049 A 
ATOM     68  H   UNL     1       4.723  -3.497  17.941  1.00  0.00     0.167 HD
ATOM     69  C   UNL     1       7.463  -4.212  16.904  1.00  0.00     0.074 A 
ATOM     70  C   UNL     1       6.360  -4.757  16.114  1.00  0.00     0.031 C 
ATOM     71  C   UNL     1       7.527  -3.133  17.738  1.00  0.00     0.037 A 
BRANCH  58  72
ATOM     72  C   UNL     1       2.381  -2.515  16.242  1.00  0.00     0.064 A 
ATOM     73  C   UNL     1       1.805  -2.922  17.463  1.00  0.00     0.173 A 
ATOM     74  C   UNL     1       2.003  -3.272  15.113  1.00  0.00     0.173 A 
ATOM     75  F   UNL     1       2.099  -2.283  18.605  1.00  0.00    -0.203 F 
ATOM     76  C   UNL     1       0.994  -4.057  17.556  1.00  0.00     0.198 A 
ATOM     77  C   UNL     1       1.149  -4.370  15.201  1.00  0.00     0.198 A 
ATOM     78  F   UNL     1       2.524  -3.060  13.899  1.00  0.00    -0.203 F 
ATOM     79  F   UNL     1       0.584  -4.484  18.758  1.00  0.00    -0.200 F 
ATOM     80  C   UNL     1       0.674  -4.786  16.426  1.00  0.00     0.200 A 
ATOM     81  F   UNL     1       0.864  -5.071  14.094  1.00  0.00    -0.200 F 
ATOM     82  F   UNL     1      -0.045  -5.911  16.520  1.00  0.00    -0.200 F 
ENDBRANCH  58  72
BRANCH  59  83
ATOM     83  C   UNL     1       9.308  -6.316  13.082  1.00  0.00     0.064 A 
ATOM     84  C   UNL     1       9.457  -7.604  13.626  1.00  0.00     0.173 A 
ATOM     85  C   UNL     1       9.193  -6.248  11.678  1.00  0.00     0.173 A 
ATOM     86  F   UNL     1       9.530  -7.770  14.954  1.00  0.00    -0.203 F 
ATOM     87  C   UNL     1       9.460  -8.750  12.819  1.00  0.00     0.198 A 
ATOM     88  C   UNL     1       9.207  -7.390  10.874  1.00  0.00     0.198 A 
ATOM     89  F   UNL     1       8.968  -5.082  11.057  1.00  0.00    -0.203 F 
ATOM     90  F   UNL     1       9.537  -9.964  13.382  1.00  0.00    -0.200 F 
ATOM     91  C   UNL     1       9.325  -8.642  11.445  1.00  0.00     0.200 A 
ATOM     92  F   UNL     1       9.042  -7.269   9.549  1.00  0.00    -0.200 F 
ATOM     93  F   UNL     1       9.265  -9.739  10.679  1.00  0.00    -0.200 F 
ENDBRANCH  59  83
BRANCH  71  94
ATOM     94  C   UNL     1       8.874  -2.692  18.241  1.00  0.00     0.064 A 
ATOM     95  C   UNL     1       9.922  -2.249  17.414  1.00  0.00     0.173 A 
ATOM     96  C   UNL     1       9.050  -2.554  19.624  1.00  0.00     0.173 A 
ATOM     97  F   UNL     1       9.796  -2.243  16.082  1.00  0.00    -0.203 F 
ATOM     98  C   UNL     1      11.103  -1.736  17.948  1.00  0.00     0.198 A 
ATOM     99  C   UNL     1      10.214  -2.005  20.155  1.00  0.00     0.198 A 
ATOM    100  F   UNL     1       8.063  -2.903  20.463  1.00  0.00    -0.203 F 
ATOM    101  F   UNL     1      12.089  -1.329  17.134  1.00  0.00    -0.200 F 
ATOM    102  C   UNL     1      11.244  -1.607  19.319  1.00  0.00     0.200 A 
ATOM    103  F   UNL     1      10.322  -1.832  21.479  1.00  0.00    -0.200 F 
ATOM    104  F   UNL     1      12.360  -1.072  19.834  1.00  0.00    -0.200 F 
ENDBRANCH  71  94
ENDBRANCH  45  46
ENDBRANCH  37  40
ENDBRANCH  35  36
ENDBRANCH  34  35
ENDBRANCH  33  34
ENDBRANCH  32  33
ENDBRANCH   1  32
TORSDOF 18
