REMARK SMILES O=C(C[C@@H](NC(=O)c1cc(-c2ccc(F)cc2)on1)c1cccc(Br)c1)NCCCCCCNC(=O)c1ccc(-c2c3nc(c(-c4c(F)c(F)c(F)c(F)c4F)c4ccc([nH]4)c(-c4c(F)c(F)c(F)c(F)c4F)c4nc(c(-c5c(F)c(F)c(F)c(F)c5F)c5ccc2[nH]5)C=C4)C=C3)cc1
REMARK SMILES IDX 29 1 28 2 27 3 1 4 2 5 3 7 4 8 5 9 6 10 7 12 8 13 9 14 19 15
REMARK SMILES IDX 10 16 18 17 11 18 12 19 17 20 13 21 16 22 14 23 15 24 20 25
REMARK SMILES IDX 21 26 26 27 22 28 24 29 23 30 25 31 30 32 31 33 32 34 33 35
REMARK SMILES IDX 34 36 35 37 36 39 37 40 38 41 99 42 39 43 98 44 40 45 41 46
REMARK SMILES IDX 42 47 92 48 43 49 97 50 91 51 93 52 44 53 96 54 90 55 89 56
REMARK SMILES IDX 45 58 77 59 57 60 76 61 58 62 61 63 75 64 94 65 59 66 60 67
REMARK SMILES IDX 74 69 95 70 62 71 46 72 47 73 55 74 48 75 49 76 53 77 56 78
REMARK SMILES IDX 50 79 51 80 54 81 52 82 78 83 79 84 87 85 80 86 81 87 85 88
REMARK SMILES IDX 88 89 82 90 83 91 86 92 84 93 63 94 64 95 72 96 65 97 66 98
REMARK SMILES IDX 70 99 73 100 67 101 68 102 71 103 69 104
REMARK H PARENT 27 6 5 11 34 38 93 57 61 68
REMARK Flexibility Score: inf
ROOT
ATOM      1  C   UNL     1       2.639   2.372   2.621  1.00  0.00     0.021 C 
ENDROOT
BRANCH   1   2
ATOM      2  C   UNL     1       2.122   2.237   1.190  1.00  0.00     0.116 C 
BRANCH   2   3
ATOM      3  N   UNL     1       2.804   1.144   0.532  1.00  0.00    -0.356 N 
ATOM      4  O   UNL     1       0.928   0.064  -0.217  1.00  0.00    -0.275 OA
ATOM      5  C   UNL     1       2.141   0.094  -0.043  1.00  0.00     0.222 C 
ATOM      6  H   UNL     1       3.788   1.156   0.496  1.00  0.00     0.163 HD
BRANCH   5   7
ATOM      7  C   UNL     1       3.043  -1.055  -0.420  1.00  0.00     0.129 C 
BRANCH   7   8
ATOM      8  C   UNL     1       3.852  -0.758  -1.696  1.00  0.00     0.122 C 
BRANCH   8   9
ATOM      9  N   UNL     1       5.080   0.019  -1.425  1.00  0.00    -0.343 N 
ATOM     10  C   UNL     1       6.435  -0.228  -1.455  1.00  0.00     0.273 C 
ATOM     11  H   UNL     1       4.880   0.945  -1.156  1.00  0.00     0.164 HD
ATOM     12  O   UNL     1       7.180   0.707  -1.157  1.00  0.00    -0.267 OA
BRANCH  10  13
ATOM     13  C   UNL     1       6.956  -1.493  -1.942  1.00  0.00     0.171 A 
ATOM     14  C   UNL     1       7.438  -1.756  -3.252  1.00  0.00     0.088 A 
ATOM     15  N   UNL     1       7.026  -2.589  -1.173  1.00  0.00    -0.074 NA
ATOM     16  C   UNL     1       7.565  -3.125  -3.297  1.00  0.00     0.167 A 
ATOM     17  O   UNL     1       7.408  -3.613  -2.030  1.00  0.00    -0.355 OA
BRANCH  16  18
ATOM     18  C   UNL     1       7.615  -4.103  -4.385  1.00  0.00     0.020 A 
ATOM     19  C   UNL     1       7.689  -3.672  -5.723  1.00  0.00     0.015 A 
ATOM     20  C   UNL     1       7.366  -5.464  -4.136  1.00  0.00     0.015 A 
ATOM     21  C   UNL     1       7.423  -4.556  -6.773  1.00  0.00     0.040 A 
ATOM     22  C   UNL     1       7.094  -6.346  -5.186  1.00  0.00     0.040 A 
ATOM     23  C   UNL     1       7.101  -5.878  -6.493  1.00  0.00     0.123 A 
ATOM     24  F   UNL     1       6.761  -6.701  -7.492  1.00  0.00    -0.207 F 
ENDBRANCH  16  18
ENDBRANCH  10  13
ENDBRANCH   8   9
BRANCH   8  25
ATOM     25  C   UNL     1       4.009  -1.965  -2.598  1.00  0.00    -0.024 A 
ATOM     26  C   UNL     1       4.177  -1.774  -3.979  1.00  0.00     0.006 A 
ATOM     27  C   UNL     1       3.946  -3.282  -2.107  1.00  0.00     0.021 A 
ATOM     28  C   UNL     1       4.250  -2.867  -4.845  1.00  0.00     0.002 A 
ATOM     29  C   UNL     1       3.995  -4.368  -2.978  1.00  0.00     0.018 A 
ATOM     30  C   UNL     1       4.138  -4.164  -4.346  1.00  0.00     0.016 A 
ATOM     31  Br  UNL     1       3.873  -6.124  -2.292  1.00  0.00    -0.051 Br
ENDBRANCH   8  25
ENDBRANCH   7   8
ENDBRANCH   5   7
ENDBRANCH   2   3
ENDBRANCH   1   2
BRANCH   1  32
ATOM     32  C   UNL     1       4.152   2.620   2.714  1.00  0.00     0.002 C 
BRANCH  32  33
ATOM     33  C   UNL     1       4.649   3.840   1.934  1.00  0.00     0.002 C 
BRANCH  33  34
ATOM     34  C   UNL     1       3.982   5.157   2.331  1.00  0.00     0.021 C 
BRANCH  34  35
ATOM     35  C   UNL     1       4.093   5.492   3.813  1.00  0.00     0.116 C 
BRANCH  35  36
ATOM     36  N   UNL     1       5.475   5.659   4.235  1.00  0.00    -0.352 N 
ATOM     37  C   UNL     1       6.046   6.685   4.940  1.00  0.00     0.251 C 
ATOM     38  H   UNL     1       6.086   4.931   3.978  1.00  0.00     0.163 HD
ATOM     39  O   UNL     1       7.269   6.759   5.045  1.00  0.00    -0.269 OA
BRANCH  37  40
ATOM     40  C   UNL     1       5.191   7.722   5.551  1.00  0.00     0.039 A 
ATOM     41  C   UNL     1       5.564   9.061   5.421  1.00  0.00     0.014 A 
ATOM     42  C   UNL     1       4.024   7.380   6.242  1.00  0.00     0.014 A 
ATOM     43  C   UNL     1       4.736  10.060   5.932  1.00  0.00     0.010 A 
ATOM     44  C   UNL     1       3.160   8.379   6.679  1.00  0.00     0.010 A 
ATOM     45  C   UNL     1       3.507   9.729   6.530  1.00  0.00    -0.014 A 
BRANCH  45  46
ATOM     46  C   UNL     1       2.571  10.791   6.973  1.00  0.00     0.031 A 
ATOM     47  C   UNL     1       2.215  10.946   8.423  1.00  0.00     0.074 A 
ATOM     48  C   UNL     1       2.010  11.598   6.051  1.00  0.00     0.049 A 
ATOM     49  N   UNL     1       1.418  11.819   8.988  1.00  0.00    -0.248 NA
ATOM     50  C   UNL     1       2.812   9.984   9.361  1.00  0.00     0.031 C 
ATOM     51  C   UNL     1       2.237  11.510   4.608  1.00  0.00     0.029 A 
ATOM     52  N   UNL     1       1.141  12.651   6.188  1.00  0.00    -0.354 N 
ATOM     53  C   UNL     1       1.421  11.511  10.342  1.00  0.00     0.074 A 
ATOM     54  C   UNL     1       2.244  10.333  10.506  1.00  0.00     0.031 C 
ATOM     55  C   UNL     1       1.563  12.496   3.997  1.00  0.00     0.029 A 
ATOM     56  C   UNL     1       0.822  13.258   4.998  1.00  0.00     0.049 A 
ATOM     57  H   UNL     1       0.781  12.944   7.056  1.00  0.00     0.167 HD
ATOM     58  C   UNL     1       0.815  12.171  11.357  1.00  0.00     0.037 A 
ATOM     59  C   UNL     1       0.025  14.312   4.739  1.00  0.00     0.037 A 
ATOM     60  C   UNL     1       0.005  13.350  11.187  1.00  0.00     0.049 A 
ATOM     61  C   UNL     1      -0.657  15.014   5.880  1.00  0.00     0.074 A 
ATOM     62  C   UNL     1      -0.606  14.122  12.159  1.00  0.00     0.029 A 
ATOM     63  N   UNL     1      -0.314  13.922   9.964  1.00  0.00    -0.354 N 
ATOM     64  N   UNL     1      -0.593  14.757   7.163  1.00  0.00    -0.248 NA
ATOM     65  C   UNL     1      -1.520  16.152   5.537  1.00  0.00     0.031 C 
ATOM     66  C   UNL     1      -1.345  15.123  11.522  1.00  0.00     0.029 A 
ATOM     67  C   UNL     1      -1.143  15.017  10.155  1.00  0.00     0.049 A 
ATOM     68  H   UNL     1       0.001  13.599   9.089  1.00  0.00     0.167 HD
ATOM     69  C   UNL     1      -1.393  15.706   7.785  1.00  0.00     0.074 A 
ATOM     70  C   UNL     1      -1.915  16.559   6.737  1.00  0.00     0.031 C 
ATOM     71  C   UNL     1      -1.670  15.852   9.104  1.00  0.00     0.037 A 
BRANCH  58  72
ATOM     72  C   UNL     1       1.010  11.640  12.750  1.00  0.00     0.064 A 
ATOM     73  C   UNL     1      -0.073  11.114  13.471  1.00  0.00     0.173 A 
ATOM     74  C   UNL     1       2.255  11.704  13.394  1.00  0.00     0.173 A 
ATOM     75  F   UNL     1      -1.288  11.035  12.908  1.00  0.00    -0.203 F 
ATOM     76  C   UNL     1       0.083  10.680  14.786  1.00  0.00     0.198 A 
ATOM     77  C   UNL     1       2.415  11.238  14.696  1.00  0.00     0.198 A 
ATOM     78  F   UNL     1       3.326  12.189  12.747  1.00  0.00    -0.203 F 
ATOM     79  F   UNL     1      -0.973  10.212  15.465  1.00  0.00    -0.200 F 
ATOM     80  C   UNL     1       1.328  10.736  15.394  1.00  0.00     0.200 A 
ATOM     81  F   UNL     1       3.625  11.266  15.272  1.00  0.00    -0.200 F 
ATOM     82  F   UNL     1       1.480  10.302  16.653  1.00  0.00    -0.200 F 
ENDBRANCH  58  72
BRANCH  59  83
ATOM     83  C   UNL     1      -0.126  14.781   3.338  1.00  0.00     0.064 A 
ATOM     84  C   UNL     1      -0.795  14.008   2.377  1.00  0.00     0.173 A 
ATOM     85  C   UNL     1       0.457  15.984   2.917  1.00  0.00     0.173 A 
ATOM     86  F   UNL     1      -1.364  12.845   2.727  1.00  0.00    -0.203 F 
ATOM     87  C   UNL     1      -0.848  14.407   1.043  1.00  0.00     0.198 A 
ATOM     88  C   UNL     1       0.379  16.395   1.588  1.00  0.00     0.198 A 
ATOM     89  F   UNL     1       1.092  16.765   3.803  1.00  0.00    -0.203 F 
ATOM     90  F   UNL     1      -1.452  13.626   0.136  1.00  0.00    -0.200 F 
ATOM     91  C   UNL     1      -0.263  15.601   0.650  1.00  0.00     0.200 A 
ATOM     92  F   UNL     1       0.928  17.559   1.216  1.00  0.00    -0.200 F 
ATOM     93  F   UNL     1      -0.314  15.984  -0.633  1.00  0.00    -0.200 F 
ENDBRANCH  59  83
BRANCH  71  94
ATOM     94  C   UNL     1      -2.583  16.977   9.501  1.00  0.00     0.064 A 
ATOM     95  C   UNL     1      -2.095  18.065  10.241  1.00  0.00     0.173 A 
ATOM     96  C   UNL     1      -3.955  16.944   9.212  1.00  0.00     0.173 A 
ATOM     97  F   UNL     1      -0.792  18.142  10.553  1.00  0.00    -0.203 F 
ATOM     98  C   UNL     1      -2.949  19.069  10.691  1.00  0.00     0.198 A 
ATOM     99  C   UNL     1      -4.801  17.966   9.634  1.00  0.00     0.198 A 
ATOM    100  F   UNL     1      -4.470  15.933   8.496  1.00  0.00    -0.203 F 
ATOM    101  F   UNL     1      -2.466  20.077  11.429  1.00  0.00    -0.200 F 
ATOM    102  C   UNL     1      -4.300  19.021  10.382  1.00  0.00     0.200 A 
ATOM    103  F   UNL     1      -6.101  17.933   9.311  1.00  0.00    -0.200 F 
ATOM    104  F   UNL     1      -5.119  19.995  10.803  1.00  0.00    -0.200 F 
ENDBRANCH  71  94
ENDBRANCH  45  46
ENDBRANCH  37  40
ENDBRANCH  35  36
ENDBRANCH  34  35
ENDBRANCH  33  34
ENDBRANCH  32  33
ENDBRANCH   1  32
TORSDOF 18
