REMARK SMILES O=C(NCCCCCCNC(=O)c1cccc([C@@H]2CCC[N@@H+](Cc3cccc(OCCO)c3)C2)c1)c1ccc(-c2c3nc(c(-c4c(F)c(F)c(F)c(F)c4F)c4ccc([nH]4)c(-c4c(F)c(F)c(F)c(F)c4F)c4nc(c(-c5c(F)c(F)c(F)c(F)c5F)c5ccc2[nH]5)C=C4)C=C3)cc1
REMARK SMILES IDX 9 1 8 2 7 3 6 4 5 5 4 6 3 7 1 8 2 9 36 11 37 12 98 13 38 14
REMARK SMILES IDX 97 15 39 16 40 17 41 18 91 19 42 20 96 21 90 22 92 23 43 24
REMARK SMILES IDX 95 25 89 26 88 27 44 29 76 30 56 31 75 32 57 33 60 34 74 35
REMARK SMILES IDX 93 36 58 37 59 38 73 40 94 41 61 42 45 43 46 44 54 45 47 46
REMARK SMILES IDX 48 47 52 48 55 49 49 50 50 51 53 52 51 53 77 54 78 55 86 56
REMARK SMILES IDX 79 57 80 58 84 59 87 60 81 61 82 62 85 63 83 64 62 65 63 66
REMARK SMILES IDX 71 67 64 68 65 69 69 70 72 71 66 72 67 73 70 74 68 75 10 76
REMARK SMILES IDX 11 77 12 79 13 80 14 81 35 82 15 83 17 84 16 85 18 86 19 87
REMARK SMILES IDX 34 88 20 89 22 90 21 91 23 93 24 94 25 95 33 96 26 97 28 98
REMARK SMILES IDX 27 99 29 100 30 101 31 102 32 103
REMARK H PARENT 3 10 92 28 60 39 10 78 22 92 32 104
REMARK Flexibility Score: inf
ROOT
ATOM      1  C   UNL     1       6.705   4.880  -3.183  1.00  0.00     0.116 C 
ENDROOT
BRANCH   1   2
ATOM      2  C   UNL     1       5.981   4.606  -1.862  1.00  0.00     0.021 C 
BRANCH   2   3
ATOM      3  C   UNL     1       4.475   4.333  -1.963  1.00  0.00     0.002 C 
BRANCH   3   4
ATOM      4  C   UNL     1       4.054   3.038  -2.672  1.00  0.00     0.002 C 
BRANCH   4   5
ATOM      5  C   UNL     1       4.582   1.732  -2.080  1.00  0.00     0.021 C 
BRANCH   5   6
ATOM      6  C   UNL     1       4.234   1.443  -0.628  1.00  0.00     0.116 C 
BRANCH   6   7
ATOM      7  N   UNL     1       2.827   1.156  -0.412  1.00  0.00    -0.352 N 
ATOM      8  O   UNL     1       0.993  -0.049   0.099  1.00  0.00    -0.269 OA
ATOM      9  C   UNL     1       2.213   0.036   0.109  1.00  0.00     0.251 C 
ATOM     10  H   UNL     1       2.212   1.876  -0.682  1.00  0.00     0.163 HD
BRANCH   9  11
ATOM     11  C   UNL     1       3.019  -1.083   0.662  1.00  0.00     0.039 A 
ATOM     12  C   UNL     1       4.165  -0.844   1.417  1.00  0.00     0.014 A 
ATOM     13  C   UNL     1       2.600  -2.402   0.446  1.00  0.00     0.014 A 
ATOM     14  C   UNL     1       4.980  -1.903   1.799  1.00  0.00     0.010 A 
ATOM     15  C   UNL     1       3.360  -3.473   0.939  1.00  0.00     0.010 A 
ATOM     16  C   UNL     1       4.573  -3.232   1.598  1.00  0.00    -0.014 A 
BRANCH  16  17
ATOM     17  C   UNL     1       5.396  -4.324   2.188  1.00  0.00     0.031 A 
ATOM     18  C   UNL     1       6.063  -5.367   1.335  1.00  0.00     0.074 A 
ATOM     19  C   UNL     1       5.580  -4.327   3.524  1.00  0.00     0.049 A 
ATOM     20  N   UNL     1       6.853  -6.347   1.702  1.00  0.00    -0.248 NA
ATOM     21  C   UNL     1       5.810  -5.315  -0.113  1.00  0.00     0.031 C 
ATOM     22  C   UNL     1       4.963  -3.380   4.458  1.00  0.00     0.029 A 
ATOM     23  N   UNL     1       6.355  -5.122   4.329  1.00  0.00    -0.354 N 
ATOM     24  C   UNL     1       7.185  -7.029   0.538  1.00  0.00     0.074 A 
ATOM     25  C   UNL     1       6.483  -6.374  -0.545  1.00  0.00     0.031 C 
ATOM     26  C   UNL     1       5.431  -3.607   5.692  1.00  0.00     0.029 A 
ATOM     27  C   UNL     1       6.317  -4.763   5.654  1.00  0.00     0.049 A 
ATOM     28  H   UNL     1       6.888  -5.878   3.989  1.00  0.00     0.167 HD
ATOM     29  C   UNL     1       8.011  -8.095   0.392  1.00  0.00     0.037 A 
ATOM     30  C   UNL     1       6.908  -5.314   6.729  1.00  0.00     0.037 A 
ATOM     31  C   UNL     1       8.712  -8.738   1.477  1.00  0.00     0.049 A 
ATOM     32  C   UNL     1       7.793  -6.512   6.533  1.00  0.00     0.074 A 
ATOM     33  C   UNL     1       9.583  -9.814   1.425  1.00  0.00     0.029 A 
ATOM     34  N   UNL     1       8.620  -8.368   2.811  1.00  0.00    -0.354 N 
ATOM     35  N   UNL     1       8.124  -7.123   5.422  1.00  0.00    -0.248 NA
ATOM     36  C   UNL     1       8.386  -7.097   7.742  1.00  0.00     0.031 C 
ATOM     37  C   UNL     1       9.978 -10.125   2.730  1.00  0.00     0.029 A 
ATOM     38  C   UNL     1       9.402  -9.207   3.592  1.00  0.00     0.049 A 
ATOM     39  H   UNL     1       8.080  -7.619   3.154  1.00  0.00     0.167 HD
ATOM     40  C   UNL     1       8.973  -8.154   5.795  1.00  0.00     0.074 A 
ATOM     41  C   UNL     1       9.137  -8.060   7.231  1.00  0.00     0.031 C 
ATOM     42  C   UNL     1       9.554  -9.103   5.021  1.00  0.00     0.037 A 
BRANCH  29  43
ATOM     43  C   UNL     1       8.209  -8.648  -0.992  1.00  0.00     0.064 A 
ATOM     44  C   UNL     1       8.949  -7.956  -1.962  1.00  0.00     0.173 A 
ATOM     45  C   UNL     1       7.727  -9.924  -1.326  1.00  0.00     0.173 A 
ATOM     46  F   UNL     1       9.426  -6.729  -1.700  1.00  0.00    -0.203 F 
ATOM     47  C   UNL     1       9.187  -8.513  -3.217  1.00  0.00     0.198 A 
ATOM     48  C   UNL     1       7.991 -10.490  -2.571  1.00  0.00     0.198 A 
ATOM     49  F   UNL     1       7.021 -10.635  -0.434  1.00  0.00    -0.203 F 
ATOM     50  F   UNL     1       9.871  -7.819  -4.137  1.00  0.00    -0.200 F 
ATOM     51  C   UNL     1       8.718  -9.783  -3.517  1.00  0.00     0.200 A 
ATOM     52  F   UNL     1       7.550 -11.724  -2.853  1.00  0.00    -0.200 F 
ATOM     53  F   UNL     1       8.964 -10.324  -4.717  1.00  0.00    -0.200 F 
ENDBRANCH  29  43
BRANCH  30  54
ATOM     54  C   UNL     1       6.659  -4.759   8.086  1.00  0.00     0.064 A 
ATOM     55  C   UNL     1       7.691  -4.183   8.839  1.00  0.00     0.173 A 
ATOM     56  C   UNL     1       5.382  -4.816   8.668  1.00  0.00     0.173 A 
ATOM     57  F   UNL     1       8.932  -4.120   8.336  1.00  0.00    -0.203 F 
ATOM     58  C   UNL     1       7.464  -3.716  10.133  1.00  0.00     0.198 A 
ATOM     59  C   UNL     1       5.148  -4.312   9.944  1.00  0.00     0.198 A 
ATOM     60  F   UNL     1       4.357  -5.350   7.989  1.00  0.00    -0.203 F 
ATOM     61  F   UNL     1       8.482  -3.230  10.854  1.00  0.00    -0.200 F 
ATOM     62  C   UNL     1       6.192  -3.776  10.682  1.00  0.00     0.200 A 
ATOM     63  F   UNL     1       3.912  -4.353  10.461  1.00  0.00    -0.200 F 
ATOM     64  F   UNL     1       5.974  -3.327  11.925  1.00  0.00    -0.200 F 
ENDBRANCH  30  54
BRANCH  42  65
ATOM     65  C   UNL     1      10.442 -10.094   5.718  1.00  0.00     0.064 A 
ATOM     66  C   UNL     1       9.923 -11.059   6.595  1.00  0.00     0.173 A 
ATOM     67  C   UNL     1      11.830 -10.074   5.513  1.00  0.00     0.173 A 
ATOM     68  F   UNL     1       8.605 -11.109   6.840  1.00  0.00    -0.203 F 
ATOM     69  C   UNL     1      10.764 -11.936   7.274  1.00  0.00     0.198 A 
ATOM     70  C   UNL     1      12.664 -10.977   6.165  1.00  0.00     0.198 A 
ATOM     71  F   UNL     1      12.378  -9.176   4.680  1.00  0.00    -0.203 F 
ATOM     72  F   UNL     1      10.252 -12.800   8.162  1.00  0.00    -0.200 F 
ATOM     73  C   UNL     1      12.133 -11.898   7.055  1.00  0.00     0.200 A 
ATOM     74  F   UNL     1      13.985 -10.948   5.941  1.00  0.00    -0.200 F 
ATOM     75  F   UNL     1      12.941 -12.741   7.712  1.00  0.00    -0.200 F 
ENDBRANCH  42  65
ENDBRANCH  16  17
ENDBRANCH   9  11
ENDBRANCH   6   7
ENDBRANCH   5   6
ENDBRANCH   4   5
ENDBRANCH   3   4
ENDBRANCH   2   3
ENDBRANCH   1   2
BRANCH   1  76
ATOM     76  N   UNL     1       6.513   6.213  -3.719  1.00  0.00    -0.352 N 
ATOM     77  C   UNL     1       7.438   7.044  -4.319  1.00  0.00     0.251 C 
ATOM     78  H   UNL     1       5.600   6.575  -3.645  1.00  0.00     0.163 HD
ATOM     79  O   UNL     1       7.091   8.149  -4.728  1.00  0.00    -0.269 OA
BRANCH  77  80
ATOM     80  C   UNL     1       8.864   6.645  -4.425  1.00  0.00     0.040 A 
ATOM     81  C   UNL     1       9.839   7.506  -3.921  1.00  0.00     0.014 A 
ATOM     82  C   UNL     1       9.243   5.420  -4.982  1.00  0.00     0.018 A 
ATOM     83  C   UNL     1      11.178   7.113  -3.924  1.00  0.00     0.001 A 
ATOM     84  C   UNL     1      10.575   4.970  -4.917  1.00  0.00    -0.039 A 
ATOM     85  C   UNL     1      11.540   5.850  -4.401  1.00  0.00     0.004 A 
BRANCH  84  86
ATOM     86  C   UNL     1      10.962   3.518  -5.205  1.00  0.00     0.074 C 
ATOM     87  C   UNL     1      10.824   3.042  -6.660  1.00  0.00     0.020 C 
ATOM     88  C   UNL     1      10.197   2.557  -4.267  1.00  0.00     0.270 C 
ATOM     89  C   UNL     1       9.390   2.701  -7.061  1.00  0.00     0.062 C 
ATOM     90  N   UNL     1       8.797   2.415  -4.672  1.00  0.00    -0.331 N 
ATOM     91  C   UNL     1       8.650   1.858  -6.014  1.00  0.00     0.262 C 
ATOM     92  H   UNL     1       8.443   3.369  -4.744  1.00  0.00     0.348 HD
BRANCH  90  93
ATOM     93  C   UNL     1       7.915   1.844  -3.663  1.00  0.00     0.299 C 
BRANCH  93  94
ATOM     94  C   UNL     1       7.949   0.356  -3.456  1.00  0.00     0.010 A 
ATOM     95  C   UNL     1       6.887  -0.448  -3.884  1.00  0.00     0.010 A 
ATOM     96  C   UNL     1       9.043  -0.236  -2.822  1.00  0.00     0.056 A 
ATOM     97  C   UNL     1       6.928  -1.825  -3.685  1.00  0.00     0.004 A 
ATOM     98  C   UNL     1       9.138  -1.619  -2.712  1.00  0.00     0.119 A 
ATOM     99  C   UNL     1       8.058  -2.408  -3.111  1.00  0.00     0.046 A 
BRANCH  98 100
ATOM    100  O   UNL     1      10.250  -2.301  -2.300  1.00  0.00    -0.491 OA
BRANCH 100 101
ATOM    101  C   UNL     1      11.480  -1.575  -2.171  1.00  0.00     0.257 C 
BRANCH 101 102
ATOM    102  C   UNL     1      12.228  -1.407  -3.502  1.00  0.00     0.197 C 
BRANCH 102 103
ATOM    103  O   UNL     1      11.487  -0.717  -4.501  1.00  0.00    -0.393 OA
ATOM    104  H   UNL     1      10.688  -1.222  -4.718  1.00  0.00     0.210 HD
ENDBRANCH 102 103
ENDBRANCH 101 102
ENDBRANCH 100 101
ENDBRANCH  98 100
ENDBRANCH  93  94
ENDBRANCH  90  93
ENDBRANCH  84  86
ENDBRANCH  77  80
ENDBRANCH   1  76
TORSDOF 20
