REMARK SMILES Cc1cc(C)n(-c2nc(C)c(C)c(Oc3cccc(C(=O)NCCCCCCNC(=O)c4ccc(-c5c6nc(c(-c7c(F)c(F)c(F)c(F)c7F)c7ccc([nH]7)c(-c7c(F)c(F)c(F)c(F)c7F)c7nc(c(-c8c(F)c(F)c(F)c(F)c8F)c8ccc5[nH]8)C=C7)C=C6)cc4)c3)n2)n1
REMARK SMILES IDX 25 1 24 2 23 3 22 4 20 5 21 6 19 8 15 9 16 10 95 11 17 12
REMARK SMILES IDX 18 13 14 14 13 15 7 16 8 17 96 18 9 19 10 20 11 21 12 22
REMARK SMILES IDX 6 23 1 24 2 25 3 26 97 27 4 28 5 29 26 30 27 31 28 32 29 33
REMARK SMILES IDX 30 34 31 36 32 37 33 38 94 39 34 40 93 41 35 42 36 43 37 44
REMARK SMILES IDX 87 45 38 46 92 47 86 48 88 49 39 50 91 51 85 52 84 53 40 55
REMARK SMILES IDX 72 56 52 57 71 58 53 59 56 60 70 61 89 62 54 63 55 64 69 66
REMARK SMILES IDX 90 67 57 68 41 69 42 70 50 71 43 72 44 73 48 74 51 75 45 76
REMARK SMILES IDX 46 77 49 78 47 79 73 80 74 81 82 82 75 83 76 84 80 85 83 86
REMARK SMILES IDX 77 87 78 88 81 89 79 90 58 91 59 92 67 93 60 94 61 95 65 96
REMARK SMILES IDX 68 97 62 98 63 99 66 100 64 101
REMARK H PARENT 22 7 29 35 88 54 56 65
REMARK Flexibility Score: inf
ROOT
ATOM      1  C   UNL     1      -4.958  -6.741   0.736  1.00  0.00     0.002 C 
ENDROOT
BRANCH   1   2
ATOM      2  C   UNL     1      -4.843  -5.729   1.887  1.00  0.00     0.021 C 
BRANCH   2   3
ATOM      3  C   UNL     1      -4.393  -4.341   1.423  1.00  0.00     0.116 C 
BRANCH   3   4
ATOM      4  N   UNL     1      -5.530  -3.603   0.916  1.00  0.00    -0.352 N 
ATOM      5  C   UNL     1      -6.304  -2.585   1.406  1.00  0.00     0.251 C 
ATOM      6  O   UNL     1      -7.260  -2.242   0.706  1.00  0.00    -0.269 OA
ATOM      7  H   UNL     1      -5.810  -3.898   0.020  1.00  0.00     0.163 HD
BRANCH   5   8
ATOM      8  C   UNL     1      -6.034  -1.838   2.670  1.00  0.00     0.043 A 
ATOM      9  C   UNL     1      -4.888  -1.409   4.763  1.00  0.00     0.130 A 
ATOM     10  C   UNL     1      -5.511  -0.169   4.877  1.00  0.00     0.047 A 
ATOM     11  C   UNL     1      -5.225  -2.278   3.719  1.00  0.00     0.061 A 
ATOM     12  C   UNL     1      -6.410   0.240   3.899  1.00  0.00     0.005 A 
ATOM     13  C   UNL     1      -6.646  -0.577   2.792  1.00  0.00     0.014 A 
BRANCH   9  14
ATOM     14  O   UNL     1      -4.007  -1.761   5.758  1.00  0.00    -0.439 OA
BRANCH  14  15
ATOM     15  C   UNL     1      -2.754  -2.257   5.384  1.00  0.00     0.227 A 
ATOM     16  C   UNL     1      -1.071  -2.510   3.854  1.00  0.00     0.254 A 
ATOM     17  N   UNL     1      -0.370  -3.304   4.695  1.00  0.00    -0.216 NA
ATOM     18  N   UNL     1      -2.251  -1.946   4.170  1.00  0.00    -0.175 NA
ATOM     19  C   UNL     1      -0.840  -3.480   5.947  1.00  0.00     0.050 A 
ATOM     20  C   UNL     1       0.136  -4.120   6.891  1.00  0.00     0.067 C 
ATOM     21  C   UNL     1      -2.084  -3.013   6.338  1.00  0.00     0.033 A 
ATOM     22  C   UNL     1      -2.649  -3.272   7.699  1.00  0.00     0.052 C 
BRANCH  16  23
ATOM     23  N   UNL     1      -0.476  -2.257   2.565  1.00  0.00    -0.203 N 
ATOM     24  C   UNL     1       0.641   0.114   0.150  1.00  0.00     0.069 C 
ATOM     25  C   UNL     1       0.321  -1.090   0.957  1.00  0.00     0.060 A 
ATOM     26  C   UNL     1       0.885  -2.373   0.819  1.00  0.00     0.049 A 
ATOM     27  N   UNL     1      -0.595  -1.051   1.933  1.00  0.00    -0.170 NA
ATOM     28  C   UNL     1       0.341  -3.120   1.838  1.00  0.00     0.045 A 
ATOM     29  C   UNL     1       0.500  -4.563   2.148  1.00  0.00     0.067 C 
ENDBRANCH  16  23
ENDBRANCH  14  15
ENDBRANCH   9  14
ENDBRANCH   5   8
ENDBRANCH   3   4
ENDBRANCH   2   3
ENDBRANCH   1   2
BRANCH   1  30
ATOM     30  C   UNL     1      -3.676  -6.947  -0.089  1.00  0.00     0.002 C 
BRANCH  30  31
ATOM     31  C   UNL     1      -2.402  -7.231   0.719  1.00  0.00     0.021 C 
BRANCH  31  32
ATOM     32  C   UNL     1      -2.407  -8.601   1.375  1.00  0.00     0.116 C 
BRANCH  32  33
ATOM     33  N   UNL     1      -2.337  -9.674   0.387  1.00  0.00    -0.352 N 
ATOM     34  C   UNL     1      -2.396 -11.037   0.590  1.00  0.00     0.251 C 
ATOM     35  H   UNL     1      -2.236  -9.386  -0.549  1.00  0.00     0.163 HD
ATOM     36  O   UNL     1      -1.996 -11.823  -0.248  1.00  0.00    -0.269 OA
BRANCH  34  37
ATOM     37  C   UNL     1      -2.956 -11.524   1.862  1.00  0.00     0.039 A 
ATOM     38  C   UNL     1      -2.339 -12.560   2.566  1.00  0.00     0.014 A 
ATOM     39  C   UNL     1      -4.097 -10.898   2.356  1.00  0.00     0.014 A 
ATOM     40  C   UNL     1      -2.841 -12.912   3.814  1.00  0.00     0.010 A 
ATOM     41  C   UNL     1      -4.497 -11.141   3.645  1.00  0.00     0.010 A 
ATOM     42  C   UNL     1      -3.913 -12.185   4.356  1.00  0.00    -0.014 A 
BRANCH  42  43
ATOM     43  C   UNL     1      -4.398 -12.471   5.700  1.00  0.00     0.031 A 
ATOM     44  C   UNL     1      -3.381 -12.403   6.788  1.00  0.00     0.074 A 
ATOM     45  C   UNL     1      -5.713 -12.586   5.980  1.00  0.00     0.049 A 
ATOM     46  N   UNL     1      -3.017 -13.344   7.598  1.00  0.00    -0.248 NA
ATOM     47  C   UNL     1      -2.617 -11.155   6.946  1.00  0.00     0.031 C 
ATOM     48  C   UNL     1      -6.864 -12.376   5.091  1.00  0.00     0.029 A 
ATOM     49  N   UNL     1      -6.304 -12.822   7.181  1.00  0.00    -0.354 N 
ATOM     50  C   UNL     1      -2.086 -12.778   8.466  1.00  0.00     0.074 A 
ATOM     51  C   UNL     1      -1.787 -11.469   7.944  1.00  0.00     0.031 C 
ATOM     52  C   UNL     1      -7.990 -12.265   5.827  1.00  0.00     0.029 A 
ATOM     53  C   UNL     1      -7.669 -12.578   7.205  1.00  0.00     0.049 A 
ATOM     54  H   UNL     1      -5.804 -13.139   7.968  1.00  0.00     0.167 HD
ATOM     55  C   UNL     1      -1.770 -13.364   9.655  1.00  0.00     0.037 A 
ATOM     56  C   UNL     1      -8.471 -12.604   8.295  1.00  0.00     0.037 A 
ATOM     57  C   UNL     1      -2.173 -14.745   9.683  1.00  0.00     0.049 A 
ATOM     58  C   UNL     1      -7.778 -13.419   9.323  1.00  0.00     0.074 A 
ATOM     59  C   UNL     1      -1.820 -15.872   8.967  1.00  0.00     0.029 A 
ATOM     60  N   UNL     1      -3.352 -15.063  10.308  1.00  0.00    -0.354 N 
ATOM     61  N   UNL     1      -7.552 -14.699   9.208  1.00  0.00    -0.248 NA
ATOM     62  C   UNL     1      -6.950 -12.723  10.294  1.00  0.00     0.031 C 
ATOM     63  C   UNL     1      -3.035 -16.602   8.803  1.00  0.00     0.029 A 
ATOM     64  C   UNL     1      -4.042 -15.907   9.475  1.00  0.00     0.049 A 
ATOM     65  H   UNL     1      -3.648 -14.744  11.191  1.00  0.00     0.167 HD
ATOM     66  C   UNL     1      -6.293 -14.885   9.758  1.00  0.00     0.074 A 
ATOM     67  C   UNL     1      -6.020 -13.658  10.502  1.00  0.00     0.031 C 
ATOM     68  C   UNL     1      -5.480 -15.896   9.330  1.00  0.00     0.037 A 
BRANCH  55  69
ATOM     69  C   UNL     1      -1.374 -12.616  10.904  1.00  0.00     0.064 A 
ATOM     70  C   UNL     1      -0.882 -13.325  12.019  1.00  0.00     0.173 A 
ATOM     71  C   UNL     1      -1.722 -11.270  11.147  1.00  0.00     0.173 A 
ATOM     72  F   UNL     1      -0.546 -14.620  11.912  1.00  0.00    -0.203 F 
ATOM     73  C   UNL     1      -0.800 -12.745  13.289  1.00  0.00     0.198 A 
ATOM     74  C   UNL     1      -1.589 -10.679  12.403  1.00  0.00     0.198 A 
ATOM     75  F   UNL     1      -2.305 -10.509  10.213  1.00  0.00    -0.203 F 
ATOM     76  F   UNL     1      -0.434 -13.491  14.340  1.00  0.00    -0.200 F 
ATOM     77  C   UNL     1      -1.156 -11.422  13.480  1.00  0.00     0.200 A 
ATOM     78  F   UNL     1      -1.959  -9.401  12.572  1.00  0.00    -0.200 F 
ATOM     79  F   UNL     1      -1.130 -10.879  14.704  1.00  0.00    -0.200 F 
ENDBRANCH  55  69
BRANCH  56  80
ATOM     80  C   UNL     1      -9.588 -11.687   8.621  1.00  0.00     0.064 A 
ATOM     81  C   UNL     1     -10.460 -11.978   9.682  1.00  0.00     0.173 A 
ATOM     82  C   UNL     1      -9.637 -10.375   8.110  1.00  0.00     0.173 A 
ATOM     83  F   UNL     1     -10.450 -13.194  10.247  1.00  0.00    -0.203 F 
ATOM     84  C   UNL     1     -11.293 -11.001  10.235  1.00  0.00     0.198 A 
ATOM     85  C   UNL     1     -10.475  -9.403   8.657  1.00  0.00     0.198 A 
ATOM     86  F   UNL     1      -8.800  -9.979   7.140  1.00  0.00    -0.203 F 
ATOM     87  F   UNL     1     -12.050 -11.295  11.300  1.00  0.00    -0.200 F 
ATOM     88  C   UNL     1     -11.288  -9.710   9.732  1.00  0.00     0.200 A 
ATOM     89  F   UNL     1     -10.435  -8.149   8.184  1.00  0.00    -0.200 F 
ATOM     90  F   UNL     1     -12.027  -8.755  10.311  1.00  0.00    -0.200 F 
ENDBRANCH  56  80
BRANCH  68  91
ATOM     91  C   UNL     1      -6.088 -16.949   8.439  1.00  0.00     0.064 A 
ATOM     92  C   UNL     1      -6.618 -16.693   7.162  1.00  0.00     0.173 A 
ATOM     93  C   UNL     1      -6.014 -18.289   8.840  1.00  0.00     0.173 A 
ATOM     94  F   UNL     1      -6.631 -15.456   6.655  1.00  0.00    -0.203 F 
ATOM     95  C   UNL     1      -7.098 -17.721   6.351  1.00  0.00     0.198 A 
ATOM     96  C   UNL     1      -6.458 -19.319   8.014  1.00  0.00     0.198 A 
ATOM     97  F   UNL     1      -5.465 -18.606  10.024  1.00  0.00    -0.203 F 
ATOM     98  F   UNL     1      -7.615 -17.442   5.145  1.00  0.00    -0.200 F 
ATOM     99  C   UNL     1      -7.011 -19.035   6.776  1.00  0.00     0.200 A 
ATOM    100  F   UNL     1      -6.325 -20.593   8.409  1.00  0.00    -0.200 F 
ATOM    101  F   UNL     1      -7.436 -20.028   5.983  1.00  0.00    -0.200 F 
ENDBRANCH  68  91
ENDBRANCH  42  43
ENDBRANCH  34  37
ENDBRANCH  32  33
ENDBRANCH  31  32
ENDBRANCH  30  31
ENDBRANCH   1  30
TORSDOF 16
