REMARK SMILES CCOc1cc(/C=C2/C(=O)N(c3cccc(C(=O)NCCCCCCNC(=O)c4ccc(-c5c6nc(c(-c7c(F)c(F)c(F)c(F)c7F)c7ccc([nH]7)c(-c7c(F)c(F)c(F)c(F)c7F)c7nc(c(-c8c(F)c(F)c(F)c(F)c8F)c8ccc5[nH]8)C=C7)C=C6)cc4)c3)N=C2C)cc(Cl)c1O
REMARK SMILES IDX 21 1 20 2 19 3 17 4 18 5 16 7 12 8 13 9 92 10 14 11 15 12
REMARK SMILES IDX 11 13 7 14 8 15 9 16 94 17 10 18 93 19 95 20 6 21 4 22 5 23
REMARK SMILES IDX 99 24 97 25 96 26 98 27 3 28 2 29 1 30 100 31 22 33 23 34
REMARK SMILES IDX 24 35 25 36 26 37 27 38 28 40 29 41 30 42 91 43 31 44 90 45
REMARK SMILES IDX 32 46 33 47 34 48 84 49 35 50 89 51 83 52 85 53 36 54 88 55
REMARK SMILES IDX 82 56 81 57 37 59 69 60 49 61 68 62 50 63 53 64 67 65 86 66
REMARK SMILES IDX 51 67 52 68 66 70 87 71 54 72 38 73 39 74 47 75 40 76 41 77
REMARK SMILES IDX 45 78 48 79 42 80 43 81 46 82 44 83 70 84 71 85 79 86 72 87
REMARK SMILES IDX 73 88 77 89 80 90 74 91 75 92 78 93 76 94 55 95 56 96 64 97
REMARK SMILES IDX 57 98 58 99 62 100 65 101 59 102 60 103 63 104 61 105
REMARK H PARENT 19 6 100 32 26 39 85 58 53 69
REMARK Flexibility Score: inf
ROOT
ATOM      1  C   UNL     1       2.396   7.131  -9.603  1.00  0.00     0.021 C 
ENDROOT
BRANCH   1   2
ATOM      2  C   UNL     1       3.832   7.277  -9.112  1.00  0.00     0.116 C 
BRANCH   2   3
ATOM      3  N   UNL     1       4.487   8.509  -9.520  1.00  0.00    -0.352 N 
ATOM      4  C   UNL     1       5.303   9.380  -8.828  1.00  0.00     0.251 C 
ATOM      5  O   UNL     1       5.736  10.371  -9.415  1.00  0.00    -0.269 OA
ATOM      6  H   UNL     1       4.319   8.768 -10.455  1.00  0.00     0.163 HD
BRANCH   4   7
ATOM      7  C   UNL     1       5.599   9.209  -7.378  1.00  0.00     0.041 A 
ATOM      8  C   UNL     1       5.590   7.834  -5.383  1.00  0.00     0.069 A 
ATOM      9  C   UNL     1       5.666   8.996  -4.603  1.00  0.00     0.028 A 
ATOM     10  C   UNL     1       5.698   7.954  -6.772  1.00  0.00     0.042 A 
ATOM     11  C   UNL     1       5.775  10.252  -5.201  1.00  0.00     0.003 A 
ATOM     12  C   UNL     1       5.698  10.361  -6.588  1.00  0.00     0.014 A 
BRANCH   8  13
ATOM     13  N   UNL     1       5.257   6.592  -4.788  1.00  0.00    -0.196 N 
ATOM     14  C   UNL     1       4.550   3.144  -4.512  1.00  0.00     0.024 C 
ATOM     15  C   UNL     1       4.589   4.474  -4.379  1.00  0.00     0.065 C 
ATOM     16  C   UNL     1       5.262   5.326  -5.396  1.00  0.00     0.280 C 
ATOM     17  C   UNL     1       4.157   5.418  -3.340  1.00  0.00     0.071 C 
ATOM     18  O   UNL     1       5.672   4.944  -6.472  1.00  0.00    -0.267 OA
ATOM     19  N   UNL     1       4.591   6.630  -3.563  1.00  0.00    -0.169 NA
ATOM     20  C   UNL     1       3.241   5.081  -2.213  1.00  0.00     0.069 C 
BRANCH  14  21
ATOM     21  C   UNL     1       4.109   2.153  -3.528  1.00  0.00    -0.019 A 
ATOM     22  C   UNL     1       2.422   0.853  -2.388  1.00  0.00     0.163 A 
ATOM     23  C   UNL     1       2.761   1.889  -3.263  1.00  0.00     0.058 A 
ATOM     24  C   UNL     1       3.411   0.035  -1.837  1.00  0.00     0.176 A 
ATOM     25  C   UNL     1       4.753   0.323  -2.062  1.00  0.00     0.087 A 
ATOM     26  C   UNL     1       5.101   1.381  -2.903  1.00  0.00     0.032 A 
ATOM     27  Cl  UNL     1       6.010  -0.629  -1.363  1.00  0.00    -0.080 Cl
BRANCH  22  28
ATOM     28  O   UNL     1       1.103   0.563  -2.151  1.00  0.00    -0.490 OA
BRANCH  28  29
ATOM     29  C   UNL     1       0.602   1.253  -0.993  1.00  0.00     0.226 C 
ATOM     30  C   UNL     1       0.535   0.317   0.204  1.00  0.00     0.049 C 
ENDBRANCH  28  29
ENDBRANCH  22  28
BRANCH  24  31
ATOM     31  O   UNL     1       3.051  -1.072  -1.117  1.00  0.00    -0.503 OA
ATOM     32  H   UNL     1       2.145  -1.260  -0.969  1.00  0.00     0.293 HD
ENDBRANCH  24  31
ENDBRANCH  14  21
ENDBRANCH   8  13
ENDBRANCH   4   7
ENDBRANCH   2   3
ENDBRANCH   1   2
BRANCH   1  33
ATOM     33  C   UNL     1       2.194   7.040 -11.115  1.00  0.00     0.002 C 
BRANCH  33  34
ATOM     34  C   UNL     1       2.994   5.959 -11.845  1.00  0.00     0.002 C 
BRANCH  34  35
ATOM     35  C   UNL     1       2.889   4.540 -11.283  1.00  0.00     0.021 C 
BRANCH  35  36
ATOM     36  C   UNL     1       1.473   3.994 -11.123  1.00  0.00     0.116 C 
BRANCH  36  37
ATOM     37  N   UNL     1       0.760   3.894 -12.386  1.00  0.00    -0.352 N 
ATOM     38  C   UNL     1       0.198   2.799 -12.995  1.00  0.00     0.251 C 
ATOM     39  H   UNL     1       0.665   4.741 -12.879  1.00  0.00     0.163 HD
ATOM     40  O   UNL     1      -0.232   2.881 -14.141  1.00  0.00    -0.269 OA
BRANCH  38  41
ATOM     41  C   UNL     1       0.134   1.505 -12.282  1.00  0.00     0.039 A 
ATOM     42  C   UNL     1       0.535   0.346 -12.953  1.00  0.00     0.014 A 
ATOM     43  C   UNL     1      -0.315   1.431 -10.961  1.00  0.00     0.014 A 
ATOM     44  C   UNL     1       0.564  -0.874 -12.274  1.00  0.00     0.010 A 
ATOM     45  C   UNL     1      -0.221   0.227 -10.265  1.00  0.00     0.010 A 
ATOM     46  C   UNL     1       0.231  -0.934 -10.911  1.00  0.00    -0.014 A 
BRANCH  46  47
ATOM     47  C   UNL     1       0.383  -2.192 -10.135  1.00  0.00     0.031 A 
ATOM     48  C   UNL     1      -0.817  -2.867  -9.534  1.00  0.00     0.074 A 
ATOM     49  C   UNL     1       1.617  -2.684  -9.908  1.00  0.00     0.049 A 
ATOM     50  N   UNL     1      -0.872  -3.914  -8.750  1.00  0.00    -0.248 NA
ATOM     51  C   UNL     1      -2.127  -2.272  -9.834  1.00  0.00     0.031 C 
ATOM     52  C   UNL     1       2.864  -2.099 -10.405  1.00  0.00     0.029 A 
ATOM     53  N   UNL     1       2.029  -3.777  -9.187  1.00  0.00    -0.354 N 
ATOM     54  C   UNL     1      -2.217  -4.098  -8.457  1.00  0.00     0.074 A 
ATOM     55  C   UNL     1      -2.939  -3.024  -9.105  1.00  0.00     0.031 C 
ATOM     56  C   UNL     1       3.897  -2.847  -9.990  1.00  0.00     0.029 A 
ATOM     57  C   UNL     1       3.394  -3.936  -9.158  1.00  0.00     0.049 A 
ATOM     58  H   UNL     1       1.406  -4.390  -8.734  1.00  0.00     0.167 HD
ATOM     59  C   UNL     1      -2.796  -5.083  -7.731  1.00  0.00     0.037 A 
ATOM     60  C   UNL     1       4.155  -4.844  -8.519  1.00  0.00     0.037 A 
ATOM     61  C   UNL     1      -2.074  -6.157  -7.099  1.00  0.00     0.049 A 
ATOM     62  C   UNL     1       3.487  -5.907  -7.688  1.00  0.00     0.074 A 
ATOM     63  C   UNL     1      -2.576  -7.235  -6.391  1.00  0.00     0.029 A 
ATOM     64  N   UNL     1      -0.692  -6.284  -7.092  1.00  0.00    -0.354 N 
ATOM     65  N   UNL     1       2.210  -6.110  -7.475  1.00  0.00    -0.248 NA
ATOM     66  C   UNL     1       4.368  -6.867  -7.009  1.00  0.00     0.031 C 
ATOM     67  C   UNL     1      -1.497  -7.981  -5.905  1.00  0.00     0.029 A 
ATOM     68  C   UNL     1      -0.323  -7.404  -6.361  1.00  0.00     0.049 A 
ATOM     69  H   UNL     1      -0.066  -5.671  -7.540  1.00  0.00     0.167 HD
ATOM     70  C   UNL     1       2.132  -7.232  -6.660  1.00  0.00     0.074 A 
ATOM     71  C   UNL     1       3.491  -7.678  -6.434  1.00  0.00     0.031 C 
ATOM     72  C   UNL     1       1.034  -7.836  -6.143  1.00  0.00     0.037 A 
BRANCH  59  73
ATOM     73  C   UNL     1      -4.290  -5.045  -7.572  1.00  0.00     0.064 A 
ATOM     74  C   UNL     1      -5.153  -5.292  -8.651  1.00  0.00     0.173 A 
ATOM     75  C   UNL     1      -4.866  -4.801  -6.316  1.00  0.00     0.173 A 
ATOM     76  F   UNL     1      -4.655  -5.521  -9.876  1.00  0.00    -0.203 F 
ATOM     77  C   UNL     1      -6.535  -5.265  -8.485  1.00  0.00     0.198 A 
ATOM     78  C   UNL     1      -6.248  -4.808  -6.147  1.00  0.00     0.198 A 
ATOM     79  F   UNL     1      -4.088  -4.566  -5.248  1.00  0.00    -0.203 F 
ATOM     80  F   UNL     1      -7.339  -5.453  -9.541  1.00  0.00    -0.200 F 
ATOM     81  C   UNL     1      -7.082  -5.032  -7.232  1.00  0.00     0.200 A 
ATOM     82  F   UNL     1      -6.774  -4.597  -4.932  1.00  0.00    -0.200 F 
ATOM     83  F   UNL     1      -8.412  -5.015  -7.072  1.00  0.00    -0.200 F 
ENDBRANCH  59  73
BRANCH  60  84
ATOM     84  C   UNL     1       5.636  -4.793  -8.641  1.00  0.00     0.064 A 
ATOM     85  C   UNL     1       6.338  -5.799  -9.319  1.00  0.00     0.173 A 
ATOM     86  C   UNL     1       6.380  -3.746  -8.076  1.00  0.00     0.173 A 
ATOM     87  F   UNL     1       5.674  -6.832  -9.857  1.00  0.00    -0.203 F 
ATOM     88  C   UNL     1       7.729  -5.772  -9.407  1.00  0.00     0.198 A 
ATOM     89  C   UNL     1       7.768  -3.704  -8.193  1.00  0.00     0.198 A 
ATOM     90  F   UNL     1       5.757  -2.755  -7.421  1.00  0.00    -0.203 F 
ATOM     91  F   UNL     1       8.378  -6.774 -10.017  1.00  0.00    -0.200 F 
ATOM     92  C   UNL     1       8.442  -4.722  -8.850  1.00  0.00     0.200 A 
ATOM     93  F   UNL     1       8.451  -2.678  -7.667  1.00  0.00    -0.200 F 
ATOM     94  F   UNL     1       9.778  -4.695  -8.939  1.00  0.00    -0.200 F 
ENDBRANCH  60  84
BRANCH  72  95
ATOM     95  C   UNL     1       1.254  -9.060  -5.300  1.00  0.00     0.064 A 
ATOM     96  C   UNL     1       1.824  -8.979  -4.021  1.00  0.00     0.173 A 
ATOM     97  C   UNL     1       0.856 -10.324  -5.763  1.00  0.00     0.173 A 
ATOM     98  F   UNL     1       2.235  -7.797  -3.538  1.00  0.00    -0.203 F 
ATOM     99  C   UNL     1       2.010 -10.122  -3.247  1.00  0.00     0.198 A 
ATOM    100  C   UNL     1       1.012 -11.459  -4.972  1.00  0.00     0.198 A 
ATOM    101  F   UNL     1       0.299 -10.456  -6.976  1.00  0.00    -0.203 F 
ATOM    102  F   UNL     1       2.601 -10.027  -2.048  1.00  0.00    -0.200 F 
ATOM    103  C   UNL     1       1.597 -11.359  -3.719  1.00  0.00     0.200 A 
ATOM    104  F   UNL     1       0.597 -12.650  -5.424  1.00  0.00    -0.200 F 
ATOM    105  F   UNL     1       1.767 -12.456  -2.968  1.00  0.00    -0.200 F 
ENDBRANCH  72  95
ENDBRANCH  46  47
ENDBRANCH  38  41
ENDBRANCH  36  37
ENDBRANCH  35  36
ENDBRANCH  34  35
ENDBRANCH  33  34
ENDBRANCH   1  33
TORSDOF 18
