REMARK SMILES CC(C)Cc1ccc(S(=O)(=O)Nc2cnc(N3CCCC3)c(C(=O)NCCCCCCNC(=O)c3ccc(-c4c5nc(c(-c6c(F)c(F)c(F)c(F)c6F)c6ccc([nH]6)c(-c6c(F)c(F)c(F)c(F)c6F)c6nc(c(-c7c(F)c(F)c(F)c(F)c7F)c7ccc4[nH]7)C=C6)C=C5)cc3)c2)cc1
REMARK SMILES IDX 27 1 26 2 25 3 23 4 24 5 22 7 13 8 14 9 98 10 15 11 16 12
REMARK SMILES IDX 12 13 9 15 10 16 11 17 8 18 5 19 6 20 100 21 7 22 99 23 4 24
REMARK SMILES IDX 2 25 1 26 3 27 17 28 18 29 21 30 19 31 20 32 28 33 29 34
REMARK SMILES IDX 30 35 31 36 32 37 33 38 34 40 35 41 36 42 97 43 37 44 96 45
REMARK SMILES IDX 38 46 39 47 40 48 90 49 41 50 95 51 89 52 91 53 42 54 94 55
REMARK SMILES IDX 88 56 87 57 43 59 75 60 55 61 74 62 56 63 59 64 73 65 92 66
REMARK SMILES IDX 57 67 58 68 72 70 93 71 60 72 44 73 45 74 53 75 46 76 47 77
REMARK SMILES IDX 51 78 54 79 48 80 49 81 52 82 50 83 76 84 77 85 85 86 78 87
REMARK SMILES IDX 79 88 83 89 86 90 80 91 81 92 84 93 82 94 61 95 62 96 70 97
REMARK SMILES IDX 63 98 64 99 68 100 71 101 65 102 66 103 69 104 67 105
REMARK H PARENT 25 6 12 14 32 39 91 58 59 69
REMARK Flexibility Score: inf
ROOT
ATOM      1  C   UNL     1       1.895  -0.396   4.324  1.00  0.00     0.021 C 
ENDROOT
BRANCH   1   2
ATOM      2  C   UNL     1       0.667  -0.335   3.421  1.00  0.00     0.116 C 
BRANCH   2   3
ATOM      3  N   UNL     1       0.446  -1.633   2.816  1.00  0.00    -0.352 N 
ATOM      4  C   UNL     1      -0.458  -2.657   2.894  1.00  0.00     0.255 C 
ATOM      5  O   UNL     1      -0.131  -3.612   2.190  1.00  0.00    -0.269 OA
ATOM      6  H   UNL     1       1.148  -1.836   2.157  1.00  0.00     0.163 HD
BRANCH   4   7
ATOM      7  C   UNL     1      -1.755  -2.617   3.658  1.00  0.00     0.084 A 
ATOM      8  C   UNL     1      -3.314  -1.243   4.883  1.00  0.00     0.068 A 
ATOM      9  C   UNL     1      -4.316  -2.114   4.504  1.00  0.00     0.140 A 
ATOM     10  C   UNL     1      -2.007  -1.607   4.596  1.00  0.00     0.046 A 
ATOM     11  N   UNL     1      -4.100  -3.200   3.742  1.00  0.00    -0.236 NA
ATOM     12  C   UNL     1      -2.841  -3.444   3.284  1.00  0.00     0.141 A 
BRANCH   8  13
ATOM     13  N   UNL     1      -3.677   0.038   5.386  1.00  0.00    -0.278 N 
ATOM     14  H   UNL     1      -4.410   0.091   6.042  1.00  0.00     0.180 HD
BRANCH  13  15
ATOM     15  S   UNL     1      -2.919   1.470   4.917  1.00  0.00     0.261 S 
ATOM     16  O   UNL     1      -1.601   1.478   5.531  1.00  0.00    -0.201 OA
ATOM     17  O   UNL     1      -3.874   2.514   5.196  1.00  0.00    -0.201 OA
BRANCH  15  18
ATOM     18  C   UNL     1      -2.642   1.495   3.149  1.00  0.00     0.087 A 
ATOM     19  C   UNL     1      -1.771   1.473   0.463  1.00  0.00    -0.048 A 
ATOM     20  C   UNL     1      -1.382   2.503   1.327  1.00  0.00     0.005 A 
ATOM     21  C   UNL     1      -2.659   0.500   0.942  1.00  0.00     0.005 A 
ATOM     22  C   UNL     1      -1.799   2.506   2.664  1.00  0.00     0.022 A 
ATOM     23  C   UNL     1      -3.118   0.527   2.267  1.00  0.00     0.022 A 
BRANCH  19  24
ATOM     24  C   UNL     1      -1.264   1.414  -0.964  1.00  0.00     0.038 C 
BRANCH  24  25
ATOM     25  C   UNL     1       0.267   1.258  -1.100  1.00  0.00    -0.013 C 
ATOM     26  C   UNL     1       0.758  -0.081  -0.551  1.00  0.00     0.008 C 
ATOM     27  C   UNL     1       0.687   1.374  -2.568  1.00  0.00     0.008 C 
ENDBRANCH  24  25
ENDBRANCH  19  24
ENDBRANCH  15  18
ENDBRANCH  13  15
ENDBRANCH   8  13
BRANCH  12  28
ATOM     28  N   UNL     1      -2.765  -4.481   2.406  1.00  0.00    -0.356 N 
ATOM     29  C   UNL     1      -1.965  -5.676   2.595  1.00  0.00     0.118 C 
ATOM     30  C   UNL     1      -3.740  -4.654   1.342  1.00  0.00     0.118 C 
ATOM     31  C   UNL     1      -1.903  -6.219   1.172  1.00  0.00     0.023 C 
ATOM     32  C   UNL     1      -3.317  -5.961   0.660  1.00  0.00     0.023 C 
ENDBRANCH  12  28
ENDBRANCH   4   7
ENDBRANCH   2   3
ENDBRANCH   1   2
BRANCH   1  33
ATOM     33  C   UNL     1       3.206  -0.575   3.543  1.00  0.00     0.002 C 
BRANCH  33  34
ATOM     34  C   UNL     1       3.479   0.495   2.479  1.00  0.00     0.002 C 
BRANCH  34  35
ATOM     35  C   UNL     1       3.386   1.940   2.974  1.00  0.00     0.021 C 
BRANCH  35  36
ATOM     36  C   UNL     1       4.298   2.259   4.152  1.00  0.00     0.116 C 
BRANCH  36  37
ATOM     37  N   UNL     1       5.702   2.100   3.817  1.00  0.00    -0.352 N 
ATOM     38  C   UNL     1       6.767   2.883   4.179  1.00  0.00     0.251 C 
ATOM     39  H   UNL     1       5.919   1.323   3.253  1.00  0.00     0.163 HD
ATOM     40  O   UNL     1       7.872   2.692   3.681  1.00  0.00    -0.269 OA
BRANCH  38  41
ATOM     41  C   UNL     1       6.578   3.977   5.154  1.00  0.00     0.039 A 
ATOM     42  C   UNL     1       7.180   5.211   4.895  1.00  0.00     0.014 A 
ATOM     43  C   UNL     1       5.842   3.784   6.328  1.00  0.00     0.014 A 
ATOM     44  C   UNL     1       7.019   6.261   5.799  1.00  0.00     0.010 A 
ATOM     45  C   UNL     1       5.628   4.851   7.196  1.00  0.00     0.010 A 
ATOM     46  C   UNL     1       6.232   6.092   6.949  1.00  0.00    -0.014 A 
BRANCH  46  47
ATOM     47  C   UNL     1       6.072   7.197   7.922  1.00  0.00     0.031 A 
ATOM     48  C   UNL     1       6.685   7.088   9.289  1.00  0.00     0.074 A 
ATOM     49  C   UNL     1       5.354   8.284   7.584  1.00  0.00     0.049 A 
ATOM     50  N   UNL     1       6.666   7.948  10.276  1.00  0.00    -0.248 NA
ATOM     51  C   UNL     1       7.393   5.836   9.596  1.00  0.00     0.031 C 
ATOM     52  C   UNL     1       4.673   8.481   6.304  1.00  0.00     0.029 A 
ATOM     53  N   UNL     1       5.082   9.428   8.288  1.00  0.00    -0.354 N 
ATOM     54  C   UNL     1       7.347   7.336  11.320  1.00  0.00     0.074 A 
ATOM     55  C   UNL     1       7.718   6.013  10.868  1.00  0.00     0.031 C 
ATOM     56  C   UNL     1       4.093   9.692   6.299  1.00  0.00     0.029 A 
ATOM     57  C   UNL     1       4.341  10.343   7.582  1.00  0.00     0.049 A 
ATOM     58  H   UNL     1       5.388   9.580   9.211  1.00  0.00     0.167 HD
ATOM     59  C   UNL     1       7.658   7.843  12.537  1.00  0.00     0.037 A 
ATOM     60  C   UNL     1       3.925  11.575   7.929  1.00  0.00     0.037 A 
ATOM     61  C   UNL     1       7.311   9.169  12.973  1.00  0.00     0.049 A 
ATOM     62  C   UNL     1       4.293  12.121   9.281  1.00  0.00     0.074 A 
ATOM     63  C   UNL     1       7.627   9.799  14.163  1.00  0.00     0.029 A 
ATOM     64  N   UNL     1       6.567  10.071  12.226  1.00  0.00    -0.354 N 
ATOM     65  N   UNL     1       4.996  11.562  10.235  1.00  0.00    -0.248 NA
ATOM     66  C   UNL     1       3.817  13.475   9.598  1.00  0.00     0.031 C 
ATOM     67  C   UNL     1       7.046  11.073  14.150  1.00  0.00     0.029 A 
ATOM     68  C   UNL     1       6.401  11.249  12.936  1.00  0.00     0.049 A 
ATOM     69  H   UNL     1       6.210   9.900  11.325  1.00  0.00     0.167 HD
ATOM     70  C   UNL     1       5.072  12.501  11.254  1.00  0.00     0.074 A 
ATOM     71  C   UNL     1       4.349  13.671  10.797  1.00  0.00     0.031 C 
ATOM     72  C   UNL     1       5.686  12.405  12.458  1.00  0.00     0.037 A 
BRANCH  59  73
ATOM     73  C   UNL     1       8.418   6.952  13.476  1.00  0.00     0.064 A 
ATOM     74  C   UNL     1       9.762   6.621  13.245  1.00  0.00     0.173 A 
ATOM     75  C   UNL     1       7.799   6.426  14.619  1.00  0.00     0.173 A 
ATOM     76  F   UNL     1      10.395   7.087  12.158  1.00  0.00    -0.203 F 
ATOM     77  C   UNL     1      10.447   5.766  14.105  1.00  0.00     0.198 A 
ATOM     78  C   UNL     1       8.495   5.594  15.491  1.00  0.00     0.198 A 
ATOM     79  F   UNL     1       6.517   6.715  14.888  1.00  0.00    -0.203 F 
ATOM     80  F   UNL     1      11.712   5.418  13.833  1.00  0.00    -0.200 F 
ATOM     81  C   UNL     1       9.815   5.257  15.229  1.00  0.00     0.200 A 
ATOM     82  F   UNL     1       7.887   5.109  16.583  1.00  0.00    -0.200 F 
ATOM     83  F   UNL     1      10.474   4.432  16.054  1.00  0.00    -0.200 F 
ENDBRANCH  59  73
BRANCH  60  84
ATOM     84  C   UNL     1       3.170  12.397   6.952  1.00  0.00     0.064 A 
ATOM     85  C   UNL     1       3.781  13.485   6.314  1.00  0.00     0.173 A 
ATOM     86  C   UNL     1       1.842  12.101   6.616  1.00  0.00     0.173 A 
ATOM     87  F   UNL     1       5.045  13.815   6.618  1.00  0.00    -0.203 F 
ATOM     88  C   UNL     1       3.087  14.255   5.383  1.00  0.00     0.198 A 
ATOM     89  C   UNL     1       1.156  12.859   5.669  1.00  0.00     0.198 A 
ATOM     90  F   UNL     1       1.217  11.066   7.196  1.00  0.00    -0.203 F 
ATOM     91  F   UNL     1       3.686  15.307   4.808  1.00  0.00    -0.200 F 
ATOM     92  C   UNL     1       1.778  13.937   5.056  1.00  0.00     0.200 A 
ATOM     93  F   UNL     1      -0.106  12.543   5.346  1.00  0.00    -0.200 F 
ATOM     94  F   UNL     1       1.114  14.672   4.153  1.00  0.00    -0.200 F 
ENDBRANCH  60  84
BRANCH  72  95
ATOM     95  C   UNL     1       5.631  13.607  13.352  1.00  0.00     0.064 A 
ATOM     96  C   UNL     1       4.460  13.958  14.037  1.00  0.00     0.173 A 
ATOM     97  C   UNL     1       6.777  14.391  13.556  1.00  0.00     0.173 A 
ATOM     98  F   UNL     1       3.336  13.247  13.862  1.00  0.00    -0.203 F 
ATOM     99  C   UNL     1       4.432  15.066  14.881  1.00  0.00     0.198 A 
ATOM    100  C   UNL     1       6.751  15.483  14.418  1.00  0.00     0.198 A 
ATOM    101  F   UNL     1       7.922  14.091  12.926  1.00  0.00    -0.203 F 
ATOM    102  F   UNL     1       3.292  15.408  15.496  1.00  0.00    -0.200 F 
ATOM    103  C   UNL     1       5.578  15.822  15.075  1.00  0.00     0.200 A 
ATOM    104  F   UNL     1       7.862  16.208  14.613  1.00  0.00    -0.200 F 
ATOM    105  F   UNL     1       5.550  16.885  15.891  1.00  0.00    -0.200 F 
ENDBRANCH  72  95
ENDBRANCH  46  47
ENDBRANCH  38  41
ENDBRANCH  36  37
ENDBRANCH  35  36
ENDBRANCH  34  35
ENDBRANCH  33  34
ENDBRANCH   1  33
TORSDOF 19
