REMARK SMILES O=C(NCCCCCCNC(=O)c1ccc(CNC(=O)c2cnns2)o1)c1ccc(-c2c3nc(c(-c4c(F)c(F)c(F)c(F)c4F)c4ccc([nH]4)c(-c4c(F)c(F)c(F)c(F)c4F)c4nc(c(-c5c(F)c(F)c(F)c(F)c5F)c5ccc2[nH]5)C=C4)C=C3)cc1
REMARK SMILES IDX 7 1 6 2 5 3 4 4 3 5 1 6 2 7 27 9 28 10 89 11 29 12 88 13
REMARK SMILES IDX 30 14 31 15 32 16 82 17 33 18 87 19 81 20 83 21 34 22 86 23
REMARK SMILES IDX 80 24 79 25 35 27 67 28 47 29 66 30 48 31 51 32 65 33 84 34
REMARK SMILES IDX 49 35 50 36 64 38 85 39 52 40 36 41 37 42 45 43 38 44 39 45
REMARK SMILES IDX 43 46 46 47 40 48 41 49 44 50 42 51 68 52 69 53 77 54 70 55
REMARK SMILES IDX 71 56 75 57 78 58 72 59 73 60 76 61 74 62 53 63 54 64 62 65
REMARK SMILES IDX 55 66 56 67 60 68 63 69 57 70 58 71 61 72 59 73 8 74 9 75
REMARK SMILES IDX 10 76 11 77 12 79 13 80 14 81 26 82 15 83 16 84 17 85 18 86
REMARK SMILES IDX 19 87 20 89 21 90 22 91 25 92 23 93 24 94
REMARK H PARENT 3 8 83 26 51 37 10 78 18 88
REMARK Flexibility Score: inf
ROOT
ATOM      1  C   UNL     1       4.734  -1.440  -4.153  1.00  0.00     0.002 C 
ENDROOT
BRANCH   1   2
ATOM      2  C   UNL     1       4.130  -2.370  -3.096  1.00  0.00     0.002 C 
BRANCH   2   3
ATOM      3  C   UNL     1       4.581  -2.113  -1.658  1.00  0.00     0.021 C 
BRANCH   3   4
ATOM      4  C   UNL     1       4.358  -0.693  -1.154  1.00  0.00     0.116 C 
BRANCH   4   5
ATOM      5  N   UNL     1       2.951  -0.343  -1.050  1.00  0.00    -0.352 N 
ATOM      6  O   UNL     1       1.036   0.268  -0.023  1.00  0.00    -0.269 OA
ATOM      7  C   UNL     1       2.257   0.164   0.023  1.00  0.00     0.251 C 
ATOM      8  H   UNL     1       2.419  -0.491  -1.864  1.00  0.00     0.163 HD
BRANCH   7   9
ATOM      9  C   UNL     1       2.983   0.560   1.250  1.00  0.00     0.039 A 
ATOM     10  C   UNL     1       4.164   1.300   1.177  1.00  0.00     0.014 A 
ATOM     11  C   UNL     1       2.468   0.185   2.495  1.00  0.00     0.014 A 
ATOM     12  C   UNL     1       4.905   1.536   2.330  1.00  0.00     0.010 A 
ATOM     13  C   UNL     1       3.170   0.499   3.663  1.00  0.00     0.010 A 
ATOM     14  C   UNL     1       4.412   1.147   3.587  1.00  0.00    -0.014 A 
BRANCH  14  15
ATOM     15  C   UNL     1       5.195   1.477   4.806  1.00  0.00     0.031 A 
ATOM     16  C   UNL     1       5.791   0.398   5.666  1.00  0.00     0.074 A 
ATOM     17  C   UNL     1       5.396   2.773   5.112  1.00  0.00     0.049 A 
ATOM     18  N   UNL     1       6.539   0.515   6.736  1.00  0.00    -0.248 NA
ATOM     19  C   UNL     1       5.507  -0.993   5.284  1.00  0.00     0.031 C 
ATOM     20  C   UNL     1       4.855   3.907   4.360  1.00  0.00     0.029 A 
ATOM     21  N   UNL     1       6.124   3.357   6.117  1.00  0.00    -0.354 N 
ATOM     22  C   UNL     1       6.798  -0.780   7.165  1.00  0.00     0.074 A 
ATOM     23  C   UNL     1       6.107  -1.669   6.255  1.00  0.00     0.031 C 
ATOM     24  C   UNL     1       5.314   5.048   4.894  1.00  0.00     0.029 A 
ATOM     25  C   UNL     1       6.131   4.729   6.060  1.00  0.00     0.049 A 
ATOM     26  H   UNL     1       6.596   2.843   6.811  1.00  0.00     0.167 HD
ATOM     27  C   UNL     1       7.551  -1.188   8.216  1.00  0.00     0.037 A 
ATOM     28  C   UNL     1       6.723   5.633   6.861  1.00  0.00     0.037 A 
ATOM     29  C   UNL     1       8.250  -0.298   9.108  1.00  0.00     0.049 A 
ATOM     30  C   UNL     1       7.535   5.152   8.029  1.00  0.00     0.074 A 
ATOM     31  C   UNL     1       9.074  -0.616  10.175  1.00  0.00     0.029 A 
ATOM     32  N   UNL     1       8.204   1.087   9.041  1.00  0.00    -0.354 N 
ATOM     33  N   UNL     1       7.808   3.924   8.397  1.00  0.00    -0.248 NA
ATOM     34  C   UNL     1       8.117   6.184   8.896  1.00  0.00     0.031 C 
ATOM     35  C   UNL     1       9.487   0.576  10.781  1.00  0.00     0.029 A 
ATOM     36  C   UNL     1       8.963   1.638  10.062  1.00  0.00     0.049 A 
ATOM     37  H   UNL     1       7.705   1.603   8.367  1.00  0.00     0.167 HD
ATOM     38  C   UNL     1       8.607   4.034   9.525  1.00  0.00     0.074 A 
ATOM     39  C   UNL     1       8.792   5.450   9.768  1.00  0.00     0.031 C 
ATOM     40  C   UNL     1       9.138   3.050  10.291  1.00  0.00     0.037 A 
BRANCH  27  41
ATOM     41  C   UNL     1       7.645  -2.664   8.475  1.00  0.00     0.064 A 
ATOM     42  C   UNL     1       8.378  -3.517   7.635  1.00  0.00     0.173 A 
ATOM     43  C   UNL     1       7.029  -3.228   9.603  1.00  0.00     0.173 A 
ATOM     44  F   UNL     1       8.978  -3.031   6.537  1.00  0.00    -0.203 F 
ATOM     45  C   UNL     1       8.469  -4.881   7.901  1.00  0.00     0.198 A 
ATOM     46  C   UNL     1       7.145  -4.588   9.881  1.00  0.00     0.198 A 
ATOM     47  F   UNL     1       6.322  -2.457  10.443  1.00  0.00    -0.203 F 
ATOM     48  F   UNL     1       9.138  -5.683   7.061  1.00  0.00    -0.200 F 
ATOM     49  C   UNL     1       7.858  -5.414   9.026  1.00  0.00     0.200 A 
ATOM     50  F   UNL     1       6.565  -5.099  10.976  1.00  0.00    -0.200 F 
ATOM     51  F   UNL     1       7.952  -6.726   9.283  1.00  0.00    -0.200 F 
ENDBRANCH  27  41
BRANCH  28  52
ATOM     52  C   UNL     1       6.576   7.082   6.572  1.00  0.00     0.064 A 
ATOM     53  C   UNL     1       7.668   7.841   6.130  1.00  0.00     0.173 A 
ATOM     54  C   UNL     1       5.342   7.732   6.716  1.00  0.00     0.173 A 
ATOM     55  F   UNL     1       8.872   7.266   5.995  1.00  0.00    -0.203 F 
ATOM     56  C   UNL     1       7.533   9.200   5.854  1.00  0.00     0.198 A 
ATOM     57  C   UNL     1       5.202   9.084   6.412  1.00  0.00     0.198 A 
ATOM     58  F   UNL     1       4.267   7.048   7.132  1.00  0.00    -0.203 F 
ATOM     59  F   UNL     1       8.601   9.911   5.468  1.00  0.00    -0.200 F 
ATOM     60  C   UNL     1       6.299   9.818   5.987  1.00  0.00     0.200 A 
ATOM     61  F   UNL     1       4.004   9.673   6.526  1.00  0.00    -0.200 F 
ATOM     62  F   UNL     1       6.168  11.123   5.712  1.00  0.00    -0.200 F 
ENDBRANCH  28  52
BRANCH  40  63
ATOM     63  C   UNL     1       9.993   3.476  11.448  1.00  0.00     0.064 A 
ATOM     64  C   UNL     1       9.439   4.061  12.596  1.00  0.00     0.173 A 
ATOM     65  C   UNL     1      11.383   3.285  11.412  1.00  0.00     0.173 A 
ATOM     66  F   UNL     1       8.118   4.282  12.670  1.00  0.00    -0.203 F 
ATOM     67  C   UNL     1      10.248   4.465  13.654  1.00  0.00     0.198 A 
ATOM     68  C   UNL     1      12.185   3.664  12.483  1.00  0.00     0.198 A 
ATOM     69  F   UNL     1      11.961   2.727  10.338  1.00  0.00    -0.203 F 
ATOM     70  F   UNL     1       9.704   5.070  14.719  1.00  0.00    -0.200 F 
ATOM     71  C   UNL     1      11.619   4.262  13.599  1.00  0.00     0.200 A 
ATOM     72  F   UNL     1      13.508   3.458  12.433  1.00  0.00    -0.200 F 
ATOM     73  F   UNL     1      12.397   4.652  14.619  1.00  0.00    -0.200 F 
ENDBRANCH  40  63
ENDBRANCH  14  15
ENDBRANCH   7   9
ENDBRANCH   4   5
ENDBRANCH   3   4
ENDBRANCH   2   3
ENDBRANCH   1   2
BRANCH   1  74
ATOM     74  C   UNL     1       6.264  -1.334  -4.151  1.00  0.00     0.021 C 
BRANCH  74  75
ATOM     75  C   UNL     1       7.006  -2.661  -4.305  1.00  0.00     0.116 C 
BRANCH  75  76
ATOM     76  N   UNL     1       6.764  -3.266  -5.600  1.00  0.00    -0.349 N 
ATOM     77  C   UNL     1       7.681  -3.655  -6.549  1.00  0.00     0.286 C 
ATOM     78  H   UNL     1       5.819  -3.417  -5.831  1.00  0.00     0.163 HD
ATOM     79  O   UNL     1       7.262  -3.944  -7.670  1.00  0.00    -0.266 OA
BRANCH  77  80
ATOM     80  C   UNL     1       9.076  -3.706  -6.177  1.00  0.00     0.191 A 
ATOM     81  C   UNL     1       9.739  -4.328  -5.135  1.00  0.00     0.056 A 
ATOM     82  O   UNL     1       9.979  -3.033  -6.951  1.00  0.00    -0.454 OA
ATOM     83  C   UNL     1      11.110  -4.000  -5.267  1.00  0.00     0.048 A 
ATOM     84  C   UNL     1      11.208  -3.198  -6.383  1.00  0.00     0.124 A 
BRANCH  84  85
ATOM     85  C   UNL     1      12.331  -2.478  -7.030  1.00  0.00     0.191 C 
BRANCH  85  86
ATOM     86  N   UNL     1      12.557  -3.030  -8.348  1.00  0.00    -0.344 N 
ATOM     87  C   UNL     1      12.596  -2.389  -9.562  1.00  0.00     0.265 C 
ATOM     88  H   UNL     1      12.702  -4.003  -8.379  1.00  0.00     0.164 HD
ATOM     89  O   UNL     1      12.601  -3.095 -10.570  1.00  0.00    -0.268 OA
BRANCH  87  90
ATOM     90  C   UNL     1      12.642  -0.955  -9.606  1.00  0.00     0.133 A 
ATOM     91  C   UNL     1      13.349  -0.018  -8.877  1.00  0.00     0.163 A 
ATOM     92  S   UNL     1      11.744  -0.092 -10.784  1.00  0.00    -0.007 S 
ATOM     93  N   UNL     1      13.112   1.304  -9.215  1.00  0.00    -0.146 NA
ATOM     94  N   UNL     1      12.258   1.400 -10.221  1.00  0.00    -0.090 NA
ENDBRANCH  87  90
ENDBRANCH  85  86
ENDBRANCH  84  85
ENDBRANCH  77  80
ENDBRANCH  75  76
ENDBRANCH  74  75
ENDBRANCH   1  74
TORSDOF 16
