REMARK SMILES O=C1[NH+]=C(Nc2ccc(C(=O)NCCCCCCNC(=O)c3ccc(-c4c5nc(c(-c6c(F)c(F)c(F)c(F)c6F)c6ccc([nH]6)c(-c6c(F)c(F)c(F)c(F)c6F)c6nc(c(-c7c(F)c(F)c(F)c(F)c7F)c7ccc4[nH]7)C=C6)C=C5)cc3)c(O)c2)S/C1=C\c1ccc[nH]1
REMARK SMILES IDX 15 1 14 2 13 3 12 4 10 5 11 6 9 8 6 9 7 10 87 11 8 12 85 13
REMARK SMILES IDX 5 14 1 15 2 16 3 17 89 18 4 19 88 21 90 22 91 24 92 25 95 26
REMARK SMILES IDX 93 27 94 28 86 30 16 32 17 33 18 34 19 35 20 36 21 38 22 39
REMARK SMILES IDX 23 40 84 41 24 42 83 43 25 44 26 45 27 46 77 47 28 48 82 49
REMARK SMILES IDX 76 50 78 51 29 52 81 53 75 54 74 55 30 57 62 58 42 59 61 60
REMARK SMILES IDX 43 61 46 62 60 63 79 64 44 65 45 66 59 68 80 69 47 70 31 71
REMARK SMILES IDX 32 72 40 73 33 74 34 75 38 76 41 77 35 78 36 79 39 80 37 81
REMARK SMILES IDX 63 82 64 83 72 84 65 85 66 86 70 87 73 88 67 89 68 90 71 91
REMARK SMILES IDX 69 92 48 93 49 94 57 95 50 96 51 97 55 98 58 99 52 100
REMARK SMILES IDX 53 101 56 102 54 103
REMARK H PARENT 12 7 3 20 5 23 95 29 86 31 19 37 78 56 46 67
REMARK Flexibility Score: inf
ROOT
ATOM      1  C   UNL     1      -1.518  10.229  -3.534  1.00  0.00     0.002 C 
ENDROOT
BRANCH   1   2
ATOM      2  C   UNL     1      -1.328   8.709  -3.477  1.00  0.00     0.021 C 
BRANCH   2   3
ATOM      3  C   UNL     1      -0.383   8.183  -2.400  1.00  0.00     0.116 C 
BRANCH   3   4
ATOM      4  N   UNL     1      -0.775   8.521  -1.044  1.00  0.00    -0.352 N 
ATOM      5  C   UNL     1      -0.606   7.826   0.129  1.00  0.00     0.255 C 
ATOM      6  O   UNL     1      -1.047   8.309   1.171  1.00  0.00    -0.269 OA
ATOM      7  H   UNL     1      -1.236   9.386  -0.950  1.00  0.00     0.163 HD
BRANCH   5   8
ATOM      8  C   UNL     1       0.047   6.493   0.171  1.00  0.00     0.081 A 
ATOM      9  C   UNL     1       1.022   3.839   0.245  1.00  0.00     0.129 A 
ATOM     10  C   UNL     1      -0.088   4.215   1.008  1.00  0.00     0.053 A 
ATOM     11  C   UNL     1       1.673   4.823  -0.508  1.00  0.00     0.098 A 
ATOM     12  C   UNL     1      -0.568   5.528   0.978  1.00  0.00     0.022 A 
ATOM     13  C   UNL     1       1.214   6.143  -0.512  1.00  0.00     0.132 A 
BRANCH   9  14
ATOM     14  N   UNL     1       1.447   2.510   0.148  1.00  0.00    -0.234 N 
ATOM     15  O   UNL     1      -2.278  -0.290  -0.048  1.00  0.00    -0.240 OA
ATOM     16  C   UNL     1      -1.099   0.029   0.041  1.00  0.00     0.346 C 
ATOM     17  N   UNL     1      -0.637   1.323   0.106  1.00  0.00    -0.199 N 
ATOM     18  C   UNL     1       0.016  -0.959   0.078  1.00  0.00     0.111 C 
ATOM     19  C   UNL     1       0.651   1.404   0.143  1.00  0.00     0.322 C 
ATOM     20  H   UNL     1      -1.229   2.109   0.122  1.00  0.00     0.316 HD
ATOM     21  S   UNL     1       1.514  -0.117   0.136  1.00  0.00     0.006 SA
ATOM     22  C   UNL     1      -0.200  -2.281   0.039  1.00  0.00     0.050 C 
ATOM     23  H   UNL     1       2.417   2.358   0.075  1.00  0.00     0.313 HD
BRANCH  22  24
ATOM     24  C   UNL     1       0.848  -3.226   0.136  1.00  0.00     0.039 A 
ATOM     25  C   UNL     1       1.851  -3.446   1.060  1.00  0.00     0.027 A 
ATOM     26  N   UNL     1       0.980  -4.173  -0.851  1.00  0.00    -0.362 N 
ATOM     27  C   UNL     1       2.632  -4.529   0.596  1.00  0.00     0.020 A 
ATOM     28  C   UNL     1       2.079  -4.952  -0.591  1.00  0.00     0.083 A 
ATOM     29  H   UNL     1       0.380  -4.276  -1.624  1.00  0.00     0.166 HD
ENDBRANCH  22  24
ENDBRANCH   9  14
BRANCH  13  30
ATOM     30  O   UNL     1       2.002   7.035  -1.186  1.00  0.00    -0.507 OA
ATOM     31  H   UNL     1       1.756   7.938  -1.230  1.00  0.00     0.293 HD
ENDBRANCH  13  30
ENDBRANCH   5   8
ENDBRANCH   3   4
ENDBRANCH   2   3
ENDBRANCH   1   2
BRANCH   1  32
ATOM     32  C   UNL     1      -0.249  11.085  -3.565  1.00  0.00     0.002 C 
BRANCH  32  33
ATOM     33  C   UNL     1       0.779  10.743  -4.645  1.00  0.00     0.021 C 
BRANCH  33  34
ATOM     34  C   UNL     1       0.244  10.661  -6.070  1.00  0.00     0.116 C 
BRANCH  34  35
ATOM     35  N   UNL     1      -0.356  11.903  -6.525  1.00  0.00    -0.352 N 
ATOM     36  C   UNL     1      -0.099  12.640  -7.655  1.00  0.00     0.251 C 
ATOM     37  H   UNL     1      -1.052  12.273  -5.934  1.00  0.00     0.163 HD
ATOM     38  O   UNL     1      -0.613  13.745  -7.801  1.00  0.00    -0.269 OA
BRANCH  36  39
ATOM     39  C   UNL     1       0.827  12.120  -8.685  1.00  0.00     0.039 A 
ATOM     40  C   UNL     1       1.797  12.978  -9.208  1.00  0.00     0.014 A 
ATOM     41  C   UNL     1       0.748  10.798  -9.129  1.00  0.00     0.014 A 
ATOM     42  C   UNL     1       2.737  12.489 -10.117  1.00  0.00     0.010 A 
ATOM     43  C   UNL     1       1.731  10.292  -9.977  1.00  0.00     0.010 A 
ATOM     44  C   UNL     1       2.742  11.130 -10.473  1.00  0.00    -0.014 A 
BRANCH  44  45
ATOM     45  C   UNL     1       3.814  10.565 -11.333  1.00  0.00     0.031 A 
ATOM     46  C   UNL     1       3.483   9.975 -12.675  1.00  0.00     0.074 A 
ATOM     47  C   UNL     1       5.080  10.524 -10.872  1.00  0.00     0.049 A 
ATOM     48  N   UNL     1       4.270   9.372 -13.531  1.00  0.00    -0.248 NA
ATOM     49  C   UNL     1       2.078  10.051 -13.103  1.00  0.00     0.031 C 
ATOM     50  C   UNL     1       5.520  11.026  -9.569  1.00  0.00     0.029 A 
ATOM     51  N   UNL     1       6.227  10.026 -11.439  1.00  0.00    -0.354 N 
ATOM     52  C   UNL     1       3.457   8.992 -14.590  1.00  0.00     0.074 A 
ATOM     53  C   UNL     1       2.107   9.383 -14.247  1.00  0.00     0.031 C 
ATOM     54  C   UNL     1       6.842  10.831  -9.446  1.00  0.00     0.029 A 
ATOM     55  C   UNL     1       7.336  10.146 -10.636  1.00  0.00     0.049 A 
ATOM     56  H   UNL     1       6.253   9.622 -12.336  1.00  0.00     0.167 HD
ATOM     57  C   UNL     1       3.810   8.390 -15.752  1.00  0.00     0.037 A 
ATOM     58  C   UNL     1       8.604   9.734 -10.828  1.00  0.00     0.037 A 
ATOM     59  C   UNL     1       5.158   8.014 -16.092  1.00  0.00     0.049 A 
ATOM     60  C   UNL     1       8.960   9.034 -12.113  1.00  0.00     0.074 A 
ATOM     61  C   UNL     1       5.625   7.454 -17.268  1.00  0.00     0.029 A 
ATOM     62  N   UNL     1       6.254   8.151 -15.253  1.00  0.00    -0.354 N 
ATOM     63  N   UNL     1       8.196   8.748 -13.139  1.00  0.00    -0.248 NA
ATOM     64  C   UNL     1      10.355   8.601 -12.266  1.00  0.00     0.031 C 
ATOM     65  C   UNL     1       6.989   7.190 -17.116  1.00  0.00     0.029 A 
ATOM     66  C   UNL     1       7.389   7.649 -15.872  1.00  0.00     0.049 A 
ATOM     67  H   UNL     1       6.229   8.545 -14.351  1.00  0.00     0.167 HD
ATOM     68  C   UNL     1       9.021   8.129 -14.069  1.00  0.00     0.074 A 
ATOM     69  C   UNL     1      10.349   8.099 -13.493  1.00  0.00     0.031 C 
ATOM     70  C   UNL     1       8.707   7.628 -15.289  1.00  0.00     0.037 A 
BRANCH  57  71
ATOM     71  C   UNL     1       2.721   8.094 -16.744  1.00  0.00     0.064 A 
ATOM     72  C   UNL     1       2.053   9.116 -17.436  1.00  0.00     0.173 A 
ATOM     73  C   UNL     1       2.378   6.767 -17.048  1.00  0.00     0.173 A 
ATOM     74  F   UNL     1       2.337  10.402 -17.178  1.00  0.00    -0.203 F 
ATOM     75  C   UNL     1       1.064   8.823 -18.371  1.00  0.00     0.198 A 
ATOM     76  C   UNL     1       1.413   6.477 -18.009  1.00  0.00     0.198 A 
ATOM     77  F   UNL     1       2.990   5.750 -16.423  1.00  0.00    -0.203 F 
ATOM     78  F   UNL     1       0.406   9.818 -18.982  1.00  0.00    -0.200 F 
ATOM     79  C   UNL     1       0.751   7.504 -18.663  1.00  0.00     0.200 A 
ATOM     80  F   UNL     1       1.124   5.201 -18.302  1.00  0.00    -0.200 F 
ATOM     81  F   UNL     1      -0.192   7.223 -19.573  1.00  0.00    -0.200 F 
ENDBRANCH  57  71
BRANCH  58  82
ATOM     82  C   UNL     1       9.633   9.971  -9.780  1.00  0.00     0.064 A 
ATOM     83  C   UNL     1      10.708  10.842 -10.008  1.00  0.00     0.173 A 
ATOM     84  C   UNL     1       9.575   9.319  -8.539  1.00  0.00     0.173 A 
ATOM     85  F   UNL     1      10.821  11.473 -11.185  1.00  0.00    -0.203 F 
ATOM     86  C   UNL     1      11.699  11.030  -9.046  1.00  0.00     0.198 A 
ATOM     87  C   UNL     1      10.548   9.535  -7.565  1.00  0.00     0.198 A 
ATOM     88  F   UNL     1       8.566   8.478  -8.267  1.00  0.00    -0.203 F 
ATOM     89  F   UNL     1      12.746  11.823  -9.313  1.00  0.00    -0.200 F 
ATOM     90  C   UNL     1      11.615  10.381  -7.824  1.00  0.00     0.200 A 
ATOM     91  F   UNL     1      10.453   8.919  -6.379  1.00  0.00    -0.200 F 
ATOM     92  F   UNL     1      12.567  10.563  -6.899  1.00  0.00    -0.200 F 
ENDBRANCH  58  82
BRANCH  70  93
ATOM     93  C   UNL     1       9.822   7.032 -16.101  1.00  0.00     0.064 A 
ATOM     94  C   UNL     1      10.428   5.818 -15.743  1.00  0.00     0.173 A 
ATOM     95  C   UNL     1      10.258   7.660 -17.278  1.00  0.00     0.173 A 
ATOM     96  F   UNL     1      10.059   5.184 -14.620  1.00  0.00    -0.203 F 
ATOM     97  C   UNL     1      11.445   5.270 -16.519  1.00  0.00     0.198 A 
ATOM     98  C   UNL     1      11.250   7.091 -18.070  1.00  0.00     0.198 A 
ATOM     99  F   UNL     1       9.708   8.820 -17.669  1.00  0.00    -0.203 F 
ATOM    100  F   UNL     1      12.045   4.136 -16.131  1.00  0.00    -0.200 F 
ATOM    101  C   UNL     1      11.849   5.901 -17.686  1.00  0.00     0.200 A 
ATOM    102  F   UNL     1      11.626   7.694 -19.206  1.00  0.00    -0.200 F 
ATOM    103  F   UNL     1      12.820   5.365 -18.439  1.00  0.00    -0.200 F 
ENDBRANCH  70  93
ENDBRANCH  44  45
ENDBRANCH  36  39
ENDBRANCH  34  35
ENDBRANCH  33  34
ENDBRANCH  32  33
ENDBRANCH   1  32
TORSDOF 16
