REMARK SMILES COC(=O)c1ccc([C@H]2CC(=O)Nc3c(C(=O)NCCCCCCNC(=O)c4ccc(-c5c6nc(c(-c7c(F)c(F)c(F)c(F)c7F)c7ccc([nH]7)c(-c7c(F)c(F)c(F)c(F)c7F)c7nc(c(-c8c(F)c(F)c(F)c(F)c8F)c8ccc5[nH]8)C=C7)C=C6)cc4)cn(-c4cc(OC)ccc4OC)c32)cc1
REMARK SMILES IDX 21 1 20 2 19 3 18 4 16 5 17 6 15 8 9 9 10 10 103 11 11 12
REMARK SMILES IDX 14 13 92 14 12 15 13 16 91 17 8 19 5 20 6 21 105 22 7 23
REMARK SMILES IDX 104 24 3 25 4 26 2 27 1 28 93 29 94 30 100 31 95 32 99 33
REMARK SMILES IDX 98 34 101 35 102 36 96 37 97 38 22 39 23 40 24 41 25 42
REMARK SMILES IDX 26 43 27 45 28 46 29 47 90 48 30 49 89 50 31 51 32 52 33 53
REMARK SMILES IDX 83 54 34 55 88 56 82 57 84 58 35 59 87 60 81 61 80 62 36 64
REMARK SMILES IDX 68 65 48 66 67 67 49 68 52 69 66 70 85 71 50 72 51 73 65 75
REMARK SMILES IDX 86 76 53 77 37 78 38 79 46 80 39 81 40 82 44 83 47 84 41 85
REMARK SMILES IDX 42 86 45 87 43 88 69 89 70 90 78 91 71 92 72 93 76 94 79 95
REMARK SMILES IDX 73 96 74 97 77 98 75 99 54 100 55 101 63 102 56 103 57 104
REMARK SMILES IDX 61 105 64 106 58 107 59 108 62 109 60 110
REMARK H PARENT 18 7 13 18 25 44 84 63 52 74
REMARK Flexibility Score: inf
ROOT
ATOM      1  C   UNL     1      -8.387   5.763   6.624  1.00  0.00     0.002 C 
ENDROOT
BRANCH   1   2
ATOM      2  C   UNL     1      -6.915   5.346   6.602  1.00  0.00     0.021 C 
BRANCH   2   3
ATOM      3  C   UNL     1      -6.231   5.642   5.261  1.00  0.00     0.116 C 
BRANCH   3   4
ATOM      4  N   UNL     1      -5.537   6.896   5.325  1.00  0.00    -0.352 N 
ATOM      5  C   UNL     1      -4.230   7.221   5.518  1.00  0.00     0.254 C 
ATOM      6  O   UNL     1      -3.978   8.427   5.433  1.00  0.00    -0.269 OA
ATOM      7  H   UNL     1      -6.124   7.678   5.205  1.00  0.00     0.163 HD
BRANCH   5   8
ATOM      8  C   UNL     1      -3.156   6.266   5.817  1.00  0.00     0.081 A 
ATOM      9  C   UNL     1      -1.101   3.405   7.135  1.00  0.00     0.078 C 
ATOM     10  C   UNL     1      -2.216   2.469   7.623  1.00  0.00     0.115 C 
ATOM     11  C   UNL     1      -1.660   4.689   6.558  1.00  0.00     0.055 A 
ATOM     12  C   UNL     1      -3.581   2.696   7.040  1.00  0.00     0.225 C 
ATOM     13  C   UNL     1      -3.003   4.941   6.337  1.00  0.00     0.076 A 
ATOM     14  N   UNL     1      -0.958   5.818   6.167  1.00  0.00    -0.314 N 
ATOM     15  O   UNL     1      -4.441   1.813   7.041  1.00  0.00    -0.275 OA
ATOM     16  N   UNL     1      -3.906   3.950   6.624  1.00  0.00    -0.324 N 
ATOM     17  C   UNL     1      -1.848   6.686   5.600  1.00  0.00     0.107 A 
ATOM     18  H   UNL     1      -4.862   4.162   6.521  1.00  0.00     0.170 HD
BRANCH   9  19
ATOM     19  C   UNL     1      -0.106   3.523   8.291  1.00  0.00    -0.038 A 
ATOM     20  C   UNL     1       1.831   3.695  10.333  1.00  0.00     0.060 A 
ATOM     21  C   UNL     1       1.682   2.512   9.602  1.00  0.00     0.016 A 
ATOM     22  C   UNL     1       0.962   4.761  10.095  1.00  0.00     0.016 A 
ATOM     23  C   UNL     1       0.732   2.433   8.581  1.00  0.00     0.005 A 
ATOM     24  C   UNL     1      -0.027   4.651   9.117  1.00  0.00     0.005 A 
BRANCH  20  25
ATOM     25  C   UNL     1       2.942   3.779  11.319  1.00  0.00     0.337 C 
ATOM     26  O   UNL     1       3.792   2.923  11.448  1.00  0.00    -0.246 OA
BRANCH  25  27
ATOM     27  O   UNL     1       2.868   4.946  12.012  1.00  0.00    -0.465 OA
ATOM     28  C   UNL     1       3.939   5.142  12.932  1.00  0.00     0.282 C 
ENDBRANCH  25  27
ENDBRANCH  20  25
ENDBRANCH   9  19
BRANCH  14  29
ATOM     29  C   UNL     1       0.420   6.079   6.308  1.00  0.00     0.091 A 
ATOM     30  C   UNL     1       1.287   5.135   5.723  1.00  0.00     0.077 A 
ATOM     31  C   UNL     1       0.932   7.145   7.066  1.00  0.00     0.143 A 
ATOM     32  C   UNL     1       2.661   5.190   5.940  1.00  0.00     0.121 A 
ATOM     33  C   UNL     1       2.325   7.189   7.246  1.00  0.00     0.052 A 
ATOM     34  C   UNL     1       3.180   6.222   6.710  1.00  0.00     0.050 A 
BRANCH  31  35
ATOM     35  O   UNL     1       0.346   8.149   7.776  1.00  0.00    -0.495 OA
ATOM     36  C   UNL     1      -1.048   8.307   7.953  1.00  0.00     0.278 C 
ENDBRANCH  31  35
BRANCH  32  37
ATOM     37  O   UNL     1       3.379   4.185   5.355  1.00  0.00    -0.497 OA
ATOM     38  C   UNL     1       4.700   3.993   5.849  1.00  0.00     0.278 C 
ENDBRANCH  32  37
ENDBRANCH  14  29
ENDBRANCH   5   8
ENDBRANCH   3   4
ENDBRANCH   2   3
ENDBRANCH   1   2
BRANCH   1  39
ATOM     39  C   UNL     1      -9.257   5.083   5.554  1.00  0.00     0.002 C 
BRANCH  39  40
ATOM     40  C   UNL     1      -9.180   3.548   5.501  1.00  0.00     0.021 C 
BRANCH  40  41
ATOM     41  C   UNL     1      -9.874   2.878   6.676  1.00  0.00     0.116 C 
BRANCH  41  42
ATOM     42  N   UNL     1     -11.312   3.152   6.665  1.00  0.00    -0.352 N 
ATOM     43  C   UNL     1     -12.268   2.873   7.614  1.00  0.00     0.251 C 
ATOM     44  H   UNL     1     -11.645   3.604   5.856  1.00  0.00     0.163 HD
ATOM     45  O   UNL     1     -13.457   2.840   7.317  1.00  0.00    -0.269 OA
BRANCH  43  46
ATOM     46  C   UNL     1     -11.844   2.618   8.997  1.00  0.00     0.039 A 
ATOM     47  C   UNL     1     -12.476   1.650   9.780  1.00  0.00     0.014 A 
ATOM     48  C   UNL     1     -10.780   3.361   9.502  1.00  0.00     0.014 A 
ATOM     49  C   UNL     1     -11.976   1.391  11.051  1.00  0.00     0.010 A 
ATOM     50  C   UNL     1     -10.176   2.979  10.668  1.00  0.00     0.010 A 
ATOM     51  C   UNL     1     -10.809   2.048  11.478  1.00  0.00    -0.014 A 
BRANCH  51  52
ATOM     52  C   UNL     1     -10.151   1.671  12.720  1.00  0.00     0.031 A 
ATOM     53  C   UNL     1      -9.840   0.222  12.793  1.00  0.00     0.074 A 
ATOM     54  C   UNL     1      -9.685   2.570  13.614  1.00  0.00     0.049 A 
ATOM     55  N   UNL     1     -10.429  -0.660  13.528  1.00  0.00    -0.248 NA
ATOM     56  C   UNL     1      -8.906  -0.350  11.809  1.00  0.00     0.031 C 
ATOM     57  C   UNL     1      -9.658   4.033  13.491  1.00  0.00     0.029 A 
ATOM     58  N   UNL     1      -9.037   2.364  14.795  1.00  0.00    -0.354 N 
ATOM     59  C   UNL     1      -9.765  -1.857  13.281  1.00  0.00     0.074 A 
ATOM     60  C   UNL     1      -9.015  -1.656  12.071  1.00  0.00     0.031 C 
ATOM     61  C   UNL     1      -8.829   4.556  14.420  1.00  0.00     0.029 A 
ATOM     62  C   UNL     1      -8.406   3.493  15.311  1.00  0.00     0.049 A 
ATOM     63  H   UNL     1      -9.018   1.489  15.247  1.00  0.00     0.167 HD
ATOM     64  C   UNL     1      -9.635  -2.772  14.281  1.00  0.00     0.037 A 
ATOM     65  C   UNL     1      -7.581   3.544  16.386  1.00  0.00     0.037 A 
ATOM     66  C   UNL     1     -10.559  -2.474  15.354  1.00  0.00     0.049 A 
ATOM     67  C   UNL     1      -7.861   2.337  17.196  1.00  0.00     0.074 A 
ATOM     68  C   UNL     1     -11.929  -2.396  15.497  1.00  0.00     0.029 A 
ATOM     69  N   UNL     1     -10.019  -1.792  16.413  1.00  0.00    -0.354 N 
ATOM     70  N   UNL     1      -8.979   2.134  17.833  1.00  0.00    -0.248 NA
ATOM     71  C   UNL     1      -7.047   1.153  16.969  1.00  0.00     0.031 C 
ATOM     72  C   UNL     1     -12.154  -1.350  16.445  1.00  0.00     0.029 A 
ATOM     73  C   UNL     1     -10.917  -0.882  16.892  1.00  0.00     0.049 A 
ATOM     74  H   UNL     1      -9.115  -1.936  16.775  1.00  0.00     0.167 HD
ATOM     75  C   UNL     1      -9.226   0.781  17.674  1.00  0.00     0.074 A 
ATOM     76  C   UNL     1      -7.940   0.211  17.279  1.00  0.00     0.031 C 
ATOM     77  C   UNL     1     -10.511   0.325  17.577  1.00  0.00     0.037 A 
BRANCH  64  78
ATOM     78  C   UNL     1      -8.366  -3.568  14.548  1.00  0.00     0.064 A 
ATOM     79  C   UNL     1      -8.364  -4.472  15.633  1.00  0.00     0.173 A 
ATOM     80  C   UNL     1      -7.088  -3.236  14.044  1.00  0.00     0.173 A 
ATOM     81  F   UNL     1      -9.517  -4.856  16.203  1.00  0.00    -0.203 F 
ATOM     82  C   UNL     1      -7.180  -4.908  16.235  1.00  0.00     0.198 A 
ATOM     83  C   UNL     1      -5.910  -3.715  14.616  1.00  0.00     0.198 A 
ATOM     84  F   UNL     1      -6.906  -2.353  13.059  1.00  0.00    -0.203 F 
ATOM     85  F   UNL     1      -7.234  -5.640  17.355  1.00  0.00    -0.200 F 
ATOM     86  C   UNL     1      -5.953  -4.518  15.733  1.00  0.00     0.200 A 
ATOM     87  F   UNL     1      -4.730  -3.307  14.125  1.00  0.00    -0.200 F 
ATOM     88  F   UNL     1      -4.819  -4.870  16.351  1.00  0.00    -0.200 F 
ENDBRANCH  64  78
BRANCH  65  89
ATOM     89  C   UNL     1      -6.393   4.397  16.631  1.00  0.00     0.064 A 
ATOM     90  C   UNL     1      -5.816   4.484  17.911  1.00  0.00     0.173 A 
ATOM     91  C   UNL     1      -5.621   4.898  15.565  1.00  0.00     0.173 A 
ATOM     92  F   UNL     1      -6.465   3.995  18.978  1.00  0.00    -0.203 F 
ATOM     93  C   UNL     1      -4.529   4.998  18.106  1.00  0.00     0.198 A 
ATOM     94  C   UNL     1      -4.339   5.416  15.762  1.00  0.00     0.198 A 
ATOM     95  F   UNL     1      -6.053   4.802  14.300  1.00  0.00    -0.203 F 
ATOM     96  F   UNL     1      -3.985   4.994  19.331  1.00  0.00    -0.200 F 
ATOM     97  C   UNL     1      -3.786   5.450  17.029  1.00  0.00     0.200 A 
ATOM     98  F   UNL     1      -3.615   5.817  14.706  1.00  0.00    -0.200 F 
ATOM     99  F   UNL     1      -2.527   5.876  17.203  1.00  0.00    -0.200 F 
ENDBRANCH  65  89
BRANCH  77 100
ATOM    100  C   UNL     1     -11.602   1.234  18.071  1.00  0.00     0.064 A 
ATOM    101  C   UNL     1     -11.921   2.486  17.518  1.00  0.00     0.173 A 
ATOM    102  C   UNL     1     -12.421   0.759  19.105  1.00  0.00     0.173 A 
ATOM    103  F   UNL     1     -11.245   2.973  16.469  1.00  0.00    -0.203 F 
ATOM    104  C   UNL     1     -12.980   3.245  18.014  1.00  0.00     0.198 A 
ATOM    105  C   UNL     1     -13.502   1.500  19.571  1.00  0.00     0.198 A 
ATOM    106  F   UNL     1     -12.192  -0.450  19.642  1.00  0.00    -0.203 F 
ATOM    107  F   UNL     1     -13.250   4.449  17.488  1.00  0.00    -0.200 F 
ATOM    108  C   UNL     1     -13.773   2.748  19.036  1.00  0.00     0.200 A 
ATOM    109  F   UNL     1     -14.292   0.994  20.528  1.00  0.00    -0.200 F 
ATOM    110  F   UNL     1     -14.812   3.463  19.491  1.00  0.00    -0.200 F 
ENDBRANCH  77 100
ENDBRANCH  51  52
ENDBRANCH  43  46
ENDBRANCH  41  42
ENDBRANCH  40  41
ENDBRANCH  39  40
ENDBRANCH   1  39
TORSDOF 19
