REMARK SMILES O=C(Cc1ccc(=O)n(C(F)F)c1)NCCCCCCNC(=O)c1ccc(-c2c3nc(c(-c4c(F)c(F)c(F)c(F)c4F)c4ccc([nH]4)c(-c4c(F)c(F)c(F)c(F)c4F)c4nc(c(-c5c(F)c(F)c(F)c(F)c5F)c5ccc2[nH]5)C=C4)C=C3)cc1
REMARK SMILES IDX 17 1 16 2 15 3 14 4 1 5 2 6 3 8 4 9 5 10 13 11 6 12 9 13
REMARK SMILES IDX 7 14 8 15 10 16 11 17 12 18 18 19 19 20 20 21 21 22 22 23
REMARK SMILES IDX 23 25 24 26 25 27 86 28 26 29 85 30 27 31 28 32 29 33 79 34
REMARK SMILES IDX 30 35 84 36 78 37 80 38 31 39 83 40 77 41 76 42 32 44 64 45
REMARK SMILES IDX 44 46 63 47 45 48 48 49 62 50 81 51 46 52 47 53 61 55 82 56
REMARK SMILES IDX 49 57 33 58 34 59 42 60 35 61 36 62 40 63 43 64 37 65 38 66
REMARK SMILES IDX 41 67 39 68 65 69 66 70 74 71 67 72 68 73 72 74 75 75 69 76
REMARK SMILES IDX 70 77 73 78 71 79 50 80 51 81 59 82 52 83 53 84 57 85 60 86
REMARK SMILES IDX 54 87 55 88 58 89 56 90
REMARK H PARENT 14 7 21 24 80 43 48 54
REMARK Flexibility Score: inf
ROOT
ATOM      1  C   UNL     1       4.158  -3.705  -0.361  1.00  0.00     0.002 C 
ENDROOT
BRANCH   1   2
ATOM      2  C   UNL     1       2.646  -3.494  -0.527  1.00  0.00     0.021 C 
BRANCH   2   3
ATOM      3  C   UNL     1       2.075  -2.291   0.218  1.00  0.00     0.116 C 
BRANCH   3   4
ATOM      4  N   UNL     1       2.649  -1.042  -0.234  1.00  0.00    -0.356 N 
ATOM      5  O   UNL     1       1.146   0.282   0.887  1.00  0.00    -0.275 OA
ATOM      6  C   UNL     1       2.143   0.173   0.180  1.00  0.00     0.224 C 
ATOM      7  H   UNL     1       3.417  -1.060  -0.850  1.00  0.00     0.163 HD
BRANCH   6   8
ATOM      8  C   UNL     1       2.981   1.367  -0.258  1.00  0.00     0.137 C 
BRANCH   8   9
ATOM      9  C   UNL     1       3.929   1.789   0.839  1.00  0.00    -0.022 A 
ATOM     10  C   UNL     1       3.951   3.189   1.214  1.00  0.00     0.011 A 
ATOM     11  C   UNL     1       4.756   0.942   1.479  1.00  0.00     0.099 A 
ATOM     12  C   UNL     1       4.779   3.634   2.167  1.00  0.00     0.072 A 
ATOM     13  N   UNL     1       5.615   1.373   2.475  1.00  0.00    -0.258 N 
ATOM     14  C   UNL     1       5.701   2.699   2.867  1.00  0.00     0.254 A 
ATOM     15  O   UNL     1       6.459   3.147   3.721  1.00  0.00    -0.269 OA
BRANCH  13  16
ATOM     16  C   UNL     1       6.488   0.439   3.139  1.00  0.00     0.451 C 
ATOM     17  F   UNL     1       7.788   0.722   2.878  1.00  0.00    -0.185 F 
ATOM     18  F   UNL     1       6.312   0.462   4.482  1.00  0.00    -0.185 F 
ENDBRANCH  13  16
ENDBRANCH   8   9
ENDBRANCH   6   8
ENDBRANCH   3   4
ENDBRANCH   2   3
ENDBRANCH   1   2
BRANCH   1  19
ATOM     19  C   UNL     1       4.645  -3.964   1.067  1.00  0.00     0.002 C 
BRANCH  19  20
ATOM     20  C   UNL     1       4.011  -5.162   1.775  1.00  0.00     0.021 C 
BRANCH  20  21
ATOM     21  C   UNL     1       4.092  -6.488   1.025  1.00  0.00     0.116 C 
BRANCH  21  22
ATOM     22  N   UNL     1       5.452  -6.973   0.838  1.00  0.00    -0.352 N 
ATOM     23  C   UNL     1       5.925  -8.263   0.937  1.00  0.00     0.251 C 
ATOM     24  H   UNL     1       6.122  -6.288   0.611  1.00  0.00     0.163 HD
ATOM     25  O   UNL     1       7.125  -8.498   0.839  1.00  0.00    -0.269 OA
BRANCH  23  26
ATOM     26  C   UNL     1       4.975  -9.363   1.216  1.00  0.00     0.039 A 
ATOM     27  C   UNL     1       3.784  -9.474   0.496  1.00  0.00     0.014 A 
ATOM     28  C   UNL     1       5.254 -10.255   2.256  1.00  0.00     0.014 A 
ATOM     29  C   UNL     1       2.797 -10.351   0.933  1.00  0.00     0.010 A 
ATOM     30  C   UNL     1       4.289 -11.191   2.643  1.00  0.00     0.010 A 
ATOM     31  C   UNL     1       3.029 -11.203   2.026  1.00  0.00    -0.014 A 
BRANCH  31  32
ATOM     32  C   UNL     1       1.923 -12.059   2.529  1.00  0.00     0.031 A 
ATOM     33  C   UNL     1       1.325 -11.815   3.890  1.00  0.00     0.074 A 
ATOM     34  C   UNL     1       1.402 -13.009   1.729  1.00  0.00     0.049 A 
ATOM     35  N   UNL     1       0.331 -12.434   4.479  1.00  0.00    -0.248 NA
ATOM     36  C   UNL     1       1.917 -10.737   4.698  1.00  0.00     0.031 C 
ATOM     37  C   UNL     1       1.880 -13.329   0.384  1.00  0.00     0.029 A 
ATOM     38  N   UNL     1       0.339 -13.856   1.916  1.00  0.00    -0.354 N 
ATOM     39  C   UNL     1       0.191 -11.834   5.724  1.00  0.00     0.074 A 
ATOM     40  C   UNL     1       1.219 -10.821   5.823  1.00  0.00     0.031 C 
ATOM     41  C   UNL     1       1.081 -14.262  -0.155  1.00  0.00     0.029 A 
ATOM     42  C   UNL     1       0.069 -14.646   0.826  1.00  0.00     0.049 A 
ATOM     43  H   UNL     1      -0.180 -13.895   2.752  1.00  0.00     0.167 HD
ATOM     44  C   UNL     1      -0.722 -12.092   6.691  1.00  0.00     0.037 A 
ATOM     45  C   UNL     1      -0.882 -15.579   0.637  1.00  0.00     0.037 A 
ATOM     46  C   UNL     1      -1.766 -13.077   6.583  1.00  0.00     0.049 A 
ATOM     47  C   UNL     1      -1.853 -15.877   1.744  1.00  0.00     0.074 A 
ATOM     48  C   UNL     1      -2.755 -13.388   7.500  1.00  0.00     0.029 A 
ATOM     49  N   UNL     1      -1.960 -13.906   5.489  1.00  0.00    -0.354 N 
ATOM     50  N   UNL     1      -1.975 -15.300   2.913  1.00  0.00    -0.248 NA
ATOM     51  C   UNL     1      -2.810 -16.968   1.509  1.00  0.00     0.031 C 
ATOM     52  C   UNL     1      -3.524 -14.432   6.977  1.00  0.00     0.029 A 
ATOM     53  C   UNL     1      -3.039 -14.745   5.718  1.00  0.00     0.049 A 
ATOM     54  H   UNL     1      -1.412 -13.901   4.671  1.00  0.00     0.167 HD
ATOM     55  C   UNL     1      -3.020 -15.950   3.553  1.00  0.00     0.074 A 
ATOM     56  C   UNL     1      -3.517 -16.951   2.631  1.00  0.00     0.031 C 
ATOM     57  C   UNL     1      -3.517 -15.741   4.795  1.00  0.00     0.037 A 
BRANCH  44  58
ATOM     58  C   UNL     1      -0.643 -11.298   7.961  1.00  0.00     0.064 A 
ATOM     59  C   UNL     1      -1.052  -9.957   8.014  1.00  0.00     0.173 A 
ATOM     60  C   UNL     1      -0.224 -11.905   9.155  1.00  0.00     0.173 A 
ATOM     61  F   UNL     1      -1.451  -9.329   6.898  1.00  0.00    -0.203 F 
ATOM     62  C   UNL     1      -1.033  -9.251   9.214  1.00  0.00     0.198 A 
ATOM     63  C   UNL     1      -0.228 -11.202  10.357  1.00  0.00     0.198 A 
ATOM     64  F   UNL     1       0.171 -13.187   9.158  1.00  0.00    -0.203 F 
ATOM     65  F   UNL     1      -1.403  -7.963   9.236  1.00  0.00    -0.200 F 
ATOM     66  C   UNL     1      -0.630  -9.876  10.385  1.00  0.00     0.200 A 
ATOM     67  F   UNL     1       0.150 -11.811  11.489  1.00  0.00    -0.200 F 
ATOM     68  F   UNL     1      -0.627  -9.198  11.541  1.00  0.00    -0.200 F 
ENDBRANCH  44  58
BRANCH  45  69
ATOM     69  C   UNL     1      -0.960 -16.295  -0.662  1.00  0.00     0.064 A 
ATOM     70  C   UNL     1      -2.018 -16.061  -1.549  1.00  0.00     0.173 A 
ATOM     71  C   UNL     1       0.032 -17.207  -1.051  1.00  0.00     0.173 A 
ATOM     72  F   UNL     1      -3.001 -15.214  -1.210  1.00  0.00    -0.203 F 
ATOM     73  C   UNL     1      -2.083 -16.715  -2.777  1.00  0.00     0.198 A 
ATOM     74  C   UNL     1      -0.020 -17.840  -2.290  1.00  0.00     0.198 A 
ATOM     75  F   UNL     1       1.066 -17.463  -0.236  1.00  0.00    -0.203 F 
ATOM     76  F   UNL     1      -3.120 -16.495  -3.597  1.00  0.00    -0.200 F 
ATOM     77  C   UNL     1      -1.080 -17.597  -3.151  1.00  0.00     0.200 A 
ATOM     78  F   UNL     1       0.959 -18.680  -2.653  1.00  0.00    -0.200 F 
ATOM     79  F   UNL     1      -1.136 -18.215  -4.338  1.00  0.00    -0.200 F 
ENDBRANCH  45  69
BRANCH  57  80
ATOM     80  C   UNL     1      -4.655 -16.610   5.239  1.00  0.00     0.064 A 
ATOM     81  C   UNL     1      -4.446 -17.945   5.611  1.00  0.00     0.173 A 
ATOM     82  C   UNL     1      -5.951 -16.086   5.358  1.00  0.00     0.173 A 
ATOM     83  F   UNL     1      -3.227 -18.494   5.501  1.00  0.00    -0.203 F 
ATOM     84  C   UNL     1      -5.498 -18.730   6.076  1.00  0.00     0.198 A 
ATOM     85  C   UNL     1      -6.995 -16.867   5.845  1.00  0.00     0.198 A 
ATOM     86  F   UNL     1      -6.199 -14.812   5.020  1.00  0.00    -0.203 F 
ATOM     87  F   UNL     1      -5.283 -20.013   6.397  1.00  0.00    -0.200 F 
ATOM     88  C   UNL     1      -6.769 -18.188   6.201  1.00  0.00     0.200 A 
ATOM     89  F   UNL     1      -8.220 -16.338   5.977  1.00  0.00    -0.200 F 
ATOM     90  F   UNL     1      -7.777 -18.941   6.661  1.00  0.00    -0.200 F 
ENDBRANCH  57  80
ENDBRANCH  31  32
ENDBRANCH  23  26
ENDBRANCH  21  22
ENDBRANCH  20  21
ENDBRANCH  19  20
ENDBRANCH   1  19
TORSDOF 15
