REMARK SMILES C[NH2+][C@@]1(C(=O)NCCCCCCNC(=O)c2ccc(-c3c4nc(c(-c5c(F)c(F)c(F)c(F)c5F)c5ccc([nH]5)c(-c5c(F)c(F)c(F)c(F)c5F)c5nc(c(-c6c(F)c(F)c(F)c(F)c6F)c6ccc3[nH]6)C=C5)C=C4)cc2)CCC[C@@H](Oc2cc(F)cc(F)c2)C1
REMARK SMILES IDX 9 1 8 2 7 3 6 4 4 5 5 6 3 8 79 9 92 10 80 11 82 12 81 13
REMARK SMILES IDX 2 14 1 15 83 18 84 19 85 20 91 21 86 22 89 23 87 24 88 25
REMARK SMILES IDX 90 26 10 27 11 28 12 29 13 30 14 31 15 33 16 34 17 35 78 36
REMARK SMILES IDX 18 37 77 38 19 39 20 40 21 41 71 42 22 43 76 44 70 45 72 46
REMARK SMILES IDX 23 47 75 48 69 49 68 50 24 52 56 53 36 54 55 55 37 56 40 57
REMARK SMILES IDX 54 58 73 59 38 60 39 61 53 63 74 64 41 65 25 66 26 67 34 68
REMARK SMILES IDX 27 69 28 70 32 71 35 72 29 73 30 74 33 75 31 76 57 77 58 78
REMARK SMILES IDX 66 79 59 80 60 81 64 82 67 83 61 84 62 85 65 86 63 87 42 88
REMARK SMILES IDX 43 89 51 90 44 91 45 92 49 93 52 94 46 95 47 96 50 97 48 98
REMARK H PARENT 6 7 2 16 2 17 13 32 72 51 40 62
REMARK Flexibility Score: inf
ROOT
ATOM      1  C   UNL     1      -5.805   0.002  -1.957  1.00  0.00     0.002 C 
ENDROOT
BRANCH   1   2
ATOM      2  C   UNL     1      -4.846   0.054  -0.766  1.00  0.00     0.021 C 
BRANCH   2   3
ATOM      3  C   UNL     1      -4.010  -1.211  -0.589  1.00  0.00     0.116 C 
BRANCH   3   4
ATOM      4  N   UNL     1      -2.695  -1.098  -1.166  1.00  0.00    -0.351 N 
ATOM      5  C   UNL     1      -1.447  -1.269  -0.673  1.00  0.00     0.281 C 
ATOM      6  O   UNL     1      -0.617  -1.577  -1.546  1.00  0.00    -0.268 OA
ATOM      7  H   UNL     1      -2.706  -0.843  -2.117  1.00  0.00     0.163 HD
BRANCH   5   8
ATOM      8  C   UNL     1      -0.983  -1.129   0.845  1.00  0.00     0.178 C 
ATOM      9  C   UNL     1      -1.312  -2.388   1.685  1.00  0.00     0.079 C 
ATOM     10  C   UNL     1      -1.387   0.168   1.571  1.00  0.00     0.124 C 
ATOM     11  C   UNL     1      -2.629  -2.399   2.459  1.00  0.00     0.011 C 
ATOM     12  C   UNL     1      -2.743   0.155   2.269  1.00  0.00     0.180 C 
ATOM     13  C   UNL     1      -2.960  -1.079   3.152  1.00  0.00     0.046 C 
BRANCH   8  14
ATOM     14  N   UNL     1       0.539  -1.165   0.786  1.00  0.00    -0.336 N 
ATOM     15  C   UNL     1       1.180   0.034   0.246  1.00  0.00     0.331 C 
ATOM     16  H   UNL     1       0.886  -1.307   1.734  1.00  0.00     0.346 HD
ATOM     17  H   UNL     1       0.774  -1.921   0.142  1.00  0.00     0.346 HD
ENDBRANCH   8  14
BRANCH  12  18
ATOM     18  O   UNL     1      -3.048   1.429   2.874  1.00  0.00    -0.490 OA
BRANCH  18  19
ATOM     19  C   UNL     1      -2.678   1.619   4.170  1.00  0.00     0.125 A 
ATOM     20  C   UNL     1      -3.683   1.655   5.135  1.00  0.00     0.085 A 
ATOM     21  C   UNL     1      -1.363   1.908   4.519  1.00  0.00     0.085 A 
ATOM     22  C   UNL     1      -3.350   1.925   6.458  1.00  0.00     0.129 A 
ATOM     23  C   UNL     1      -1.054   2.169   5.851  1.00  0.00     0.129 A 
ATOM     24  F   UNL     1      -4.315   1.955   7.386  1.00  0.00    -0.207 F 
ATOM     25  C   UNL     1      -2.037   2.175   6.830  1.00  0.00     0.078 A 
ATOM     26  F   UNL     1       0.214   2.436   6.189  1.00  0.00    -0.207 F 
ENDBRANCH  18  19
ENDBRANCH  12  18
ENDBRANCH   5   8
ENDBRANCH   3   4
ENDBRANCH   2   3
ENDBRANCH   1   2
BRANCH   1  27
ATOM     27  C   UNL     1      -6.825  -1.145  -1.922  1.00  0.00     0.002 C 
BRANCH  27  28
ATOM     28  C   UNL     1      -7.645  -1.261  -0.634  1.00  0.00     0.021 C 
BRANCH  28  29
ATOM     29  C   UNL     1      -8.435  -0.008  -0.264  1.00  0.00     0.116 C 
BRANCH  29  30
ATOM     30  N   UNL     1      -9.337   0.396  -1.331  1.00  0.00    -0.352 N 
ATOM     31  C   UNL     1     -10.701   0.497  -1.333  1.00  0.00     0.251 C 
ATOM     32  H   UNL     1      -8.899   0.632  -2.180  1.00  0.00     0.163 HD
ATOM     33  O   UNL     1     -11.309   0.618  -2.398  1.00  0.00    -0.269 OA
BRANCH  31  34
ATOM     34  C   UNL     1     -11.452   0.462  -0.064  1.00  0.00     0.039 A 
ATOM     35  C   UNL     1     -12.634  -0.280   0.004  1.00  0.00     0.014 A 
ATOM     36  C   UNL     1     -11.015   1.195   1.044  1.00  0.00     0.014 A 
ATOM     37  C   UNL     1     -13.355  -0.324   1.197  1.00  0.00     0.010 A 
ATOM     38  C   UNL     1     -11.699   1.096   2.252  1.00  0.00     0.010 A 
ATOM     39  C   UNL     1     -12.880   0.345   2.337  1.00  0.00    -0.014 A 
BRANCH  39  40
ATOM     40  C   UNL     1     -13.613   0.280   3.624  1.00  0.00     0.031 A 
ATOM     41  C   UNL     1     -14.228   1.523   4.204  1.00  0.00     0.074 A 
ATOM     42  C   UNL     1     -13.666  -0.883   4.300  1.00  0.00     0.049 A 
ATOM     43  N   UNL     1     -14.845   1.687   5.347  1.00  0.00    -0.248 NA
ATOM     44  C   UNL     1     -14.111   2.752   3.404  1.00  0.00     0.031 C 
ATOM     45  C   UNL     1     -13.065  -2.143   3.860  1.00  0.00     0.029 A 
ATOM     46  N   UNL     1     -14.241  -1.192   5.506  1.00  0.00    -0.354 N 
ATOM     47  C   UNL     1     -15.171   3.035   5.410  1.00  0.00     0.074 A 
ATOM     48  C   UNL     1     -14.643   3.655   4.214  1.00  0.00     0.031 C 
ATOM     49  C   UNL     1     -13.318  -3.093   4.774  1.00  0.00     0.029 A 
ATOM     50  C   UNL     1     -14.067  -2.502   5.879  1.00  0.00     0.049 A 
ATOM     51  H   UNL     1     -14.732  -0.536   6.053  1.00  0.00     0.167 HD
ATOM     52  C   UNL     1     -15.868   3.690   6.368  1.00  0.00     0.037 A 
ATOM     53  C   UNL     1     -14.461  -3.150   6.991  1.00  0.00     0.037 A 
ATOM     54  C   UNL     1     -16.416   3.060   7.541  1.00  0.00     0.049 A 
ATOM     55  C   UNL     1     -15.239  -2.400   8.038  1.00  0.00     0.074 A 
ATOM     56  C   UNL     1     -17.194   3.620   8.539  1.00  0.00     0.029 A 
ATOM     57  N   UNL     1     -16.240   1.724   7.873  1.00  0.00    -0.354 N 
ATOM     58  N   UNL     1     -15.603  -1.141   8.054  1.00  0.00    -0.248 NA
ATOM     59  C   UNL     1     -15.668  -3.164   9.217  1.00  0.00     0.031 C 
ATOM     60  C   UNL     1     -17.451   2.635   9.498  1.00  0.00     0.029 A 
ATOM     61  C   UNL     1     -16.877   1.448   9.072  1.00  0.00     0.049 A 
ATOM     62  H   UNL     1     -15.737   1.070   7.336  1.00  0.00     0.167 HD
ATOM     63  C   UNL     1     -16.325  -0.967   9.227  1.00  0.00     0.074 A 
ATOM     64  C   UNL     1     -16.360  -2.255   9.889  1.00  0.00     0.031 C 
ATOM     65  C   UNL     1     -16.906   0.158   9.713  1.00  0.00     0.037 A 
BRANCH  52  66
ATOM     66  C   UNL     1     -16.081   5.165   6.188  1.00  0.00     0.064 A 
ATOM     67  C   UNL     1     -16.933   5.670   5.193  1.00  0.00     0.173 A 
ATOM     68  C   UNL     1     -15.455   6.085   7.042  1.00  0.00     0.173 A 
ATOM     69  F   UNL     1     -17.548   4.834   4.343  1.00  0.00    -0.203 F 
ATOM     70  C   UNL     1     -17.126   7.041   5.042  1.00  0.00     0.198 A 
ATOM     71  C   UNL     1     -15.674   7.454   6.907  1.00  0.00     0.198 A 
ATOM     72  F   UNL     1     -14.635   5.656   8.013  1.00  0.00    -0.203 F 
ATOM     73  F   UNL     1     -17.905   7.501   4.053  1.00  0.00    -0.200 F 
ATOM     74  C   UNL     1     -16.503   7.931   5.903  1.00  0.00     0.200 A 
ATOM     75  F   UNL     1     -15.081   8.312   7.749  1.00  0.00    -0.200 F 
ATOM     76  F   UNL     1     -16.695   9.249   5.761  1.00  0.00    -0.200 F 
ENDBRANCH  52  66
BRANCH  53  77
ATOM     77  C   UNL     1     -14.149  -4.592   7.157  1.00  0.00     0.064 A 
ATOM     78  C   UNL     1     -15.162  -5.559   7.093  1.00  0.00     0.173 A 
ATOM     79  C   UNL     1     -12.837  -5.036   7.376  1.00  0.00     0.173 A 
ATOM     80  F   UNL     1     -16.435  -5.181   6.904  1.00  0.00    -0.203 F 
ATOM     81  C   UNL     1     -14.878  -6.912   7.262  1.00  0.00     0.198 A 
ATOM     82  C   UNL     1     -12.550  -6.392   7.517  1.00  0.00     0.198 A 
ATOM     83  F   UNL     1     -11.830  -4.152   7.438  1.00  0.00    -0.203 F 
ATOM     84  F   UNL     1     -15.872  -7.811   7.238  1.00  0.00    -0.200 F 
ATOM     85  C   UNL     1     -13.572  -7.328   7.467  1.00  0.00     0.200 A 
ATOM     86  F   UNL     1     -11.284  -6.791   7.699  1.00  0.00    -0.200 F 
ATOM     87  F   UNL     1     -13.298  -8.631   7.623  1.00  0.00    -0.200 F 
ENDBRANCH  53  77
BRANCH  65  88
ATOM     88  C   UNL     1     -17.657   0.038  11.006  1.00  0.00     0.064 A 
ATOM     89  C   UNL     1     -16.993  -0.127  12.230  1.00  0.00     0.173 A 
ATOM     90  C   UNL     1     -19.057   0.132  11.024  1.00  0.00     0.173 A 
ATOM     91  F   UNL     1     -15.657  -0.237  12.263  1.00  0.00    -0.203 F 
ATOM     92  C   UNL     1     -17.706  -0.218  13.423  1.00  0.00     0.198 A 
ATOM     93  C   UNL     1     -19.764   0.070  12.221  1.00  0.00     0.198 A 
ATOM     94  F   UNL     1     -19.739   0.296   9.880  1.00  0.00    -0.203 F 
ATOM     95  F   UNL     1     -17.054  -0.422  14.576  1.00  0.00    -0.200 F 
ATOM     96  C   UNL     1     -19.088  -0.112  13.418  1.00  0.00     0.200 A 
ATOM     97  F   UNL     1     -21.099   0.186  12.216  1.00  0.00    -0.200 F 
ATOM     98  F   UNL     1     -19.771  -0.192  14.569  1.00  0.00    -0.200 F 
ENDBRANCH  65  88
ENDBRANCH  39  40
ENDBRANCH  31  34
ENDBRANCH  29  30
ENDBRANCH  28  29
ENDBRANCH  27  28
ENDBRANCH   1  27
TORSDOF 16
