REMARK SMILES O=C(NCCCCCCNC(=O)[C@@H]1C[C@@H](O)CN1C(=O)C1(c2ccccc2)CC1)c1ccc(-c2c3nc(c(-c4c(F)c(F)c(F)c(F)c4F)c4ccc([nH]4)c(-c4c(F)c(F)c(F)c(F)c4F)c4nc(c(-c5c(F)c(F)c(F)c(F)c5F)c5ccc2[nH]5)C=C4)C=C3)cc1
REMARK SMILES IDX 7 1 6 2 5 3 4 4 3 5 1 6 2 7 30 9 31 10 92 11 32 12 91 13
REMARK SMILES IDX 33 14 34 15 35 16 85 17 36 18 90 19 84 20 86 21 37 22 89 23
REMARK SMILES IDX 83 24 82 25 38 27 70 28 50 29 69 30 51 31 54 32 68 33 87 34
REMARK SMILES IDX 52 35 53 36 67 38 88 39 55 40 39 41 40 42 48 43 41 44 42 45
REMARK SMILES IDX 46 46 49 47 43 48 44 49 47 50 45 51 71 52 72 53 80 54 73 55
REMARK SMILES IDX 74 56 78 57 81 58 75 59 76 60 79 61 77 62 56 63 57 64 65 65
REMARK SMILES IDX 58 66 59 67 63 68 66 69 60 70 61 71 64 72 62 73 8 74 9 75
REMARK SMILES IDX 10 76 11 77 12 79 13 80 14 81 18 82 15 83 17 84 19 85 20 86
REMARK SMILES IDX 21 87 28 88 29 89 22 90 23 91 27 92 24 93 26 94 25 95 16 96
REMARK H PARENT 3 8 86 26 54 37 10 78 16 97
REMARK Flexibility Score: inf
ROOT
ATOM      1  C   UNL     1      12.980  -2.211   5.353  1.00  0.00     0.002 C 
ENDROOT
BRANCH   1   2
ATOM      2  C   UNL     1      13.640  -2.447   6.715  1.00  0.00     0.002 C 
BRANCH   2   3
ATOM      3  C   UNL     1      14.851  -3.382   6.705  1.00  0.00     0.021 C 
BRANCH   3   4
ATOM      4  C   UNL     1      15.961  -2.980   5.741  1.00  0.00     0.116 C 
BRANCH   4   5
ATOM      5  N   UNL     1      16.543  -1.692   6.076  1.00  0.00    -0.352 N 
ATOM      6  O   UNL     1      18.121  -0.262   6.821  1.00  0.00    -0.269 OA
ATOM      7  C   UNL     1      17.841  -1.375   6.383  1.00  0.00     0.251 C 
ATOM      8  H   UNL     1      15.913  -0.935   6.084  1.00  0.00     0.163 HD
BRANCH   7   9
ATOM      9  C   UNL     1      18.907  -2.382   6.207  1.00  0.00     0.039 A 
ATOM     10  C   UNL     1      18.983  -3.153   5.043  1.00  0.00     0.014 A 
ATOM     11  C   UNL     1      19.857  -2.541   7.218  1.00  0.00     0.014 A 
ATOM     12  C   UNL     1      19.931  -4.166   4.943  1.00  0.00     0.010 A 
ATOM     13  C   UNL     1      20.856  -3.506   7.083  1.00  0.00     0.010 A 
ATOM     14  C   UNL     1      20.885  -4.344   5.956  1.00  0.00    -0.014 A 
BRANCH  14  15
ATOM     15  C   UNL     1      21.942  -5.375   5.818  1.00  0.00     0.031 A 
ATOM     16  C   UNL     1      22.017  -6.529   6.775  1.00  0.00     0.074 A 
ATOM     17  C   UNL     1      22.860  -5.245   4.842  1.00  0.00     0.049 A 
ATOM     18  N   UNL     1      22.922  -7.471   6.869  1.00  0.00    -0.248 NA
ATOM     19  C   UNL     1      20.935  -6.633   7.766  1.00  0.00     0.031 C 
ATOM     20  C   UNL     1      22.888  -4.168   3.853  1.00  0.00     0.029 A 
ATOM     21  N   UNL     1      23.953  -6.013   4.531  1.00  0.00    -0.354 N 
ATOM     22  C   UNL     1      22.535  -8.263   7.942  1.00  0.00     0.074 A 
ATOM     23  C   UNL     1      21.327  -7.676   8.484  1.00  0.00     0.031 C 
ATOM     24  C   UNL     1      23.939  -4.345   3.040  1.00  0.00     0.029 A 
ATOM     25  C   UNL     1      24.695  -5.509   3.492  1.00  0.00     0.049 A 
ATOM     26  H   UNL     1      24.183  -6.844   5.006  1.00  0.00     0.167 HD
ATOM     27  C   UNL     1      23.133  -9.380   8.424  1.00  0.00     0.037 A 
ATOM     28  C   UNL     1      25.873  -5.914   2.982  1.00  0.00     0.037 A 
ATOM     29  C   UNL     1      24.337  -9.951   7.876  1.00  0.00     0.049 A 
ATOM     30  C   UNL     1      26.546  -7.123   3.566  1.00  0.00     0.074 A 
ATOM     31  C   UNL     1      25.005 -11.098   8.268  1.00  0.00     0.029 A 
ATOM     32  N   UNL     1      25.064  -9.407   6.825  1.00  0.00    -0.354 N 
ATOM     33  N   UNL     1      26.156  -7.888   4.556  1.00  0.00    -0.248 NA
ATOM     34  C   UNL     1      27.822  -7.527   2.961  1.00  0.00     0.031 C 
ATOM     35  C   UNL     1      26.168 -11.212   7.501  1.00  0.00     0.029 A 
ATOM     36  C   UNL     1      26.189 -10.179   6.577  1.00  0.00     0.049 A 
ATOM     37  H   UNL     1      24.817  -8.593   6.329  1.00  0.00     0.167 HD
ATOM     38  C   UNL     1      27.117  -8.882   4.674  1.00  0.00     0.074 A 
ATOM     39  C   UNL     1      28.109  -8.623   3.651  1.00  0.00     0.031 C 
ATOM     40  C   UNL     1      27.164  -9.919   5.546  1.00  0.00     0.037 A 
BRANCH  27  41
ATOM     41  C   UNL     1      22.515 -10.033   9.630  1.00  0.00     0.064 A 
ATOM     42  C   UNL     1      21.264 -10.666   9.573  1.00  0.00     0.173 A 
ATOM     43  C   UNL     1      23.193 -10.037  10.859  1.00  0.00     0.173 A 
ATOM     44  F   UNL     1      20.568 -10.686   8.426  1.00  0.00    -0.203 F 
ATOM     45  C   UNL     1      20.696 -11.237  10.710  1.00  0.00     0.198 A 
ATOM     46  C   UNL     1      22.638 -10.640  11.985  1.00  0.00     0.198 A 
ATOM     47  F   UNL     1      24.397  -9.456  10.970  1.00  0.00    -0.203 F 
ATOM     48  F   UNL     1      19.471 -11.776  10.646  1.00  0.00    -0.200 F 
ATOM     49  C   UNL     1      21.385 -11.228  11.913  1.00  0.00     0.200 A 
ATOM     50  F   UNL     1      23.314 -10.645  13.142  1.00  0.00    -0.200 F 
ATOM     51  F   UNL     1      20.837 -11.777  13.006  1.00  0.00    -0.200 F 
ENDBRANCH  27  41
BRANCH  28  52
ATOM     52  C   UNL     1      26.480  -5.152   1.861  1.00  0.00     0.064 A 
ATOM     53  C   UNL     1      26.543  -5.694   0.572  1.00  0.00     0.173 A 
ATOM     54  C   UNL     1      26.967  -3.849   2.048  1.00  0.00     0.173 A 
ATOM     55  F   UNL     1      26.104  -6.941   0.347  1.00  0.00    -0.203 F 
ATOM     56  C   UNL     1      27.078  -4.965  -0.488  1.00  0.00     0.198 A 
ATOM     57  C   UNL     1      27.473  -3.110   0.982  1.00  0.00     0.198 A 
ATOM     58  F   UNL     1      26.919  -3.282   3.263  1.00  0.00    -0.203 F 
ATOM     59  F   UNL     1      27.155  -5.518  -1.706  1.00  0.00    -0.200 F 
ATOM     60  C   UNL     1      27.534  -3.671  -0.284  1.00  0.00     0.200 A 
ATOM     61  F   UNL     1      27.892  -1.853   1.180  1.00  0.00    -0.200 F 
ATOM     62  F   UNL     1      28.031  -2.965  -1.308  1.00  0.00    -0.200 F 
ENDBRANCH  28  52
BRANCH  40  63
ATOM     63  C   UNL     1      28.295 -10.896   5.401  1.00  0.00     0.064 A 
ATOM     64  C   UNL     1      29.611 -10.570   5.758  1.00  0.00     0.173 A 
ATOM     65  C   UNL     1      28.040 -12.204   4.958  1.00  0.00     0.173 A 
ATOM     66  F   UNL     1      29.912  -9.329   6.170  1.00  0.00    -0.203 F 
ATOM     67  C   UNL     1      30.633 -11.512   5.662  1.00  0.00     0.198 A 
ATOM     68  C   UNL     1      29.056 -13.152   4.895  1.00  0.00     0.198 A 
ATOM     69  F   UNL     1      26.797 -12.568   4.608  1.00  0.00    -0.203 F 
ATOM     70  F   UNL     1      31.891 -11.168   5.971  1.00  0.00    -0.200 F 
ATOM     71  C   UNL     1      30.353 -12.804   5.242  1.00  0.00     0.200 A 
ATOM     72  F   UNL     1      28.780 -14.403   4.504  1.00  0.00    -0.200 F 
ATOM     73  F   UNL     1      31.334 -13.715   5.168  1.00  0.00    -0.200 F 
ENDBRANCH  40  63
ENDBRANCH  14  15
ENDBRANCH   7   9
ENDBRANCH   4   5
ENDBRANCH   3   4
ENDBRANCH   2   3
ENDBRANCH   1   2
BRANCH   1  74
ATOM     74  C   UNL     1      12.563  -3.474   4.593  1.00  0.00     0.021 C 
BRANCH  74  75
ATOM     75  C   UNL     1      11.646  -4.412   5.367  1.00  0.00     0.116 C 
BRANCH  75  76
ATOM     76  N   UNL     1      10.376  -3.806   5.699  1.00  0.00    -0.354 N 
ATOM     77  C   UNL     1       9.105  -4.285   5.576  1.00  0.00     0.242 C 
ATOM     78  H   UNL     1      10.439  -2.899   6.076  1.00  0.00     0.163 HD
ATOM     79  O   UNL     1       8.232  -3.707   6.232  1.00  0.00    -0.273 OA
BRANCH  77  80
ATOM     80  C   UNL     1       8.782  -5.586   4.815  1.00  0.00     0.177 C 
ATOM     81  C   UNL     1       9.285  -6.825   5.556  1.00  0.00     0.069 C 
ATOM     82  N   UNL     1       9.356  -5.676   3.463  1.00  0.00    -0.327 N 
ATOM     83  C   UNL     1       9.546  -7.821   4.436  1.00  0.00     0.136 C 
ATOM     84  C   UNL     1      10.007  -6.961   3.255  1.00  0.00     0.152 C 
BRANCH  82  85
ATOM     85  C   UNL     1       8.806  -4.873   2.474  1.00  0.00     0.234 C 
ATOM     86  O   UNL     1       7.739  -4.297   2.680  1.00  0.00    -0.274 OA
BRANCH  85  87
ATOM     87  C   UNL     1       9.509  -4.617   1.147  1.00  0.00     0.074 C 
ATOM     88  C   UNL     1      10.556  -5.507   0.484  1.00  0.00     0.023 C 
ATOM     89  C   UNL     1       9.137  -5.591   0.024  1.00  0.00     0.023 C 
BRANCH  87  90
ATOM     90  C   UNL     1       9.580  -3.117   0.781  1.00  0.00    -0.032 A 
ATOM     91  C   UNL     1      10.770  -2.376   0.888  1.00  0.00     0.005 A 
ATOM     92  C   UNL     1       8.421  -2.414   0.399  1.00  0.00     0.005 A 
ATOM     93  C   UNL     1      10.793  -0.997   0.656  1.00  0.00     0.000 A 
ATOM     94  C   UNL     1       8.435  -1.036   0.178  1.00  0.00     0.000 A 
ATOM     95  C   UNL     1       9.622  -0.326   0.314  1.00  0.00     0.000 A 
ENDBRANCH  87  90
ENDBRANCH  85  87
ENDBRANCH  82  85
BRANCH  83  96
ATOM     96  O   UNL     1       8.338  -8.509   4.111  1.00  0.00    -0.391 OA
ATOM     97  H   UNL     1       7.656  -7.865   3.864  1.00  0.00     0.211 HD
ENDBRANCH  83  96
ENDBRANCH  77  80
ENDBRANCH  75  76
ENDBRANCH  74  75
ENDBRANCH   1  74
TORSDOF 17
