REMARK SMILES O=C(Cc1ccccc1Nc1c(F)cccc1C(F)(F)F)NCCCCCCNC(=O)c1ccc(-c2c3nc(c(-c4c(F)c(F)c(F)c(F)c4F)c4ccc([nH]4)c(-c4c(F)c(F)c(F)c(F)c4F)c4nc(c(-c5c(F)c(F)c(F)c(F)c5F)c5ccc2[nH]5)C=C4)C=C3)cc1
REMARK SMILES IDX 24 1 23 2 22 3 1 4 2 5 3 7 4 8 5 9 9 10 6 11 8 12 7 13 10 14
REMARK SMILES IDX 11 16 12 17 17 18 13 19 14 20 16 21 15 22 18 23 19 24 20 25
REMARK SMILES IDX 21 26 25 27 26 28 27 29 28 30 29 31 30 32 31 34 32 35 33 36
REMARK SMILES IDX 94 37 34 38 93 39 35 40 36 41 37 42 87 43 38 44 92 45 86 46
REMARK SMILES IDX 88 47 39 48 91 49 85 50 84 51 40 53 72 54 52 55 71 56 53 57
REMARK SMILES IDX 56 58 70 59 89 60 54 61 55 62 69 64 90 65 57 66 41 67 42 68
REMARK SMILES IDX 50 69 43 70 44 71 48 72 51 73 45 74 46 75 49 76 47 77 73 78
REMARK SMILES IDX 74 79 82 80 75 81 76 82 80 83 83 84 77 85 78 86 81 87 79 88
REMARK SMILES IDX 58 89 59 90 67 91 60 92 61 93 65 94 68 95 62 96 63 97 66 98
REMARK SMILES IDX 64 99
REMARK H PARENT 22 6 10 15 29 33 88 52 56 63
REMARK Flexibility Score: inf
ROOT
ATOM      1  C   UNL     1       2.552   2.422   2.525  1.00  0.00     0.021 C 
ENDROOT
BRANCH   1   2
ATOM      2  C   UNL     1       2.009   1.910   1.189  1.00  0.00     0.116 C 
BRANCH   2   3
ATOM      3  N   UNL     1       2.763   0.783   0.672  1.00  0.00    -0.356 N 
ATOM      4  O   UNL     1       0.983  -0.230  -0.351  1.00  0.00    -0.275 OA
ATOM      5  C   UNL     1       2.176  -0.224  -0.066  1.00  0.00     0.224 C 
ATOM      6  H   UNL     1       3.729   0.735   0.854  1.00  0.00     0.163 HD
BRANCH   5   7
ATOM      7  C   UNL     1       3.131  -1.302  -0.517  1.00  0.00     0.137 C 
BRANCH   7   8
ATOM      8  C   UNL     1       4.032  -1.074  -1.724  1.00  0.00    -0.015 A 
ATOM      9  C   UNL     1       4.719  -2.241  -2.144  1.00  0.00     0.006 A 
ATOM     10  C   UNL     1       4.296   0.138  -2.404  1.00  0.00     0.042 A 
ATOM     11  C   UNL     1       5.662  -2.217  -3.168  1.00  0.00     0.000 A 
ATOM     12  C   UNL     1       5.294   0.144  -3.401  1.00  0.00     0.026 A 
ATOM     13  C   UNL     1       5.964  -1.016  -3.786  1.00  0.00     0.002 A 
BRANCH  10  14
ATOM     14  N   UNL     1       3.648   1.344  -2.087  1.00  0.00    -0.352 N 
ATOM     15  H   UNL     1       3.010   1.290  -1.339  1.00  0.00     0.167 HD
BRANCH  14  16
ATOM     16  C   UNL     1       3.771   2.620  -2.675  1.00  0.00     0.087 A 
ATOM     17  C   UNL     1       4.583   3.584  -2.057  1.00  0.00     0.147 A 
ATOM     18  C   UNL     1       2.947   3.022  -3.741  1.00  0.00     0.082 A 
ATOM     19  F   UNL     1       5.428   3.213  -1.083  1.00  0.00    -0.205 F 
ATOM     20  C   UNL     1       4.530   4.929  -2.409  1.00  0.00     0.041 A 
ATOM     21  C   UNL     1       2.913   4.385  -4.105  1.00  0.00     0.015 A 
ATOM     22  C   UNL     1       3.676   5.336  -3.425  1.00  0.00     0.004 A 
BRANCH  18  23
ATOM     23  C   UNL     1       2.171   2.020  -4.560  1.00  0.00     0.418 C 
ATOM     24  F   UNL     1       1.172   2.600  -5.289  1.00  0.00    -0.166 F 
ATOM     25  F   UNL     1       2.960   1.387  -5.474  1.00  0.00    -0.166 F 
ATOM     26  F   UNL     1       1.562   1.046  -3.832  1.00  0.00    -0.166 F 
ENDBRANCH  18  23
ENDBRANCH  14  16
ENDBRANCH  10  14
ENDBRANCH   7   8
ENDBRANCH   5   7
ENDBRANCH   2   3
ENDBRANCH   1   2
BRANCH   1  27
ATOM     27  C   UNL     1       4.016   2.877   2.508  1.00  0.00     0.002 C 
BRANCH  27  28
ATOM     28  C   UNL     1       4.323   4.011   1.533  1.00  0.00     0.002 C 
BRANCH  28  29
ATOM     29  C   UNL     1       3.669   5.355   1.828  1.00  0.00     0.021 C 
BRANCH  29  30
ATOM     30  C   UNL     1       3.998   5.944   3.190  1.00  0.00     0.116 C 
BRANCH  30  31
ATOM     31  N   UNL     1       5.413   6.242   3.361  1.00  0.00    -0.352 N 
ATOM     32  C   UNL     1       6.022   7.409   3.757  1.00  0.00     0.251 C 
ATOM     33  H   UNL     1       6.025   5.496   3.164  1.00  0.00     0.163 HD
ATOM     34  O   UNL     1       7.246   7.510   3.727  1.00  0.00    -0.269 OA
BRANCH  32  35
ATOM     35  C   UNL     1       5.201   8.565   4.178  1.00  0.00     0.039 A 
ATOM     36  C   UNL     1       5.535   9.840   3.713  1.00  0.00     0.014 A 
ATOM     37  C   UNL     1       4.086   8.393   5.001  1.00  0.00     0.014 A 
ATOM     38  C   UNL     1       4.700  10.923   4.000  1.00  0.00     0.010 A 
ATOM     39  C   UNL     1       3.203   9.448   5.198  1.00  0.00     0.010 A 
ATOM     40  C   UNL     1       3.501  10.726   4.703  1.00  0.00    -0.014 A 
BRANCH  40  41
ATOM     41  C   UNL     1       2.544  11.839   4.935  1.00  0.00     0.031 A 
ATOM     42  C   UNL     1       2.196  12.254   6.338  1.00  0.00     0.074 A 
ATOM     43  C   UNL     1       1.929  12.423   3.888  1.00  0.00     0.049 A 
ATOM     44  N   UNL     1       1.325  13.142   6.750  1.00  0.00    -0.248 NA
ATOM     45  C   UNL     1       2.890  11.549   7.428  1.00  0.00     0.031 C 
ATOM     46  C   UNL     1       2.131  12.068   2.482  1.00  0.00     0.029 A 
ATOM     47  N   UNL     1       1.000  13.433   3.844  1.00  0.00    -0.354 N 
ATOM     48  C   UNL     1       1.353  13.083   8.136  1.00  0.00     0.074 A 
ATOM     49  C   UNL     1       2.278  12.031   8.498  1.00  0.00     0.031 C 
ATOM     50  C   UNL     1       1.375  12.868   1.713  1.00  0.00     0.029 A 
ATOM     51  C   UNL     1       0.607  13.765   2.570  1.00  0.00     0.049 A 
ATOM     52  H   UNL     1       0.649  13.877   4.649  1.00  0.00     0.167 HD
ATOM     53  C   UNL     1       0.691  13.855   9.030  1.00  0.00     0.037 A 
ATOM     54  C   UNL     1      -0.275  14.689   2.143  1.00  0.00     0.037 A 
ATOM     55  C   UNL     1      -0.198  14.927   8.667  1.00  0.00     0.049 A 
ATOM     56  C   UNL     1      -0.985  15.547   3.154  1.00  0.00     0.074 A 
ATOM     57  C   UNL     1      -0.859  15.819   9.494  1.00  0.00     0.029 A 
ATOM     58  N   UNL     1      -0.549  15.253   7.365  1.00  0.00    -0.354 N 
ATOM     59  N   UNL     1      -0.893  15.534   4.461  1.00  0.00    -0.248 NA
ATOM     60  C   UNL     1      -1.918  16.553   2.628  1.00  0.00     0.031 C 
ATOM     61  C   UNL     1      -1.644  16.656   8.695  1.00  0.00     0.029 A 
ATOM     62  C   UNL     1      -1.435  16.319   7.367  1.00  0.00     0.049 A 
ATOM     63  H   UNL     1      -0.218  14.794   6.559  1.00  0.00     0.167 HD
ATOM     64  C   UNL     1      -1.733  16.542   4.914  1.00  0.00     0.074 A 
ATOM     65  C   UNL     1      -2.314  17.159   3.739  1.00  0.00     0.031 C 
ATOM     66  C   UNL     1      -2.000  16.922   6.187  1.00  0.00     0.037 A 
BRANCH  53  67
ATOM     67  C   UNL     1       0.912  13.572  10.488  1.00  0.00     0.064 A 
ATOM     68  C   UNL     1       2.144  13.830  11.110  1.00  0.00     0.173 A 
ATOM     69  C   UNL     1      -0.125  13.054  11.279  1.00  0.00     0.173 A 
ATOM     70  F   UNL     1       3.172  14.313  10.397  1.00  0.00    -0.203 F 
ATOM     71  C   UNL     1       2.340  13.545  12.459  1.00  0.00     0.198 A 
ATOM     72  C   UNL     1       0.065  12.802  12.636  1.00  0.00     0.198 A 
ATOM     73  F   UNL     1      -1.324  12.794  10.738  1.00  0.00    -0.203 F 
ATOM     74  F   UNL     1       3.543  13.744  13.015  1.00  0.00    -0.200 F 
ATOM     75  C   UNL     1       1.300  13.038  13.222  1.00  0.00     0.200 A 
ATOM     76  F   UNL     1      -0.945  12.323  13.375  1.00  0.00    -0.200 F 
ATOM     77  F   UNL     1       1.489  12.767  14.521  1.00  0.00    -0.200 F 
ENDBRANCH  53  67
BRANCH  54  78
ATOM     78  C   UNL     1      -0.505  14.876   0.687  1.00  0.00     0.064 A 
ATOM     79  C   UNL     1      -0.051  16.029   0.032  1.00  0.00     0.173 A 
ATOM     80  C   UNL     1      -1.174  13.911  -0.080  1.00  0.00     0.173 A 
ATOM     81  F   UNL     1       0.576  16.990   0.726  1.00  0.00    -0.203 F 
ATOM     82  C   UNL     1      -0.272  16.218  -1.331  1.00  0.00     0.198 A 
ATOM     83  C   UNL     1      -1.370  14.088  -1.448  1.00  0.00     0.198 A 
ATOM     84  F   UNL     1      -1.623  12.787   0.497  1.00  0.00    -0.203 F 
ATOM     85  F   UNL     1       0.138  17.348  -1.923  1.00  0.00    -0.200 F 
ATOM     86  C   UNL     1      -0.925  15.245  -2.071  1.00  0.00     0.200 A 
ATOM     87  F   UNL     1      -1.988  13.138  -2.163  1.00  0.00    -0.200 F 
ATOM     88  F   UNL     1      -1.131  15.423  -3.383  1.00  0.00    -0.200 F 
ENDBRANCH  54  78
BRANCH  66  89
ATOM     89  C   UNL     1      -2.940  18.077   6.376  1.00  0.00     0.064 A 
ATOM     90  C   UNL     1      -4.317  17.951   6.138  1.00  0.00     0.173 A 
ATOM     91  C   UNL     1      -2.462  19.312   6.839  1.00  0.00     0.173 A 
ATOM     92  F   UNL     1      -4.820  16.795   5.680  1.00  0.00    -0.203 F 
ATOM     93  C   UNL     1      -5.177  19.029   6.332  1.00  0.00     0.198 A 
ATOM     94  C   UNL     1      -3.330  20.378   7.060  1.00  0.00     0.198 A 
ATOM     95  F   UNL     1      -1.155  19.482   7.088  1.00  0.00    -0.203 F 
ATOM     96  F   UNL     1      -6.481  18.901   6.052  1.00  0.00    -0.200 F 
ATOM     97  C   UNL     1      -4.684  20.238   6.800  1.00  0.00     0.200 A 
ATOM     98  F   UNL     1      -2.854  21.542   7.526  1.00  0.00    -0.200 F 
ATOM     99  F   UNL     1      -5.515  21.272   6.992  1.00  0.00    -0.200 F 
ENDBRANCH  66  89
ENDBRANCH  40  41
ENDBRANCH  32  35
ENDBRANCH  30  31
ENDBRANCH  29  30
ENDBRANCH  28  29
ENDBRANCH  27  28
ENDBRANCH   1  27
TORSDOF 17
