REMARK SMILES Cc1cc(F)ccc1NC(=O)[C@H]1CC=CC[C@@H]1C(=O)NCCCCCCNC(=O)c1ccc(-c2c3nc(c(-c4c(F)c(F)c(F)c(F)c4F)c4ccc([nH]4)c(-c4c(F)c(F)c(F)c(F)c4F)c4nc(c(-c5c(F)c(F)c(F)c(F)c5F)c5ccc2[nH]5)C=C4)C=C3)cc1
REMARK SMILES IDX 23 1 22 2 21 3 20 4 18 5 19 6 17 8 12 9 13 10 14 11 16 12
REMARK SMILES IDX 15 13 10 14 9 15 11 17 8 18 1 19 2 20 3 21 4 22 7 23 5 24
REMARK SMILES IDX 6 25 24 26 25 27 26 28 27 29 28 30 29 32 30 33 31 34 92 35
REMARK SMILES IDX 32 36 91 37 33 38 34 39 35 40 85 41 36 42 90 43 84 44 86 45
REMARK SMILES IDX 37 46 89 47 83 48 82 49 38 51 70 52 50 53 69 54 51 55 54 56
REMARK SMILES IDX 68 57 87 58 52 59 53 60 67 62 88 63 55 64 39 65 40 66 48 67
REMARK SMILES IDX 41 68 42 69 46 70 49 71 43 72 44 73 47 74 45 75 71 76 72 77
REMARK SMILES IDX 80 78 73 79 74 80 78 81 81 82 75 83 76 84 79 85 77 86 56 87
REMARK SMILES IDX 57 88 65 89 58 90 59 91 63 92 66 93 60 94 61 95 64 96 62 97
REMARK H PARENT 20 7 9 16 27 31 86 50 54 61
REMARK Flexibility Score: inf
ROOT
ATOM      1  C   UNL     1      -3.477  -2.527   2.582  1.00  0.00     0.002 C 
ENDROOT
BRANCH   1   2
ATOM      2  C   UNL     1      -2.065  -2.764   2.076  1.00  0.00     0.021 C 
BRANCH   2   3
ATOM      3  C   UNL     1      -1.617  -4.217   1.744  1.00  0.00     0.116 C 
BRANCH   3   4
ATOM      4  N   UNL     1      -1.486  -4.632   0.332  1.00  0.00    -0.356 N 
ATOM      5  C   UNL     1      -0.302  -4.884  -0.369  1.00  0.00     0.224 C 
ATOM      6  O   UNL     1      -0.179  -5.985  -0.910  1.00  0.00    -0.275 OA
ATOM      7  H   UNL     1      -2.324  -4.744  -0.172  1.00  0.00     0.163 HD
BRANCH   5   8
ATOM      8  C   UNL     1       0.673  -3.730  -0.719  1.00  0.00     0.095 C 
ATOM      9  C   UNL     1       2.176  -3.679  -0.421  1.00  0.00     0.095 C 
ATOM     10  C   UNL     1       2.394  -4.198   1.008  1.00  0.00     0.041 C 
ATOM     11  C   UNL     1       1.708  -3.230   1.915  1.00  0.00    -0.030 C 
ATOM     12  C   UNL     1       0.205  -2.527  -0.029  1.00  0.00     0.041 C 
ATOM     13  C   UNL     1       0.776  -2.403   1.410  1.00  0.00    -0.030 C 
BRANCH   9  14
ATOM     14  C   UNL     1       2.988  -2.253  -0.544  1.00  0.00     0.228 C 
ATOM     15  N   UNL     1       2.734  -0.892  -0.437  1.00  0.00    -0.326 N 
ATOM     16  H   UNL     1       3.629  -0.484  -0.466  1.00  0.00     0.169 HD
ATOM     17  O   UNL     1       4.221  -2.429  -0.711  1.00  0.00    -0.274 OA
BRANCH  15  18
ATOM     18  C   UNL     1       1.824   0.261  -0.303  1.00  0.00     0.044 A 
ATOM     19  C   UNL     1       3.820   1.927  -0.334  1.00  0.00     0.047 C 
ATOM     20  C   UNL     1       2.361   1.568  -0.462  1.00  0.00    -0.025 A 
ATOM     21  C   UNL     1       1.511   2.712  -0.609  1.00  0.00     0.044 A 
ATOM     22  C   UNL     1       0.135   2.615  -0.557  1.00  0.00     0.123 A 
ATOM     23  C   UNL     1       0.431   0.304  -0.074  1.00  0.00     0.029 A 
ATOM     24  F   UNL     1      -0.646   3.688  -0.711  1.00  0.00    -0.207 F 
ATOM     25  C   UNL     1      -0.416   1.410  -0.248  1.00  0.00     0.041 A 
ENDBRANCH  15  18
ENDBRANCH   9  14
ENDBRANCH   5   8
ENDBRANCH   3   4
ENDBRANCH   2   3
ENDBRANCH   1   2
BRANCH   1  26
ATOM     26  C   UNL     1      -3.870  -3.401   3.761  1.00  0.00     0.002 C 
BRANCH  26  27
ATOM     27  C   UNL     1      -2.957  -3.281   4.993  1.00  0.00     0.021 C 
BRANCH  27  28
ATOM     28  C   UNL     1      -3.120  -1.964   5.742  1.00  0.00     0.116 C 
BRANCH  28  29
ATOM     29  N   UNL     1      -4.486  -1.848   6.235  1.00  0.00    -0.352 N 
ATOM     30  C   UNL     1      -4.960  -1.273   7.380  1.00  0.00     0.251 C 
ATOM     31  H   UNL     1      -5.174  -2.246   5.654  1.00  0.00     0.163 HD
ATOM     32  O   UNL     1      -6.061  -1.583   7.814  1.00  0.00    -0.269 OA
BRANCH  30  33
ATOM     33  C   UNL     1      -4.173  -0.228   8.045  1.00  0.00     0.039 A 
ATOM     34  C   UNL     1      -4.245  -0.079   9.439  1.00  0.00     0.014 A 
ATOM     35  C   UNL     1      -3.476   0.683   7.256  1.00  0.00     0.014 A 
ATOM     36  C   UNL     1      -3.597   0.989  10.053  1.00  0.00     0.010 A 
ATOM     37  C   UNL     1      -2.807   1.713   7.861  1.00  0.00     0.010 A 
ATOM     38  C   UNL     1      -2.891   1.881   9.251  1.00  0.00    -0.014 A 
BRANCH  38  39
ATOM     39  C   UNL     1      -2.171   3.047   9.723  1.00  0.00     0.031 A 
ATOM     40  C   UNL     1      -0.770   2.928  10.167  1.00  0.00     0.074 A 
ATOM     41  C   UNL     1      -2.706   4.233   9.366  1.00  0.00     0.049 A 
ATOM     42  N   UNL     1      -0.098   3.894  10.687  1.00  0.00    -0.248 NA
ATOM     43  C   UNL     1      -0.002   1.691  10.055  1.00  0.00     0.031 C 
ATOM     44  C   UNL     1      -2.021   5.497   9.139  1.00  0.00     0.029 A 
ATOM     45  N   UNL     1      -4.067   4.543   9.216  1.00  0.00    -0.354 N 
ATOM     46  C   UNL     1       1.228   3.526  10.688  1.00  0.00     0.074 A 
ATOM     47  C   UNL     1       1.229   2.116  10.369  1.00  0.00     0.031 C 
ATOM     48  C   UNL     1      -2.926   6.490   9.156  1.00  0.00     0.029 A 
ATOM     49  C   UNL     1      -4.180   5.899   9.592  1.00  0.00     0.049 A 
ATOM     50  H   UNL     1      -4.787   3.943   8.913  1.00  0.00     0.167 HD
ATOM     51  C   UNL     1       2.179   4.496  10.809  1.00  0.00     0.037 A 
ATOM     52  C   UNL     1      -4.826   6.238  10.749  1.00  0.00     0.037 A 
ATOM     53  C   UNL     1       1.559   5.809  10.951  1.00  0.00     0.049 A 
ATOM     54  C   UNL     1      -3.937   6.965  11.726  1.00  0.00     0.074 A 
ATOM     55  C   UNL     1       1.272   6.802  10.029  1.00  0.00     0.029 A 
ATOM     56  N   UNL     1       0.822   6.099  12.092  1.00  0.00    -0.354 N 
ATOM     57  N   UNL     1      -2.647   6.786  11.809  1.00  0.00    -0.248 NA
ATOM     58  C   UNL     1      -4.427   7.982  12.648  1.00  0.00     0.031 C 
ATOM     59  C   UNL     1       0.324   7.677  10.609  1.00  0.00     0.029 A 
ATOM     60  C   UNL     1       0.049   7.223  11.888  1.00  0.00     0.049 A 
ATOM     61  H   UNL     1       0.848   5.578  12.927  1.00  0.00     0.167 HD
ATOM     62  C   UNL     1      -2.127   7.671  12.719  1.00  0.00     0.074 A 
ATOM     63  C   UNL     1      -3.283   8.384  13.229  1.00  0.00     0.031 C 
ATOM     64  C   UNL     1      -0.782   7.767  12.946  1.00  0.00     0.037 A 
BRANCH  51  65
ATOM     65  C   UNL     1       3.648   4.307  10.518  1.00  0.00     0.064 A 
ATOM     66  C   UNL     1       4.422   5.357   9.972  1.00  0.00     0.173 A 
ATOM     67  C   UNL     1       4.352   3.111  10.746  1.00  0.00     0.173 A 
ATOM     68  F   UNL     1       3.908   6.576   9.764  1.00  0.00    -0.203 F 
ATOM     69  C   UNL     1       5.760   5.197   9.606  1.00  0.00     0.198 A 
ATOM     70  C   UNL     1       5.681   2.938  10.340  1.00  0.00     0.198 A 
ATOM     71  F   UNL     1       3.788   2.091  11.405  1.00  0.00    -0.203 F 
ATOM     72  F   UNL     1       6.436   6.233   9.087  1.00  0.00    -0.200 F 
ATOM     73  C   UNL     1       6.383   3.979   9.765  1.00  0.00     0.200 A 
ATOM     74  F   UNL     1       6.280   1.750  10.513  1.00  0.00    -0.200 F 
ATOM     75  F   UNL     1       7.657   3.814   9.383  1.00  0.00    -0.200 F 
ENDBRANCH  51  65
BRANCH  52  76
ATOM     76  C   UNL     1      -5.887   5.255  11.110  1.00  0.00     0.064 A 
ATOM     77  C   UNL     1      -6.995   5.148  10.245  1.00  0.00     0.173 A 
ATOM     78  C   UNL     1      -5.604   4.161  11.940  1.00  0.00     0.173 A 
ATOM     79  F   UNL     1      -7.304   6.167   9.427  1.00  0.00    -0.203 F 
ATOM     80  C   UNL     1      -7.694   3.950  10.112  1.00  0.00     0.198 A 
ATOM     81  C   UNL     1      -6.313   2.964  11.807  1.00  0.00     0.198 A 
ATOM     82  F   UNL     1      -4.565   4.202  12.786  1.00  0.00    -0.203 F 
ATOM     83  F   UNL     1      -8.661   3.840   9.189  1.00  0.00    -0.200 F 
ATOM     84  C   UNL     1      -7.330   2.849  10.869  1.00  0.00     0.200 A 
ATOM     85  F   UNL     1      -5.954   1.892  12.529  1.00  0.00    -0.200 F 
ATOM     86  F   UNL     1      -7.933   1.669  10.670  1.00  0.00    -0.200 F 
ENDBRANCH  52  76
BRANCH  64  87
ATOM     87  C   UNL     1      -0.099   8.489  14.086  1.00  0.00     0.064 A 
ATOM     88  C   UNL     1      -0.717   8.789  15.309  1.00  0.00     0.173 A 
ATOM     89  C   UNL     1       1.292   8.771  14.029  1.00  0.00     0.173 A 
ATOM     90  F   UNL     1      -1.991   8.455  15.549  1.00  0.00    -0.203 F 
ATOM     91  C   UNL     1      -0.022   9.389  16.363  1.00  0.00     0.198 A 
ATOM     92  C   UNL     1       1.996   9.310  15.104  1.00  0.00     0.198 A 
ATOM     93  F   UNL     1       2.028   8.502  12.940  1.00  0.00    -0.203 F 
ATOM     94  F   UNL     1      -0.673   9.697  17.493  1.00  0.00    -0.200 F 
ATOM     95  C   UNL     1       1.334   9.638  16.266  1.00  0.00     0.200 A 
ATOM     96  F   UNL     1       3.321   9.486  15.010  1.00  0.00    -0.200 F 
ATOM     97  F   UNL     1       2.004  10.168  17.297  1.00  0.00    -0.200 F 
ENDBRANCH  64  87
ENDBRANCH  38  39
ENDBRANCH  30  33
ENDBRANCH  28  29
ENDBRANCH  27  28
ENDBRANCH  26  27
ENDBRANCH   1  26
TORSDOF 15
