REMARK SMILES Cc1cccc(OC2(C(=O)NCCCCCCNC(=O)c3ccc(-c4c5nc(c(-c6c(F)c(F)c(F)c(F)c6F)c6ccc([nH]6)c(-c6c(F)c(F)c(F)c(F)c6F)c6nc(c(-c7c(F)c(F)c(F)c(F)c7F)c7ccc4[nH]7)C=C6)C=C5)cc3)CCN(C(=O)c3cnc[nH]c3=O)CC2)c1
REMARK SMILES IDX 14 1 13 2 12 3 11 4 9 5 10 6 8 8 84 9 97 10 85 11 96 12
REMARK SMILES IDX 86 13 87 14 88 15 7 16 6 17 1 18 2 19 3 20 98 21 4 22 5 23
REMARK SMILES IDX 89 24 90 25 94 26 91 27 93 28 95 29 92 30 15 32 16 33 17 34
REMARK SMILES IDX 18 35 19 36 20 38 21 39 22 40 83 41 23 42 82 43 24 44 25 45
REMARK SMILES IDX 26 46 76 47 27 48 81 49 75 50 77 51 28 52 80 53 74 54 73 55
REMARK SMILES IDX 29 57 61 58 41 59 60 60 42 61 45 62 59 63 78 64 43 65 44 66
REMARK SMILES IDX 58 68 79 69 46 70 30 71 31 72 39 73 32 74 33 75 37 76 40 77
REMARK SMILES IDX 34 78 35 79 38 80 36 81 62 82 63 83 71 84 64 85 65 86 69 87
REMARK SMILES IDX 72 88 66 89 67 90 70 91 68 92 47 93 48 94 56 95 49 96 50 97
REMARK SMILES IDX 54 98 57 99 51 100 52 101 55 102 53 103
REMARK H PARENT 11 7 93 31 18 37 77 56 45 67
REMARK Flexibility Score: inf
ROOT
ATOM      1  C   UNL     1       1.233   6.706  -3.660  1.00  0.00     0.002 C 
ENDROOT
BRANCH   1   2
ATOM      2  C   UNL     1       1.082   6.325  -2.186  1.00  0.00     0.021 C 
BRANCH   2   3
ATOM      3  C   UNL     1      -0.333   6.394  -1.588  1.00  0.00     0.116 C 
BRANCH   3   4
ATOM      4  N   UNL     1      -1.159   5.242  -1.902  1.00  0.00    -0.353 N 
ATOM      5  C   UNL     1      -1.438   4.074  -1.249  1.00  0.00     0.264 C 
ATOM      6  O   UNL     1      -2.347   3.410  -1.764  1.00  0.00    -0.270 OA
ATOM      7  H   UNL     1      -1.616   5.318  -2.771  1.00  0.00     0.163 HD
BRANCH   5   8
ATOM      8  C   UNL     1      -0.734   3.599   0.071  1.00  0.00     0.190 C 
ATOM      9  C   UNL     1       0.772   3.893   0.064  1.00  0.00     0.080 C 
ATOM     10  C   UNL     1      -1.406   4.320   1.274  1.00  0.00     0.080 C 
ATOM     11  C   UNL     1       1.463   3.714   1.402  1.00  0.00     0.124 C 
ATOM     12  C   UNL     1      -0.653   4.021   2.580  1.00  0.00     0.124 C 
ATOM     13  N   UNL     1       0.732   4.444   2.414  1.00  0.00    -0.338 N 
ATOM     14  C   UNL     1       1.205   5.666   2.854  1.00  0.00     0.261 C 
ATOM     15  O   UNL     1       1.919   6.402   2.177  1.00  0.00    -0.269 OA
BRANCH   8  16
ATOM     16  O   UNL     1      -1.157   2.232   0.269  1.00  0.00    -0.477 OA
BRANCH  16  17
ATOM     17  C   UNL     1      -0.550   1.046   0.051  1.00  0.00     0.121 A 
ATOM     18  C   UNL     1       2.773  -0.797  -0.070  1.00  0.00     0.044 C 
ATOM     19  C   UNL     1       1.294  -0.542  -0.069  1.00  0.00    -0.047 A 
ATOM     20  C   UNL     1       0.394  -1.609  -0.035  1.00  0.00     0.003 A 
ATOM     21  C   UNL     1       0.806   0.775  -0.064  1.00  0.00     0.049 A 
ATOM     22  C   UNL     1      -0.973  -1.357   0.016  1.00  0.00     0.004 A 
ATOM     23  C   UNL     1      -1.435  -0.039   0.071  1.00  0.00     0.046 A 
ENDBRANCH  16  17
ENDBRANCH   8  16
BRANCH  14  24
ATOM     24  C   UNL     1       0.834   6.025   4.234  1.00  0.00     0.123 A 
ATOM     25  C   UNL     1       0.231   7.191   4.499  1.00  0.00     0.132 A 
ATOM     26  C   UNL     1       1.146   5.147   5.377  1.00  0.00     0.263 A 
ATOM     27  N   UNL     1      -0.159   7.611   5.750  1.00  0.00    -0.246 NA
ATOM     28  N   UNL     1       0.742   5.618   6.594  1.00  0.00    -0.312 N 
ATOM     29  O   UNL     1       1.735   4.077   5.270  1.00  0.00    -0.269 OA
ATOM     30  C   UNL     1       0.112   6.819   6.732  1.00  0.00     0.199 A 
ATOM     31  H   UNL     1       0.911   5.073   7.396  1.00  0.00     0.171 HD
ENDBRANCH  14  24
ENDBRANCH   5   8
ENDBRANCH   3   4
ENDBRANCH   2   3
ENDBRANCH   1   2
BRANCH   1  32
ATOM     32  C   UNL     1       0.631   8.046  -4.094  1.00  0.00     0.002 C 
BRANCH  32  33
ATOM     33  C   UNL     1       0.876   9.226  -3.157  1.00  0.00     0.021 C 
BRANCH  33  34
ATOM     34  C   UNL     1       2.307   9.739  -3.148  1.00  0.00     0.116 C 
BRANCH  34  35
ATOM     35  N   UNL     1       2.549  10.754  -4.160  1.00  0.00    -0.352 N 
ATOM     36  C   UNL     1       3.651  11.554  -4.396  1.00  0.00     0.251 C 
ATOM     37  H   UNL     1       1.800  10.895  -4.784  1.00  0.00     0.163 HD
ATOM     38  O   UNL     1       3.569  12.459  -5.210  1.00  0.00    -0.269 OA
BRANCH  36  39
ATOM     39  C   UNL     1       4.971  11.208  -3.807  1.00  0.00     0.039 A 
ATOM     40  C   UNL     1       6.096  11.370  -4.632  1.00  0.00     0.014 A 
ATOM     41  C   UNL     1       5.090  10.528  -2.603  1.00  0.00     0.014 A 
ATOM     42  C   UNL     1       7.246  10.629  -4.383  1.00  0.00     0.010 A 
ATOM     43  C   UNL     1       6.175   9.706  -2.415  1.00  0.00     0.010 A 
ATOM     44  C   UNL     1       7.219   9.706  -3.346  1.00  0.00    -0.014 A 
BRANCH  44  45
ATOM     45  C   UNL     1       8.188   8.641  -3.161  1.00  0.00     0.031 A 
ATOM     46  C   UNL     1       9.148   8.722  -2.046  1.00  0.00     0.074 A 
ATOM     47  C   UNL     1       8.014   7.496  -3.857  1.00  0.00     0.049 A 
ATOM     48  N   UNL     1      10.136   7.917  -1.875  1.00  0.00    -0.248 NA
ATOM     49  C   UNL     1       9.080   9.767  -1.033  1.00  0.00     0.031 C 
ATOM     50  C   UNL     1       8.536   6.171  -3.537  1.00  0.00     0.029 A 
ATOM     51  N   UNL     1       7.460   7.351  -5.140  1.00  0.00    -0.354 N 
ATOM     52  C   UNL     1      10.649   8.137  -0.617  1.00  0.00     0.074 A 
ATOM     53  C   UNL     1      10.006   9.348  -0.166  1.00  0.00     0.031 C 
ATOM     54  C   UNL     1       8.560   5.432  -4.657  1.00  0.00     0.029 A 
ATOM     55  C   UNL     1       8.222   6.325  -5.750  1.00  0.00     0.049 A 
ATOM     56  H   UNL     1       6.708   7.853  -5.530  1.00  0.00     0.167 HD
ATOM     57  C   UNL     1      11.456   7.180  -0.072  1.00  0.00     0.037 A 
ATOM     58  C   UNL     1       9.044   6.588  -6.809  1.00  0.00     0.037 A 
ATOM     59  C   UNL     1      11.763   6.147  -1.063  1.00  0.00     0.049 A 
ATOM     60  C   UNL     1      10.489   6.223  -6.562  1.00  0.00     0.074 A 
ATOM     61  C   UNL     1      11.257   4.878  -1.299  1.00  0.00     0.029 A 
ATOM     62  N   UNL     1      12.491   6.495  -2.197  1.00  0.00    -0.354 N 
ATOM     63  N   UNL     1      11.034   6.152  -5.379  1.00  0.00    -0.248 NA
ATOM     64  C   UNL     1      11.428   5.900  -7.630  1.00  0.00     0.031 C 
ATOM     65  C   UNL     1      11.661   4.477  -2.599  1.00  0.00     0.029 A 
ATOM     66  C   UNL     1      12.427   5.493  -3.144  1.00  0.00     0.049 A 
ATOM     67  H   UNL     1      12.983   7.340  -2.308  1.00  0.00     0.167 HD
ATOM     68  C   UNL     1      12.348   5.769  -5.499  1.00  0.00     0.074 A 
ATOM     69  C   UNL     1      12.540   5.616  -6.929  1.00  0.00     0.031 C 
ATOM     70  C   UNL     1      13.150   5.609  -4.402  1.00  0.00     0.037 A 
BRANCH  57  71
ATOM     71  C   UNL     1      11.746   7.023   1.409  1.00  0.00     0.064 A 
ATOM     72  C   UNL     1      12.098   5.761   1.942  1.00  0.00     0.173 A 
ATOM     73  C   UNL     1      11.634   8.043   2.373  1.00  0.00     0.173 A 
ATOM     74  F   UNL     1      12.347   4.709   1.151  1.00  0.00    -0.203 F 
ATOM     75  C   UNL     1      12.210   5.523   3.316  1.00  0.00     0.198 A 
ATOM     76  C   UNL     1      11.700   7.797   3.749  1.00  0.00     0.198 A 
ATOM     77  F   UNL     1      11.526   9.328   2.027  1.00  0.00    -0.203 F 
ATOM     78  F   UNL     1      12.535   4.298   3.754  1.00  0.00    -0.200 F 
ATOM     79  C   UNL     1      11.976   6.534   4.223  1.00  0.00     0.200 A 
ATOM     80  F   UNL     1      11.499   8.804   4.612  1.00  0.00    -0.200 F 
ATOM     81  F   UNL     1      12.048   6.301   5.540  1.00  0.00    -0.200 F 
ENDBRANCH  57  71
BRANCH  58  82
ATOM     82  C   UNL     1       8.572   7.732  -7.635  1.00  0.00     0.064 A 
ATOM     83  C   UNL     1       7.327   7.611  -8.284  1.00  0.00     0.173 A 
ATOM     84  C   UNL     1       9.084   9.023  -7.455  1.00  0.00     0.173 A 
ATOM     85  F   UNL     1       6.793   6.394  -8.482  1.00  0.00    -0.203 F 
ATOM     86  C   UNL     1       6.567   8.731  -8.610  1.00  0.00     0.198 A 
ATOM     87  C   UNL     1       8.326  10.144  -7.802  1.00  0.00     0.198 A 
ATOM     88  F   UNL     1      10.257   9.207  -6.834  1.00  0.00    -0.203 F 
ATOM     89  F   UNL     1       5.331   8.579  -9.110  1.00  0.00    -0.200 F 
ATOM     90  C   UNL     1       7.054   9.998  -8.340  1.00  0.00     0.200 A 
ATOM     91  F   UNL     1       8.785  11.372  -7.519  1.00  0.00    -0.200 F 
ATOM     92  F   UNL     1       6.287  11.075  -8.557  1.00  0.00    -0.200 F 
ENDBRANCH  58  82
BRANCH  70  93
ATOM     93  C   UNL     1      14.662   5.454  -4.369  1.00  0.00     0.064 A 
ATOM     94  C   UNL     1      15.527   5.804  -5.418  1.00  0.00     0.173 A 
ATOM     95  C   UNL     1      15.315   5.065  -3.166  1.00  0.00     0.173 A 
ATOM     96  F   UNL     1      15.069   6.303  -6.571  1.00  0.00    -0.203 F 
ATOM     97  C   UNL     1      16.920   5.718  -5.296  1.00  0.00     0.198 A 
ATOM     98  C   UNL     1      16.702   5.044  -3.029  1.00  0.00     0.198 A 
ATOM     99  F   UNL     1      14.630   4.722  -2.066  1.00  0.00    -0.203 F 
ATOM    100  F   UNL     1      17.694   6.025  -6.347  1.00  0.00    -0.200 F 
ATOM    101  C   UNL     1      17.507   5.355  -4.100  1.00  0.00     0.200 A 
ATOM    102  F   UNL     1      17.248   4.745  -1.841  1.00  0.00    -0.200 F 
ATOM    103  F   UNL     1      18.840   5.329  -3.975  1.00  0.00    -0.200 F 
ENDBRANCH  70  93
ENDBRANCH  44  45
ENDBRANCH  36  39
ENDBRANCH  34  35
ENDBRANCH  33  34
ENDBRANCH  32  33
ENDBRANCH   1  32
TORSDOF 16
