REMARK SMILES C[C@@H]1CCC[C@H](C)[N@H+]1Cc1cc2c(cc1Cl)C=C(C(=O)NCCCCCCNC(=O)c1ccc(-c3c4nc(c(-c5c(F)c(F)c(F)c(F)c5F)c5ccc([nH]5)c(-c5c(F)c(F)c(F)c(F)c5F)c5nc(c(-c6c(F)c(F)c(F)c(F)c6F)c6ccc3[nH]6)C=C5)C=C4)cc1)[C@@H](C(F)(F)F)O2
REMARK SMILES IDX 24 1 23 2 22 3 21 4 19 5 20 6 18 8 10 9 11 10 15 11 12 12
REMARK SMILES IDX 14 13 16 14 13 15 99 16 17 17 94 18 9 19 8 20 7 21 6 22 5 23
REMARK SMILES IDX 4 24 2 25 3 27 1 28 95 29 96 30 97 31 98 32 25 33 26 34
REMARK SMILES IDX 27 35 28 36 29 37 30 39 31 40 32 41 93 42 33 43 92 44 34 45
REMARK SMILES IDX 35 46 36 47 86 48 37 49 91 50 85 51 87 52 38 53 90 54 84 55
REMARK SMILES IDX 83 56 39 58 71 59 51 60 70 61 52 62 55 63 69 64 88 65 53 66
REMARK SMILES IDX 54 67 68 69 89 70 56 71 40 72 41 73 49 74 42 75 43 76 47 77
REMARK SMILES IDX 50 78 44 79 45 80 48 81 46 82 72 83 73 84 81 85 74 86 75 87
REMARK SMILES IDX 79 88 82 89 76 90 77 91 80 92 78 93 57 94 58 95 66 96 59 97
REMARK SMILES IDX 60 98 64 99 67 100 61 101 62 102 65 103 63 104
REMARK H PARENT 21 7 8 26 28 38 87 57 55 68
REMARK Flexibility Score: inf
ROOT
ATOM      1  C   UNL     1      -4.867 -10.005  -5.644  1.00  0.00     0.002 C 
ENDROOT
BRANCH   1   2
ATOM      2  C   UNL     1      -4.439  -8.634  -5.111  1.00  0.00     0.021 C 
BRANCH   2   3
ATOM      3  C   UNL     1      -4.987  -8.301  -3.726  1.00  0.00     0.116 C 
BRANCH   3   4
ATOM      4  N   UNL     1      -4.182  -8.899  -2.678  1.00  0.00    -0.352 N 
ATOM      5  C   UNL     1      -3.579  -8.490  -1.540  1.00  0.00     0.251 C 
ATOM      6  O   UNL     1      -3.031  -9.386  -0.889  1.00  0.00    -0.270 OA
ATOM      7  H   UNL     1      -4.035  -9.859  -2.839  1.00  0.00     0.163 HD
BRANCH   5   8
ATOM      8  C   UNL     1      -3.518  -7.084  -1.049  1.00  0.00     0.067 C 
ATOM      9  C   UNL     1      -2.110  -2.935   1.466  1.00  0.00     0.029 A 
ATOM     10  C   UNL     1      -2.568  -3.195   0.163  1.00  0.00     0.058 A 
ATOM     11  C   UNL     1      -2.145  -3.990   2.396  1.00  0.00     0.050 A 
ATOM     12  C   UNL     1      -2.901  -4.487  -0.229  1.00  0.00     0.128 A 
ATOM     13  C   UNL     1      -2.449  -5.295   1.988  1.00  0.00     0.033 A 
ATOM     14  Cl  UNL     1      -1.808  -3.763   4.075  1.00  0.00    -0.084 Cl
ATOM     15  C   UNL     1      -2.787  -5.552   0.661  1.00  0.00     0.019 A 
ATOM     16  O   UNL     1      -3.264  -4.661  -1.534  1.00  0.00    -0.475 OA
ATOM     17  C   UNL     1      -2.951  -6.911   0.160  1.00  0.00     0.025 C 
ATOM     18  C   UNL     1      -4.012  -5.881  -1.803  1.00  0.00     0.314 C 
BRANCH   9  19
ATOM     19  C   UNL     1      -1.539  -1.564   1.767  1.00  0.00     0.301 C 
BRANCH  19  20
ATOM     20  N   UNL     1      -0.116  -1.351   1.421  1.00  0.00    -0.327 N 
ATOM     21  C   UNL     1       1.146  -0.128  -0.320  1.00  0.00     0.075 C 
ATOM     22  C   UNL     1       0.188  -1.290  -0.018  1.00  0.00     0.181 C 
ATOM     23  C   UNL     1       0.725  -2.600  -0.624  1.00  0.00     0.065 C 
ATOM     24  C   UNL     1       1.793  -3.271   0.229  1.00  0.00     0.012 C 
ATOM     25  C   UNL     1       0.838  -2.081   2.269  1.00  0.00     0.181 C 
ATOM     26  H   UNL     1       0.056  -0.382   1.691  1.00  0.00     0.348 HD
ATOM     27  C   UNL     1       1.318  -3.411   1.668  1.00  0.00     0.065 C 
ATOM     28  C   UNL     1       2.027  -1.193   2.657  1.00  0.00     0.075 C 
ENDBRANCH  19  20
ENDBRANCH   9  19
BRANCH  18  29
ATOM     29  C   UNL     1      -5.517  -5.635  -1.577  1.00  0.00     0.429 C 
ATOM     30  F   UNL     1      -6.001  -4.762  -2.496  1.00  0.00    -0.167 F 
ATOM     31  F   UNL     1      -6.247  -6.769  -1.707  1.00  0.00    -0.167 F 
ATOM     32  F   UNL     1      -5.792  -5.131  -0.354  1.00  0.00    -0.167 F 
ENDBRANCH  18  29
ENDBRANCH   5   8
ENDBRANCH   3   4
ENDBRANCH   2   3
ENDBRANCH   1   2
BRANCH   1  33
ATOM     33  C   UNL     1      -6.380 -10.234  -5.743  1.00  0.00     0.002 C 
BRANCH  33  34
ATOM     34  C   UNL     1      -7.178  -9.113  -6.412  1.00  0.00     0.021 C 
BRANCH  34  35
ATOM     35  C   UNL     1      -6.723  -8.757  -7.822  1.00  0.00     0.116 C 
BRANCH  35  36
ATOM     36  N   UNL     1      -6.941  -9.837  -8.771  1.00  0.00    -0.352 N 
ATOM     37  C   UNL     1      -7.612  -9.809  -9.970  1.00  0.00     0.251 C 
ATOM     38  H   UNL     1      -6.554 -10.707  -8.520  1.00  0.00     0.163 HD
ATOM     39  O   UNL     1      -7.834 -10.843 -10.590  1.00  0.00    -0.269 OA
BRANCH  37  40
ATOM     40  C   UNL     1      -8.102  -8.515 -10.488  1.00  0.00     0.039 A 
ATOM     41  C   UNL     1      -7.250  -7.409 -10.541  1.00  0.00     0.014 A 
ATOM     42  C   UNL     1      -9.440  -8.399 -10.873  1.00  0.00     0.014 A 
ATOM     43  C   UNL     1      -7.776  -6.153 -10.821  1.00  0.00     0.010 A 
ATOM     44  C   UNL     1      -9.948  -7.147 -11.229  1.00  0.00     0.010 A 
ATOM     45  C   UNL     1      -9.133  -6.007 -11.156  1.00  0.00    -0.014 A 
BRANCH  45  46
ATOM     46  C   UNL     1      -9.680  -4.649 -11.406  1.00  0.00     0.031 A 
ATOM     47  C   UNL     1     -10.692  -4.045 -10.471  1.00  0.00     0.074 A 
ATOM     48  C   UNL     1      -9.212  -3.934 -12.447  1.00  0.00     0.049 A 
ATOM     49  N   UNL     1     -11.266  -2.869 -10.524  1.00  0.00    -0.248 NA
ATOM     50  C   UNL     1     -11.118  -4.866  -9.326  1.00  0.00     0.031 C 
ATOM     51  C   UNL     1      -8.216  -4.407 -13.409  1.00  0.00     0.029 A 
ATOM     52  N   UNL     1      -9.489  -2.654 -12.853  1.00  0.00    -0.354 N 
ATOM     53  C   UNL     1     -12.129  -2.817  -9.436  1.00  0.00     0.074 A 
ATOM     54  C   UNL     1     -12.024  -4.087  -8.752  1.00  0.00     0.031 C 
ATOM     55  C   UNL     1      -7.924  -3.413 -14.261  1.00  0.00     0.029 A 
ATOM     56  C   UNL     1      -8.755  -2.256 -13.943  1.00  0.00     0.049 A 
ATOM     57  H   UNL     1     -10.149  -2.077 -12.407  1.00  0.00     0.167 HD
ATOM     58  C   UNL     1     -12.925  -1.795  -9.040  1.00  0.00     0.037 A 
ATOM     59  C   UNL     1      -8.756  -1.091 -14.617  1.00  0.00     0.037 A 
ATOM     60  C   UNL     1     -13.008  -0.522  -9.707  1.00  0.00     0.049 A 
ATOM     61  C   UNL     1      -9.678   0.010 -14.178  1.00  0.00     0.074 A 
ATOM     62  C   UNL     1     -13.777   0.579  -9.373  1.00  0.00     0.029 A 
ATOM     63  N   UNL     1     -12.291  -0.178 -10.844  1.00  0.00    -0.354 N 
ATOM     64  N   UNL     1     -10.495   0.043 -13.154  1.00  0.00    -0.248 NA
ATOM     65  C   UNL     1      -9.687   1.232 -14.995  1.00  0.00     0.031 C 
ATOM     66  C   UNL     1     -13.553   1.576 -10.326  1.00  0.00     0.029 A 
ATOM     67  C   UNL     1     -12.612   1.113 -11.231  1.00  0.00     0.049 A 
ATOM     68  H   UNL     1     -11.649  -0.764 -11.306  1.00  0.00     0.167 HD
ATOM     69  C   UNL     1     -11.108   1.286 -13.197  1.00  0.00     0.074 A 
ATOM     70  C   UNL     1     -10.554   1.988 -14.336  1.00  0.00     0.031 C 
ATOM     71  C   UNL     1     -12.051   1.796 -12.368  1.00  0.00     0.037 A 
BRANCH  58  72
ATOM     72  C   UNL     1     -13.780  -2.003  -7.825  1.00  0.00     0.064 A 
ATOM     73  C   UNL     1     -13.233  -2.003  -6.534  1.00  0.00     0.173 A 
ATOM     74  C   UNL     1     -15.172  -2.131  -7.949  1.00  0.00     0.173 A 
ATOM     75  F   UNL     1     -11.907  -1.897  -6.363  1.00  0.00    -0.203 F 
ATOM     76  C   UNL     1     -14.047  -2.134  -5.411  1.00  0.00     0.198 A 
ATOM     77  C   UNL     1     -15.986  -2.237  -6.824  1.00  0.00     0.198 A 
ATOM     78  F   UNL     1     -15.746  -2.131  -9.162  1.00  0.00    -0.203 F 
ATOM     79  F   UNL     1     -13.500  -2.158  -4.188  1.00  0.00    -0.200 F 
ATOM     80  C   UNL     1     -15.423  -2.241  -5.556  1.00  0.00     0.200 A 
ATOM     81  F   UNL     1     -17.315  -2.330  -6.965  1.00  0.00    -0.200 F 
ATOM     82  F   UNL     1     -16.206  -2.351  -4.474  1.00  0.00    -0.200 F 
ENDBRANCH  58  72
BRANCH  59  83
ATOM     83  C   UNL     1      -7.841  -0.915 -15.773  1.00  0.00     0.064 A 
ATOM     84  C   UNL     1      -6.736  -0.058 -15.690  1.00  0.00     0.173 A 
ATOM     85  C   UNL     1      -8.031  -1.625 -16.967  1.00  0.00     0.173 A 
ATOM     86  F   UNL     1      -6.526   0.657 -14.575  1.00  0.00    -0.203 F 
ATOM     87  C   UNL     1      -5.854   0.082 -16.759  1.00  0.00     0.198 A 
ATOM     88  C   UNL     1      -7.134  -1.505 -18.026  1.00  0.00     0.198 A 
ATOM     89  F   UNL     1      -9.073  -2.460 -17.093  1.00  0.00    -0.203 F 
ATOM     90  F   UNL     1      -4.818   0.926 -16.664  1.00  0.00    -0.200 F 
ATOM     91  C   UNL     1      -6.048  -0.648 -17.922  1.00  0.00     0.200 A 
ATOM     92  F   UNL     1      -7.317  -2.224 -19.141  1.00  0.00    -0.200 F 
ATOM     93  F   UNL     1      -5.190  -0.526 -18.944  1.00  0.00    -0.200 F 
ENDBRANCH  59  83
BRANCH  71  94
ATOM     94  C   UNL     1     -12.539   3.185 -12.652  1.00  0.00     0.064 A 
ATOM     95  C   UNL     1     -13.416   3.446 -13.714  1.00  0.00     0.173 A 
ATOM     96  C   UNL     1     -12.175   4.252 -11.817  1.00  0.00     0.173 A 
ATOM     97  F   UNL     1     -13.780   2.460 -14.547  1.00  0.00    -0.203 F 
ATOM     98  C   UNL     1     -13.901   4.731 -13.939  1.00  0.00     0.198 A 
ATOM     99  C   UNL     1     -12.682   5.530 -12.030  1.00  0.00     0.198 A 
ATOM    100  F   UNL     1     -11.344   4.049 -10.784  1.00  0.00    -0.203 F 
ATOM    101  F   UNL     1     -14.713   4.966 -14.979  1.00  0.00    -0.200 F 
ATOM    102  C   UNL     1     -13.541   5.769 -13.092  1.00  0.00     0.200 A 
ATOM    103  F   UNL     1     -12.342   6.530 -11.205  1.00  0.00    -0.200 F 
ATOM    104  F   UNL     1     -14.019   7.003 -13.303  1.00  0.00    -0.200 F 
ENDBRANCH  71  94
ENDBRANCH  45  46
ENDBRANCH  37  40
ENDBRANCH  35  36
ENDBRANCH  34  35
ENDBRANCH  33  34
ENDBRANCH   1  33
TORSDOF 16
