REMARK SMILES NC(=O)COc1ccc(/C=C2\SC(=S)N(CCC(=O)NCCCCCCNC(=O)c3ccc(-c4c5nc(c(-c6c(F)c(F)c(F)c(F)c6F)c6ccc([nH]6)c(-c6c(F)c(F)c(F)c(F)c6F)c6nc(c(-c7c(F)c(F)c(F)c(F)c7F)c7ccc4[nH]7)C=C6)C=C5)cc3)C2=O)cc1
REMARK SMILES IDX 21 1 20 2 18 3 19 4 17 6 16 7 15 8 10 9 11 10 12 11 93 12
REMARK SMILES IDX 13 13 94 14 14 15 9 16 6 17 7 18 96 19 8 20 95 21 5 22 4 23
REMARK SMILES IDX 2 24 1 25 3 28 22 29 23 30 24 31 25 32 26 33 27 34 28 35
REMARK SMILES IDX 29 37 30 38 31 39 92 40 32 41 91 42 33 43 34 44 35 45 85 46
REMARK SMILES IDX 36 47 90 48 84 49 86 50 37 51 89 52 83 53 82 54 38 56 70 57
REMARK SMILES IDX 50 58 69 59 51 60 54 61 68 62 87 63 52 64 53 65 67 67 88 68
REMARK SMILES IDX 55 69 39 70 40 71 48 72 41 73 42 74 46 75 49 76 43 77 44 78
REMARK SMILES IDX 47 79 45 80 71 81 72 82 80 83 73 84 74 85 78 86 81 87 75 88
REMARK SMILES IDX 76 89 79 90 77 91 56 92 57 93 65 94 58 95 59 96 63 97 66 98
REMARK SMILES IDX 60 99 61 100 64 101 62 102
REMARK H PARENT 20 5 1 26 1 27 27 36 86 55 54 66
REMARK Flexibility Score: inf
ROOT
ATOM      1  C   UNL     1       0.823  -3.711   9.637  1.00  0.00     0.116 C 
ENDROOT
BRANCH   1   2
ATOM      2  N   UNL     1      -0.257  -4.222  10.465  1.00  0.00    -0.356 N 
ATOM      3  C   UNL     1      -1.170  -5.193  10.170  1.00  0.00     0.221 C 
ATOM      4  O   UNL     1      -2.200  -5.262  10.838  1.00  0.00    -0.275 OA
ATOM      5  H   UNL     1      -0.340  -3.814  11.357  1.00  0.00     0.163 HD
BRANCH   3   6
ATOM      6  C   UNL     1      -0.883  -6.189   9.072  1.00  0.00     0.122 C 
BRANCH   6   7
ATOM      7  C   UNL     1      -1.867  -6.104   7.903  1.00  0.00     0.137 C 
BRANCH   7   8
ATOM      8  N   UNL     1      -1.646  -4.983   6.977  1.00  0.00    -0.292 N 
ATOM      9  C   UNL     1      -1.847  -1.386   6.455  1.00  0.00     0.029 C 
ATOM     10  C   UNL     1      -1.843  -2.736   6.162  1.00  0.00     0.081 C 
ATOM     11  S   UNL     1      -1.105  -3.676   4.879  1.00  0.00    -0.054 SA
ATOM     12  C   UNL     1      -2.397  -3.804   7.081  1.00  0.00     0.266 C 
ATOM     13  C   UNL     1      -0.783  -5.052   5.908  1.00  0.00     0.148 C 
ATOM     14  O   UNL     1      -3.359  -3.619   7.808  1.00  0.00    -0.268 OA
ATOM     15  S   UNL     1       0.406  -6.178   5.582  1.00  0.00    -0.052 S 
BRANCH   9  16
ATOM     16  C   UNL     1      -1.201  -0.128   5.720  1.00  0.00    -0.024 A 
ATOM     17  C   UNL     1       1.166   0.256   3.038  1.00  0.00     0.120 A 
ATOM     18  C   UNL     1       1.754   0.623   4.809  1.00  0.00     0.047 A 
ATOM     19  C   UNL     1      -0.527  -0.255   2.790  1.00  0.00     0.047 A 
ATOM     20  C   UNL     1       0.439   0.517   6.130  1.00  0.00     0.012 A 
ATOM     21  C   UNL     1      -1.655  -0.362   4.061  1.00  0.00     0.012 A 
BRANCH  17  22
ATOM     22  O   UNL     1       1.605   0.692   1.793  1.00  0.00    -0.484 OA
BRANCH  22  23
ATOM     23  C   UNL     1       0.611   1.553   1.139  1.00  0.00     0.329 C 
BRANCH  23  24
ATOM     24  C   UNL     1      -0.100   0.938  -0.059  1.00  0.00     0.255 C 
ATOM     25  N   UNL     1       0.524  -0.150  -0.584  1.00  0.00    -0.367 N 
ATOM     26  H   UNL     1       0.136  -0.613  -1.361  1.00  0.00     0.159 HD
ATOM     27  H   UNL     1       1.365  -0.475  -0.187  1.00  0.00     0.159 HD
ATOM     28  O   UNL     1      -1.141   1.376  -0.536  1.00  0.00    -0.271 OA
ENDBRANCH  23  24
ENDBRANCH  22  23
ENDBRANCH  17  22
ENDBRANCH   9  16
ENDBRANCH   7   8
ENDBRANCH   6   7
ENDBRANCH   3   6
ENDBRANCH   1   2
BRANCH   1  29
ATOM     29  C   UNL     1       0.219  -2.811   8.575  1.00  0.00     0.021 C 
BRANCH  29  30
ATOM     30  C   UNL     1       0.753  -1.397   8.498  1.00  0.00     0.002 C 
BRANCH  30  31
ATOM     31  C   UNL     1       1.878  -1.238   7.464  1.00  0.00     0.002 C 
BRANCH  31  32
ATOM     32  C   UNL     1       1.651  -1.575   5.927  1.00  0.00     0.021 C 
BRANCH  32  33
ATOM     33  C   UNL     1       0.521  -0.873   4.639  1.00  0.00     0.116 C 
BRANCH  33  34
ATOM     34  N   UNL     1      -0.003   1.144   4.309  1.00  0.00    -0.352 N 
ATOM     35  C   UNL     1       0.873   2.552   3.923  1.00  0.00     0.251 C 
ATOM     36  H   UNL     1      -0.970   1.307   4.397  1.00  0.00     0.163 HD
ATOM     37  O   UNL     1       0.233   3.604   4.050  1.00  0.00    -0.269 OA
BRANCH  35  38
ATOM     38  C   UNL     1       2.494   2.700   3.223  1.00  0.00     0.039 A 
ATOM     39  C   UNL     1       2.743   3.759   2.328  1.00  0.00     0.014 A 
ATOM     40  C   UNL     1       3.508   1.703   3.111  1.00  0.00     0.014 A 
ATOM     41  C   UNL     1       3.631   3.608   1.187  1.00  0.00     0.010 A 
ATOM     42  C   UNL     1       4.196   1.460   1.914  1.00  0.00     0.010 A 
ATOM     43  C   UNL     1       4.241   2.380   0.883  1.00  0.00    -0.014 A 
BRANCH  43  44
ATOM     44  C   UNL     1       4.904   1.919  -0.398  1.00  0.00     0.031 A 
ATOM     45  C   UNL     1       4.141   1.756  -1.711  1.00  0.00     0.074 A 
ATOM     46  C   UNL     1       6.127   1.343  -0.322  1.00  0.00     0.049 A 
ATOM     47  N   UNL     1       4.537   1.284  -2.874  1.00  0.00    -0.248 NA
ATOM     48  C   UNL     1       2.722   2.108  -1.699  1.00  0.00     0.031 C 
ATOM     49  C   UNL     1       6.933   1.235   0.901  1.00  0.00     0.029 A 
ATOM     50  N   UNL     1       6.880   0.673  -1.257  1.00  0.00    -0.354 N 
ATOM     51  C   UNL     1       3.418   1.299  -3.715  1.00  0.00     0.074 A 
ATOM     52  C   UNL     1       2.305   1.724  -2.899  1.00  0.00     0.031 C 
ATOM     53  C   UNL     1       8.018   0.489   0.663  1.00  0.00     0.029 A 
ATOM     54  C   UNL     1       8.055   0.163  -0.754  1.00  0.00     0.049 A 
ATOM     55  H   UNL     1       6.606   0.569  -2.196  1.00  0.00     0.167 HD
ATOM     56  C   UNL     1       3.338   1.043  -5.051  1.00  0.00     0.037 A 
ATOM     57  C   UNL     1       9.094  -0.431  -1.367  1.00  0.00     0.037 A 
ATOM     58  C   UNL     1       4.485   0.671  -5.849  1.00  0.00     0.049 A 
ATOM     59  C   UNL     1       9.076  -0.522  -2.862  1.00  0.00     0.074 A 
ATOM     60  C   UNL     1       4.598   0.568  -7.226  1.00  0.00     0.029 A 
ATOM     61  N   UNL     1       5.726   0.340  -5.325  1.00  0.00    -0.354 N 
ATOM     62  N   UNL     1       8.087  -0.288  -3.689  1.00  0.00    -0.248 NA
ATOM     63  C   UNL     1      10.339  -0.884  -3.514  1.00  0.00     0.031 C 
ATOM     64  C   UNL     1       5.897   0.141  -7.530  1.00  0.00     0.029 A 
ATOM     65  C   UNL     1       6.609   0.032  -6.347  1.00  0.00     0.049 A 
ATOM     66  H   UNL     1       5.947   0.326  -4.366  1.00  0.00     0.167 HD
ATOM     67  C   UNL     1       8.616  -0.432  -4.962  1.00  0.00     0.074 A 
ATOM     68  C   UNL     1      10.020  -0.754  -4.793  1.00  0.00     0.031 C 
ATOM     69  C   UNL     1       7.998  -0.305  -6.162  1.00  0.00     0.037 A 
BRANCH  56  70
ATOM     70  C   UNL     1       2.013   1.231  -5.768  1.00  0.00     0.064 A 
ATOM     71  C   UNL     1       1.381   2.486  -5.831  1.00  0.00     0.173 A 
ATOM     72  C   UNL     1       1.415   0.186  -6.497  1.00  0.00     0.173 A 
ATOM     73  F   UNL     1       1.911   3.540  -5.191  1.00  0.00    -0.203 F 
ATOM     74  C   UNL     1       0.194   2.675  -6.541  1.00  0.00     0.198 A 
ATOM     75  C   UNL     1       0.249   0.387  -7.241  1.00  0.00     0.198 A 
ATOM     76  F   UNL     1       1.975  -1.034  -6.517  1.00  0.00    -0.203 F 
ATOM     77  F   UNL     1      -0.403   3.875  -6.538  1.00  0.00    -0.200 F 
ATOM     78  C   UNL     1      -0.367   1.628  -7.252  1.00  0.00     0.200 A 
ATOM     79  F   UNL     1      -0.271  -0.619  -7.959  1.00  0.00    -0.200 F 
ATOM     80  F   UNL     1      -1.495   1.816  -7.952  1.00  0.00    -0.200 F 
ENDBRANCH  56  70
BRANCH  57  81
ATOM     81  C   UNL     1      10.307  -0.754  -0.571  1.00  0.00     0.064 A 
ATOM     82  C   UNL     1      11.432   0.082  -0.624  1.00  0.00     0.173 A 
ATOM     83  C   UNL     1      10.335  -1.829   0.328  1.00  0.00     0.173 A 
ATOM     84  F   UNL     1      11.443   1.134  -1.456  1.00  0.00    -0.203 F 
ATOM     85  C   UNL     1      12.551  -0.161   0.167  1.00  0.00     0.198 A 
ATOM     86  C   UNL     1      11.446  -2.055   1.141  1.00  0.00     0.198 A 
ATOM     87  F   UNL     1       9.267  -2.630   0.452  1.00  0.00    -0.203 F 
ATOM     88  F   UNL     1      13.621   0.640   0.073  1.00  0.00    -0.200 F 
ATOM     89  C   UNL     1      12.555  -1.226   1.054  1.00  0.00     0.200 A 
ATOM     90  F   UNL     1      11.434  -3.063   2.024  1.00  0.00    -0.200 F 
ATOM     91  F   UNL     1      13.624  -1.448   1.830  1.00  0.00    -0.200 F 
ENDBRANCH  57  81
BRANCH  69  92
ATOM     92  C   UNL     1       8.846  -0.505  -7.383  1.00  0.00     0.064 A 
ATOM     93  C   UNL     1       9.372  -1.763  -7.714  1.00  0.00     0.173 A 
ATOM     94  C   UNL     1       9.136   0.574  -8.232  1.00  0.00     0.173 A 
ATOM     95  F   UNL     1       9.137  -2.822  -6.925  1.00  0.00    -0.203 F 
ATOM     96  C   UNL     1      10.194  -1.924  -8.825  1.00  0.00     0.198 A 
ATOM     97  C   UNL     1       9.926   0.400  -9.364  1.00  0.00     0.198 A 
ATOM     98  F   UNL     1       8.653   1.796  -7.964  1.00  0.00    -0.203 F 
ATOM     99  F   UNL     1      10.745  -3.119  -9.079  1.00  0.00    -0.200 F 
ATOM    100  C   UNL     1      10.465  -0.845  -9.652  1.00  0.00     0.200 A 
ATOM    101  F   UNL     1      10.175   1.440 -10.171  1.00  0.00    -0.200 F 
ATOM    102  F   UNL     1      11.258  -1.002 -10.721  1.00  0.00    -0.200 F 
ENDBRANCH  69  92
ENDBRANCH  43  44
ENDBRANCH  35  38
ENDBRANCH  33  34
ENDBRANCH  32  33
ENDBRANCH  31  32
ENDBRANCH  30  31
ENDBRANCH  29  30
ENDBRANCH   1  29
TORSDOF 19
