REMARK SMILES C=C(C)COc1ccc2c(C)c(CC(=O)NCCCCCCNC(=O)c3ccc(-c4c5nc(c(-c6c(F)c(F)c(F)c(F)c6F)c6ccc([nH]6)c(-c6c(F)c(F)c(F)c(F)c6F)c6nc(c(-c7c(F)c(F)c(F)c(F)c7F)c7ccc4[nH]7)C=C6)C=C5)cc3)c(=O)oc2c1
REMARK SMILES IDX 18 1 17 2 16 3 14 4 15 5 13 7 12 8 6 9 7 10 93 11 8 12 92 13
REMARK SMILES IDX 9 14 91 15 10 16 89 17 11 18 90 19 5 20 4 21 2 22 1 23 3 24
REMARK SMILES IDX 19 25 20 26 21 27 22 28 23 29 24 30 25 32 26 33 27 34 88 35
REMARK SMILES IDX 28 36 87 37 29 38 30 39 31 40 81 41 32 42 86 43 80 44 82 45
REMARK SMILES IDX 33 46 85 47 79 48 78 49 34 51 66 52 46 53 65 54 47 55 50 56
REMARK SMILES IDX 64 57 83 58 48 59 49 60 63 62 84 63 51 64 35 65 36 66 44 67
REMARK SMILES IDX 37 68 38 69 42 70 45 71 39 72 40 73 43 74 41 75 67 76 68 77
REMARK SMILES IDX 76 78 69 79 70 80 74 81 77 82 71 83 72 84 75 85 73 86 52 87
REMARK SMILES IDX 53 88 61 89 54 90 55 91 59 92 62 93 56 94 57 95 60 96 58 97
REMARK H PARENT 16 6 23 31 82 50 50 61
REMARK Flexibility Score: inf
ROOT
ATOM      1  C   UNL     1       0.805   5.817  -3.459  1.00  0.00     0.021 C 
ENDROOT
BRANCH   1   2
ATOM      2  C   UNL     1      -0.458   6.471  -4.025  1.00  0.00     0.116 C 
BRANCH   2   3
ATOM      3  N   UNL     1      -0.357   6.663  -5.459  1.00  0.00    -0.356 N 
ATOM      4  C   UNL     1      -0.958   5.998  -6.484  1.00  0.00     0.224 C 
ATOM      5  O   UNL     1      -0.654   6.321  -7.635  1.00  0.00    -0.275 OA
ATOM      6  H   UNL     1       0.243   7.392  -5.736  1.00  0.00     0.163 HD
BRANCH   4   7
ATOM      7  C   UNL     1      -2.005   4.919  -6.224  1.00  0.00     0.143 C 
BRANCH   7   8
ATOM      8  C   UNL     1      -1.442   3.692  -5.546  1.00  0.00     0.051 A 
ATOM      9  C   UNL     1       1.195  -0.004  -3.330  1.00  0.00     0.123 A 
ATOM     10  C   UNL     1       1.674   0.052  -4.636  1.00  0.00     0.047 A 
ATOM     11  C   UNL     1       0.188   0.866  -2.940  1.00  0.00     0.094 A 
ATOM     12  C   UNL     1       1.125   0.963  -5.555  1.00  0.00     0.016 A 
ATOM     13  C   UNL     1      -0.359   1.748  -3.867  1.00  0.00     0.142 A 
ATOM     14  C   UNL     1       0.092   1.835  -5.178  1.00  0.00     0.021 A 
ATOM     15  O   UNL     1      -1.404   2.542  -3.386  1.00  0.00    -0.422 OA
ATOM     16  C   UNL     1      -0.475   2.888  -6.045  1.00  0.00    -0.029 A 
ATOM     17  C   UNL     1      -2.062   3.417  -4.220  1.00  0.00     0.340 A 
ATOM     18  C   UNL     1       0.107   3.041  -7.426  1.00  0.00     0.046 C 
ATOM     19  O   UNL     1      -3.081   3.987  -3.844  1.00  0.00    -0.246 OA
BRANCH   9  20
ATOM     20  O   UNL     1       1.803  -0.867  -2.457  1.00  0.00    -0.489 OA
BRANCH  20  21
ATOM     21  C   UNL     1       0.885  -1.751  -1.788  1.00  0.00     0.260 C 
BRANCH  21  22
ATOM     22  C   UNL     1       0.321  -1.166  -0.508  1.00  0.00    -0.043 C 
ATOM     23  C   UNL     1       1.061  -0.454   0.360  1.00  0.00     0.011 C 
ATOM     24  C   UNL     1      -1.154  -1.370  -0.301  1.00  0.00     0.042 C 
ENDBRANCH  21  22
ENDBRANCH  20  21
ENDBRANCH   9  20
ENDBRANCH   7   8
ENDBRANCH   4   7
ENDBRANCH   2   3
ENDBRANCH   1   2
BRANCH   1  25
ATOM     25  C   UNL     1       2.060   6.699  -3.535  1.00  0.00     0.002 C 
BRANCH  25  26
ATOM     26  C   UNL     1       1.953   8.057  -2.834  1.00  0.00     0.002 C 
BRANCH  26  27
ATOM     27  C   UNL     1       1.564   8.003  -1.353  1.00  0.00     0.021 C 
BRANCH  27  28
ATOM     28  C   UNL     1       2.537   7.239  -0.459  1.00  0.00     0.116 C 
BRANCH  28  29
ATOM     29  N   UNL     1       3.845   7.870  -0.401  1.00  0.00    -0.352 N 
ATOM     30  C   UNL     1       4.619   8.184   0.684  1.00  0.00     0.251 C 
ATOM     31  H   UNL     1       4.234   8.108  -1.274  1.00  0.00     0.163 HD
ATOM     32  O   UNL     1       5.630   8.875   0.534  1.00  0.00    -0.269 OA
BRANCH  30  33
ATOM     33  C   UNL     1       4.255   7.719   2.041  1.00  0.00     0.039 A 
ATOM     34  C   UNL     1       4.421   8.598   3.116  1.00  0.00     0.014 A 
ATOM     35  C   UNL     1       3.804   6.415   2.270  1.00  0.00     0.014 A 
ATOM     36  C   UNL     1       4.102   8.184   4.411  1.00  0.00     0.010 A 
ATOM     37  C   UNL     1       3.427   6.023   3.554  1.00  0.00     0.010 A 
ATOM     38  C   UNL     1       3.586   6.898   4.639  1.00  0.00    -0.014 A 
BRANCH  38  39
ATOM     39  C   UNL     1       3.239   6.452   6.012  1.00  0.00     0.031 A 
ATOM     40  C   UNL     1       4.027   5.357   6.676  1.00  0.00     0.074 A 
ATOM     41  C   UNL     1       2.190   7.006   6.649  1.00  0.00     0.049 A 
ATOM     42  N   UNL     1       3.865   4.818   7.858  1.00  0.00    -0.248 NA
ATOM     43  C   UNL     1       5.129   4.771   5.897  1.00  0.00     0.031 C 
ATOM     44  C   UNL     1       1.315   8.039   6.094  1.00  0.00     0.029 A 
ATOM     45  N   UNL     1       1.680   6.775   7.902  1.00  0.00    -0.354 N 
ATOM     46  C   UNL     1       4.830   3.824   7.957  1.00  0.00     0.074 A 
ATOM     47  C   UNL     1       5.542   3.800   6.698  1.00  0.00     0.031 C 
ATOM     48  C   UNL     1       0.390   8.369   7.010  1.00  0.00     0.029 A 
ATOM     49  C   UNL     1       0.593   7.556   8.206  1.00  0.00     0.049 A 
ATOM     50  H   UNL     1       2.057   6.111   8.523  1.00  0.00     0.167 HD
ATOM     51  C   UNL     1       5.112   3.020   9.011  1.00  0.00     0.037 A 
ATOM     52  C   UNL     1      -0.152   7.614   9.326  1.00  0.00     0.037 A 
ATOM     53  C   UNL     1       4.426   3.067  10.275  1.00  0.00     0.049 A 
ATOM     54  C   UNL     1       0.204   6.735  10.494  1.00  0.00     0.074 A 
ATOM     55  C   UNL     1       4.676   2.334  11.422  1.00  0.00     0.029 A 
ATOM     56  N   UNL     1       3.352   3.898  10.558  1.00  0.00    -0.354 N 
ATOM     57  N   UNL     1       1.162   5.847  10.600  1.00  0.00    -0.248 NA
ATOM     58  C   UNL     1      -0.618   6.877  11.703  1.00  0.00     0.031 C 
ATOM     59  C   UNL     1       3.733   2.699  12.390  1.00  0.00     0.029 A 
ATOM     60  C   UNL     1       2.921   3.689  11.858  1.00  0.00     0.049 A 
ATOM     61  H   UNL     1       2.955   4.542   9.928  1.00  0.00     0.167 HD
ATOM     62  C   UNL     1       1.077   5.345  11.891  1.00  0.00     0.074 A 
ATOM     63  C   UNL     1      -0.018   6.040  12.537  1.00  0.00     0.031 C 
ATOM     64  C   UNL     1       1.836   4.394  12.488  1.00  0.00     0.037 A 
BRANCH  51  65
ATOM     65  C   UNL     1       6.221   2.023   8.841  1.00  0.00     0.064 A 
ATOM     66  C   UNL     1       7.565   2.423   8.778  1.00  0.00     0.173 A 
ATOM     67  C   UNL     1       5.941   0.650   8.770  1.00  0.00     0.173 A 
ATOM     68  F   UNL     1       7.884   3.725   8.829  1.00  0.00    -0.203 F 
ATOM     69  C   UNL     1       8.584   1.488   8.621  1.00  0.00     0.198 A 
ATOM     70  C   UNL     1       6.966  -0.284   8.642  1.00  0.00     0.198 A 
ATOM     71  F   UNL     1       4.674   0.214   8.831  1.00  0.00    -0.203 F 
ATOM     72  F   UNL     1       9.856   1.898   8.515  1.00  0.00    -0.200 F 
ATOM     73  C   UNL     1       8.285   0.136   8.559  1.00  0.00     0.200 A 
ATOM     74  F   UNL     1       6.677  -1.592   8.593  1.00  0.00    -0.200 F 
ATOM     75  F   UNL     1       9.268  -0.763   8.413  1.00  0.00    -0.200 F 
ENDBRANCH  51  65
BRANCH  52  76
ATOM     76  C   UNL     1      -1.283   8.573   9.414  1.00  0.00     0.064 A 
ATOM     77  C   UNL     1      -1.199   9.708  10.232  1.00  0.00     0.173 A 
ATOM     78  C   UNL     1      -2.466   8.374   8.689  1.00  0.00     0.173 A 
ATOM     79  F   UNL     1      -0.094   9.928  10.960  1.00  0.00    -0.203 F 
ATOM     80  C   UNL     1      -2.264  10.600  10.336  1.00  0.00     0.198 A 
ATOM     81  C   UNL     1      -3.521   9.280   8.774  1.00  0.00     0.198 A 
ATOM     82  F   UNL     1      -2.592   7.306   7.889  1.00  0.00    -0.203 F 
ATOM     83  F   UNL     1      -2.174  11.654  11.158  1.00  0.00    -0.200 F 
ATOM     84  C   UNL     1      -3.422  10.388   9.604  1.00  0.00     0.200 A 
ATOM     85  F   UNL     1      -4.634   9.079   8.056  1.00  0.00    -0.200 F 
ATOM     86  F   UNL     1      -4.446  11.247   9.702  1.00  0.00    -0.200 F 
ENDBRANCH  52  76
BRANCH  64  87
ATOM     87  C   UNL     1       1.529   4.074  13.921  1.00  0.00     0.064 A 
ATOM     88  C   UNL     1       0.381   3.355  14.284  1.00  0.00     0.173 A 
ATOM     89  C   UNL     1       2.407   4.472  14.941  1.00  0.00     0.173 A 
ATOM     90  F   UNL     1      -0.497   2.967  13.347  1.00  0.00    -0.203 F 
ATOM     91  C   UNL     1       0.109   3.070  15.620  1.00  0.00     0.198 A 
ATOM     92  C   UNL     1       2.146   4.161  16.272  1.00  0.00     0.198 A 
ATOM     93  F   UNL     1       3.522   5.156  14.644  1.00  0.00    -0.203 F 
ATOM     94  F   UNL     1      -1.019   2.425  15.948  1.00  0.00    -0.200 F 
ATOM     95  C   UNL     1       0.993   3.468  16.611  1.00  0.00     0.200 A 
ATOM     96  F   UNL     1       3.006   4.537  17.228  1.00  0.00    -0.200 F 
ATOM     97  F   UNL     1       0.730   3.192  17.896  1.00  0.00    -0.200 F 
ENDBRANCH  64  87
ENDBRANCH  38  39
ENDBRANCH  30  33
ENDBRANCH  28  29
ENDBRANCH  27  28
ENDBRANCH  26  27
ENDBRANCH  25  26
ENDBRANCH   1  25
TORSDOF 17
