REMARK SMILES Cc1ccc(C)c(OCC(=O)N[C@@H](Cc2ccccc2)C(=O)NCCCCCCNC(=O)c2ccc(-c3c4nc(c(-c5c(F)c(F)c(F)c(F)c5F)c5ccc([nH]5)c(-c5c(F)c(F)c(F)c(F)c5F)c5nc(c(-c6c(F)c(F)c(F)c(F)c6F)c6ccc3[nH]6)C=C5)C=C4)cc2)c1
REMARK SMILES IDX 25 1 24 2 23 3 21 4 22 5 13 7 12 8 10 9 11 10 9 12 8 13 7 14
REMARK SMILES IDX 1 15 2 16 3 17 96 18 4 19 5 20 6 21 14 22 15 23 16 24 20 25
REMARK SMILES IDX 17 26 19 27 18 28 26 29 27 30 28 31 29 32 30 33 31 34 32 36
REMARK SMILES IDX 33 37 34 38 95 39 35 40 94 41 36 42 37 43 38 44 88 45 39 46
REMARK SMILES IDX 93 47 87 48 89 49 40 50 92 51 86 52 85 53 41 55 73 56 53 57
REMARK SMILES IDX 72 58 54 59 57 60 71 61 90 62 55 63 56 64 70 66 91 67 58 68
REMARK SMILES IDX 42 69 43 70 51 71 44 72 45 73 49 74 52 75 46 76 47 77 50 78
REMARK SMILES IDX 48 79 74 80 75 81 83 82 76 83 77 84 81 85 84 86 78 87 79 88
REMARK SMILES IDX 82 89 80 90 59 91 60 92 68 93 61 94 62 95 66 96 69 97 63 98
REMARK SMILES IDX 64 99 67 100 65 101
REMARK H PARENT 23 6 12 11 30 35 89 54 57 65
REMARK Flexibility Score: inf
ROOT
ATOM      1  C   UNL     1       0.233   5.724   6.006  1.00  0.00     0.021 C 
ENDROOT
BRANCH   1   2
ATOM      2  C   UNL     1      -0.768   4.760   5.383  1.00  0.00     0.116 C 
BRANCH   2   3
ATOM      3  N   UNL     1      -1.685   5.350   4.427  1.00  0.00    -0.354 N 
ATOM      4  C   UNL     1      -2.450   4.718   3.481  1.00  0.00     0.242 C 
ATOM      5  O   UNL     1      -3.560   5.207   3.243  1.00  0.00    -0.273 OA
ATOM      6  H   UNL     1      -1.768   6.330   4.462  1.00  0.00     0.163 HD
BRANCH   4   7
ATOM      7  C   UNL     1      -2.009   3.421   2.755  1.00  0.00     0.175 C 
BRANCH   7   8
ATOM      8  N   UNL     1      -0.596   3.500   2.382  1.00  0.00    -0.341 N 
ATOM      9  C   UNL     1      -0.145   3.938   1.167  1.00  0.00     0.258 C 
ATOM     10  O   UNL     1       0.868   4.639   1.131  1.00  0.00    -0.271 OA
ATOM     11  H   UNL     1       0.072   3.220   3.049  1.00  0.00     0.164 HD
BRANCH   9  12
ATOM     12  C   UNL     1      -0.906   3.576  -0.115  1.00  0.00     0.329 C 
BRANCH  12  13
ATOM     13  O   UNL     1      -1.525   2.302  -0.165  1.00  0.00    -0.483 OA
BRANCH  13  14
ATOM     14  C   UNL     1      -0.746   1.177  -0.130  1.00  0.00     0.123 A 
ATOM     15  C   UNL     1       2.872  -0.046  -0.073  1.00  0.00     0.044 C 
ATOM     16  C   UNL     1       1.371  -0.036  -0.068  1.00  0.00    -0.047 A 
ATOM     17  C   UNL     1       0.672  -1.241   0.024  1.00  0.00     0.004 A 
ATOM     18  C   UNL     1       0.655   1.168  -0.160  1.00  0.00     0.050 A 
ATOM     19  C   UNL     1      -0.722  -1.244   0.029  1.00  0.00     0.007 A 
ATOM     20  C   UNL     1      -1.442  -0.042  -0.041  1.00  0.00    -0.009 A 
ATOM     21  C   UNL     1      -2.945  -0.116  -0.035  1.00  0.00     0.048 C 
ENDBRANCH  13  14
ENDBRANCH  12  13
ENDBRANCH   9  12
ENDBRANCH   7   8
BRANCH   7  22
ATOM     22  C   UNL     1      -2.471   2.088   3.376  1.00  0.00     0.070 C 
BRANCH  22  23
ATOM     23  C   UNL     1      -2.078   1.738   4.789  1.00  0.00    -0.045 A 
ATOM     24  C   UNL     1      -1.059   0.809   5.045  1.00  0.00     0.004 A 
ATOM     25  C   UNL     1      -2.772   2.289   5.875  1.00  0.00     0.004 A 
ATOM     26  C   UNL     1      -0.708   0.484   6.358  1.00  0.00     0.000 A 
ATOM     27  C   UNL     1      -2.404   1.981   7.187  1.00  0.00     0.000 A 
ATOM     28  C   UNL     1      -1.364   1.088   7.429  1.00  0.00     0.000 A 
ENDBRANCH  22  23
ENDBRANCH   7  22
ENDBRANCH   4   7
ENDBRANCH   2   3
ENDBRANCH   1   2
BRANCH   1  29
ATOM     29  C   UNL     1      -0.317   6.686   7.068  1.00  0.00     0.002 C 
BRANCH  29  30
ATOM     30  C   UNL     1      -1.262   6.146   8.156  1.00  0.00     0.002 C 
BRANCH  30  31
ATOM     31  C   UNL     1      -0.899   4.881   8.946  1.00  0.00     0.021 C 
BRANCH  31  32
ATOM     32  C   UNL     1       0.378   4.884   9.771  1.00  0.00     0.116 C 
BRANCH  32  33
ATOM     33  N   UNL     1       0.492   6.004  10.708  1.00  0.00    -0.352 N 
ATOM     34  C   UNL     1       1.553   6.776  11.140  1.00  0.00     0.251 C 
ATOM     35  H   UNL     1      -0.367   6.260  11.115  1.00  0.00     0.163 HD
ATOM     36  O   UNL     1       1.397   7.521  12.108  1.00  0.00    -0.269 OA
BRANCH  34  37
ATOM     37  C   UNL     1       2.866   6.754  10.460  1.00  0.00     0.039 A 
ATOM     38  C   UNL     1       3.847   7.727  10.691  1.00  0.00     0.014 A 
ATOM     39  C   UNL     1       3.023   5.948   9.347  1.00  0.00     0.014 A 
ATOM     40  C   UNL     1       4.821   7.922   9.702  1.00  0.00     0.010 A 
ATOM     41  C   UNL     1       4.254   5.790   8.799  1.00  0.00     0.010 A 
ATOM     42  C   UNL     1       4.897   6.994   8.663  1.00  0.00    -0.014 A 
BRANCH  42  43
ATOM     43  C   UNL     1       5.634   7.149   7.431  1.00  0.00     0.031 A 
ATOM     44  C   UNL     1       6.998   6.597   7.457  1.00  0.00     0.074 A 
ATOM     45  C   UNL     1       5.055   7.381   6.234  1.00  0.00     0.049 A 
ATOM     46  N   UNL     1       8.097   7.267   7.494  1.00  0.00    -0.248 NA
ATOM     47  C   UNL     1       7.166   5.142   7.588  1.00  0.00     0.031 C 
ATOM     48  C   UNL     1       3.636   7.460   5.879  1.00  0.00     0.029 A 
ATOM     49  N   UNL     1       5.676   7.482   5.029  1.00  0.00    -0.354 N 
ATOM     50  C   UNL     1       9.108   6.320   7.511  1.00  0.00     0.074 A 
ATOM     51  C   UNL     1       8.480   5.053   7.789  1.00  0.00     0.031 C 
ATOM     52  C   UNL     1       3.509   7.397   4.530  1.00  0.00     0.029 A 
ATOM     53  C   UNL     1       4.834   7.418   3.933  1.00  0.00     0.049 A 
ATOM     54  H   UNL     1       6.650   7.593   4.942  1.00  0.00     0.167 HD
ATOM     55  C   UNL     1      10.361   6.611   7.073  1.00  0.00     0.037 A 
ATOM     56  C   UNL     1       5.225   7.315   2.640  1.00  0.00     0.037 A 
ATOM     57  C   UNL     1      10.515   8.017   6.797  1.00  0.00     0.049 A 
ATOM     58  C   UNL     1       6.653   7.718   2.556  1.00  0.00     0.074 A 
ATOM     59  C   UNL     1      10.365   9.169   7.548  1.00  0.00     0.029 A 
ATOM     60  N   UNL     1      10.457   8.424   5.483  1.00  0.00    -0.354 N 
ATOM     61  N   UNL     1       7.082   8.935   2.745  1.00  0.00    -0.248 NA
ATOM     62  C   UNL     1       7.663   6.677   2.700  1.00  0.00     0.031 C 
ATOM     63  C   UNL     1       9.737  10.105   6.671  1.00  0.00     0.029 A 
ATOM     64  C   UNL     1       9.588   9.486   5.430  1.00  0.00     0.049 A 
ATOM     65  H   UNL     1      10.946   8.029   4.726  1.00  0.00     0.167 HD
ATOM     66  C   UNL     1       8.271   8.786   3.445  1.00  0.00     0.074 A 
ATOM     67  C   UNL     1       8.631   7.380   3.295  1.00  0.00     0.031 C 
ATOM     68  C   UNL     1       8.695   9.741   4.324  1.00  0.00     0.037 A 
BRANCH  55  69
ATOM     69  C   UNL     1      11.346   5.588   6.598  1.00  0.00     0.064 A 
ATOM     70  C   UNL     1      12.708   5.926   6.539  1.00  0.00     0.173 A 
ATOM     71  C   UNL     1      10.982   4.371   5.986  1.00  0.00     0.173 A 
ATOM     72  F   UNL     1      13.146   7.082   7.062  1.00  0.00    -0.203 F 
ATOM     73  C   UNL     1      13.635   5.118   5.880  1.00  0.00     0.198 A 
ATOM     74  C   UNL     1      11.919   3.534   5.388  1.00  0.00     0.198 A 
ATOM     75  F   UNL     1       9.701   4.002   5.849  1.00  0.00    -0.203 F 
ATOM     76  F   UNL     1      14.903   5.530   5.753  1.00  0.00    -0.200 F 
ATOM     77  C   UNL     1      13.241   3.920   5.310  1.00  0.00     0.200 A 
ATOM     78  F   UNL     1      11.515   2.386   4.826  1.00  0.00    -0.200 F 
ATOM     79  F   UNL     1      14.121   3.163   4.643  1.00  0.00    -0.200 F 
ENDBRANCH  55  69
BRANCH  56  80
ATOM     80  C   UNL     1       4.573   6.523   1.577  1.00  0.00     0.064 A 
ATOM     81  C   UNL     1       4.746   6.829   0.219  1.00  0.00     0.173 A 
ATOM     82  C   UNL     1       4.014   5.266   1.879  1.00  0.00     0.173 A 
ATOM     83  F   UNL     1       5.342   7.975  -0.141  1.00  0.00    -0.203 F 
ATOM     84  C   UNL     1       4.378   5.925  -0.783  1.00  0.00     0.198 A 
ATOM     85  C   UNL     1       3.678   4.356   0.879  1.00  0.00     0.198 A 
ATOM     86  F   UNL     1       3.887   4.863   3.152  1.00  0.00    -0.203 F 
ATOM     87  F   UNL     1       4.604   6.225  -2.071  1.00  0.00    -0.200 F 
ATOM     88  C   UNL     1       3.850   4.686  -0.452  1.00  0.00     0.200 A 
ATOM     89  F   UNL     1       3.235   3.135   1.217  1.00  0.00    -0.200 F 
ATOM     90  F   UNL     1       3.554   3.795  -1.409  1.00  0.00    -0.200 F 
ENDBRANCH  56  80
BRANCH  68  91
ATOM     91  C   UNL     1       7.987  11.066   4.308  1.00  0.00     0.064 A 
ATOM     92  C   UNL     1       6.625  11.230   4.617  1.00  0.00     0.173 A 
ATOM     93  C   UNL     1       8.741  12.228   4.104  1.00  0.00     0.173 A 
ATOM     94  F   UNL     1       5.859  10.180   4.936  1.00  0.00    -0.203 F 
ATOM     95  C   UNL     1       6.036  12.491   4.665  1.00  0.00     0.198 A 
ATOM     96  C   UNL     1       8.160  13.491   4.189  1.00  0.00     0.198 A 
ATOM     97  F   UNL     1      10.059  12.140   3.864  1.00  0.00    -0.203 F 
ATOM     98  F   UNL     1       4.731  12.614   4.948  1.00  0.00    -0.200 F 
ATOM     99  C   UNL     1       6.806  13.622   4.457  1.00  0.00     0.200 A 
ATOM    100  F   UNL     1       8.919  14.585   4.038  1.00  0.00    -0.200 F 
ATOM    101  F   UNL     1       6.251  14.839   4.543  1.00  0.00    -0.200 F 
ENDBRANCH  68  91
ENDBRANCH  42  43
ENDBRANCH  34  37
ENDBRANCH  32  33
ENDBRANCH  31  32
ENDBRANCH  30  31
ENDBRANCH  29  30
ENDBRANCH   1  29
TORSDOF 19
