REMARK SMILES O=C(NCCCCCCNC(=O)c1cccc(NC(=O)c2ccc(N3C(=O)CCC3=O)cc2)c1)c1ccc(-c2c3nc(c(-c4c(F)c(F)c(F)c(F)c4F)c4ccc([nH]4)c(-c4c(F)c(F)c(F)c(F)c4F)c4nc(c(-c5c(F)c(F)c(F)c(F)c5F)c5ccc2[nH]5)C=C4)C=C3)cc1
REMARK SMILES IDX 7 1 6 2 5 3 4 4 3 5 1 6 2 7 35 9 36 10 97 11 37 12 96 13
REMARK SMILES IDX 38 14 39 15 40 16 90 17 41 18 95 19 89 20 91 21 42 22 94 23
REMARK SMILES IDX 88 24 87 25 43 27 75 28 55 29 74 30 56 31 59 32 73 33 92 34
REMARK SMILES IDX 57 35 58 36 72 38 93 39 60 40 44 41 45 42 53 43 46 44 47 45
REMARK SMILES IDX 51 46 54 47 48 48 49 49 52 50 50 51 76 52 77 53 85 54 78 55
REMARK SMILES IDX 79 56 83 57 86 58 80 59 81 60 84 61 82 62 61 63 62 64 70 65
REMARK SMILES IDX 63 66 64 67 68 68 71 69 65 70 66 71 69 72 67 73 8 74 9 75
REMARK SMILES IDX 10 76 11 77 12 79 13 80 14 81 34 82 15 83 17 84 16 85 18 86
REMARK SMILES IDX 19 87 20 89 21 90 22 91 33 92 23 93 32 94 24 95 25 96 26 97
REMARK SMILES IDX 30 98 27 99 28 100 29 101 31 102
REMARK H PARENT 3 8 91 26 59 37 10 78 18 88
REMARK Flexibility Score: inf
ROOT
ATOM      1  C   UNL     1       4.830  -4.207  -0.659  1.00  0.00     0.002 C 
ENDROOT
BRANCH   1   2
ATOM      2  C   UNL     1       4.271  -3.693   0.672  1.00  0.00     0.002 C 
BRANCH   2   3
ATOM      3  C   UNL     1       4.729  -2.291   1.064  1.00  0.00     0.021 C 
BRANCH   3   4
ATOM      4  C   UNL     1       4.463  -1.225   0.012  1.00  0.00     0.116 C 
BRANCH   4   5
ATOM      5  N   UNL     1       3.044  -1.020  -0.225  1.00  0.00    -0.352 N 
ATOM      6  O   UNL     1       1.092   0.120  -0.210  1.00  0.00    -0.269 OA
ATOM      7  C   UNL     1       2.316   0.142  -0.148  1.00  0.00     0.251 C 
ATOM      8  H   UNL     1       2.534  -1.824  -0.476  1.00  0.00     0.163 HD
BRANCH   7   9
ATOM      9  C   UNL     1       3.026   1.425   0.037  1.00  0.00     0.039 A 
ATOM     10  C   UNL     1       4.165   1.715  -0.718  1.00  0.00     0.014 A 
ATOM     11  C   UNL     1       2.555   2.337   0.984  1.00  0.00     0.014 A 
ATOM     12  C   UNL     1       4.916   2.844  -0.423  1.00  0.00     0.010 A 
ATOM     13  C   UNL     1       3.258   3.523   1.208  1.00  0.00     0.010 A 
ATOM     14  C   UNL     1       4.459   3.773   0.526  1.00  0.00    -0.014 A 
BRANCH  14  15
ATOM     15  C   UNL     1       5.215   5.034   0.726  1.00  0.00     0.031 A 
ATOM     16  C   UNL     1       5.854   5.364   2.043  1.00  0.00     0.074 A 
ATOM     17  C   UNL     1       5.332   5.880  -0.316  1.00  0.00     0.049 A 
ATOM     18  N   UNL     1       6.552   6.419   2.380  1.00  0.00    -0.248 NA
ATOM     19  C   UNL     1       5.679   4.389   3.130  1.00  0.00     0.031 C 
ATOM     20  C   UNL     1       4.745   5.666  -1.641  1.00  0.00     0.029 A 
ATOM     21  N   UNL     1       5.990   7.076  -0.434  1.00  0.00    -0.354 N 
ATOM     22  C   UNL     1       6.886   6.246   3.716  1.00  0.00     0.074 A 
ATOM     23  C   UNL     1       6.285   4.998   4.140  1.00  0.00     0.031 C 
ATOM     24  C   UNL     1       5.109   6.669  -2.451  1.00  0.00     0.029 A 
ATOM     25  C   UNL     1       5.890   7.632  -1.685  1.00  0.00     0.049 A 
ATOM     26  H   UNL     1       6.487   7.495   0.305  1.00  0.00     0.167 HD
ATOM     27  C   UNL     1       7.631   7.053   4.511  1.00  0.00     0.037 A 
ATOM     28  C   UNL     1       6.354   8.802  -2.160  1.00  0.00     0.037 A 
ATOM     29  C   UNL     1       8.224   8.294   4.076  1.00  0.00     0.049 A 
ATOM     30  C   UNL     1       7.134   9.699  -1.243  1.00  0.00     0.074 A 
ATOM     31  C   UNL     1       9.027   9.166   4.791  1.00  0.00     0.029 A 
ATOM     32  N   UNL     1       8.065   8.848   2.812  1.00  0.00    -0.354 N 
ATOM     33  N   UNL     1       7.480   9.505   0.006  1.00  0.00    -0.248 NA
ATOM     34  C   UNL     1       7.585  10.978  -1.803  1.00  0.00     0.031 C 
ATOM     35  C   UNL     1       9.298  10.276   3.984  1.00  0.00     0.029 A 
ATOM     36  C   UNL     1       8.725  10.066   2.740  1.00  0.00     0.049 A 
ATOM     37  H   UNL     1       7.558   8.437   2.075  1.00  0.00     0.167 HD
ATOM     38  C   UNL     1       8.209  10.625   0.377  1.00  0.00     0.074 A 
ATOM     39  C   UNL     1       8.271  11.485  -0.789  1.00  0.00     0.031 C 
ATOM     40  C   UNL     1       8.776  10.914   1.574  1.00  0.00     0.037 A 
BRANCH  27  41
ATOM     41  C   UNL     1       7.821   6.636   5.944  1.00  0.00     0.064 A 
ATOM     42  C   UNL     1       8.584   5.512   6.296  1.00  0.00     0.173 A 
ATOM     43  C   UNL     1       7.252   7.389   6.984  1.00  0.00     0.173 A 
ATOM     44  F   UNL     1       9.146   4.751   5.345  1.00  0.00    -0.203 F 
ATOM     45  C   UNL     1       8.736   5.135   7.629  1.00  0.00     0.198 A 
ATOM     46  C   UNL     1       7.435   7.029   8.317  1.00  0.00     0.198 A 
ATOM     47  F   UNL     1       6.521   8.479   6.708  1.00  0.00    -0.203 F 
ATOM     48  F   UNL     1       9.418   4.023   7.936  1.00  0.00    -0.200 F 
ATOM     49  C   UNL     1       8.167   5.897   8.638  1.00  0.00     0.200 A 
ATOM     50  F   UNL     1       6.898   7.777   9.291  1.00  0.00    -0.200 F 
ATOM     51  F   UNL     1       8.316   5.535   9.920  1.00  0.00    -0.200 F 
ENDBRANCH  27  41
BRANCH  28  52
ATOM     52  C   UNL     1       6.087   9.178  -3.571  1.00  0.00     0.064 A 
ATOM     53  C   UNL     1       7.125   9.239  -4.509  1.00  0.00     0.173 A 
ATOM     54  C   UNL     1       4.785   9.456  -4.018  1.00  0.00     0.173 A 
ATOM     55  F   UNL     1       8.388   8.996  -4.127  1.00  0.00    -0.203 F 
ATOM     56  C   UNL     1       6.875   9.577  -5.837  1.00  0.00     0.198 A 
ATOM     57  C   UNL     1       4.532   9.761  -5.352  1.00  0.00     0.198 A 
ATOM     58  F   UNL     1       3.755   9.402  -3.161  1.00  0.00    -0.203 F 
ATOM     59  F   UNL     1       7.891   9.666  -6.706  1.00  0.00    -0.200 F 
ATOM     60  C   UNL     1       5.578   9.829  -6.260  1.00  0.00     0.200 A 
ATOM     61  F   UNL     1       3.275   9.982  -5.760  1.00  0.00    -0.200 F 
ATOM     62  F   UNL     1       5.337  10.140  -7.540  1.00  0.00    -0.200 F 
ENDBRANCH  28  52
BRANCH  40  63
ATOM     63  C   UNL     1       9.546  12.200   1.673  1.00  0.00     0.064 A 
ATOM     64  C   UNL     1       8.908  13.450   1.647  1.00  0.00     0.173 A 
ATOM     65  C   UNL     1      10.942  12.181   1.819  1.00  0.00     0.173 A 
ATOM     66  F   UNL     1       7.578  13.525   1.490  1.00  0.00    -0.203 F 
ATOM     67  C   UNL     1       9.642  14.630   1.733  1.00  0.00     0.198 A 
ATOM     68  C   UNL     1      11.668  13.362   1.942  1.00  0.00     0.198 A 
ATOM     69  F   UNL     1      11.602  11.013   1.854  1.00  0.00    -0.203 F 
ATOM     70  F   UNL     1       9.016  15.813   1.648  1.00  0.00    -0.200 F 
ATOM     71  C   UNL     1      11.019  14.585   1.889  1.00  0.00     0.200 A 
ATOM     72  F   UNL     1      12.997  13.315   2.107  1.00  0.00    -0.200 F 
ATOM     73  F   UNL     1      11.722  15.723   1.979  1.00  0.00    -0.200 F 
ENDBRANCH  40  63
ENDBRANCH  14  15
ENDBRANCH   7   9
ENDBRANCH   4   5
ENDBRANCH   3   4
ENDBRANCH   2   3
ENDBRANCH   1   2
BRANCH   1  74
ATOM     74  C   UNL     1       6.357  -4.175  -0.785  1.00  0.00     0.021 C 
BRANCH  74  75
ATOM     75  C   UNL     1       7.107  -4.891   0.335  1.00  0.00     0.116 C 
BRANCH  75  76
ATOM     76  N   UNL     1       6.713  -6.284   0.430  1.00  0.00    -0.352 N 
ATOM     77  C   UNL     1       7.464  -7.418   0.296  1.00  0.00     0.251 C 
ATOM     78  H   UNL     1       5.758  -6.435   0.619  1.00  0.00     0.163 HD
ATOM     79  O   UNL     1       6.908  -8.502   0.140  1.00  0.00    -0.269 OA
BRANCH  77  80
ATOM     80  C   UNL     1       8.938  -7.356   0.346  1.00  0.00     0.041 A 
ATOM     81  C   UNL     1       9.659  -8.145  -0.549  1.00  0.00     0.014 A 
ATOM     82  C   UNL     1       9.604  -6.596   1.319  1.00  0.00     0.040 A 
ATOM     83  C   UNL     1      11.043  -8.190  -0.452  1.00  0.00     0.003 A 
ATOM     84  C   UNL     1      11.001  -6.573   1.373  1.00  0.00     0.042 A 
ATOM     85  C   UNL     1      11.701  -7.428   0.519  1.00  0.00     0.026 A 
BRANCH  84  86
ATOM     86  N   UNL     1      11.578  -5.675   2.295  1.00  0.00    -0.322 N 
ATOM     87  C   UNL     1      12.866  -5.238   2.513  1.00  0.00     0.255 C 
ATOM     88  H   UNL     1      10.923  -5.277   2.913  1.00  0.00     0.170 HD
ATOM     89  O   UNL     1      13.111  -4.472   3.442  1.00  0.00    -0.269 OA
BRANCH  87  90
ATOM     90  C   UNL     1      13.973  -5.673   1.655  1.00  0.00     0.040 A 
ATOM     91  C   UNL     1      14.895  -6.570   2.187  1.00  0.00     0.016 A 
ATOM     92  C   UNL     1      14.050  -5.282   0.317  1.00  0.00     0.016 A 
ATOM     93  C   UNL     1      15.822  -7.178   1.339  1.00  0.00     0.027 A 
ATOM     94  C   UNL     1      14.994  -5.887  -0.522  1.00  0.00     0.027 A 
ATOM     95  C   UNL     1      15.860  -6.883  -0.036  1.00  0.00     0.052 A 
BRANCH  95  96
ATOM     96  N   UNL     1      16.728  -7.607  -0.902  1.00  0.00    -0.251 N 
ATOM     97  C   UNL     1      17.200  -7.145  -2.108  1.00  0.00     0.234 C 
ATOM     98  C   UNL     1      17.141  -8.899  -0.658  1.00  0.00     0.234 C 
ATOM     99  O   UNL     1      16.980  -6.075  -2.664  1.00  0.00    -0.274 OA
ATOM    100  C   UNL     1      18.143  -8.158  -2.684  1.00  0.00     0.111 C 
ATOM    101  C   UNL     1      18.021  -9.357  -1.779  1.00  0.00     0.111 C 
ATOM    102  O   UNL     1      16.819  -9.649   0.253  1.00  0.00    -0.274 OA
ENDBRANCH  95  96
ENDBRANCH  87  90
ENDBRANCH  84  86
ENDBRANCH  77  80
ENDBRANCH  75  76
ENDBRANCH  74  75
ENDBRANCH   1  74
TORSDOF 16
