REMARK SMILES O=C(NCCCCCCNC(=O)[C@H]1[C@H]2CC[C@H](CC2)[C@@H]1C(=O)Nc1sc2c(c1C(=O)N1CCCCC1)CCCC2)c1ccc(-c2c3nc(c(-c4c(F)c(F)c(F)c(F)c4F)c4ccc([nH]4)c(-c4c(F)c(F)c(F)c(F)c4F)c4nc(c(-c5c(F)c(F)c(F)c(F)c5F)c5ccc2[nH]5)C=C4)C=C3)cc1
REMARK SMILES IDX 7 1 6 2 5 3 4 4 3 5 1 6 2 7 41 9 42 10 103 11 43 12 102 13
REMARK SMILES IDX 44 14 45 15 46 16 96 17 47 18 101 19 95 20 97 21 48 22
REMARK SMILES IDX 100 23 94 24 93 25 49 27 81 28 61 29 80 30 62 31 65 32 79 33
REMARK SMILES IDX 98 34 63 35 64 36 78 38 99 39 66 40 50 41 51 42 59 43 52 44
REMARK SMILES IDX 53 45 57 46 60 47 54 48 55 49 58 50 56 51 82 52 83 53 91 54
REMARK SMILES IDX 84 55 85 56 89 57 92 58 86 59 87 60 90 61 88 62 67 63 68 64
REMARK SMILES IDX 76 65 69 66 70 67 74 68 77 69 71 70 72 71 75 72 73 73 8 74
REMARK SMILES IDX 9 75 10 76 11 77 12 79 13 80 14 81 20 82 15 83 19 84 17 85
REMARK SMILES IDX 16 86 18 87 21 88 22 89 23 90 24 92 25 93 28 94 26 95 27 96
REMARK SMILES IDX 40 97 37 98 39 99 38 100 29 101 30 102 31 103 32 104 36 105
REMARK SMILES IDX 33 106 35 107 34 108
REMARK H PARENT 3 8 97 26 65 37 10 78 23 91
REMARK Flexibility Score: inf
ROOT
ATOM      1  C   UNL     1       4.068  -2.872  -3.638  1.00  0.00     0.002 C 
ENDROOT
BRANCH   1   2
ATOM      2  C   UNL     1       3.853  -3.343  -2.196  1.00  0.00     0.002 C 
BRANCH   2   3
ATOM      3  C   UNL     1       4.512  -2.539  -1.074  1.00  0.00     0.021 C 
BRANCH   3   4
ATOM      4  C   UNL     1       4.284  -1.034  -1.076  1.00  0.00     0.116 C 
BRANCH   4   5
ATOM      5  N   UNL     1       2.885  -0.653  -0.997  1.00  0.00    -0.352 N 
ATOM      6  O   UNL     1       1.022   0.305  -0.167  1.00  0.00    -0.269 OA
ATOM      7  C   UNL     1       2.244   0.182  -0.114  1.00  0.00     0.251 C 
ATOM      8  H   UNL     1       2.306  -1.057  -1.683  1.00  0.00     0.163 HD
BRANCH   7   9
ATOM      9  C   UNL     1       3.004   0.906   0.930  1.00  0.00     0.039 A 
ATOM     10  C   UNL     1       4.216   1.538   0.645  1.00  0.00     0.014 A 
ATOM     11  C   UNL     1       2.480   0.964   2.226  1.00  0.00     0.014 A 
ATOM     12  C   UNL     1       4.976   2.077   1.678  1.00  0.00     0.010 A 
ATOM     13  C   UNL     1       3.204   1.587   3.248  1.00  0.00     0.010 A 
ATOM     14  C   UNL     1       4.480   2.111   2.992  1.00  0.00    -0.014 A 
BRANCH  14  15
ATOM     15  C   UNL     1       5.303   2.725   4.067  1.00  0.00     0.031 A 
ATOM     16  C   UNL     1       5.827   1.903   5.213  1.00  0.00     0.074 A 
ATOM     17  C   UNL     1       5.611   4.034   3.983  1.00  0.00     0.049 A 
ATOM     18  N   UNL     1       6.603   2.266   6.204  1.00  0.00    -0.248 NA
ATOM     19  C   UNL     1       5.422   0.490   5.261  1.00  0.00     0.031 C 
ATOM     20  C   UNL     1       5.146   4.940   2.932  1.00  0.00     0.029 A 
ATOM     21  N   UNL     1       6.403   4.825   4.777  1.00  0.00    -0.354 N 
ATOM     22  C   UNL     1       6.759   1.140   7.002  1.00  0.00     0.074 A 
ATOM     23  C   UNL     1       5.977   0.084   6.394  1.00  0.00     0.031 C 
ATOM     24  C   UNL     1       5.706   6.146   3.111  1.00  0.00     0.029 A 
ATOM     25  C   UNL     1       6.523   6.114   4.318  1.00  0.00     0.049 A 
ATOM     26  H   UNL     1       6.843   4.499   5.595  1.00  0.00     0.167 HD
ATOM     27  C   UNL     1       7.494   0.999   8.132  1.00  0.00     0.037 A 
ATOM     28  C   UNL     1       7.212   7.157   4.816  1.00  0.00     0.037 A 
ATOM     29  C   UNL     1       8.292   2.045   8.720  1.00  0.00     0.049 A 
ATOM     30  C   UNL     1       8.018   6.970   6.070  1.00  0.00     0.074 A 
ATOM     31  C   UNL     1       9.110   1.985   9.836  1.00  0.00     0.029 A 
ATOM     32  N   UNL     1       8.369   3.345   8.240  1.00  0.00    -0.354 N 
ATOM     33  N   UNL     1       8.194   5.887   6.786  1.00  0.00    -0.248 NA
ATOM     34  C   UNL     1       8.720   8.153   6.584  1.00  0.00     0.031 C 
ATOM     35  C   UNL     1       9.645   3.259  10.057  1.00  0.00     0.029 A 
ATOM     36  C   UNL     1       9.203   4.101   9.050  1.00  0.00     0.049 A 
ATOM     37  H   UNL     1       7.901   3.681   7.441  1.00  0.00     0.167 HD
ATOM     38  C   UNL     1       9.045   6.249   7.821  1.00  0.00     0.074 A 
ATOM     39  C   UNL     1       9.364   7.649   7.627  1.00  0.00     0.031 C 
ATOM     40  C   UNL     1       9.516   5.491   8.841  1.00  0.00     0.037 A 
BRANCH  27  41
ATOM     41  C   UNL     1       7.459  -0.334   8.826  1.00  0.00     0.064 A 
ATOM     42  C   UNL     1       8.091  -1.465   8.290  1.00  0.00     0.173 A 
ATOM     43  C   UNL     1       6.822  -0.468  10.070  1.00  0.00     0.173 A 
ATOM     44  F   UNL     1       8.706  -1.394   7.099  1.00  0.00    -0.203 F 
ATOM     45  C   UNL     1       8.066  -2.686   8.960  1.00  0.00     0.198 A 
ATOM     46  C   UNL     1       6.823  -1.683  10.751  1.00  0.00     0.198 A 
ATOM     47  F   UNL     1       6.209   0.584  10.633  1.00  0.00    -0.203 F 
ATOM     48  F   UNL     1       8.640  -3.764   8.407  1.00  0.00    -0.200 F 
ATOM     49  C   UNL     1       7.438  -2.793  10.192  1.00  0.00     0.200 A 
ATOM     50  F   UNL     1       6.227  -1.780  11.947  1.00  0.00    -0.200 F 
ATOM     51  F   UNL     1       7.422  -3.967  10.838  1.00  0.00    -0.200 F 
ENDBRANCH  27  41
BRANCH  28  52
ATOM     52  C   UNL     1       7.182   8.465   4.113  1.00  0.00     0.064 A 
ATOM     53  C   UNL     1       8.323   8.961   3.468  1.00  0.00     0.173 A 
ATOM     54  C   UNL     1       6.014   9.239   4.061  1.00  0.00     0.173 A 
ATOM     55  F   UNL     1       9.470   8.265   3.506  1.00  0.00    -0.203 F 
ATOM     56  C   UNL     1       8.301  10.189   2.810  1.00  0.00     0.198 A 
ATOM     57  C   UNL     1       5.984  10.452   3.378  1.00  0.00     0.198 A 
ATOM     58  F   UNL     1       4.894   8.805   4.658  1.00  0.00    -0.203 F 
ATOM     59  F   UNL     1       9.417  10.659   2.236  1.00  0.00    -0.200 F 
ATOM     60  C   UNL     1       7.130  10.930   2.760  1.00  0.00     0.200 A 
ATOM     61  F   UNL     1       4.846  11.156   3.317  1.00  0.00    -0.200 F 
ATOM     62  F   UNL     1       7.106  12.107   2.120  1.00  0.00    -0.200 F 
ENDBRANCH  28  52
BRANCH  40  63
ATOM     63  C   UNL     1      10.459   6.154   9.802  1.00  0.00     0.064 A 
ATOM     64  C   UNL     1      10.017   7.113  10.725  1.00  0.00     0.173 A 
ATOM     65  C   UNL     1      11.820   5.812   9.809  1.00  0.00     0.173 A 
ATOM     66  F   UNL     1       8.729   7.486  10.746  1.00  0.00    -0.203 F 
ATOM     67  C   UNL     1      10.910   7.730  11.598  1.00  0.00     0.198 A 
ATOM     68  C   UNL     1      12.704   6.409  10.704  1.00  0.00     0.198 A 
ATOM     69  F   UNL     1      12.292   4.895   8.951  1.00  0.00    -0.203 F 
ATOM     70  F   UNL     1      10.476   8.684  12.433  1.00  0.00    -0.200 F 
ATOM     71  C   UNL     1      12.250   7.373  11.591  1.00  0.00     0.200 A 
ATOM     72  F   UNL     1      13.996   6.054  10.703  1.00  0.00    -0.200 F 
ATOM     73  F   UNL     1      13.107   7.968  12.432  1.00  0.00    -0.200 F 
ENDBRANCH  40  63
ENDBRANCH  14  15
ENDBRANCH   7   9
ENDBRANCH   4   5
ENDBRANCH   3   4
ENDBRANCH   2   3
ENDBRANCH   1   2
BRANCH   1  74
ATOM     74  C   UNL     1       5.489  -2.513  -4.071  1.00  0.00     0.021 C 
BRANCH  74  75
ATOM     75  C   UNL     1       6.593  -3.509  -3.741  1.00  0.00     0.116 C 
BRANCH  75  76
ATOM     76  N   UNL     1       6.694  -4.641  -4.623  1.00  0.00    -0.356 N 
ATOM     77  C   UNL     1       7.712  -5.510  -4.850  1.00  0.00     0.224 C 
ATOM     78  H   UNL     1       5.884  -4.816  -5.155  1.00  0.00     0.163 HD
ATOM     79  O   UNL     1       7.383  -6.545  -5.447  1.00  0.00    -0.275 OA
BRANCH  77  80
ATOM     80  C   UNL     1       9.201  -5.313  -4.485  1.00  0.00     0.094 C 
ATOM     81  C   UNL     1       9.753  -4.026  -3.818  1.00  0.00     0.002 C 
ATOM     82  C   UNL     1       9.712  -6.563  -3.693  1.00  0.00     0.094 C 
ATOM     83  C   UNL     1       9.461  -3.926  -2.301  1.00  0.00     0.005 C 
ATOM     84  C   UNL     1      11.295  -4.096  -3.934  1.00  0.00     0.005 C 
ATOM     85  C   UNL     1      10.648  -6.098  -2.536  1.00  0.00     0.002 C 
ATOM     86  C   UNL     1       9.824  -5.224  -1.591  1.00  0.00     0.005 C 
ATOM     87  C   UNL     1      11.821  -5.266  -3.094  1.00  0.00     0.005 C 
BRANCH  82  88
ATOM     88  C   UNL     1      10.483  -7.595  -4.545  1.00  0.00     0.229 C 
ATOM     89  O   UNL     1      10.901  -7.314  -5.671  1.00  0.00    -0.274 OA
ATOM     90  N   UNL     1      10.908  -8.774  -3.967  1.00  0.00    -0.317 N 
ATOM     91  H   UNL     1      11.619  -9.256  -4.449  1.00  0.00     0.170 HD
BRANCH  90  92
ATOM     92  C   UNL     1      10.465  -9.368  -2.799  1.00  0.00     0.108 A 
ATOM     93  S   UNL     1       8.789  -9.489  -2.560  1.00  0.00    -0.122 S 
ATOM     94  C   UNL     1      11.212  -9.997  -1.802  1.00  0.00     0.078 A 
ATOM     95  C   UNL     1       9.002 -10.049  -0.985  1.00  0.00     0.011 A 
ATOM     96  C   UNL     1      10.318 -10.379  -0.709  1.00  0.00    -0.019 A 
ATOM     97  C   UNL     1       7.839 -10.187  -0.052  1.00  0.00     0.047 C 
ATOM     98  C   UNL     1      10.671 -10.977   0.621  1.00  0.00     0.037 C 
ATOM     99  C   UNL     1       8.333 -10.344   1.389  1.00  0.00     0.006 C 
ATOM    100  C   UNL     1       9.451 -11.382   1.462  1.00  0.00     0.005 C 
BRANCH  94 101
ATOM    101  C   UNL     1      12.691 -10.046  -1.887  1.00  0.00     0.257 C 
ATOM    102  O   UNL     1      13.291  -9.687  -2.901  1.00  0.00    -0.269 OA
ATOM    103  N   UNL     1      13.394 -10.372  -0.727  1.00  0.00    -0.339 N 
ATOM    104  C   UNL     1      14.475  -9.470  -0.350  1.00  0.00     0.120 C 
ATOM    105  C   UNL     1      13.692 -11.774  -0.459  1.00  0.00     0.120 C 
ATOM    106  C   UNL     1      14.760  -9.582   1.143  1.00  0.00     0.022 C 
ATOM    107  C   UNL     1      14.002 -11.996   1.024  1.00  0.00     0.022 C 
ATOM    108  C   UNL     1      15.065 -11.026   1.543  1.00  0.00     0.004 C 
ENDBRANCH  94 101
ENDBRANCH  90  92
ENDBRANCH  82  88
ENDBRANCH  77  80
ENDBRANCH  75  76
ENDBRANCH  74  75
ENDBRANCH   1  74
TORSDOF 16
