REMARK SMILES COc1ccc(C[N@@H+]2C[C@@H](C(=O)NCCCCCCNC(=O)c3ccc(-c4c5nc(c(-c6c(F)c(F)c(F)c(F)c6F)c6ccc([nH]6)c(-c6c(F)c(F)c(F)c(F)c6F)c6nc(c(-c7c(F)c(F)c(F)c(F)c7F)c7ccc4[nH]7)C=C6)C=C5)cc3)[C@H](c3ccccc3OC)C2)c(OC)c1
REMARK SMILES IDX 16 1 15 2 14 3 13 4 11 5 12 6 10 8 8 9 9 10 95 11 86 13 7 14
REMARK SMILES IDX 6 15 3 16 4 17 99 18 5 19 96 20 2 21 1 22 97 23 98 24 87 25
REMARK SMILES IDX 88 26 92 27 89 28 91 29 90 30 93 31 94 32 17 33 18 34 19 35
REMARK SMILES IDX 20 36 21 37 22 39 23 40 24 41 85 42 25 43 84 44 26 45 27 46
REMARK SMILES IDX 28 47 78 48 29 49 83 50 77 51 79 52 30 53 82 54 76 55 75 56
REMARK SMILES IDX 31 58 63 59 43 60 62 61 44 62 47 63 61 64 80 65 45 66 46 67
REMARK SMILES IDX 60 69 81 70 48 71 32 72 33 73 41 74 34 75 35 76 39 77 42 78
REMARK SMILES IDX 36 79 37 80 40 81 38 82 64 83 65 84 73 85 66 86 67 87 71 88
REMARK SMILES IDX 74 89 68 90 69 91 72 92 70 93 49 94 50 95 58 96 51 97 52 98
REMARK SMILES IDX 56 99 59 100 53 101 54 102 57 103 55 104
REMARK H PARENT 13 7 8 12 20 38 79 57 47 68
REMARK Flexibility Score: inf
ROOT
ATOM      1  C   UNL     1      -1.496 -11.170  -6.475  1.00  0.00     0.002 C 
ENDROOT
BRANCH   1   2
ATOM      2  C   UNL     1      -0.115 -10.535  -6.270  1.00  0.00     0.021 C 
BRANCH   2   3
ATOM      3  C   UNL     1      -0.169  -9.062  -5.871  1.00  0.00     0.116 C 
BRANCH   3   4
ATOM      4  N   UNL     1      -0.780  -8.891  -4.566  1.00  0.00    -0.356 N 
ATOM      5  C   UNL     1      -0.402  -8.168  -3.479  1.00  0.00     0.229 C 
ATOM      6  O   UNL     1      -1.144  -8.236  -2.493  1.00  0.00    -0.275 OA
ATOM      7  H   UNL     1      -1.621  -9.389  -4.447  1.00  0.00     0.163 HD
BRANCH   5   8
ATOM      8  C   UNL     1       0.786  -7.223  -3.473  1.00  0.00     0.146 C 
ATOM      9  N   UNL     1       1.517  -5.509  -5.001  1.00  0.00    -0.330 N 
ATOM     10  C   UNL     1       0.334  -6.131  -4.458  1.00  0.00     0.276 C 
ATOM     11  C   UNL     1       2.673  -6.193  -4.438  1.00  0.00     0.272 C 
ATOM     12  H   UNL     1       1.515  -5.631  -6.014  1.00  0.00     0.348 HD
ATOM     13  C   UNL     1       2.239  -7.592  -3.873  1.00  0.00     0.096 C 
BRANCH   9  14
ATOM     14  C   UNL     1       1.560  -4.036  -4.936  1.00  0.00     0.303 C 
BRANCH  14  15
ATOM     15  C   UNL     1       1.347  -3.348  -3.588  1.00  0.00     0.048 A 
ATOM     16  C   UNL     1       0.842  -2.003  -1.162  1.00  0.00     0.122 A 
ATOM     17  C   UNL     1      -0.217  -2.511  -1.898  1.00  0.00     0.047 A 
ATOM     18  C   UNL     1       2.153  -2.178  -1.606  1.00  0.00     0.093 A 
ATOM     19  C   UNL     1       0.033  -3.143  -3.115  1.00  0.00     0.017 A 
ATOM     20  C   UNL     1       2.415  -2.842  -2.817  1.00  0.00     0.131 A 
BRANCH  16  21
ATOM     21  O   UNL     1       0.542  -1.388   0.023  1.00  0.00    -0.497 OA
ATOM     22  C   UNL     1       0.984  -0.031   0.046  1.00  0.00     0.278 C 
ENDBRANCH  16  21
BRANCH  20  23
ATOM     23  O   UNL     1       3.675  -3.031  -3.327  1.00  0.00    -0.496 OA
ATOM     24  C   UNL     1       4.750  -2.378  -2.661  1.00  0.00     0.278 C 
ENDBRANCH  20  23
ENDBRANCH  14  15
ENDBRANCH   9  14
BRANCH  13  25
ATOM     25  C   UNL     1       3.274  -8.148  -2.848  1.00  0.00     0.004 A 
ATOM     26  C   UNL     1       4.458  -7.400  -2.591  1.00  0.00     0.008 A 
ATOM     27  C   UNL     1       3.276  -9.438  -2.269  1.00  0.00     0.122 A 
ATOM     28  C   UNL     1       5.511  -7.843  -1.779  1.00  0.00     0.001 A 
ATOM     29  C   UNL     1       4.318  -9.865  -1.411  1.00  0.00     0.047 A 
ATOM     30  C   UNL     1       5.429  -9.071  -1.159  1.00  0.00     0.004 A 
BRANCH  27  31
ATOM     31  O   UNL     1       2.513 -10.501  -2.675  1.00  0.00    -0.496 OA
ATOM     32  C   UNL     1       1.142 -10.432  -2.353  1.00  0.00     0.278 C 
ENDBRANCH  27  31
ENDBRANCH  13  25
ENDBRANCH   5   8
ENDBRANCH   3   4
ENDBRANCH   2   3
ENDBRANCH   1   2
BRANCH   1  33
ATOM     33  C   UNL     1      -2.408 -10.410  -7.443  1.00  0.00     0.002 C 
BRANCH  33  34
ATOM     34  C   UNL     1      -1.791 -10.140  -8.816  1.00  0.00     0.021 C 
BRANCH  34  35
ATOM     35  C   UNL     1      -1.375 -11.399  -9.564  1.00  0.00     0.116 C 
BRANCH  35  36
ATOM     36  N   UNL     1      -2.519 -12.238  -9.885  1.00  0.00    -0.352 N 
ATOM     37  C   UNL     1      -2.925 -12.698 -11.111  1.00  0.00     0.251 C 
ATOM     38  H   UNL     1      -3.076 -12.511  -9.121  1.00  0.00     0.163 HD
ATOM     39  O   UNL     1      -4.033 -13.211 -11.255  1.00  0.00    -0.269 OA
BRANCH  37  40
ATOM     40  C   UNL     1      -2.021 -12.551 -12.266  1.00  0.00     0.039 A 
ATOM     41  C   UNL     1      -2.517 -12.025 -13.460  1.00  0.00     0.014 A 
ATOM     42  C   UNL     1      -0.673 -12.903 -12.149  1.00  0.00     0.014 A 
ATOM     43  C   UNL     1      -1.644 -11.791 -14.522  1.00  0.00     0.010 A 
ATOM     44  C   UNL     1       0.208 -12.595 -13.178  1.00  0.00     0.010 A 
ATOM     45  C   UNL     1      -0.269 -12.039 -14.376  1.00  0.00    -0.014 A 
BRANCH  45  46
ATOM     46  C   UNL     1       0.696 -11.728 -15.459  1.00  0.00     0.031 A 
ATOM     47  C   UNL     1       1.488 -12.835 -16.094  1.00  0.00     0.074 A 
ATOM     48  C   UNL     1       0.918 -10.446 -15.809  1.00  0.00     0.049 A 
ATOM     49  N   UNL     1       2.458 -12.764 -16.970  1.00  0.00    -0.248 NA
ATOM     50  C   UNL     1       1.168 -14.206 -15.664  1.00  0.00     0.031 C 
ATOM     51  C   UNL     1       0.239  -9.283 -15.237  1.00  0.00     0.029 A 
ATOM     52  N   UNL     1       1.792  -9.906 -16.719  1.00  0.00    -0.354 N 
ATOM     53  C   UNL     1       2.872 -14.072 -17.181  1.00  0.00     0.074 A 
ATOM     54  C   UNL     1       2.089 -14.912 -16.302  1.00  0.00     0.031 C 
ATOM     55  C   UNL     1       0.710  -8.169 -15.819  1.00  0.00     0.029 A 
ATOM     56  C   UNL     1       1.756  -8.534 -16.770  1.00  0.00     0.049 A 
ATOM     57  H   UNL     1       2.389 -10.450 -17.282  1.00  0.00     0.167 HD
ATOM     58  C   UNL     1       3.807 -14.532 -18.046  1.00  0.00     0.037 A 
ATOM     59  C   UNL     1       2.495  -7.668 -17.489  1.00  0.00     0.037 A 
ATOM     60  C   UNL     1       4.568 -13.691 -18.932  1.00  0.00     0.049 A 
ATOM     61  C   UNL     1       3.547  -8.203 -18.425  1.00  0.00     0.074 A 
ATOM     62  C   UNL     1       5.496 -14.064 -19.888  1.00  0.00     0.029 A 
ATOM     63  N   UNL     1       4.491 -12.306 -18.966  1.00  0.00    -0.354 N 
ATOM     64  N   UNL     1       3.884  -9.447 -18.666  1.00  0.00    -0.248 NA
ATOM     65  C   UNL     1       4.319  -7.215 -19.191  1.00  0.00     0.031 C 
ATOM     66  C   UNL     1       6.024 -12.902 -20.459  1.00  0.00     0.029 A 
ATOM     67  C   UNL     1       5.378 -11.808 -19.907  1.00  0.00     0.049 A 
ATOM     68  H   UNL     1       3.896 -11.759 -18.405  1.00  0.00     0.167 HD
ATOM     69  C   UNL     1       4.879  -9.393 -19.633  1.00  0.00     0.074 A 
ATOM     70  C   UNL     1       5.085  -7.993 -19.941  1.00  0.00     0.031 C 
ATOM     71  C   UNL     1       5.560 -10.411 -20.213  1.00  0.00     0.037 A 
BRANCH  58  72
ATOM     72  C   UNL     1       4.062 -16.012 -18.074  1.00  0.00     0.064 A 
ATOM     73  C   UNL     1       3.105 -16.917 -18.560  1.00  0.00     0.173 A 
ATOM     74  C   UNL     1       5.294 -16.529 -17.645  1.00  0.00     0.173 A 
ATOM     75  F   UNL     1       1.907 -16.476 -18.973  1.00  0.00    -0.203 F 
ATOM     76  C   UNL     1       3.360 -18.285 -18.585  1.00  0.00     0.198 A 
ATOM     77  C   UNL     1       5.558 -17.895 -17.704  1.00  0.00     0.198 A 
ATOM     78  F   UNL     1       6.247 -15.709 -17.178  1.00  0.00    -0.203 F 
ATOM     79  F   UNL     1       2.411 -19.134 -19.003  1.00  0.00    -0.200 F 
ATOM     80  C   UNL     1       4.589 -18.772 -18.165  1.00  0.00     0.200 A 
ATOM     81  F   UNL     1       6.752 -18.362 -17.313  1.00  0.00    -0.200 F 
ATOM     82  F   UNL     1       4.836 -20.089 -18.199  1.00  0.00    -0.200 F 
ENDBRANCH  58  72
BRANCH  59  83
ATOM     83  C   UNL     1       2.262  -6.205 -17.362  1.00  0.00     0.064 A 
ATOM     84  C   UNL     1       1.728  -5.466 -18.427  1.00  0.00     0.173 A 
ATOM     85  C   UNL     1       2.574  -5.513 -16.182  1.00  0.00     0.173 A 
ATOM     86  F   UNL     1       1.432  -6.077 -19.584  1.00  0.00    -0.203 F 
ATOM     87  C   UNL     1       1.538  -4.089 -18.326  1.00  0.00     0.198 A 
ATOM     88  C   UNL     1       2.353  -4.142 -16.070  1.00  0.00     0.198 A 
ATOM     89  F   UNL     1       3.082  -6.173 -15.131  1.00  0.00    -0.203 F 
ATOM     90  F   UNL     1       1.075  -3.400 -19.378  1.00  0.00    -0.200 F 
ATOM     91  C   UNL     1       1.845  -3.429 -17.146  1.00  0.00     0.200 A 
ATOM     92  F   UNL     1       2.636  -3.511 -14.923  1.00  0.00    -0.200 F 
ATOM     93  F   UNL     1       1.659  -2.106 -17.047  1.00  0.00    -0.200 F 
ENDBRANCH  59  83
BRANCH  71  94
ATOM     94  C   UNL     1       6.560 -10.060 -21.277  1.00  0.00     0.064 A 
ATOM     95  C   UNL     1       7.779  -9.439 -20.971  1.00  0.00     0.173 A 
ATOM     96  C   UNL     1       6.318 -10.410 -22.615  1.00  0.00     0.173 A 
ATOM     97  F   UNL     1       8.052  -9.071 -19.710  1.00  0.00    -0.203 F 
ATOM     98  C   UNL     1       8.711  -9.163 -21.968  1.00  0.00     0.198 A 
ATOM     99  C   UNL     1       7.266 -10.162 -23.604  1.00  0.00     0.198 A 
ATOM    100  F   UNL     1       5.171 -11.012 -22.960  1.00  0.00    -0.203 F 
ATOM    101  F   UNL     1       9.851  -8.529 -21.660  1.00  0.00    -0.200 F 
ATOM    102  C   UNL     1       8.459  -9.534 -23.281  1.00  0.00     0.200 A 
ATOM    103  F   UNL     1       7.027 -10.538 -24.868  1.00  0.00    -0.200 F 
ATOM    104  F   UNL     1       9.364  -9.281 -24.236  1.00  0.00    -0.200 F 
ENDBRANCH  71  94
ENDBRANCH  45  46
ENDBRANCH  37  40
ENDBRANCH  35  36
ENDBRANCH  34  35
ENDBRANCH  33  34
ENDBRANCH   1  33
TORSDOF 19
