REMARK SMILES CC[C@H](C)N1C(=O)c2ccccc2[C@@H](C(=O)NCCCCCCNC(=O)c2ccc(-c3c4nc(c(-c5c(F)c(F)c(F)c(F)c5F)c5ccc([nH]5)c(-c5c(F)c(F)c(F)c(F)c5F)c5nc(c(-c6c(F)c(F)c(F)c(F)c6F)c6ccc3[nH]6)C=C5)C=C4)cc2)C12CCCCC2
REMARK SMILES IDX 20 1 19 2 18 3 17 4 15 5 16 6 14 8 5 9 6 10 90 11 7 12 8 13
REMARK SMILES IDX 91 14 95 15 9 16 13 17 92 18 94 19 10 20 12 21 93 22 11 23
REMARK SMILES IDX 3 24 4 25 2 26 1 27 21 28 22 29 23 30 24 31 25 32 26 34
REMARK SMILES IDX 27 35 28 36 89 37 29 38 88 39 30 40 31 41 32 42 82 43 33 44
REMARK SMILES IDX 87 45 81 46 83 47 34 48 86 49 80 50 79 51 35 53 67 54 47 55
REMARK SMILES IDX 66 56 48 57 51 58 65 59 84 60 49 61 50 62 64 64 85 65 52 66
REMARK SMILES IDX 36 67 37 68 45 69 38 70 39 71 43 72 46 73 40 74 41 75 44 76
REMARK SMILES IDX 42 77 68 78 69 79 77 80 70 81 71 82 75 83 78 84 72 85 73 86
REMARK SMILES IDX 76 87 74 88 53 89 54 90 62 91 55 92 56 93 60 94 63 95 57 96
REMARK SMILES IDX 58 97 61 98 59 99
REMARK H PARENT 17 7 24 33 83 52 51 63
REMARK Flexibility Score: inf
ROOT
ATOM      1  C   UNL     1       0.090  -3.456  -9.396  1.00  0.00     0.002 C 
ENDROOT
BRANCH   1   2
ATOM      2  C   UNL     1       0.561  -2.449  -8.345  1.00  0.00     0.021 C 
BRANCH   2   3
ATOM      3  C   UNL     1      -0.483  -1.415  -7.925  1.00  0.00     0.116 C 
BRANCH   3   4
ATOM      4  N   UNL     1      -1.718  -2.028  -7.466  1.00  0.00    -0.355 N 
ATOM      5  C   UNL     1      -2.374  -2.022  -6.273  1.00  0.00     0.229 C 
ATOM      6  O   UNL     1      -3.453  -2.626  -6.253  1.00  0.00    -0.274 OA
ATOM      7  H   UNL     1      -2.174  -2.557  -8.160  1.00  0.00     0.163 HD
BRANCH   5   8
ATOM      8  C   UNL     1      -1.889  -1.248  -5.028  1.00  0.00     0.135 C 
ATOM      9  N   UNL     1       0.013  -0.841  -3.354  1.00  0.00    -0.329 N 
ATOM     10  C   UNL     1       0.500   0.195  -4.199  1.00  0.00     0.254 C 
ATOM     11  C   UNL     1      -0.805  -1.946  -4.058  1.00  0.00     0.059 C 
ATOM     12  O   UNL     1       1.637   0.658  -4.141  1.00  0.00    -0.269 OA
ATOM     13  C   UNL     1      -0.462   0.830  -5.108  1.00  0.00     0.044 A 
ATOM     14  C   UNL     1       0.249  -2.840  -4.770  1.00  0.00     0.030 C 
ATOM     15  C   UNL     1      -1.615  -2.866  -3.086  1.00  0.00     0.030 C 
ATOM     16  C   UNL     1      -0.178   2.104  -5.623  1.00  0.00     0.014 A 
ATOM     17  C   UNL     1      -1.658   0.201  -5.411  1.00  0.00    -0.020 A 
ATOM     18  C   UNL     1      -0.235  -4.167  -5.355  1.00  0.00     0.002 C 
ATOM     19  C   UNL     1      -2.157  -4.159  -3.711  1.00  0.00     0.002 C 
ATOM     20  C   UNL     1      -1.115   2.773  -6.408  1.00  0.00     0.001 A 
ATOM     21  C   UNL     1      -2.624   0.911  -6.154  1.00  0.00     0.005 A 
ATOM     22  C   UNL     1      -1.068  -4.983  -4.385  1.00  0.00     0.000 C 
ATOM     23  C   UNL     1      -2.349   2.183  -6.655  1.00  0.00     0.000 A 
BRANCH   9  24
ATOM     24  C   UNL     1       0.838  -0.923  -2.099  1.00  0.00     0.082 C 
ATOM     25  C   UNL     1       0.614   0.378  -1.286  1.00  0.00     0.031 C 
BRANCH  24  26
ATOM     26  C   UNL     1       0.839  -2.138  -1.147  1.00  0.00     0.021 C 
ATOM     27  C   UNL     1      -0.152  -2.084   0.014  1.00  0.00     0.006 C 
ENDBRANCH  24  26
ENDBRANCH   9  24
ENDBRANCH   5   8
ENDBRANCH   3   4
ENDBRANCH   2   3
ENDBRANCH   1   2
BRANCH   1  28
ATOM     28  C   UNL     1       0.017  -2.899 -10.816  1.00  0.00     0.002 C 
BRANCH  28  29
ATOM     29  C   UNL     1       1.313  -2.264 -11.319  1.00  0.00     0.021 C 
BRANCH  29  30
ATOM     30  C   UNL     1       2.565  -3.103 -11.093  1.00  0.00     0.116 C 
BRANCH  30  31
ATOM     31  N   UNL     1       2.583  -4.307 -11.910  1.00  0.00    -0.352 N 
ATOM     32  C   UNL     1       3.574  -4.724 -12.766  1.00  0.00     0.251 C 
ATOM     33  H   UNL     1       1.793  -4.891 -11.841  1.00  0.00     0.163 HD
ATOM     34  O   UNL     1       3.410  -5.671 -13.525  1.00  0.00    -0.269 OA
BRANCH  32  35
ATOM     35  C   UNL     1       4.843  -3.972 -12.768  1.00  0.00     0.039 A 
ATOM     36  C   UNL     1       5.525  -3.773 -11.565  1.00  0.00     0.014 A 
ATOM     37  C   UNL     1       5.282  -3.374 -13.950  1.00  0.00     0.014 A 
ATOM     38  C   UNL     1       6.564  -2.854 -11.517  1.00  0.00     0.010 A 
ATOM     39  C   UNL     1       6.379  -2.511 -13.911  1.00  0.00     0.010 A 
ATOM     40  C   UNL     1       7.001  -2.211 -12.688  1.00  0.00    -0.014 A 
BRANCH  40  41
ATOM     41  C   UNL     1       8.114  -1.232 -12.608  1.00  0.00     0.031 A 
ATOM     42  C   UNL     1       7.890   0.223 -12.913  1.00  0.00     0.074 A 
ATOM     43  C   UNL     1       9.329  -1.661 -12.215  1.00  0.00     0.049 A 
ATOM     44  N   UNL     1       8.751   1.211 -12.899  1.00  0.00    -0.248 NA
ATOM     45  C   UNL     1       6.526   0.626 -13.288  1.00  0.00     0.031 C 
ATOM     46  C   UNL     1       9.661  -3.047 -11.884  1.00  0.00     0.029 A 
ATOM     47  N   UNL     1      10.499  -0.977 -12.006  1.00  0.00    -0.354 N 
ATOM     48  C   UNL     1       8.041   2.341 -13.282  1.00  0.00     0.074 A 
ATOM     49  C   UNL     1       6.683   1.917 -13.546  1.00  0.00     0.031 C 
ATOM     50  C   UNL     1      10.934  -3.105 -11.467  1.00  0.00     0.029 A 
ATOM     51  C   UNL     1      11.525  -1.774 -11.564  1.00  0.00     0.049 A 
ATOM     52  H   UNL     1      10.594  -0.009 -12.158  1.00  0.00     0.167 HD
ATOM     53  C   UNL     1       8.484   3.616 -13.393  1.00  0.00     0.037 A 
ATOM     54  C   UNL     1      12.806  -1.474 -11.284  1.00  0.00     0.037 A 
ATOM     55  C   UNL     1       9.830   4.037 -13.098  1.00  0.00     0.049 A 
ATOM     56  C   UNL     1      13.278  -0.058 -11.445  1.00  0.00     0.074 A 
ATOM     57  C   UNL     1      10.363   5.314 -13.143  1.00  0.00     0.029 A 
ATOM     58  N   UNL     1      10.855   3.190 -12.702  1.00  0.00    -0.354 N 
ATOM     59  N   UNL     1      12.595   1.002 -11.801  1.00  0.00    -0.248 NA
ATOM     60  C   UNL     1      14.698   0.201 -11.177  1.00  0.00     0.031 C 
ATOM     61  C   UNL     1      11.721   5.233 -12.819  1.00  0.00     0.029 A 
ATOM     62  C   UNL     1      12.024   3.913 -12.525  1.00  0.00     0.049 A 
ATOM     63  H   UNL     1      10.766   2.219 -12.567  1.00  0.00     0.167 HD
ATOM     64  C   UNL     1      13.498   2.055 -11.797  1.00  0.00     0.074 A 
ATOM     65  C   UNL     1      14.774   1.510 -11.379  1.00  0.00     0.031 C 
ATOM     66  C   UNL     1      13.289   3.354 -12.118  1.00  0.00     0.037 A 
BRANCH  53  67
ATOM     67  C   UNL     1       7.513   4.661 -13.862  1.00  0.00     0.064 A 
ATOM     68  C   UNL     1       6.482   5.133 -13.037  1.00  0.00     0.173 A 
ATOM     69  C   UNL     1       7.662   5.249 -15.128  1.00  0.00     0.173 A 
ATOM     70  F   UNL     1       6.291   4.598 -11.823  1.00  0.00    -0.203 F 
ATOM     71  C   UNL     1       5.627   6.145 -13.468  1.00  0.00     0.198 A 
ATOM     72  C   UNL     1       6.822   6.278 -15.545  1.00  0.00     0.198 A 
ATOM     73  F   UNL     1       8.636   4.839 -15.954  1.00  0.00    -0.203 F 
ATOM     74  F   UNL     1       4.629   6.559 -12.675  1.00  0.00    -0.200 F 
ATOM     75  C   UNL     1       5.803   6.723 -14.717  1.00  0.00     0.200 A 
ATOM     76  F   UNL     1       7.001   6.844 -16.747  1.00  0.00    -0.200 F 
ATOM     77  F   UNL     1       4.988   7.706 -15.123  1.00  0.00    -0.200 F 
ENDBRANCH  53  67
BRANCH  54  78
ATOM     78  C   UNL     1      13.720  -2.550 -10.824  1.00  0.00     0.064 A 
ATOM     79  C   UNL     1      14.171  -2.593  -9.499  1.00  0.00     0.173 A 
ATOM     80  C   UNL     1      14.115  -3.585 -11.685  1.00  0.00     0.173 A 
ATOM     81  F   UNL     1      13.834  -1.615  -8.645  1.00  0.00    -0.203 F 
ATOM     82  C   UNL     1      14.982  -3.633  -9.051  1.00  0.00     0.198 A 
ATOM     83  C   UNL     1      14.903  -4.638 -11.229  1.00  0.00     0.198 A 
ATOM     84  F   UNL     1      13.704  -3.590 -12.961  1.00  0.00    -0.203 F 
ATOM     85  F   UNL     1      15.419  -3.640  -7.784  1.00  0.00    -0.200 F 
ATOM     86  C   UNL     1      15.338  -4.660  -9.912  1.00  0.00     0.200 A 
ATOM     87  F   UNL     1      15.228  -5.637 -12.060  1.00  0.00    -0.200 F 
ATOM     88  F   UNL     1      16.101  -5.671  -9.475  1.00  0.00    -0.200 F 
ENDBRANCH  54  78
BRANCH  66  89
ATOM     89  C   UNL     1      14.463   4.283 -12.033  1.00  0.00     0.064 A 
ATOM     90  C   UNL     1      15.485   4.254 -12.992  1.00  0.00     0.173 A 
ATOM     91  C   UNL     1      14.534   5.253 -11.022  1.00  0.00     0.173 A 
ATOM     92  F   UNL     1      15.468   3.334 -13.969  1.00  0.00    -0.203 F 
ATOM     93  C   UNL     1      16.544   5.156 -12.935  1.00  0.00     0.198 A 
ATOM     94  C   UNL     1      15.581   6.170 -10.984  1.00  0.00     0.198 A 
ATOM     95  F   UNL     1      13.577   5.325 -10.085  1.00  0.00    -0.203 F 
ATOM     96  F   UNL     1      17.527   5.089 -13.843  1.00  0.00    -0.200 F 
ATOM     97  C   UNL     1      16.586   6.118 -11.938  1.00  0.00     0.200 A 
ATOM     98  F   UNL     1      15.613   7.108 -10.027  1.00  0.00    -0.200 F 
ATOM     99  F   UNL     1      17.599   6.995 -11.893  1.00  0.00    -0.200 F 
ENDBRANCH  66  89
ENDBRANCH  40  41
ENDBRANCH  32  35
ENDBRANCH  30  31
ENDBRANCH  29  30
ENDBRANCH  28  29
ENDBRANCH   1  28
TORSDOF 15
