REMARK SMILES Cc1ccc(C(=O)N[C@@H](C(=O)NCCCCCCNC(=O)c2ccc(-c3c4nc(c(-c5c(F)c(F)c(F)c(F)c5F)c5ccc([nH]5)c(-c5c(F)c(F)c(F)c(F)c5F)c5nc(c(-c6c(F)c(F)c(F)c(F)c6F)c6ccc3[nH]6)C=C5)C=C4)cc2)[C@@H](C)O)c(F)c1
REMARK SMILES IDX 15 1 14 2 13 3 12 4 10 5 11 6 9 8 8 9 6 10 7 11 5 13 1 14
REMARK SMILES IDX 2 15 3 16 90 17 4 18 88 19 89 20 85 21 86 22 87 23 16 25
REMARK SMILES IDX 17 26 18 27 19 28 20 29 21 31 22 32 23 33 84 34 24 35 83 36
REMARK SMILES IDX 25 37 26 38 27 39 77 40 28 41 82 42 76 43 78 44 29 45 81 46
REMARK SMILES IDX 75 47 74 48 30 50 62 51 42 52 61 53 43 54 46 55 60 56 79 57
REMARK SMILES IDX 44 58 45 59 59 61 80 62 47 63 31 64 32 65 40 66 33 67 34 68
REMARK SMILES IDX 38 69 41 70 35 71 36 72 39 73 37 74 63 75 64 76 72 77 65 78
REMARK SMILES IDX 66 79 70 80 73 81 67 82 68 83 71 84 69 85 48 86 49 87 57 88
REMARK SMILES IDX 50 89 51 90 55 91 58 92 52 93 53 94 56 95 54 96
REMARK H PARENT 12 7 8 12 87 24 19 30 78 49 46 60
REMARK Flexibility Score: inf
ROOT
ATOM      1  C   UNL     1      -1.741  -3.470   5.186  1.00  0.00     0.002 C 
ENDROOT
BRANCH   1   2
ATOM      2  C   UNL     1      -1.995  -2.926   3.779  1.00  0.00     0.021 C 
BRANCH   2   3
ATOM      3  C   UNL     1      -0.862  -3.264   2.818  1.00  0.00     0.116 C 
BRANCH   3   4
ATOM      4  N   UNL     1      -0.889  -4.672   2.503  1.00  0.00    -0.354 N 
ATOM      5  C   UNL     1      -1.093  -5.268   1.292  1.00  0.00     0.245 C 
ATOM      6  O   UNL     1      -1.279  -6.484   1.280  1.00  0.00    -0.273 OA
ATOM      7  H   UNL     1      -0.740  -5.283   3.261  1.00  0.00     0.163 HD
BRANCH   5   8
ATOM      8  C   UNL     1      -0.966  -4.398   0.021  1.00  0.00     0.200 C 
BRANCH   8   9
ATOM      9  N   UNL     1      -2.039  -3.395  -0.074  1.00  0.00    -0.338 N 
ATOM     10  C   UNL     1      -2.079  -2.034  -0.282  1.00  0.00     0.254 C 
ATOM     11  O   UNL     1      -3.202  -1.542  -0.377  1.00  0.00    -0.269 OA
ATOM     12  H   UNL     1      -2.936  -3.787   0.037  1.00  0.00     0.164 HD
BRANCH  10  13
ATOM     13  C   UNL     1      -0.875  -1.143  -0.315  1.00  0.00     0.075 A 
ATOM     14  C   UNL     1       2.523   1.540   0.038  1.00  0.00     0.044 C 
ATOM     15  C   UNL     1       1.349   0.617  -0.100  1.00  0.00    -0.048 A 
ATOM     16  C   UNL     1       1.523  -0.711  -0.488  1.00  0.00     0.004 A 
ATOM     17  C   UNL     1       0.050   1.083   0.108  1.00  0.00     0.043 A 
ATOM     18  C   UNL     1       0.421  -1.566  -0.629  1.00  0.00     0.017 A 
ATOM     19  C   UNL     1      -1.040   0.210   0.018  1.00  0.00     0.136 A 
ATOM     20  F   UNL     1      -2.248   0.724   0.291  1.00  0.00    -0.206 F 
ENDBRANCH  10  13
ENDBRANCH   8   9
BRANCH   8  21
ATOM     21  C   UNL     1      -0.916  -5.293  -1.242  1.00  0.00     0.143 C 
ATOM     22  C   UNL     1      -1.161  -4.531  -2.543  1.00  0.00     0.041 C 
BRANCH  21  23
ATOM     23  O   UNL     1       0.369  -5.919  -1.355  1.00  0.00    -0.391 OA
ATOM     24  H   UNL     1       1.051  -5.238  -1.470  1.00  0.00     0.211 HD
ENDBRANCH  21  23
ENDBRANCH   8  21
ENDBRANCH   5   8
ENDBRANCH   3   4
ENDBRANCH   2   3
ENDBRANCH   1   2
BRANCH   1  25
ATOM     25  C   UNL     1      -0.353  -3.132   5.761  1.00  0.00     0.002 C 
BRANCH  25  26
ATOM     26  C   UNL     1       0.081  -1.661   5.634  1.00  0.00     0.021 C 
BRANCH  26  27
ATOM     27  C   UNL     1      -0.778  -0.757   6.482  1.00  0.00     0.116 C 
BRANCH  27  28
ATOM     28  N   UNL     1      -0.492  -0.940   7.903  1.00  0.00    -0.352 N 
ATOM     29  C   UNL     1      -0.865  -0.137   8.961  1.00  0.00     0.251 C 
ATOM     30  H   UNL     1       0.036  -1.739   8.136  1.00  0.00     0.163 HD
ATOM     31  O   UNL     1      -0.254  -0.148  10.013  1.00  0.00    -0.269 OA
BRANCH  29  32
ATOM     32  C   UNL     1      -2.065   0.699   8.797  1.00  0.00     0.039 A 
ATOM     33  C   UNL     1      -2.275   1.867   9.538  1.00  0.00     0.014 A 
ATOM     34  C   UNL     1      -3.048   0.218   7.943  1.00  0.00     0.014 A 
ATOM     35  C   UNL     1      -3.501   2.514   9.426  1.00  0.00     0.010 A 
ATOM     36  C   UNL     1      -4.101   0.995   7.611  1.00  0.00     0.010 A 
ATOM     37  C   UNL     1      -4.400   2.040   8.470  1.00  0.00    -0.014 A 
BRANCH  37  38
ATOM     38  C   UNL     1      -5.767   2.470   8.300  1.00  0.00     0.031 A 
ATOM     39  C   UNL     1      -5.989   3.793   7.741  1.00  0.00     0.074 A 
ATOM     40  C   UNL     1      -6.691   1.497   8.470  1.00  0.00     0.049 A 
ATOM     41  N   UNL     1      -7.004   4.532   7.992  1.00  0.00    -0.248 NA
ATOM     42  C   UNL     1      -5.006   4.427   6.866  1.00  0.00     0.031 C 
ATOM     43  C   UNL     1      -8.097   1.429   8.122  1.00  0.00     0.029 A 
ATOM     44  N   UNL     1      -6.468   0.289   9.163  1.00  0.00    -0.354 N 
ATOM     45  C   UNL     1      -7.008   5.509   7.021  1.00  0.00     0.074 A 
ATOM     46  C   UNL     1      -5.659   5.537   6.513  1.00  0.00     0.031 C 
ATOM     47  C   UNL     1      -8.674   0.486   8.898  1.00  0.00     0.029 A 
ATOM     48  C   UNL     1      -7.666  -0.003   9.834  1.00  0.00     0.049 A 
ATOM     49  H   UNL     1      -5.639  -0.242   9.175  1.00  0.00     0.167 HD
ATOM     50  C   UNL     1      -8.217   5.985   6.599  1.00  0.00     0.037 A 
ATOM     51  C   UNL     1      -7.649   0.179  11.191  1.00  0.00     0.037 A 
ATOM     52  C   UNL     1      -9.294   5.293   7.329  1.00  0.00     0.049 A 
ATOM     53  C   UNL     1      -8.361   1.452  11.594  1.00  0.00     0.074 A 
ATOM     54  C   UNL     1     -10.124   4.226   7.021  1.00  0.00     0.029 A 
ATOM     55  N   UNL     1      -9.345   5.416   8.707  1.00  0.00    -0.354 N 
ATOM     56  N   UNL     1      -8.791   2.344  10.742  1.00  0.00    -0.248 NA
ATOM     57  C   UNL     1      -8.637   1.831  12.976  1.00  0.00     0.031 C 
ATOM     58  C   UNL     1     -10.609   3.672   8.250  1.00  0.00     0.029 A 
ATOM     59  C   UNL     1     -10.078   4.404   9.298  1.00  0.00     0.049 A 
ATOM     60  H   UNL     1      -8.909   6.141   9.209  1.00  0.00     0.167 HD
ATOM     61  C   UNL     1      -9.451   3.337  11.398  1.00  0.00     0.074 A 
ATOM     62  C   UNL     1      -9.280   3.000  12.804  1.00  0.00     0.031 C 
ATOM     63  C   UNL     1     -10.118   4.341  10.753  1.00  0.00     0.037 A 
BRANCH  50  64
ATOM     64  C   UNL     1      -8.454   6.808   5.349  1.00  0.00     0.064 A 
ATOM     65  C   UNL     1      -9.754   6.903   4.808  1.00  0.00     0.173 A 
ATOM     66  C   UNL     1      -7.472   7.512   4.622  1.00  0.00     0.173 A 
ATOM     67  F   UNL     1     -10.814   6.385   5.442  1.00  0.00    -0.203 F 
ATOM     68  C   UNL     1     -10.025   7.554   3.600  1.00  0.00     0.198 A 
ATOM     69  C   UNL     1      -7.734   8.131   3.394  1.00  0.00     0.198 A 
ATOM     70  F   UNL     1      -6.236   7.697   5.093  1.00  0.00    -0.203 F 
ATOM     71  F   UNL     1     -11.284   7.603   3.142  1.00  0.00    -0.200 F 
ATOM     72  C   UNL     1      -9.011   8.145   2.878  1.00  0.00     0.200 A 
ATOM     73  F   UNL     1      -6.737   8.730   2.727  1.00  0.00    -0.200 F 
ATOM     74  F   UNL     1      -9.266   8.753   1.713  1.00  0.00    -0.200 F 
ENDBRANCH  50  64
BRANCH  51  75
ATOM     75  C   UNL     1      -6.388  -0.393  11.780  1.00  0.00     0.064 A 
ATOM     76  C   UNL     1      -6.160  -1.770  11.550  1.00  0.00     0.173 A 
ATOM     77  C   UNL     1      -5.265   0.397  12.061  1.00  0.00     0.173 A 
ATOM     78  F   UNL     1      -7.199  -2.588  11.314  1.00  0.00    -0.203 F 
ATOM     79  C   UNL     1      -4.873  -2.278  11.385  1.00  0.00     0.198 A 
ATOM     80  C   UNL     1      -3.973  -0.134  11.950  1.00  0.00     0.198 A 
ATOM     81  F   UNL     1      -5.403   1.705  12.321  1.00  0.00    -0.203 F 
ATOM     82  F   UNL     1      -4.701  -3.544  10.976  1.00  0.00    -0.200 F 
ATOM     83  C   UNL     1      -3.780  -1.448  11.545  1.00  0.00     0.200 A 
ATOM     84  F   UNL     1      -2.908   0.654  12.158  1.00  0.00    -0.200 F 
ATOM     85  F   UNL     1      -2.551  -1.907  11.269  1.00  0.00    -0.200 F 
ENDBRANCH  51  75
BRANCH  63  86
ATOM     86  C   UNL     1     -10.911   5.368  11.497  1.00  0.00     0.064 A 
ATOM     87  C   UNL     1     -11.787   5.013  12.532  1.00  0.00     0.173 A 
ATOM     88  C   UNL     1     -10.898   6.728  11.125  1.00  0.00     0.173 A 
ATOM     89  F   UNL     1     -11.948   3.729  12.889  1.00  0.00    -0.203 F 
ATOM     90  C   UNL     1     -12.526   5.973  13.218  1.00  0.00     0.198 A 
ATOM     91  C   UNL     1     -11.695   7.671  11.760  1.00  0.00     0.198 A 
ATOM     92  F   UNL     1     -10.091   7.191  10.161  1.00  0.00    -0.203 F 
ATOM     93  F   UNL     1     -13.278   5.607  14.265  1.00  0.00    -0.200 F 
ATOM     94  C   UNL     1     -12.486   7.300  12.827  1.00  0.00     0.200 A 
ATOM     95  F   UNL     1     -11.678   8.944  11.339  1.00  0.00    -0.200 F 
ATOM     96  F   UNL     1     -13.205   8.221  13.481  1.00  0.00    -0.200 F 
ENDBRANCH  63  86
ENDBRANCH  37  38
ENDBRANCH  29  32
ENDBRANCH  27  28
ENDBRANCH  26  27
ENDBRANCH  25  26
ENDBRANCH   1  25
TORSDOF 17
