REMARK SMILES CN1C(=O)C[C@@H](C(=O)NCCCCCCNC(=O)c2ccc(-c3c4nc(c(-c5c(F)c(F)c(F)c(F)c5F)c5ccc([nH]5)c(-c5c(F)c(F)c(F)c(F)c5F)c5nc(c(-c6c(F)c(F)c(F)c(F)c6F)c6ccc3[nH]6)C=C5)C=C4)cc2)C12CCN(c1ccc(Cl)cn1)CC2
REMARK SMILES IDX 13 1 12 2 11 3 10 4 9 5 7 6 8 7 6 9 1 10 2 11 3 12 82 13
REMARK SMILES IDX 4 14 5 15 83 16 94 17 84 18 93 19 85 20 86 21 87 22 92 23
REMARK SMILES IDX 88 24 91 25 89 26 90 27 14 28 15 29 16 30 17 31 18 33 19 34
REMARK SMILES IDX 20 35 81 36 21 37 80 38 22 39 23 40 24 41 74 42 25 43 79 44
REMARK SMILES IDX 73 45 75 46 26 47 78 48 72 49 71 50 27 52 59 53 39 54 58 55
REMARK SMILES IDX 40 56 43 57 57 58 76 59 41 60 42 61 56 63 77 64 44 65 28 66
REMARK SMILES IDX 29 67 37 68 30 69 31 70 35 71 38 72 32 73 33 74 36 75 34 76
REMARK SMILES IDX 60 77 61 78 69 79 62 80 63 81 67 82 70 83 64 84 65 85 68 86
REMARK SMILES IDX 66 87 45 88 46 89 54 90 47 91 48 92 52 93 55 94 49 95 50 96
REMARK SMILES IDX 53 97 51 98
REMARK H PARENT 9 8 16 32 75 51 43 62
REMARK Flexibility Score: inf
ROOT
ATOM      1  C   UNL     1      -2.144   1.383   5.143  1.00  0.00     0.002 C 
ENDROOT
BRANCH   1   2
ATOM      2  C   UNL     1      -2.616   1.379   3.689  1.00  0.00     0.002 C 
BRANCH   2   3
ATOM      3  C   UNL     1      -1.588   0.847   2.692  1.00  0.00     0.021 C 
BRANCH   3   4
ATOM      4  C   UNL     1      -1.155  -0.600   2.935  1.00  0.00     0.116 C 
BRANCH   4   5
ATOM      5  N   UNL     1      -2.183  -1.560   2.590  1.00  0.00    -0.356 N 
ATOM      6  C   UNL     1      -2.236  -2.579   1.698  1.00  0.00     0.226 C 
ATOM      7  O   UNL     1      -3.294  -3.219   1.673  1.00  0.00    -0.275 OA
ATOM      8  H   UNL     1      -3.013  -1.450   3.108  1.00  0.00     0.163 HD
BRANCH   6   9
ATOM      9  C   UNL     1      -1.115  -2.973   0.733  1.00  0.00     0.113 C 
ATOM     10  C   UNL     1       1.244  -0.238  -0.223  1.00  0.00     0.147 C 
ATOM     11  N   UNL     1       0.603  -1.472   0.192  1.00  0.00    -0.339 N 
ATOM     12  C   UNL     1       1.141  -2.298   1.167  1.00  0.00     0.223 C 
ATOM     13  C   UNL     1      -0.673  -1.964  -0.356  1.00  0.00     0.058 C 
ATOM     14  O   UNL     1       2.204  -2.139   1.750  1.00  0.00    -0.275 OA
ATOM     15  C   UNL     1       0.167  -3.406   1.449  1.00  0.00     0.116 C 
ATOM     16  C   UNL     1      -1.683  -0.830  -0.627  1.00  0.00     0.051 C 
ATOM     17  C   UNL     1      -0.371  -2.710  -1.697  1.00  0.00     0.051 C 
ATOM     18  C   UNL     1      -2.918  -1.315  -1.364  1.00  0.00     0.120 C 
ATOM     19  C   UNL     1      -1.630  -3.089  -2.495  1.00  0.00     0.120 C 
ATOM     20  N   UNL     1      -2.454  -1.901  -2.600  1.00  0.00    -0.356 N 
BRANCH  20  21
ATOM     21  C   UNL     1      -2.968  -1.485  -3.803  1.00  0.00     0.128 A 
ATOM     22  C   UNL     1      -3.016  -0.120  -4.106  1.00  0.00     0.048 A 
ATOM     23  N   UNL     1      -3.406  -2.407  -4.683  1.00  0.00    -0.238 NA
ATOM     24  C   UNL     1      -3.542   0.314  -5.320  1.00  0.00     0.026 A 
ATOM     25  C   UNL     1      -3.947  -1.964  -5.846  1.00  0.00     0.134 A 
ATOM     26  C   UNL     1      -4.032  -0.629  -6.204  1.00  0.00     0.059 A 
ATOM     27  Cl  UNL     1      -4.718  -0.149  -7.700  1.00  0.00    -0.083 Cl
ENDBRANCH  20  21
ENDBRANCH   6   9
ENDBRANCH   4   5
ENDBRANCH   3   4
ENDBRANCH   2   3
ENDBRANCH   1   2
BRANCH   1  28
ATOM     28  C   UNL     1      -0.778   2.036   5.371  1.00  0.00     0.021 C 
BRANCH  28  29
ATOM     29  C   UNL     1      -0.655   3.457   4.831  1.00  0.00     0.116 C 
BRANCH  29  30
ATOM     30  N   UNL     1      -1.609   4.358   5.455  1.00  0.00    -0.352 N 
ATOM     31  C   UNL     1      -1.373   5.513   6.154  1.00  0.00     0.251 C 
ATOM     32  H   UNL     1      -2.555   4.104   5.364  1.00  0.00     0.163 HD
ATOM     33  O   UNL     1      -2.267   6.039   6.807  1.00  0.00    -0.269 OA
BRANCH  31  34
ATOM     34  C   UNL     1      -0.024   6.115   6.126  1.00  0.00     0.039 A 
ATOM     35  C   UNL     1       0.550   6.539   7.325  1.00  0.00     0.014 A 
ATOM     36  C   UNL     1       0.666   6.261   4.919  1.00  0.00     0.014 A 
ATOM     37  C   UNL     1       1.842   7.066   7.321  1.00  0.00     0.010 A 
ATOM     38  C   UNL     1       1.981   6.716   4.926  1.00  0.00     0.010 A 
ATOM     39  C   UNL     1       2.579   7.130   6.126  1.00  0.00    -0.014 A 
BRANCH  39  40
ATOM     40  C   UNL     1       3.973   7.642   6.113  1.00  0.00     0.031 A 
ATOM     41  C   UNL     1       4.306   8.899   5.358  1.00  0.00     0.074 A 
ATOM     42  C   UNL     1       4.942   6.954   6.747  1.00  0.00     0.049 A 
ATOM     43  N   UNL     1       5.470   9.470   5.171  1.00  0.00    -0.248 NA
ATOM     44  C   UNL     1       3.186   9.598   4.706  1.00  0.00     0.031 C 
ATOM     45  C   UNL     1       4.749   5.703   7.484  1.00  0.00     0.029 A 
ATOM     46  N   UNL     1       6.287   7.204   6.867  1.00  0.00    -0.354 N 
ATOM     47  C   UNL     1       5.220  10.590   4.390  1.00  0.00     0.074 A 
ATOM     48  C   UNL     1       3.808  10.584   4.077  1.00  0.00     0.031 C 
ATOM     49  C   UNL     1       5.925   5.307   7.996  1.00  0.00     0.029 A 
ATOM     50  C   UNL     1       6.963   6.249   7.588  1.00  0.00     0.049 A 
ATOM     51  H   UNL     1       6.725   7.992   6.473  1.00  0.00     0.167 HD
ATOM     52  C   UNL     1       6.084  11.556   3.997  1.00  0.00     0.037 A 
ATOM     53  C   UNL     1       8.274   6.142   7.875  1.00  0.00     0.037 A 
ATOM     54  C   UNL     1       7.487  11.565   4.316  1.00  0.00     0.049 A 
ATOM     55  C   UNL     1       9.219   7.207   7.381  1.00  0.00     0.074 A 
ATOM     56  C   UNL     1       8.445  12.504   3.975  1.00  0.00     0.029 A 
ATOM     57  N   UNL     1       8.134  10.585   5.056  1.00  0.00    -0.354 N 
ATOM     58  N   UNL     1       8.961   8.290   6.688  1.00  0.00    -0.248 NA
ATOM     59  C   UNL     1      10.640   7.039   7.718  1.00  0.00     0.031 C 
ATOM     60  C   UNL     1       9.678  12.073   4.473  1.00  0.00     0.029 A 
ATOM     61  C   UNL     1       9.480  10.893   5.171  1.00  0.00     0.049 A 
ATOM     62  H   UNL     1       7.700   9.790   5.441  1.00  0.00     0.167 HD
ATOM     63  C   UNL     1      10.175   8.948   6.541  1.00  0.00     0.074 A 
ATOM     64  C   UNL     1      11.167   8.153   7.233  1.00  0.00     0.031 C 
ATOM     65  C   UNL     1      10.447  10.103   5.887  1.00  0.00     0.037 A 
BRANCH  52  66
ATOM     66  C   UNL     1       5.533  12.700   3.196  1.00  0.00     0.064 A 
ATOM     67  C   UNL     1       4.689  13.658   3.779  1.00  0.00     0.173 A 
ATOM     68  C   UNL     1       5.898  12.879   1.853  1.00  0.00     0.173 A 
ATOM     69  F   UNL     1       4.300  13.526   5.056  1.00  0.00    -0.203 F 
ATOM     70  C   UNL     1       4.215  14.740   3.043  1.00  0.00     0.198 A 
ATOM     71  C   UNL     1       5.447  13.980   1.129  1.00  0.00     0.198 A 
ATOM     72  F   UNL     1       6.707  11.996   1.248  1.00  0.00    -0.203 F 
ATOM     73  F   UNL     1       3.377  15.619   3.611  1.00  0.00    -0.200 F 
ATOM     74  C   UNL     1       4.603  14.906   1.722  1.00  0.00     0.200 A 
ATOM     75  F   UNL     1       5.834  14.147  -0.143  1.00  0.00    -0.200 F 
ATOM     76  F   UNL     1       4.159  15.957   1.020  1.00  0.00    -0.200 F 
ENDBRANCH  52  66
BRANCH  53  77
ATOM     77  C   UNL     1       8.784   4.991   8.668  1.00  0.00     0.064 A 
ATOM     78  C   UNL     1       9.353   5.183   9.936  1.00  0.00     0.173 A 
ATOM     79  C   UNL     1       8.768   3.686   8.155  1.00  0.00     0.173 A 
ATOM     80  F   UNL     1       9.411   6.415  10.464  1.00  0.00    -0.203 F 
ATOM     81  C   UNL     1       9.926   4.124  10.638  1.00  0.00     0.198 A 
ATOM     82  C   UNL     1       9.308   2.621   8.874  1.00  0.00     0.198 A 
ATOM     83  F   UNL     1       8.231   3.443   6.951  1.00  0.00    -0.203 F 
ATOM     84  F   UNL     1      10.530   4.351  11.812  1.00  0.00    -0.200 F 
ATOM     85  C   UNL     1       9.901   2.844  10.107  1.00  0.00     0.200 A 
ATOM     86  F   UNL     1       9.267   1.383   8.365  1.00  0.00    -0.200 F 
ATOM     87  F   UNL     1      10.462   1.828  10.777  1.00  0.00    -0.200 F 
ENDBRANCH  53  77
BRANCH  65  88
ATOM     88  C   UNL     1      11.861  10.608   5.939  1.00  0.00     0.064 A 
ATOM     89  C   UNL     1      12.902   9.964   5.256  1.00  0.00     0.173 A 
ATOM     90  C   UNL     1      12.169  11.774   6.657  1.00  0.00     0.173 A 
ATOM     91  F   UNL     1      12.663   8.838   4.567  1.00  0.00    -0.203 F 
ATOM     92  C   UNL     1      14.206  10.450   5.316  1.00  0.00     0.198 A 
ATOM     93  C   UNL     1      13.466  12.277   6.685  1.00  0.00     0.198 A 
ATOM     94  F   UNL     1      11.208  12.434   7.322  1.00  0.00    -0.203 F 
ATOM     95  F   UNL     1      15.194   9.786   4.701  1.00  0.00    -0.200 F 
ATOM     96  C   UNL     1      14.485  11.610   6.023  1.00  0.00     0.200 A 
ATOM     97  F   UNL     1      13.731  13.407   7.355  1.00  0.00    -0.200 F 
ATOM     98  F   UNL     1      15.739  12.081   6.072  1.00  0.00    -0.200 F 
ENDBRANCH  65  88
ENDBRANCH  39  40
ENDBRANCH  31  34
ENDBRANCH  29  30
ENDBRANCH  28  29
ENDBRANCH   1  28
TORSDOF 14
