REMARK SMILES C[C@@H](NC(=O)/C(=C/c1ccc(Cl)cc1)NC(=O)c1ccc(C(C)(C)C)cc1)C(=O)NCCCCCCNC(=O)c1ccc(-c2c3nc(c(-c4c(F)c(F)c(F)c(F)c4F)c4ccc([nH]4)c(-c4c(F)c(F)c(F)c(F)c4F)c4nc(c(-c5c(F)c(F)c(F)c(F)c5F)c5ccc2[nH]5)C=C4)C=C3)cc1
REMARK SMILES IDX 32 1 31 2 30 3 28 4 29 5 2 7 1 8 3 9 4 10 5 12 6 13 7 14
REMARK SMILES IDX 15 15 16 16 17 18 18 19 19 20 27 21 20 22 26 23 21 24 22 25
REMARK SMILES IDX 23 26 24 27 25 28 8 29 9 30 14 31 10 32 13 33 11 34 12 35
REMARK SMILES IDX 33 36 34 37 35 38 36 39 37 40 38 41 39 43 40 44 41 45 102 46
REMARK SMILES IDX 42 47 101 48 43 49 44 50 45 51 95 52 46 53 100 54 94 55
REMARK SMILES IDX 96 56 47 57 99 58 93 59 92 60 48 62 80 63 60 64 79 65 61 66
REMARK SMILES IDX 64 67 78 68 97 69 62 70 63 71 77 73 98 74 65 75 49 76 50 77
REMARK SMILES IDX 58 78 51 79 52 80 56 81 59 82 53 83 54 84 57 85 55 86 81 87
REMARK SMILES IDX 82 88 90 89 83 90 84 91 88 92 91 93 85 94 86 95 89 96 87 97
REMARK SMILES IDX 66 98 67 99 75 100 68 101 69 102 73 103 76 104 70 105 71 106
REMARK SMILES IDX 74 107 72 108
REMARK H PARENT 30 6 3 11 15 17 37 42 96 61 64 72
REMARK Flexibility Score: inf
ROOT
ATOM      1  C   UNL     1      -1.673  -1.908  -2.087  1.00  0.00     0.021 C 
ENDROOT
BRANCH   1   2
ATOM      2  C   UNL     1      -1.076  -0.535  -1.802  1.00  0.00     0.116 C 
BRANCH   2   3
ATOM      3  N   UNL     1      -1.412  -0.111  -0.460  1.00  0.00    -0.354 N 
ATOM      4  C   UNL     1      -0.789   0.793   0.338  1.00  0.00     0.242 C 
ATOM      5  O   UNL     1      -1.201   0.915   1.496  1.00  0.00    -0.273 OA
ATOM      6  H   UNL     1      -2.207  -0.541  -0.070  1.00  0.00     0.163 HD
BRANCH   4   7
ATOM      7  C   UNL     1       0.467   1.552  -0.124  1.00  0.00     0.168 C 
ATOM      8  C   UNL     1       1.668   0.620   0.076  1.00  0.00     0.041 C 
BRANCH   7   9
ATOM      9  N   UNL     1       0.482   2.143  -1.475  1.00  0.00    -0.339 N 
ATOM     10  C   UNL     1      -0.247   3.255  -1.848  1.00  0.00     0.268 C 
ATOM     11  H   UNL     1       1.050   1.717  -2.157  1.00  0.00     0.164 HD
ATOM     12  O   UNL     1       0.336   4.283  -2.178  1.00  0.00    -0.268 OA
BRANCH  10  13
ATOM     13  C   UNL     1      -1.732   3.103  -2.030  1.00  0.00     0.107 C 
ATOM     14  C   UNL     1      -2.459   2.957  -0.904  1.00  0.00     0.040 C 
BRANCH  13  15
ATOM     15  N   UNL     1      -2.332   3.201  -3.270  1.00  0.00    -0.317 N 
ATOM     16  C   UNL     1      -1.887   3.336  -4.562  1.00  0.00     0.255 C 
ATOM     17  H   UNL     1      -3.314   3.166  -3.215  1.00  0.00     0.170 HD
ATOM     18  O   UNL     1      -2.712   3.469  -5.467  1.00  0.00    -0.269 OA
BRANCH  16  19
ATOM     19  C   UNL     1      -0.466   3.337  -4.920  1.00  0.00     0.040 A 
ATOM     20  C   UNL     1       0.075   4.505  -5.452  1.00  0.00     0.014 A 
ATOM     21  C   UNL     1       0.315   2.191  -4.795  1.00  0.00     0.014 A 
ATOM     22  C   UNL     1       1.435   4.557  -5.755  1.00  0.00     0.005 A 
ATOM     23  C   UNL     1       1.680   2.253  -5.094  1.00  0.00     0.005 A 
ATOM     24  C   UNL     1       2.277   3.449  -5.537  1.00  0.00    -0.043 A 
BRANCH  24  25
ATOM     25  C   UNL     1       3.793   3.588  -5.763  1.00  0.00    -0.013 C 
ATOM     26  C   UNL     1       4.076   3.773  -7.266  1.00  0.00     0.016 C 
ATOM     27  C   UNL     1       4.329   4.816  -4.989  1.00  0.00     0.016 C 
ATOM     28  C   UNL     1       4.603   2.368  -5.272  1.00  0.00     0.016 C 
ENDBRANCH  24  25
ENDBRANCH  16  19
ENDBRANCH  13  15
BRANCH  14  29
ATOM     29  C   UNL     1      -3.877   2.574  -0.721  1.00  0.00    -0.023 A 
ATOM     30  C   UNL     1      -4.612   1.837  -1.663  1.00  0.00     0.010 A 
ATOM     31  C   UNL     1      -4.470   2.811   0.528  1.00  0.00     0.010 A 
ATOM     32  C   UNL     1      -5.912   1.399  -1.392  1.00  0.00     0.021 A 
ATOM     33  C   UNL     1      -5.764   2.358   0.812  1.00  0.00     0.021 A 
ATOM     34  C   UNL     1      -6.482   1.659  -0.153  1.00  0.00     0.041 A 
ATOM     35  Cl  UNL     1      -8.066   1.089   0.195  1.00  0.00    -0.084 Cl
ENDBRANCH  14  29
ENDBRANCH  10  13
ENDBRANCH   7   9
ENDBRANCH   4   7
ENDBRANCH   2   3
ENDBRANCH   1   2
BRANCH   1  36
ATOM     36  C   UNL     1      -3.178  -1.865  -2.372  1.00  0.00     0.002 C 
BRANCH  36  37
ATOM     37  C   UNL     1      -3.554  -1.209  -3.705  1.00  0.00     0.002 C 
BRANCH  37  38
ATOM     38  C   UNL     1      -2.889  -1.808  -4.942  1.00  0.00     0.021 C 
BRANCH  38  39
ATOM     39  C   UNL     1      -2.999  -3.322  -5.058  1.00  0.00     0.116 C 
BRANCH  39  40
ATOM     40  N   UNL     1      -4.377  -3.781  -5.125  1.00  0.00    -0.352 N 
ATOM     41  C   UNL     1      -4.938  -4.684  -5.995  1.00  0.00     0.251 C 
ATOM     42  H   UNL     1      -4.989  -3.393  -4.458  1.00  0.00     0.163 HD
ATOM     43  O   UNL     1      -6.145  -4.870  -6.018  1.00  0.00    -0.269 OA
BRANCH  41  44
ATOM     44  C   UNL     1      -4.055  -5.405  -6.934  1.00  0.00     0.039 A 
ATOM     45  C   UNL     1      -4.365  -5.393  -8.295  1.00  0.00     0.014 A 
ATOM     46  C   UNL     1      -2.897  -6.037  -6.472  1.00  0.00     0.014 A 
ATOM     47  C   UNL     1      -3.472  -5.956  -9.206  1.00  0.00     0.010 A 
ATOM     48  C   UNL     1      -1.974  -6.531  -7.386  1.00  0.00     0.010 A 
ATOM     49  C   UNL     1      -2.251  -6.491  -8.762  1.00  0.00    -0.014 A 
BRANCH  49  50
ATOM     50  C   UNL     1      -1.240  -6.998  -9.721  1.00  0.00     0.031 A 
ATOM     51  C   UNL     1      -0.853  -8.448  -9.711  1.00  0.00     0.074 A 
ATOM     52  C   UNL     1      -0.612  -6.134 -10.541  1.00  0.00     0.049 A 
ATOM     53  N   UNL     1       0.067  -9.065 -10.408  1.00  0.00    -0.248 NA
ATOM     54  C   UNL     1      -1.577  -9.315  -8.768  1.00  0.00     0.031 C 
ATOM     55  C   UNL     1      -0.859  -4.693 -10.600  1.00  0.00     0.029 A 
ATOM     56  N   UNL     1       0.378  -6.340 -11.470  1.00  0.00    -0.354 N 
ATOM     57  C   UNL     1       0.039 -10.386  -9.981  1.00  0.00     0.074 A 
ATOM     58  C   UNL     1      -0.944 -10.469  -8.923  1.00  0.00     0.031 C 
ATOM     59  C   UNL     1      -0.051  -4.146 -11.521  1.00  0.00     0.029 A 
ATOM     60  C   UNL     1       0.795  -5.189 -12.092  1.00  0.00     0.049 A 
ATOM     61  H   UNL     1       0.752  -7.228 -11.671  1.00  0.00     0.167 HD
ATOM     62  C   UNL     1       0.752 -11.438 -10.448  1.00  0.00     0.037 A 
ATOM     63  C   UNL     1       1.762  -4.995 -13.009  1.00  0.00     0.037 A 
ATOM     64  C   UNL     1       1.718 -11.351 -11.512  1.00  0.00     0.049 A 
ATOM     65  C   UNL     1       2.545  -6.178 -13.510  1.00  0.00     0.074 A 
ATOM     66  C   UNL     1       2.445 -12.368 -12.104  1.00  0.00     0.029 A 
ATOM     67  N   UNL     1       2.097 -10.172 -12.138  1.00  0.00    -0.354 N 
ATOM     68  N   UNL     1       2.457  -7.437 -13.156  1.00  0.00    -0.248 NA
ATOM     69  C   UNL     1       3.557  -5.914 -14.542  1.00  0.00     0.031 C 
ATOM     70  C   UNL     1       3.301 -11.799 -13.053  1.00  0.00     0.029 A 
ATOM     71  C   UNL     1       3.070 -10.433 -13.090  1.00  0.00     0.049 A 
ATOM     72  H   UNL     1       1.729  -9.281 -11.935  1.00  0.00     0.167 HD
ATOM     73  C   UNL     1       3.385  -8.118 -13.930  1.00  0.00     0.074 A 
ATOM     74  C   UNL     1       4.014  -7.134 -14.787  1.00  0.00     0.031 C 
ATOM     75  C   UNL     1       3.691  -9.439 -13.929  1.00  0.00     0.037 A 
BRANCH  62  76
ATOM     76  C   UNL     1       0.509 -12.774  -9.806  1.00  0.00     0.064 A 
ATOM     77  C   UNL     1      -0.706 -13.458  -9.966  1.00  0.00     0.173 A 
ATOM     78  C   UNL     1       1.506 -13.384  -9.030  1.00  0.00     0.173 A 
ATOM     79  F   UNL     1      -1.697 -12.914 -10.689  1.00  0.00    -0.203 F 
ATOM     80  C   UNL     1      -0.928 -14.683  -9.342  1.00  0.00     0.198 A 
ATOM     81  C   UNL     1       1.292 -14.625  -8.434  1.00  0.00     0.198 A 
ATOM     82  F   UNL     1       2.688 -12.777  -8.847  1.00  0.00    -0.203 F 
ATOM     83  F   UNL     1      -2.119 -15.287  -9.460  1.00  0.00    -0.200 F 
ATOM     84  C   UNL     1       0.072 -15.268  -8.581  1.00  0.00     0.200 A 
ATOM     85  F   UNL     1       2.265 -15.194  -7.709  1.00  0.00    -0.200 F 
ATOM     86  F   UNL     1      -0.142 -16.446  -7.981  1.00  0.00    -0.200 F 
ENDBRANCH  62  76
BRANCH  63  87
ATOM     87  C   UNL     1       2.030  -3.624 -13.514  1.00  0.00     0.064 A 
ATOM     88  C   UNL     1       1.690  -3.257 -14.823  1.00  0.00     0.173 A 
ATOM     89  C   UNL     1       2.612  -2.648 -12.692  1.00  0.00     0.173 A 
ATOM     90  F   UNL     1       1.151  -4.162 -15.653  1.00  0.00    -0.203 F 
ATOM     91  C   UNL     1       1.934  -1.969 -15.295  1.00  0.00     0.198 A 
ATOM     92  C   UNL     1       2.830  -1.353 -13.156  1.00  0.00     0.198 A 
ATOM     93  F   UNL     1       2.950  -2.947 -11.429  1.00  0.00    -0.203 F 
ATOM     94  F   UNL     1       1.634  -1.655 -16.563  1.00  0.00    -0.200 F 
ATOM     95  C   UNL     1       2.496  -1.016 -14.459  1.00  0.00     0.200 A 
ATOM     96  F   UNL     1       3.360  -0.431 -12.341  1.00  0.00    -0.200 F 
ATOM     97  F   UNL     1       2.722   0.225 -14.911  1.00  0.00    -0.200 F 
ENDBRANCH  63  87
BRANCH  75  98
ATOM     98  C   UNL     1       4.745  -9.901 -14.894  1.00  0.00     0.064 A 
ATOM     99  C   UNL     1       6.101  -9.602 -14.697  1.00  0.00     0.173 A 
ATOM    100  C   UNL     1       4.399 -10.690 -16.001  1.00  0.00     0.173 A 
ATOM    101  F   UNL     1       6.480  -8.837 -13.662  1.00  0.00    -0.203 F 
ATOM    102  C   UNL     1       7.071 -10.060 -15.585  1.00  0.00     0.198 A 
ATOM    103  C   UNL     1       5.374 -11.171 -16.870  1.00  0.00     0.198 A 
ATOM    104  F   UNL     1       3.117 -11.009 -16.231  1.00  0.00    -0.203 F 
ATOM    105  F   UNL     1       8.355  -9.727 -15.401  1.00  0.00    -0.200 F 
ATOM    106  C   UNL     1       6.708 -10.851 -16.665  1.00  0.00     0.200 A 
ATOM    107  F   UNL     1       5.024 -11.946 -17.905  1.00  0.00    -0.200 F 
ATOM    108  F   UNL     1       7.644 -11.300 -17.512  1.00  0.00    -0.200 F 
ENDBRANCH  75  98
ENDBRANCH  49  50
ENDBRANCH  41  44
ENDBRANCH  39  40
ENDBRANCH  38  39
ENDBRANCH  37  38
ENDBRANCH  36  37
ENDBRANCH   1  36
TORSDOF 19
