REMARK SMILES N#Cc1ccccc1C[C@@H](NC(=O)OCC1c2ccccc2-c2ccccc21)C(=O)NCCCCCCNC(=O)c1ccc(-c2c3nc(c(-c4c(F)c(F)c(F)c(F)c4F)c4ccc([nH]4)c(-c4c(F)c(F)c(F)c(F)c4F)c4nc(c(-c5c(F)c(F)c(F)c(F)c5F)c5ccc2[nH]5)C=C4)C=C3)cc1
REMARK SMILES IDX 33 1 32 2 31 3 29 4 30 5 10 7 9 8 8 9 3 10 4 11 5 12 7 13
REMARK SMILES IDX 6 14 2 15 1 16 11 17 12 18 13 20 14 21 15 22 16 23 17 24
REMARK SMILES IDX 28 25 18 26 22 27 23 28 27 29 19 30 21 31 24 32 26 33 20 34
REMARK SMILES IDX 25 35 34 36 35 37 36 38 37 39 38 40 39 41 40 43 41 44 42 45
REMARK SMILES IDX 103 46 43 47 102 48 44 49 45 50 46 51 96 52 47 53 101 54
REMARK SMILES IDX 95 55 97 56 48 57 100 58 94 59 93 60 49 62 81 63 61 64 80 65
REMARK SMILES IDX 62 66 65 67 79 68 98 69 63 70 64 71 78 73 99 74 66 75 50 76
REMARK SMILES IDX 51 77 59 78 52 79 53 80 57 81 60 82 54 83 55 84 58 85 56 86
REMARK SMILES IDX 82 87 83 88 91 89 84 90 85 91 89 92 92 93 86 94 87 95 90 96
REMARK SMILES IDX 88 97 67 98 68 99 76 100 69 101 70 102 74 103 77 104 71 105
REMARK SMILES IDX 72 106 75 107 73 108
REMARK H PARENT 31 6 11 19 38 42 97 61 65 72
REMARK Flexibility Score: inf
ROOT
ATOM      1  C   UNL     1      -1.160  -5.495   2.191  1.00  0.00     0.021 C 
ENDROOT
BRANCH   1   2
ATOM      2  C   UNL     1      -0.333  -5.310   0.933  1.00  0.00     0.116 C 
BRANCH   2   3
ATOM      3  N   UNL     1      -1.184  -5.271  -0.244  1.00  0.00    -0.354 N 
ATOM      4  C   UNL     1      -1.140  -4.439  -1.329  1.00  0.00     0.243 C 
ATOM      5  O   UNL     1      -1.922  -4.647  -2.259  1.00  0.00    -0.273 OA
ATOM      6  H   UNL     1      -1.901  -5.945  -0.264  1.00  0.00     0.163 HD
BRANCH   4   7
ATOM      7  C   UNL     1      -0.167  -3.243  -1.349  1.00  0.00     0.179 C 
BRANCH   7   8
ATOM      8  C   UNL     1      -0.579  -2.259  -0.211  1.00  0.00     0.072 C 
BRANCH   8   9
ATOM      9  C   UNL     1       0.170  -0.941  -0.112  1.00  0.00    -0.028 A 
ATOM     10  C   UNL     1      -0.491   0.301  -0.187  1.00  0.00     0.055 A 
ATOM     11  C   UNL     1       0.244   1.494  -0.112  1.00  0.00     0.020 A 
ATOM     12  C   UNL     1       1.627   1.467   0.061  1.00  0.00     0.001 A 
ATOM     13  C   UNL     1       1.550  -0.938   0.168  1.00  0.00     0.005 A 
ATOM     14  C   UNL     1       2.278   0.250   0.218  1.00  0.00     0.000 A 
BRANCH  10  15
ATOM     15  C   UNL     1      -1.925   0.396  -0.264  1.00  0.00     0.099 C 
ATOM     16  N   UNL     1      -3.080   0.456  -0.290  1.00  0.00    -0.192 NA
ENDBRANCH  10  15
ENDBRANCH   8   9
ENDBRANCH   7   8
BRANCH   7  17
ATOM     17  N   UNL     1       1.254  -3.607  -1.356  1.00  0.00    -0.309 N 
ATOM     18  C   UNL     1       1.813  -4.826  -1.131  1.00  0.00     0.407 C 
ATOM     19  H   UNL     1       1.884  -2.876  -1.549  1.00  0.00     0.167 HD
ATOM     20  O   UNL     1       2.840  -4.929  -0.476  1.00  0.00    -0.225 OA
BRANCH  18  21
ATOM     21  O   UNL     1       1.149  -5.835  -1.744  1.00  0.00    -0.449 OA
BRANCH  21  22
ATOM     22  C   UNL     1       1.715  -7.154  -1.622  1.00  0.00     0.248 C 
BRANCH  22  23
ATOM     23  C   UNL     1       2.517  -7.545  -2.876  1.00  0.00     0.088 C 
ATOM     24  C   UNL     1       3.772  -6.691  -3.026  1.00  0.00    -0.029 A 
ATOM     25  C   UNL     1       3.121  -8.935  -2.703  1.00  0.00    -0.029 A 
ATOM     26  C   UNL     1       3.861  -5.339  -3.325  1.00  0.00     0.005 A 
ATOM     27  C   UNL     1       4.918  -7.455  -2.736  1.00  0.00    -0.014 A 
ATOM     28  C   UNL     1       4.528  -8.843  -2.606  1.00  0.00    -0.014 A 
ATOM     29  C   UNL     1       2.472 -10.160  -2.642  1.00  0.00     0.005 A 
ATOM     30  C   UNL     1       5.096  -4.713  -3.171  1.00  0.00     0.000 A 
ATOM     31  C   UNL     1       6.150  -6.838  -2.607  1.00  0.00     0.009 A 
ATOM     32  C   UNL     1       5.299  -9.985  -2.469  1.00  0.00     0.009 A 
ATOM     33  C   UNL     1       3.252 -11.309  -2.501  1.00  0.00     0.000 A 
ATOM     34  C   UNL     1       6.226  -5.452  -2.793  1.00  0.00     0.001 A 
ATOM     35  C   UNL     1       4.652 -11.223  -2.420  1.00  0.00     0.001 A 
ENDBRANCH  22  23
ENDBRANCH  21  22
ENDBRANCH  18  21
ENDBRANCH   7  17
ENDBRANCH   4   7
ENDBRANCH   2   3
ENDBRANCH   1   2
BRANCH   1  36
ATOM     36  C   UNL     1      -1.678  -6.930   2.324  1.00  0.00     0.002 C 
BRANCH  36  37
ATOM     37  C   UNL     1      -0.575  -7.997   2.343  1.00  0.00     0.002 C 
BRANCH  37  38
ATOM     38  C   UNL     1       0.509  -7.767   3.398  1.00  0.00     0.021 C 
BRANCH  38  39
ATOM     39  C   UNL     1      -0.040  -7.618   4.810  1.00  0.00     0.116 C 
BRANCH  39  40
ATOM     40  N   UNL     1      -0.805  -8.787   5.210  1.00  0.00    -0.352 N 
ATOM     41  C   UNL     1      -0.687  -9.549   6.340  1.00  0.00     0.251 C 
ATOM     42  H   UNL     1      -1.506  -9.071   4.579  1.00  0.00     0.163 HD
ATOM     43  O   UNL     1      -1.246 -10.637   6.418  1.00  0.00    -0.269 OA
BRANCH  41  44
ATOM     44  C   UNL     1       0.130  -9.049   7.461  1.00  0.00     0.039 A 
ATOM     45  C   UNL     1       0.976  -9.937   8.125  1.00  0.00     0.014 A 
ATOM     46  C   UNL     1       0.056  -7.710   7.854  1.00  0.00     0.014 A 
ATOM     47  C   UNL     1       1.774  -9.470   9.167  1.00  0.00     0.010 A 
ATOM     48  C   UNL     1       0.923  -7.226   8.825  1.00  0.00     0.010 A 
ATOM     49  C   UNL     1       1.772  -8.107   9.509  1.00  0.00    -0.014 A 
BRANCH  49  50
ATOM     50  C   UNL     1       2.633  -7.597  10.604  1.00  0.00     0.031 A 
ATOM     51  C   UNL     1       2.011  -6.984  11.828  1.00  0.00     0.074 A 
ATOM     52  C   UNL     1       3.972  -7.661  10.481  1.00  0.00     0.049 A 
ATOM     53  N   UNL     1       2.592  -6.472  12.884  1.00  0.00    -0.248 NA
ATOM     54  C   UNL     1       0.541  -6.908  11.859  1.00  0.00     0.031 C 
ATOM     55  C   UNL     1       4.690  -8.192   9.322  1.00  0.00     0.029 A 
ATOM     56  N   UNL     1       4.968  -7.279  11.343  1.00  0.00    -0.354 N 
ATOM     57  C   UNL     1       1.563  -6.013  13.695  1.00  0.00     0.074 A 
ATOM     58  C   UNL     1       0.327  -6.237  12.979  1.00  0.00     0.031 C 
ATOM     59  C   UNL     1       6.009  -8.139   9.560  1.00  0.00     0.029 A 
ATOM     60  C   UNL     1       6.232  -7.528  10.867  1.00  0.00     0.049 A 
ATOM     61  H   UNL     1       4.794  -6.865  12.219  1.00  0.00     0.167 HD
ATOM     62  C   UNL     1       1.639  -5.481  14.938  1.00  0.00     0.037 A 
ATOM     63  C   UNL     1       7.434  -7.286  11.422  1.00  0.00     0.037 A 
ATOM     64  C   UNL     1       2.874  -5.269  15.647  1.00  0.00     0.049 A 
ATOM     65  C   UNL     1       7.492  -6.663  12.792  1.00  0.00     0.074 A 
ATOM     66  C   UNL     1       3.061  -4.777  16.926  1.00  0.00     0.029 A 
ATOM     67  N   UNL     1       4.136  -5.526  15.130  1.00  0.00    -0.354 N 
ATOM     68  N   UNL     1       6.511  -6.298  13.581  1.00  0.00    -0.248 NA
ATOM     69  C   UNL     1       8.830  -6.430  13.352  1.00  0.00     0.031 C 
ATOM     70  C   UNL     1       4.436  -4.669  17.157  1.00  0.00     0.029 A 
ATOM     71  C   UNL     1       5.107  -5.173  16.054  1.00  0.00     0.049 A 
ATOM     72  H   UNL     1       4.315  -5.904  14.239  1.00  0.00     0.167 HD
ATOM     73  C   UNL     1       7.109  -5.828  14.743  1.00  0.00     0.074 A 
ATOM     74  C   UNL     1       8.538  -5.972  14.560  1.00  0.00     0.031 C 
ATOM     75  C   UNL     1       6.528  -5.327  15.861  1.00  0.00     0.037 A 
BRANCH  62  76
ATOM     76  C   UNL     1       0.351  -5.085  15.605  1.00  0.00     0.064 A 
ATOM     77  C   UNL     1      -0.609  -6.036  15.988  1.00  0.00     0.173 A 
ATOM     78  C   UNL     1       0.081  -3.737  15.887  1.00  0.00     0.173 A 
ATOM     79  F   UNL     1      -0.409  -7.339  15.734  1.00  0.00    -0.203 F 
ATOM     80  C   UNL     1      -1.804  -5.650  16.589  1.00  0.00     0.198 A 
ATOM     81  C   UNL     1      -1.097  -3.358  16.525  1.00  0.00     0.198 A 
ATOM     82  F   UNL     1       0.963  -2.785  15.549  1.00  0.00    -0.203 F 
ATOM     83  F   UNL     1      -2.732  -6.571  16.885  1.00  0.00    -0.200 F 
ATOM     84  C   UNL     1      -2.044  -4.312  16.865  1.00  0.00     0.200 A 
ATOM     85  F   UNL     1      -1.319  -2.067  16.807  1.00  0.00    -0.200 F 
ATOM     86  F   UNL     1      -3.191  -3.942  17.450  1.00  0.00    -0.200 F 
ENDBRANCH  62  76
BRANCH  63  87
ATOM     87  C   UNL     1       8.678  -7.653  10.695  1.00  0.00     0.064 A 
ATOM     88  C   UNL     1       9.526  -8.661  11.176  1.00  0.00     0.173 A 
ATOM     89  C   UNL     1       9.053  -6.996   9.514  1.00  0.00     0.173 A 
ATOM     90  F   UNL     1       9.221  -9.308  12.311  1.00  0.00    -0.203 F 
ATOM     91  C   UNL     1      10.715  -8.977  10.521  1.00  0.00     0.198 A 
ATOM     92  C   UNL     1      10.224  -7.338   8.840  1.00  0.00     0.198 A 
ATOM     93  F   UNL     1       8.275  -6.029   9.006  1.00  0.00    -0.203 F 
ATOM     94  F   UNL     1      11.535  -9.903  11.036  1.00  0.00    -0.200 F 
ATOM     95  C   UNL     1      11.060  -8.319   9.350  1.00  0.00     0.200 A 
ATOM     96  F   UNL     1      10.544  -6.712   7.699  1.00  0.00    -0.200 F 
ATOM     97  F   UNL     1      12.202  -8.624   8.720  1.00  0.00    -0.200 F 
ENDBRANCH  63  87
BRANCH  75  98
ATOM     98  C   UNL     1       7.435  -4.947  16.999  1.00  0.00     0.064 A 
ATOM     99  C   UNL     1       8.324  -3.864  16.915  1.00  0.00     0.173 A 
ATOM    100  C   UNL     1       7.395  -5.667  18.204  1.00  0.00     0.173 A 
ATOM    101  F   UNL     1       8.411  -3.147  15.785  1.00  0.00    -0.203 F 
ATOM    102  C   UNL     1       9.168  -3.546  17.977  1.00  0.00     0.198 A 
ATOM    103  C   UNL     1       8.209  -5.319  19.278  1.00  0.00     0.198 A 
ATOM    104  F   UNL     1       6.557  -6.705  18.345  1.00  0.00    -0.203 F 
ATOM    105  F   UNL     1      10.057  -2.551  17.847  1.00  0.00    -0.200 F 
ATOM    106  C   UNL     1       9.104  -4.268  19.159  1.00  0.00     0.200 A 
ATOM    107  F   UNL     1       8.130  -6.005  20.426  1.00  0.00    -0.200 F 
ATOM    108  F   UNL     1       9.913  -3.956  20.180  1.00  0.00    -0.200 F 
ENDBRANCH  75  98
ENDBRANCH  49  50
ENDBRANCH  41  44
ENDBRANCH  39  40
ENDBRANCH  38  39
ENDBRANCH  37  38
ENDBRANCH  36  37
ENDBRANCH   1  36
TORSDOF 20
