REMARK SMILES C[N@@H+](CC(=O)NCCCCCCNC(=O)c1ccc(-c2c3nc(c(-c4c(F)c(F)c(F)c(F)c4F)c4ccc([nH]4)c(-c4c(F)c(F)c(F)c(F)c4F)c4nc(c(-c5c(F)c(F)c(F)c(F)c5F)c5ccc2[nH]5)C=C4)C=C3)cc1)Cc1cccc2c1OCCO2
REMARK SMILES IDX 9 1 8 2 7 3 6 4 4 5 5 6 3 8 2 9 1 10 79 12 80 13 81 14 85 15
REMARK SMILES IDX 82 16 84 17 86 18 83 19 89 20 87 21 88 22 10 23 11 24 12 25
REMARK SMILES IDX 13 26 14 27 15 29 16 30 17 31 78 32 18 33 77 34 19 35 20 36
REMARK SMILES IDX 21 37 71 38 22 39 76 40 70 41 72 42 23 43 75 44 69 45 68 46
REMARK SMILES IDX 24 48 56 49 36 50 55 51 37 52 40 53 54 54 73 55 38 56 39 57
REMARK SMILES IDX 53 59 74 60 41 61 25 62 26 63 34 64 27 65 28 66 32 67 35 68
REMARK SMILES IDX 29 69 30 70 33 71 31 72 57 73 58 74 66 75 59 76 60 77 64 78
REMARK SMILES IDX 67 79 61 80 62 81 65 82 63 83 42 84 43 85 51 86 44 87 45 88
REMARK SMILES IDX 49 89 52 90 46 91 47 92 50 93 48 94
REMARK H PARENT 6 7 2 11 13 28 72 47 40 58
REMARK Flexibility Score: inf
ROOT
ATOM      1  C   UNL     1      -0.002   2.514  -3.019  1.00  0.00     0.002 C 
ENDROOT
BRANCH   1   2
ATOM      2  C   UNL     1       0.386   2.044  -1.614  1.00  0.00     0.021 C 
BRANCH   2   3
ATOM      3  C   UNL     1      -0.781   1.583  -0.743  1.00  0.00     0.116 C 
BRANCH   3   4
ATOM      4  N   UNL     1      -1.495   0.461  -1.315  1.00  0.00    -0.351 N 
ATOM      5  C   UNL     1      -1.572  -0.842  -0.916  1.00  0.00     0.275 C 
ATOM      6  O   UNL     1      -2.359  -1.574  -1.525  1.00  0.00    -0.269 OA
ATOM      7  H   UNL     1      -2.010   0.673  -2.126  1.00  0.00     0.163 HD
BRANCH   5   8
ATOM      8  C   UNL     1      -0.777  -1.358   0.285  1.00  0.00     0.363 C 
BRANCH   8   9
ATOM      9  N   UNL     1       0.638  -1.602   0.030  1.00  0.00    -0.326 N 
ATOM     10  C   UNL     1       1.625  -0.694   0.545  1.00  0.00     0.333 C 
ATOM     11  H   UNL     1       0.567  -2.243   0.820  1.00  0.00     0.348 HD
BRANCH   9  12
ATOM     12  C   UNL     1       1.062  -2.674  -0.867  1.00  0.00     0.303 C 
BRANCH  12  13
ATOM     13  C   UNL     1       0.680  -2.494  -2.319  1.00  0.00     0.052 A 
ATOM     14  C   UNL     1       0.972  -1.301  -2.994  1.00  0.00     0.014 A 
ATOM     15  C   UNL     1       0.033  -3.503  -3.041  1.00  0.00     0.170 A 
ATOM     16  C   UNL     1       0.454  -1.036  -4.263  1.00  0.00     0.005 A 
ATOM     17  C   UNL     1      -0.510  -3.236  -4.310  1.00  0.00     0.161 A 
ATOM     18  O   UNL     1      -0.013  -4.762  -2.485  1.00  0.00    -0.486 OA
ATOM     19  C   UNL     1      -0.326  -1.991  -4.904  1.00  0.00     0.050 A 
ATOM     20  O   UNL     1      -1.208  -4.160  -5.049  1.00  0.00    -0.486 OA
ATOM     21  C   UNL     1      -0.208  -5.742  -3.510  1.00  0.00     0.271 C 
ATOM     22  C   UNL     1      -1.437  -5.371  -4.319  1.00  0.00     0.271 C 
ENDBRANCH  12  13
ENDBRANCH   9  12
ENDBRANCH   8   9
ENDBRANCH   5   8
ENDBRANCH   3   4
ENDBRANCH   2   3
ENDBRANCH   1   2
BRANCH   1  23
ATOM     23  C   UNL     1      -0.643   3.901  -3.070  1.00  0.00     0.002 C 
BRANCH  23  24
ATOM     24  C   UNL     1       0.195   5.019  -2.446  1.00  0.00     0.021 C 
BRANCH  24  25
ATOM     25  C   UNL     1       1.629   5.101  -2.958  1.00  0.00     0.116 C 
BRANCH  25  26
ATOM     26  N   UNL     1       1.683   5.474  -4.362  1.00  0.00    -0.352 N 
ATOM     27  C   UNL     1       2.299   6.559  -4.935  1.00  0.00     0.251 C 
ATOM     28  H   UNL     1       1.217   4.869  -4.983  1.00  0.00     0.163 HD
ATOM     29  O   UNL     1       2.070   6.870  -6.097  1.00  0.00    -0.269 OA
BRANCH  27  30
ATOM     30  C   UNL     1       3.241   7.359  -4.126  1.00  0.00     0.039 A 
ATOM     31  C   UNL     1       3.137   8.751  -4.136  1.00  0.00     0.014 A 
ATOM     32  C   UNL     1       4.227   6.727  -3.361  1.00  0.00     0.014 A 
ATOM     33  C   UNL     1       4.003   9.511  -3.349  1.00  0.00     0.010 A 
ATOM     34  C   UNL     1       5.035   7.481  -2.517  1.00  0.00     0.010 A 
ATOM     35  C   UNL     1       4.948   8.881  -2.521  1.00  0.00    -0.014 A 
BRANCH  35  36
ATOM     36  C   UNL     1       5.893   9.674  -1.694  1.00  0.00     0.031 A 
ATOM     37  C   UNL     1       7.369   9.603  -1.978  1.00  0.00     0.074 A 
ATOM     38  C   UNL     1       5.432  10.420  -0.673  1.00  0.00     0.049 A 
ATOM     39  N   UNL     1       8.364  10.176  -1.348  1.00  0.00    -0.248 NA
ATOM     40  C   UNL     1       7.787   8.749  -3.102  1.00  0.00     0.031 C 
ATOM     41  C   UNL     1       4.029  10.535  -0.273  1.00  0.00     0.029 A 
ATOM     42  N   UNL     1       6.099  11.222   0.220  1.00  0.00    -0.354 N 
ATOM     43  C   UNL     1       9.516   9.743  -1.992  1.00  0.00     0.074 A 
ATOM     44  C   UNL     1       9.107   8.809  -3.015  1.00  0.00     0.031 C 
ATOM     45  C   UNL     1       3.936  11.381   0.766  1.00  0.00     0.029 A 
ATOM     46  C   UNL     1       5.274  11.841   1.127  1.00  0.00     0.049 A 
ATOM     47  H   UNL     1       7.076  11.342   0.210  1.00  0.00     0.167 HD
ATOM     48  C   UNL     1      10.799  10.117  -1.771  1.00  0.00     0.037 A 
ATOM     49  C   UNL     1       5.569  12.684   2.135  1.00  0.00     0.037 A 
ATOM     50  C   UNL     1      11.200  11.069  -0.770  1.00  0.00     0.049 A 
ATOM     51  C   UNL     1       7.005  13.079   2.362  1.00  0.00     0.074 A 
ATOM     52  C   UNL     1      12.468  11.546  -0.489  1.00  0.00     0.029 A 
ATOM     53  N   UNL     1      10.332  11.692   0.115  1.00  0.00    -0.354 N 
ATOM     54  N   UNL     1       8.080  12.711   1.708  1.00  0.00    -0.248 NA
ATOM     55  C   UNL     1       7.265  14.021   3.459  1.00  0.00     0.031 C 
ATOM     56  C   UNL     1      12.374  12.426   0.594  1.00  0.00     0.029 A 
ATOM     57  C   UNL     1      11.040  12.541   0.951  1.00  0.00     0.049 A 
ATOM     58  H   UNL     1       9.358  11.552   0.145  1.00  0.00     0.167 HD
ATOM     59  C   UNL     1       9.135  13.405   2.286  1.00  0.00     0.074 A 
ATOM     60  C   UNL     1       8.568  14.225   3.336  1.00  0.00     0.031 C 
ATOM     61  C   UNL     1      10.454  13.368   1.974  1.00  0.00     0.037 A 
BRANCH  48  62
ATOM     62  C   UNL     1      11.861   9.501  -2.637  1.00  0.00     0.064 A 
ATOM     63  C   UNL     1      11.962   9.804  -4.004  1.00  0.00     0.173 A 
ATOM     64  C   UNL     1      12.809   8.623  -2.090  1.00  0.00     0.173 A 
ATOM     65  F   UNL     1      11.073  10.627  -4.581  1.00  0.00    -0.203 F 
ATOM     66  C   UNL     1      12.952   9.228  -4.796  1.00  0.00     0.198 A 
ATOM     67  C   UNL     1      13.818   8.075  -2.878  1.00  0.00     0.198 A 
ATOM     68  F   UNL     1      12.762   8.302  -0.788  1.00  0.00    -0.203 F 
ATOM     69  F   UNL     1      12.994   9.491  -6.110  1.00  0.00    -0.200 F 
ATOM     70  C   UNL     1      13.884   8.371  -4.231  1.00  0.00     0.200 A 
ATOM     71  F   UNL     1      14.727   7.258  -2.327  1.00  0.00    -0.200 F 
ATOM     72  F   UNL     1      14.841   7.824  -4.992  1.00  0.00    -0.200 F 
ENDBRANCH  48  62
BRANCH  49  73
ATOM     73  C   UNL     1       4.484  13.241   2.987  1.00  0.00     0.064 A 
ATOM     74  C   UNL     1       4.165  14.606   2.944  1.00  0.00     0.173 A 
ATOM     75  C   UNL     1       3.763  12.432   3.877  1.00  0.00     0.173 A 
ATOM     76  F   UNL     1       4.838  15.426   2.123  1.00  0.00    -0.203 F 
ATOM     77  C   UNL     1       3.189  15.146   3.780  1.00  0.00     0.198 A 
ATOM     78  C   UNL     1       2.766  12.967   4.690  1.00  0.00     0.198 A 
ATOM     79  F   UNL     1       4.024  11.119   3.954  1.00  0.00    -0.203 F 
ATOM     80  F   UNL     1       2.946  16.463   3.758  1.00  0.00    -0.200 F 
ATOM     81  C   UNL     1       2.487  14.325   4.649  1.00  0.00     0.200 A 
ATOM     82  F   UNL     1       2.079  12.168   5.518  1.00  0.00    -0.200 F 
ATOM     83  F   UNL     1       1.551  14.844   5.455  1.00  0.00    -0.200 F 
ENDBRANCH  49  73
BRANCH  61  84
ATOM     84  C   UNL     1      11.367  14.286   2.735  1.00  0.00     0.064 A 
ATOM     85  C   UNL     1      11.675  14.075   4.087  1.00  0.00     0.173 A 
ATOM     86  C   UNL     1      11.970  15.376   2.087  1.00  0.00     0.173 A 
ATOM     87  F   UNL     1      11.115  13.055   4.755  1.00  0.00    -0.203 F 
ATOM     88  C   UNL     1      12.526  14.939   4.770  1.00  0.00     0.198 A 
ATOM     89  C   UNL     1      12.847  16.218   2.764  1.00  0.00     0.198 A 
ATOM     90  F   UNL     1      11.717  15.617   0.792  1.00  0.00    -0.203 F 
ATOM     91  F   UNL     1      12.761  14.750   6.076  1.00  0.00    -0.200 F 
ATOM     92  C   UNL     1      13.117  16.005   4.107  1.00  0.00     0.200 A 
ATOM     93  F   UNL     1      13.430  17.236   2.117  1.00  0.00    -0.200 F 
ATOM     94  F   UNL     1      13.940  16.832   4.765  1.00  0.00    -0.200 F 
ENDBRANCH  61  84
ENDBRANCH  35  36
ENDBRANCH  27  30
ENDBRANCH  25  26
ENDBRANCH  24  25
ENDBRANCH  23  24
ENDBRANCH   1  23
TORSDOF 16
