REMARK SMILES CC(C)CCc1cc2c(cc1Cl)C=C(C(=O)NCCCCCCNC(=O)c1ccc(-c3c4nc(c(-c5c(F)c(F)c(F)c(F)c5F)c5ccc([nH]5)c(-c5c(F)c(F)c(F)c(F)c5F)c5nc(c(-c6c(F)c(F)c(F)c(F)c6F)c6ccc3[nH]6)C=C5)C=C4)cc1)[C@@H](C(F)(F)F)O2
REMARK SMILES IDX 20 1 19 2 18 3 17 4 15 5 16 6 14 8 6 9 7 10 11 11 8 12 10 13
REMARK SMILES IDX 12 14 9 15 95 16 13 17 90 18 5 19 4 20 2 21 1 22 3 23 91 24
REMARK SMILES IDX 92 25 93 26 94 27 21 28 22 29 23 30 24 31 25 32 26 34 27 35
REMARK SMILES IDX 28 36 89 37 29 38 88 39 30 40 31 41 32 42 82 43 33 44 87 45
REMARK SMILES IDX 81 46 83 47 34 48 86 49 80 50 79 51 35 53 67 54 47 55 66 56
REMARK SMILES IDX 48 57 51 58 65 59 84 60 49 61 50 62 64 64 85 65 52 66 36 67
REMARK SMILES IDX 37 68 45 69 38 70 39 71 43 72 46 73 40 74 41 75 44 76 42 77
REMARK SMILES IDX 68 78 69 79 77 80 70 81 71 82 75 83 78 84 72 85 73 86 76 87
REMARK SMILES IDX 74 88 53 89 54 90 62 91 55 92 56 93 60 94 63 95 57 96 58 97
REMARK SMILES IDX 61 98 59 99
REMARK H PARENT 17 7 24 33 83 52 51 63
REMARK Flexibility Score: inf
ROOT
ATOM      1  C   UNL     1       3.438   2.495 -11.294  1.00  0.00     0.002 C 
ENDROOT
BRANCH   1   2
ATOM      2  C   UNL     1       2.988   2.479  -9.830  1.00  0.00     0.021 C 
BRANCH   2   3
ATOM      3  C   UNL     1       1.544   2.030  -9.624  1.00  0.00     0.116 C 
BRANCH   3   4
ATOM      4  N   UNL     1       1.424   0.584  -9.637  1.00  0.00    -0.352 N 
ATOM      5  C   UNL     1       0.984  -0.385  -8.803  1.00  0.00     0.251 C 
ATOM      6  O   UNL     1       1.050  -1.532  -9.258  1.00  0.00    -0.270 OA
ATOM      7  H   UNL     1       1.753   0.205 -10.484  1.00  0.00     0.163 HD
BRANCH   5   8
ATOM      8  C   UNL     1       0.445  -0.170  -7.427  1.00  0.00     0.067 C 
ATOM      9  C   UNL     1      -1.357  -0.884  -2.751  1.00  0.00    -0.026 A 
ATOM     10  C   UNL     1      -0.839   0.216  -3.456  1.00  0.00     0.052 A 
ATOM     11  C   UNL     1      -1.421  -2.122  -3.414  1.00  0.00     0.045 A 
ATOM     12  C   UNL     1      -0.384   0.076  -4.765  1.00  0.00     0.128 A 
ATOM     13  C   UNL     1      -0.920  -2.264  -4.716  1.00  0.00     0.032 A 
ATOM     14  Cl  UNL     1      -2.129  -3.522  -2.695  1.00  0.00    -0.084 Cl
ATOM     15  C   UNL     1      -0.395  -1.164  -5.394  1.00  0.00     0.019 A 
ATOM     16  O   UNL     1       0.103   1.200  -5.363  1.00  0.00    -0.475 OA
ATOM     17  C   UNL     1       0.166  -1.289  -6.733  1.00  0.00     0.025 C 
ATOM     18  C   UNL     1       0.168   1.176  -6.816  1.00  0.00     0.314 C 
BRANCH   9  19
ATOM     19  C   UNL     1      -1.813  -0.658  -1.326  1.00  0.00     0.037 C 
BRANCH  19  20
ATOM     20  C   UNL     1      -1.065  -1.451  -0.242  1.00  0.00     0.008 C 
BRANCH  20  21
ATOM     21  C   UNL     1       0.473  -1.402  -0.314  1.00  0.00    -0.017 C 
ATOM     22  C   UNL     1       1.023  -0.024   0.053  1.00  0.00     0.007 C 
ATOM     23  C   UNL     1       1.065  -2.467   0.613  1.00  0.00     0.007 C 
ENDBRANCH  20  21
ENDBRANCH  19  20
ENDBRANCH   9  19
BRANCH  18  24
ATOM     24  C   UNL     1      -1.097   1.837  -7.395  1.00  0.00     0.429 C 
ATOM     25  F   UNL     1      -1.133   3.155  -7.076  1.00  0.00    -0.167 F 
ATOM     26  F   UNL     1      -1.143   1.774  -8.747  1.00  0.00    -0.167 F 
ATOM     27  F   UNL     1      -2.237   1.276  -6.935  1.00  0.00    -0.167 F 
ENDBRANCH  18  24
ENDBRANCH   5   8
ENDBRANCH   3   4
ENDBRANCH   2   3
ENDBRANCH   1   2
BRANCH   1  28
ATOM     28  C   UNL     1       2.575   3.337 -12.244  1.00  0.00     0.002 C 
BRANCH  28  29
ATOM     29  C   UNL     1       2.253   4.754 -11.766  1.00  0.00     0.021 C 
BRANCH  29  30
ATOM     30  C   UNL     1       3.467   5.621 -11.461  1.00  0.00     0.116 C 
BRANCH  30  31
ATOM     31  N   UNL     1       4.286   5.872 -12.635  1.00  0.00    -0.352 N 
ATOM     32  C   UNL     1       4.742   7.064 -13.143  1.00  0.00     0.251 C 
ATOM     33  H   UNL     1       4.553   5.070 -13.141  1.00  0.00     0.163 HD
ATOM     34  O   UNL     1       5.295   7.098 -14.238  1.00  0.00    -0.269 OA
BRANCH  32  35
ATOM     35  C   UNL     1       4.539   8.315 -12.381  1.00  0.00     0.039 A 
ATOM     36  C   UNL     1       4.770   8.357 -11.005  1.00  0.00     0.014 A 
ATOM     37  C   UNL     1       4.105   9.461 -13.053  1.00  0.00     0.014 A 
ATOM     38  C   UNL     1       4.412   9.488 -10.281  1.00  0.00     0.010 A 
ATOM     39  C   UNL     1       3.833  10.630 -12.335  1.00  0.00     0.010 A 
ATOM     40  C   UNL     1       3.941  10.639 -10.936  1.00  0.00    -0.014 A 
BRANCH  40  41
ATOM     41  C   UNL     1       3.586  11.832 -10.124  1.00  0.00     0.031 A 
ATOM     42  C   UNL     1       2.166  12.320 -10.043  1.00  0.00     0.074 A 
ATOM     43  C   UNL     1       4.546  12.424  -9.387  1.00  0.00     0.049 A 
ATOM     44  N   UNL     1       1.665  13.274  -9.297  1.00  0.00    -0.248 NA
ATOM     45  C   UNL     1       1.176  11.661 -10.910  1.00  0.00     0.031 C 
ATOM     46  C   UNL     1       5.959  12.042  -9.393  1.00  0.00     0.029 A 
ATOM     47  N   UNL     1       4.479  13.437  -8.464  1.00  0.00    -0.354 N 
ATOM     48  C   UNL     1       0.314  13.335  -9.611  1.00  0.00     0.074 A 
ATOM     49  C   UNL     1       0.074  12.348 -10.640  1.00  0.00     0.031 C 
ATOM     50  C   UNL     1       6.611  12.754  -8.463  1.00  0.00     0.029 A 
ATOM     51  C   UNL     1       5.676  13.683  -7.835  1.00  0.00     0.049 A 
ATOM     52  H   UNL     1       3.654  13.938  -8.271  1.00  0.00     0.167 HD
ATOM     53  C   UNL     1      -0.641  14.129  -9.073  1.00  0.00     0.037 A 
ATOM     54  C   UNL     1       5.987  14.555  -6.857  1.00  0.00     0.037 A 
ATOM     55  C   UNL     1      -0.404  15.092  -8.029  1.00  0.00     0.049 A 
ATOM     56  C   UNL     1       4.912  15.443  -6.298  1.00  0.00     0.074 A 
ATOM     57  C   UNL     1      -1.316  15.918  -7.397  1.00  0.00     0.029 A 
ATOM     58  N   UNL     1       0.835  15.355  -7.464  1.00  0.00    -0.354 N 
ATOM     59  N   UNL     1       3.633  15.464  -6.580  1.00  0.00    -0.248 NA
ATOM     60  C   UNL     1       5.324  16.434  -5.295  1.00  0.00     0.031 C 
ATOM     61  C   UNL     1      -0.624  16.712  -6.479  1.00  0.00     0.029 A 
ATOM     62  C   UNL     1       0.713  16.349  -6.507  1.00  0.00     0.049 A 
ATOM     63  H   UNL     1       1.675  14.903  -7.707  1.00  0.00     0.167 HD
ATOM     64  C   UNL     1       3.084  16.459  -5.785  1.00  0.00     0.074 A 
ATOM     65  C   UNL     1       4.166  17.009  -4.995  1.00  0.00     0.031 C 
ATOM     66  C   UNL     1       1.798  16.880  -5.723  1.00  0.00     0.037 A 
BRANCH  53  67
ATOM     67  C   UNL     1      -2.044  13.997  -9.592  1.00  0.00     0.064 A 
ATOM     68  C   UNL     1      -2.842  12.891  -9.268  1.00  0.00     0.173 A 
ATOM     69  C   UNL     1      -2.624  15.028 -10.347  1.00  0.00     0.173 A 
ATOM     70  F   UNL     1      -2.332  11.876  -8.555  1.00  0.00    -0.203 F 
ATOM     71  C   UNL     1      -4.167  12.816  -9.691  1.00  0.00     0.198 A 
ATOM     72  C   UNL     1      -3.956  14.961 -10.747  1.00  0.00     0.198 A 
ATOM     73  F   UNL     1      -1.905  16.113 -10.675  1.00  0.00    -0.203 F 
ATOM     74  F   UNL     1      -4.904  11.737  -9.392  1.00  0.00    -0.200 F 
ATOM     75  C   UNL     1      -4.725  13.855 -10.421  1.00  0.00     0.200 A 
ATOM     76  F   UNL     1      -4.498  15.973 -11.439  1.00  0.00    -0.200 F 
ATOM     77  F   UNL     1      -6.006  13.789 -10.811  1.00  0.00    -0.200 F 
ENDBRANCH  53  67
BRANCH  54  78
ATOM     78  C   UNL     1       7.376  14.600  -6.334  1.00  0.00     0.064 A 
ATOM     79  C   UNL     1       7.674  14.137  -5.045  1.00  0.00     0.173 A 
ATOM     80  C   UNL     1       8.440  15.060  -7.125  1.00  0.00     0.173 A 
ATOM     81  F   UNL     1       6.689  13.702  -4.245  1.00  0.00    -0.203 F 
ATOM     82  C   UNL     1       8.983  14.133  -4.567  1.00  0.00     0.198 A 
ATOM     83  C   UNL     1       9.751  15.030  -6.656  1.00  0.00     0.198 A 
ATOM     84  F   UNL     1       8.207  15.509  -8.367  1.00  0.00    -0.203 F 
ATOM     85  F   UNL     1       9.238  13.706  -3.323  1.00  0.00    -0.200 F 
ATOM     86  C   UNL     1      10.021  14.569  -5.377  1.00  0.00     0.200 A 
ATOM     87  F   UNL     1      10.752  15.435  -7.448  1.00  0.00    -0.200 F 
ATOM     88  F   UNL     1      11.282  14.546  -4.924  1.00  0.00    -0.200 F 
ENDBRANCH  54  78
BRANCH  66  89
ATOM     89  C   UNL     1       1.471  17.985  -4.764  1.00  0.00     0.064 A 
ATOM     90  C   UNL     1       1.800  19.316  -5.052  1.00  0.00     0.173 A 
ATOM     91  C   UNL     1       0.727  17.722  -3.605  1.00  0.00     0.173 A 
ATOM     92  F   UNL     1       2.521  19.613  -6.143  1.00  0.00    -0.203 F 
ATOM     93  C   UNL     1       1.392  20.348  -4.212  1.00  0.00     0.198 A 
ATOM     94  C   UNL     1       0.301  18.758  -2.780  1.00  0.00     0.198 A 
ATOM     95  F   UNL     1       0.382  16.463  -3.293  1.00  0.00    -0.203 F 
ATOM     96  F   UNL     1       1.728  21.614  -4.496  1.00  0.00    -0.200 F 
ATOM     97  C   UNL     1       0.633  20.070  -3.084  1.00  0.00     0.200 A 
ATOM     98  F   UNL     1      -0.445  18.489  -1.699  1.00  0.00    -0.200 F 
ATOM     99  F   UNL     1       0.219  21.068  -2.291  1.00  0.00    -0.200 F 
ENDBRANCH  66  89
ENDBRANCH  40  41
ENDBRANCH  32  35
ENDBRANCH  30  31
ENDBRANCH  29  30
ENDBRANCH  28  29
ENDBRANCH   1  28
TORSDOF 17
