REMARK SMILES CCN(CC(C)(C)O)C(=O)Nc1ccc(C(=O)NCCCCCCNC(=O)c2ccc(-c3c4nc(c(-c5c(F)c(F)c(F)c(F)c5F)c5ccc([nH]5)c(-c5c(F)c(F)c(F)c(F)c5F)c5nc(c(-c6c(F)c(F)c(F)c(F)c6F)c6ccc3[nH]6)C=C5)C=C4)cc2)c(O)c1
REMARK SMILES IDX 20 1 19 2 18 3 16 4 17 5 15 7 12 8 13 9 93 10 14 11 91 12
REMARK SMILES IDX 11 13 9 14 10 15 3 17 2 18 1 19 4 20 5 21 6 22 7 23 8 24
REMARK SMILES IDX 92 26 21 28 22 29 23 30 24 31 25 32 26 33 27 35 28 36 29 37
REMARK SMILES IDX 90 38 30 39 89 40 31 41 32 42 33 43 83 44 34 45 88 46 82 47
REMARK SMILES IDX 84 48 35 49 87 50 81 51 80 52 36 54 68 55 48 56 67 57 49 58
REMARK SMILES IDX 52 59 66 60 85 61 50 62 51 63 65 65 86 66 53 67 37 68 38 69
REMARK SMILES IDX 46 70 39 71 40 72 44 73 47 74 41 75 42 76 45 77 43 78 69 79
REMARK SMILES IDX 70 80 78 81 71 82 72 83 76 84 79 85 73 86 74 87 77 88 75 89
REMARK SMILES IDX 54 90 55 91 63 92 56 93 57 94 61 95 64 96 58 97 59 98 62 99
REMARK SMILES IDX 60 100
REMARK H PARENT 18 6 11 16 8 25 92 27 25 34 84 53 52 64
REMARK Flexibility Score: inf
ROOT
ATOM      1  C   UNL     1      -1.138   6.873   7.081  1.00  0.00     0.021 C 
ENDROOT
BRANCH   1   2
ATOM      2  C   UNL     1      -0.127   5.749   7.211  1.00  0.00     0.116 C 
BRANCH   2   3
ATOM      3  N   UNL     1      -0.511   4.688   8.110  1.00  0.00    -0.352 N 
ATOM      4  C   UNL     1       0.047   3.443   8.224  1.00  0.00     0.255 C 
ATOM      5  O   UNL     1      -0.325   2.691   9.121  1.00  0.00    -0.269 OA
ATOM      6  H   UNL     1      -1.265   4.881   8.713  1.00  0.00     0.163 HD
BRANCH   4   7
ATOM      7  C   UNL     1       0.964   2.945   7.176  1.00  0.00     0.081 A 
ATOM      8  C   UNL     1       2.139   1.955   4.816  1.00  0.00     0.046 A 
ATOM      9  C   UNL     1       1.282   1.216   5.585  1.00  0.00     0.027 A 
ATOM     10  C   UNL     1       2.599   3.145   5.372  1.00  0.00     0.073 A 
ATOM     11  C   UNL     1       0.632   1.693   6.705  1.00  0.00     0.020 A 
ATOM     12  C   UNL     1       2.046   3.607   6.582  1.00  0.00     0.130 A 
BRANCH   8  13
ATOM     13  N   UNL     1       2.612   1.464   3.595  1.00  0.00    -0.308 N 
ATOM     14  C   UNL     1       2.329   0.465   2.720  1.00  0.00     0.321 C 
ATOM     15  O   UNL     1       3.261   0.250   1.929  1.00  0.00    -0.248 OA
ATOM     16  H   UNL     1       3.374   2.000   3.277  1.00  0.00     0.171 HD
BRANCH  14  17
ATOM     17  N   UNL     1       1.132  -0.211   2.576  1.00  0.00    -0.322 N 
BRANCH  17  18
ATOM     18  C   UNL     1       1.012  -0.985   1.323  1.00  0.00     0.118 C 
ATOM     19  C   UNL     1       0.989  -0.092   0.078  1.00  0.00     0.027 C 
ENDBRANCH  17  18
BRANCH  17  20
ATOM     20  C   UNL     1      -0.129  -0.198   3.358  1.00  0.00     0.155 C 
BRANCH  20  21
ATOM     21  C   UNL     1      -0.392  -1.432   4.338  1.00  0.00     0.077 C 
ATOM     22  C   UNL     1       0.798  -2.002   5.151  1.00  0.00     0.043 C 
ATOM     23  C   UNL     1      -1.544  -1.062   5.298  1.00  0.00     0.043 C 
BRANCH  21  24
ATOM     24  O   UNL     1      -0.860  -2.536   3.540  1.00  0.00    -0.389 OA
ATOM     25  H   UNL     1      -0.164  -2.804   2.918  1.00  0.00     0.211 HD
ENDBRANCH  21  24
ENDBRANCH  20  21
ENDBRANCH  17  20
ENDBRANCH  14  17
ENDBRANCH   8  13
BRANCH  12  26
ATOM     26  O   UNL     1       2.647   4.694   7.152  1.00  0.00    -0.507 OA
ATOM     27  H   UNL     1       2.319   5.042   7.957  1.00  0.00     0.293 HD
ENDBRANCH  12  26
ENDBRANCH   4   7
ENDBRANCH   2   3
ENDBRANCH   1   2
BRANCH   1  28
ATOM     28  C   UNL     1      -1.690   7.456   8.384  1.00  0.00     0.002 C 
BRANCH  28  29
ATOM     29  C   UNL     1      -0.721   7.656   9.554  1.00  0.00     0.002 C 
BRANCH  29  30
ATOM     30  C   UNL     1       0.568   8.427   9.278  1.00  0.00     0.021 C 
BRANCH  30  31
ATOM     31  C   UNL     1       0.406   9.713   8.487  1.00  0.00     0.116 C 
BRANCH  31  32
ATOM     32  N   UNL     1      -0.460  10.667   9.152  1.00  0.00    -0.352 N 
ATOM     33  C   UNL     1      -0.226  11.992   9.433  1.00  0.00     0.251 C 
ATOM     34  H   UNL     1      -1.334  10.319   9.442  1.00  0.00     0.163 HD
ATOM     35  O   UNL     1      -0.991  12.622  10.144  1.00  0.00    -0.269 OA
BRANCH  33  36
ATOM     36  C   UNL     1       0.985  12.639   8.884  1.00  0.00     0.039 A 
ATOM     37  C   UNL     1       1.778  13.409   9.736  1.00  0.00     0.014 A 
ATOM     38  C   UNL     1       1.345  12.468   7.544  1.00  0.00     0.014 A 
ATOM     39  C   UNL     1       2.962  13.968   9.255  1.00  0.00     0.010 A 
ATOM     40  C   UNL     1       2.566  12.955   7.090  1.00  0.00     0.010 A 
ATOM     41  C   UNL     1       3.382  13.719   7.938  1.00  0.00    -0.014 A 
BRANCH  41  42
ATOM     42  C   UNL     1       4.658  14.272   7.420  1.00  0.00     0.031 A 
ATOM     43  C   UNL     1       4.639  15.261   6.287  1.00  0.00     0.074 A 
ATOM     44  C   UNL     1       5.830  13.853   7.936  1.00  0.00     0.049 A 
ATOM     45  N   UNL     1       5.641  15.802   5.641  1.00  0.00    -0.248 NA
ATOM     46  C   UNL     1       3.315  15.680   5.796  1.00  0.00     0.031 C 
ATOM     47  C   UNL     1       5.978  12.876   9.017  1.00  0.00     0.029 A 
ATOM     48  N   UNL     1       7.121  14.190   7.616  1.00  0.00    -0.354 N 
ATOM     49  C   UNL     1       5.069  16.619   4.675  1.00  0.00     0.074 A 
ATOM     50  C   UNL     1       3.636  16.453   4.770  1.00  0.00     0.031 C 
ATOM     51  C   UNL     1       7.284  12.712   9.287  1.00  0.00     0.029 A 
ATOM     52  C   UNL     1       8.066  13.535   8.369  1.00  0.00     0.049 A 
ATOM     53  H   UNL     1       7.349  14.840   6.913  1.00  0.00     0.167 HD
ATOM     54  C   UNL     1       5.684  17.458   3.808  1.00  0.00     0.037 A 
ATOM     55  C   UNL     1       9.411  13.585   8.313  1.00  0.00     0.037 A 
ATOM     56  C   UNL     1       7.110  17.631   3.725  1.00  0.00     0.049 A 
ATOM     57  C   UNL     1      10.066  14.489   7.301  1.00  0.00     0.074 A 
ATOM     58  C   UNL     1       7.830  18.471   2.895  1.00  0.00     0.029 A 
ATOM     59  N   UNL     1       8.033  16.951   4.506  1.00  0.00    -0.354 N 
ATOM     60  N   UNL     1       9.514  15.296   6.429  1.00  0.00    -0.248 NA
ATOM     61  C   UNL     1      11.536  14.492   7.271  1.00  0.00     0.031 C 
ATOM     62  C   UNL     1       9.191  18.266   3.140  1.00  0.00     0.029 A 
ATOM     63  C   UNL     1       9.317  17.343   4.165  1.00  0.00     0.049 A 
ATOM     64  H   UNL     1       7.809  16.289   5.200  1.00  0.00     0.167 HD
ATOM     65  C   UNL     1      10.564  15.933   5.780  1.00  0.00     0.074 A 
ATOM     66  C   UNL     1      11.786  15.429   6.369  1.00  0.00     0.031 C 
ATOM     67  C   UNL     1      10.521  16.852   4.785  1.00  0.00     0.037 A 
BRANCH  54  68
ATOM     68  C   UNL     1       4.817  18.267   2.887  1.00  0.00     0.064 A 
ATOM     69  C   UNL     1       4.011  19.310   3.370  1.00  0.00     0.173 A 
ATOM     70  C   UNL     1       4.834  18.040   1.502  1.00  0.00     0.173 A 
ATOM     71  F   UNL     1       3.949  19.561   4.686  1.00  0.00    -0.203 F 
ATOM     72  C   UNL     1       3.239  20.080   2.504  1.00  0.00     0.198 A 
ATOM     73  C   UNL     1       4.086  18.833   0.636  1.00  0.00     0.198 A 
ATOM     74  F   UNL     1       5.590  17.059   0.987  1.00  0.00    -0.203 F 
ATOM     75  F   UNL     1       2.445  21.042   2.994  1.00  0.00    -0.200 F 
ATOM     76  C   UNL     1       3.285  19.848   1.138  1.00  0.00     0.200 A 
ATOM     77  F   UNL     1       4.143  18.617  -0.685  1.00  0.00    -0.200 F 
ATOM     78  F   UNL     1       2.554  20.601   0.304  1.00  0.00    -0.200 F 
ENDBRANCH  54  68
BRANCH  55  79
ATOM     79  C   UNL     1      10.239  12.767   9.241  1.00  0.00     0.064 A 
ATOM     80  C   UNL     1      11.062  13.376  10.199  1.00  0.00     0.173 A 
ATOM     81  C   UNL     1      10.267  11.367   9.157  1.00  0.00     0.173 A 
ATOM     82  F   UNL     1      11.086  14.713  10.308  1.00  0.00    -0.203 F 
ATOM     83  C   UNL     1      11.912  12.621  11.006  1.00  0.00     0.198 A 
ATOM     84  C   UNL     1      11.090  10.611   9.990  1.00  0.00     0.198 A 
ATOM     85  F   UNL     1       9.495  10.730   8.264  1.00  0.00    -0.203 F 
ATOM     86  F   UNL     1      12.741  13.236  11.861  1.00  0.00    -0.200 F 
ATOM     87  C   UNL     1      11.924  11.239  10.902  1.00  0.00     0.200 A 
ATOM     88  F   UNL     1      11.086   9.274   9.897  1.00  0.00    -0.200 F 
ATOM     89  F   UNL     1      12.748  10.514  11.670  1.00  0.00    -0.200 F 
ENDBRANCH  55  79
BRANCH  67  90
ATOM     90  C   UNL     1      11.828  17.423   4.313  1.00  0.00     0.064 A 
ATOM     91  C   UNL     1      12.747  16.663   3.576  1.00  0.00     0.173 A 
ATOM     92  C   UNL     1      12.142  18.768   4.566  1.00  0.00     0.173 A 
ATOM     93  F   UNL     1      12.501  15.369   3.319  1.00  0.00    -0.203 F 
ATOM     94  C   UNL     1      13.944  17.219   3.135  1.00  0.00     0.198 A 
ATOM     95  C   UNL     1      13.323  19.331   4.093  1.00  0.00     0.198 A 
ATOM     96  F   UNL     1      11.293  19.542   5.260  1.00  0.00    -0.203 F 
ATOM     97  F   UNL     1      14.831  16.459   2.478  1.00  0.00    -0.200 F 
ATOM     98  C   UNL     1      14.227  18.554   3.385  1.00  0.00     0.200 A 
ATOM     99  F   UNL     1      13.586  20.625   4.321  1.00  0.00    -0.200 F 
ATOM    100  F   UNL     1      15.376  19.090   2.950  1.00  0.00    -0.200 F 
ENDBRANCH  67  90
ENDBRANCH  41  42
ENDBRANCH  33  36
ENDBRANCH  31  32
ENDBRANCH  30  31
ENDBRANCH  29  30
ENDBRANCH  28  29
ENDBRANCH   1  28
TORSDOF 20
