REMARK SMILES COc1cc(CC(=O)N[C@@H](CC(=O)NCCCCCCNC(=O)c2ccc(-c3c4nc(c(-c5c(F)c(F)c(F)c(F)c5F)c5ccc([nH]5)c(-c5c(F)c(F)c(F)c(F)c5F)c5nc(c(-c6c(F)c(F)c(F)c(F)c6F)c6ccc3[nH]6)C=C5)C=C4)cc2)c2cccs2)ccc1C
REMARK SMILES IDX 16 1 15 2 14 3 12 4 13 5 11 7 10 8 9 9 7 10 8 11 6 13 5 14
REMARK SMILES IDX 3 15 4 16 94 17 93 18 95 19 92 20 2 21 1 22 87 23 88 24
REMARK SMILES IDX 91 25 89 26 90 27 17 28 18 29 19 30 20 31 21 32 22 33 23 35
REMARK SMILES IDX 24 36 25 37 86 38 26 39 85 40 27 41 28 42 29 43 79 44 30 45
REMARK SMILES IDX 84 46 78 47 80 48 31 49 83 50 77 51 76 52 32 54 64 55 44 56
REMARK SMILES IDX 63 57 45 58 48 59 62 60 81 61 46 62 47 63 61 65 82 66 49 67
REMARK SMILES IDX 33 68 34 69 42 70 35 71 36 72 40 73 43 74 37 75 38 76 41 77
REMARK SMILES IDX 39 78 65 79 66 80 74 81 67 82 68 83 72 84 75 85 69 86 70 87
REMARK SMILES IDX 73 88 71 89 50 90 51 91 59 92 52 93 53 94 57 95 60 96 54 97
REMARK SMILES IDX 55 98 58 99 56 100
REMARK H PARENT 14 6 9 12 21 34 80 53 48 64
REMARK Flexibility Score: inf
ROOT
ATOM      1  C   UNL     1       5.291  -1.363  -8.098  1.00  0.00     0.021 C 
ENDROOT
BRANCH   1   2
ATOM      2  C   UNL     1       3.855  -1.641  -7.648  1.00  0.00     0.116 C 
BRANCH   2   3
ATOM      3  N   UNL     1       3.725  -2.957  -7.062  1.00  0.00    -0.356 N 
ATOM      4  C   UNL     1       3.300  -3.337  -5.828  1.00  0.00     0.222 C 
ATOM      5  O   UNL     1       3.092  -4.541  -5.656  1.00  0.00    -0.275 OA
ATOM      6  H   UNL     1       3.988  -3.699  -7.653  1.00  0.00     0.163 HD
BRANCH   4   7
ATOM      7  C   UNL     1       3.017  -2.331  -4.725  1.00  0.00     0.130 C 
BRANCH   7   8
ATOM      8  C   UNL     1       4.212  -1.710  -3.978  1.00  0.00     0.131 C 
BRANCH   8   9
ATOM      9  N   UNL     1       4.841  -0.652  -4.766  1.00  0.00    -0.348 N 
ATOM     10  C   UNL     1       4.594   0.685  -4.831  1.00  0.00     0.224 C 
ATOM     11  O   UNL     1       5.106   1.315  -5.761  1.00  0.00    -0.275 OA
ATOM     12  H   UNL     1       5.570  -0.960  -5.352  1.00  0.00     0.164 HD
BRANCH  10  13
ATOM     13  C   UNL     1       3.805   1.396  -3.749  1.00  0.00     0.135 C 
BRANCH  13  14
ATOM     14  C   UNL     1       2.355   1.004  -3.623  1.00  0.00    -0.035 A 
ATOM     15  C   UNL     1       0.553   0.077  -2.262  1.00  0.00     0.122 A 
ATOM     16  C   UNL     1       1.879   0.496  -2.404  1.00  0.00     0.051 A 
ATOM     17  C   UNL     1      -0.319   0.162  -3.357  1.00  0.00    -0.009 A 
ATOM     18  C   UNL     1       0.141   0.727  -4.558  1.00  0.00     0.007 A 
ATOM     19  C   UNL     1      -1.753  -0.284  -3.273  1.00  0.00     0.048 C 
ATOM     20  C   UNL     1       1.466   1.149  -4.691  1.00  0.00     0.005 A 
BRANCH  15  21
ATOM     21  O   UNL     1       0.052  -0.472  -1.111  1.00  0.00    -0.496 OA
ATOM     22  C   UNL     1       0.692  -0.090   0.102  1.00  0.00     0.278 C 
ENDBRANCH  15  21
ENDBRANCH  13  14
ENDBRANCH  10  13
ENDBRANCH   8   9
BRANCH   8  23
ATOM     23  C   UNL     1       5.312  -2.644  -3.504  1.00  0.00     0.027 A 
ATOM     24  C   UNL     1       6.636  -2.323  -3.235  1.00  0.00     0.017 A 
ATOM     25  S   UNL     1       5.007  -4.280  -3.075  1.00  0.00    -0.147 S 
ATOM     26  C   UNL     1       7.408  -3.439  -2.807  1.00  0.00     0.012 A 
ATOM     27  C   UNL     1       6.649  -4.581  -2.722  1.00  0.00     0.065 A 
ENDBRANCH   8  23
ENDBRANCH   7   8
ENDBRANCH   4   7
ENDBRANCH   2   3
ENDBRANCH   1   2
BRANCH   1  28
ATOM     28  C   UNL     1       5.737  -2.082  -9.378  1.00  0.00     0.002 C 
BRANCH  28  29
ATOM     29  C   UNL     1       4.860  -1.883 -10.622  1.00  0.00     0.002 C 
BRANCH  29  30
ATOM     30  C   UNL     1       4.426  -0.447 -10.914  1.00  0.00     0.021 C 
BRANCH  30  31
ATOM     31  C   UNL     1       5.558   0.489 -11.317  1.00  0.00     0.116 C 
BRANCH  31  32
ATOM     32  N   UNL     1       5.775   0.561 -12.757  1.00  0.00    -0.352 N 
ATOM     33  C   UNL     1       6.729   1.272 -13.466  1.00  0.00     0.251 C 
ATOM     34  H   UNL     1       5.153   0.029 -13.305  1.00  0.00     0.163 HD
ATOM     35  O   UNL     1       6.762   1.226 -14.684  1.00  0.00    -0.269 OA
BRANCH  33  36
ATOM     36  C   UNL     1       7.791   1.988 -12.720  1.00  0.00     0.039 A 
ATOM     37  C   UNL     1       9.123   1.752 -13.081  1.00  0.00     0.014 A 
ATOM     38  C   UNL     1       7.492   2.717 -11.573  1.00  0.00     0.014 A 
ATOM     39  C   UNL     1      10.137   2.031 -12.169  1.00  0.00     0.010 A 
ATOM     40  C   UNL     1       8.481   2.905 -10.628  1.00  0.00     0.010 A 
ATOM     41  C   UNL     1       9.791   2.494 -10.900  1.00  0.00    -0.014 A 
BRANCH  41  42
ATOM     42  C   UNL     1      10.695   2.453  -9.758  1.00  0.00     0.031 A 
ATOM     43  C   UNL     1      11.266   3.696  -9.200  1.00  0.00     0.074 A 
ATOM     44  C   UNL     1      10.919   1.270  -9.142  1.00  0.00     0.049 A 
ATOM     45  N   UNL     1      12.274   3.724  -8.393  1.00  0.00    -0.248 NA
ATOM     46  C   UNL     1      10.803   5.027  -9.577  1.00  0.00     0.031 C 
ATOM     47  C   UNL     1      11.482   1.058  -7.811  1.00  0.00     0.029 A 
ATOM     48  N   UNL     1      10.864  -0.017  -9.707  1.00  0.00    -0.354 N 
ATOM     49  C   UNL     1      12.388   5.006  -7.910  1.00  0.00     0.074 A 
ATOM     50  C   UNL     1      11.563   5.795  -8.788  1.00  0.00     0.031 C 
ATOM     51  C   UNL     1      11.991  -0.181  -7.748  1.00  0.00     0.029 A 
ATOM     52  C   UNL     1      11.909  -0.742  -9.084  1.00  0.00     0.049 A 
ATOM     53  H   UNL     1      10.234  -0.344 -10.389  1.00  0.00     0.167 HD
ATOM     54  C   UNL     1      13.050   5.197  -6.732  1.00  0.00     0.037 A 
ATOM     55  C   UNL     1      12.972  -1.226  -9.788  1.00  0.00     0.037 A 
ATOM     56  C   UNL     1      13.814   3.999  -6.368  1.00  0.00     0.049 A 
ATOM     57  C   UNL     1      14.316  -0.747  -9.297  1.00  0.00     0.074 A 
ATOM     58  C   UNL     1      13.656   3.021  -5.401  1.00  0.00     0.029 A 
ATOM     59  N   UNL     1      14.810   3.544  -7.229  1.00  0.00    -0.354 N 
ATOM     60  N   UNL     1      14.482   0.311  -8.553  1.00  0.00    -0.248 NA
ATOM     61  C   UNL     1      15.580  -1.394  -9.635  1.00  0.00     0.031 C 
ATOM     62  C   UNL     1      14.527   1.945  -5.721  1.00  0.00     0.029 A 
ATOM     63  C   UNL     1      15.234   2.284  -6.863  1.00  0.00     0.049 A 
ATOM     64  H   UNL     1      15.164   4.053  -7.994  1.00  0.00     0.167 HD
ATOM     65  C   UNL     1      15.820   0.513  -8.332  1.00  0.00     0.074 A 
ATOM     66  C   UNL     1      16.464  -0.596  -9.010  1.00  0.00     0.031 C 
ATOM     67  C   UNL     1      16.267   1.593  -7.624  1.00  0.00     0.037 A 
BRANCH  54  68
ATOM     68  C   UNL     1      12.847   6.363  -5.771  1.00  0.00     0.064 A 
ATOM     69  C   UNL     1      13.471   6.348  -4.499  1.00  0.00     0.173 A 
ATOM     70  C   UNL     1      11.967   7.450  -5.961  1.00  0.00     0.173 A 
ATOM     71  F   UNL     1      14.362   5.404  -4.168  1.00  0.00    -0.203 F 
ATOM     72  C   UNL     1      13.190   7.293  -3.502  1.00  0.00     0.198 A 
ATOM     73  C   UNL     1      11.714   8.413  -4.977  1.00  0.00     0.198 A 
ATOM     74  F   UNL     1      11.277   7.631  -7.087  1.00  0.00    -0.203 F 
ATOM     75  F   UNL     1      13.769   7.182  -2.298  1.00  0.00    -0.200 F 
ATOM     76  C   UNL     1      12.309   8.324  -3.740  1.00  0.00     0.200 A 
ATOM     77  F   UNL     1      10.860   9.414  -5.239  1.00  0.00    -0.200 F 
ATOM     78  F   UNL     1      12.028   9.222  -2.787  1.00  0.00    -0.200 F 
ENDBRANCH  54  68
BRANCH  55  79
ATOM     79  C   UNL     1      12.645  -1.542 -11.201  1.00  0.00     0.064 A 
ATOM     80  C   UNL     1      11.715  -2.568 -11.457  1.00  0.00     0.173 A 
ATOM     81  C   UNL     1      12.911  -0.635 -12.233  1.00  0.00     0.173 A 
ATOM     82  F   UNL     1      11.423  -3.461 -10.498  1.00  0.00    -0.203 F 
ATOM     83  C   UNL     1      10.995  -2.611 -12.649  1.00  0.00     0.198 A 
ATOM     84  C   UNL     1      12.196  -0.689 -13.431  1.00  0.00     0.198 A 
ATOM     85  F   UNL     1      13.772   0.375 -12.042  1.00  0.00    -0.203 F 
ATOM     86  F   UNL     1      10.035  -3.532 -12.817  1.00  0.00    -0.200 F 
ATOM     87  C   UNL     1      11.216  -1.653 -13.623  1.00  0.00     0.200 A 
ATOM     88  F   UNL     1      12.386   0.256 -14.364  1.00  0.00    -0.200 F 
ATOM     89  F   UNL     1      10.457  -1.631 -14.728  1.00  0.00    -0.200 F 
ENDBRANCH  55  79
BRANCH  67  90
ATOM     90  C   UNL     1      17.701   2.069  -7.505  1.00  0.00     0.064 A 
ATOM     91  C   UNL     1      18.710   1.800  -8.445  1.00  0.00     0.173 A 
ATOM     92  C   UNL     1      18.070   2.965  -6.468  1.00  0.00     0.173 A 
ATOM     93  F   UNL     1      18.469   1.073  -9.542  1.00  0.00    -0.203 F 
ATOM     94  C   UNL     1      20.000   2.330  -8.323  1.00  0.00     0.198 A 
ATOM     95  C   UNL     1      19.339   3.538  -6.384  1.00  0.00     0.198 A 
ATOM     96  F   UNL     1      17.200   3.336  -5.518  1.00  0.00    -0.203 F 
ATOM     97  F   UNL     1      20.936   2.007  -9.227  1.00  0.00    -0.200 F 
ATOM     98  C   UNL     1      20.311   3.208  -7.302  1.00  0.00     0.200 A 
ATOM     99  F   UNL     1      19.604   4.430  -5.418  1.00  0.00    -0.200 F 
ATOM    100  F   UNL     1      21.532   3.750  -7.219  1.00  0.00    -0.200 F 
ENDBRANCH  67  90
ENDBRANCH  41  42
ENDBRANCH  33  36
ENDBRANCH  31  32
ENDBRANCH  30  31
ENDBRANCH  29  30
ENDBRANCH  28  29
ENDBRANCH   1  28
TORSDOF 19
