REMARK SMILES COC(=O)c1cc(CSc2csc(C(=O)NCCCCCCNC(=O)c3ccc(-c4c5nc(c(-c6c(F)c(F)c(F)c(F)c6F)c6ccc([nH]6)c(-c6c(F)c(F)c(F)c(F)c6F)c6nc(c(-c7c(F)c(F)c(F)c(F)c7F)c7ccc4[nH]7)C=C6)C=C5)cc3)c2)oc1C
REMARK SMILES IDX 18 1 17 2 16 3 14 4 15 5 13 7 10 8 11 9 89 10 12 11 9 12
REMARK SMILES IDX 8 13 7 14 5 15 6 16 91 17 90 18 92 19 3 20 4 21 2 22 1 23
REMARK SMILES IDX 19 24 20 25 21 26 22 27 23 28 24 29 25 31 26 32 27 33 88 34
REMARK SMILES IDX 28 35 87 36 29 37 30 38 31 39 81 40 32 41 86 42 80 43 82 44
REMARK SMILES IDX 33 45 85 46 79 47 78 48 34 50 66 51 46 52 65 53 47 54 50 55
REMARK SMILES IDX 64 56 83 57 48 58 49 59 63 61 84 62 51 63 35 64 36 65 44 66
REMARK SMILES IDX 37 67 38 68 42 69 45 70 39 71 40 72 43 73 41 74 67 75 68 76
REMARK SMILES IDX 76 77 69 78 70 79 74 80 77 81 71 82 72 83 75 84 73 85 52 86
REMARK SMILES IDX 53 87 61 88 54 89 55 90 59 91 62 92 56 93 57 94 60 95 58 96
REMARK H PARENT 16 6 23 30 82 49 50 60
REMARK Flexibility Score: inf
ROOT
ATOM      1  C   UNL     1      -5.214  -9.887  -5.208  1.00  0.00     0.021 C 
ENDROOT
BRANCH   1   2
ATOM      2  C   UNL     1      -3.818  -9.327  -5.480  1.00  0.00     0.116 C 
BRANCH   2   3
ATOM      3  N   UNL     1      -3.920  -8.036  -6.121  1.00  0.00    -0.351 N 
ATOM      4  C   UNL     1      -3.783  -6.751  -5.661  1.00  0.00     0.261 C 
ATOM      5  O   UNL     1      -4.003  -5.882  -6.511  1.00  0.00    -0.268 OA
ATOM      6  H   UNL     1      -4.130  -8.090  -7.081  1.00  0.00     0.163 HD
BRANCH   4   7
ATOM      7  C   UNL     1      -3.365  -6.450  -4.297  1.00  0.00     0.093 A 
ATOM      8  C   UNL     1      -2.600  -6.523  -2.071  1.00  0.00     0.019 A 
ATOM      9  C   UNL     1      -2.362  -5.214  -2.394  1.00  0.00     0.080 A 
ATOM     10  C   UNL     1      -3.280  -7.196  -3.134  1.00  0.00     0.040 A 
ATOM     11  S   UNL     1      -2.855  -4.831  -3.982  1.00  0.00    -0.137 S 
BRANCH   8  12
ATOM     12  S   UNL     1      -2.125  -7.423  -0.636  1.00  0.00    -0.117 SA
BRANCH  12  13
ATOM     13  C   UNL     1      -1.817  -6.213   0.672  1.00  0.00     0.150 C 
BRANCH  13  14
ATOM     14  C   UNL     1      -0.721  -5.251   0.397  1.00  0.00     0.115 A 
ATOM     15  C   UNL     1       0.606  -3.501  -0.108  1.00  0.00     0.101 A 
ATOM     16  C   UNL     1      -0.667  -3.873   0.416  1.00  0.00     0.062 A 
ATOM     17  C   UNL     1       1.286  -4.692  -0.300  1.00  0.00     0.115 A 
ATOM     18  O   UNL     1       0.488  -5.752   0.016  1.00  0.00    -0.465 OA
ATOM     19  C   UNL     1       2.649  -5.038  -0.759  1.00  0.00     0.088 C 
BRANCH  15  20
ATOM     20  C   UNL     1       1.111  -2.173  -0.403  1.00  0.00     0.341 C 
ATOM     21  O   UNL     1       2.059  -1.954  -1.142  1.00  0.00    -0.246 OA
BRANCH  20  22
ATOM     22  O   UNL     1       0.399  -1.204   0.245  1.00  0.00    -0.465 OA
ATOM     23  C   UNL     1       0.911   0.115   0.055  1.00  0.00     0.282 C 
ENDBRANCH  20  22
ENDBRANCH  15  20
ENDBRANCH  13  14
ENDBRANCH  12  13
ENDBRANCH   8  12
ENDBRANCH   4   7
ENDBRANCH   2   3
ENDBRANCH   1   2
BRANCH   1  24
ATOM     24  C   UNL     1      -5.849 -10.518  -6.455  1.00  0.00     0.002 C 
BRANCH  24  25
ATOM     25  C   UNL     1      -5.042 -11.674  -7.063  1.00  0.00     0.002 C 
BRANCH  25  26
ATOM     26  C   UNL     1      -4.687 -12.790  -6.077  1.00  0.00     0.021 C 
BRANCH  26  27
ATOM     27  C   UNL     1      -5.901 -13.486  -5.473  1.00  0.00     0.116 C 
BRANCH  27  28
ATOM     28  N   UNL     1      -6.697 -14.142  -6.497  1.00  0.00    -0.352 N 
ATOM     29  C   UNL     1      -7.088 -15.451  -6.591  1.00  0.00     0.251 C 
ATOM     30  H   UNL     1      -7.000 -13.560  -7.231  1.00  0.00     0.163 HD
ATOM     31  O   UNL     1      -7.531 -15.887  -7.648  1.00  0.00    -0.269 OA
BRANCH  29  32
ATOM     32  C   UNL     1      -6.975 -16.340  -5.417  1.00  0.00     0.039 A 
ATOM     33  C   UNL     1      -6.567 -17.661  -5.611  1.00  0.00     0.014 A 
ATOM     34  C   UNL     1      -7.310 -15.887  -4.137  1.00  0.00     0.014 A 
ATOM     35  C   UNL     1      -6.467 -18.520  -4.516  1.00  0.00     0.010 A 
ATOM     36  C   UNL     1      -7.127 -16.718  -3.037  1.00  0.00     0.010 A 
ATOM     37  C   UNL     1      -6.725 -18.049  -3.218  1.00  0.00    -0.014 A 
BRANCH  37  38
ATOM     38  C   UNL     1      -6.600 -18.949  -2.044  1.00  0.00     0.031 A 
ATOM     39  C   UNL     1      -7.809 -19.279  -1.213  1.00  0.00     0.074 A 
ATOM     40  C   UNL     1      -5.391 -19.438  -1.710  1.00  0.00     0.049 A 
ATOM     41  N   UNL     1      -7.897 -20.027  -0.141  1.00  0.00    -0.248 NA
ATOM     42  C   UNL     1      -9.084 -18.669  -1.622  1.00  0.00     0.031 C 
ATOM     43  C   UNL     1      -4.140 -19.149  -2.413  1.00  0.00     0.029 A 
ATOM     44  N   UNL     1      -5.015 -20.279  -0.693  1.00  0.00    -0.354 N 
ATOM     45  C   UNL     1      -9.228 -19.968   0.252  1.00  0.00     0.074 A 
ATOM     46  C   UNL     1      -9.898 -19.062  -0.654  1.00  0.00     0.031 C 
ATOM     47  C   UNL     1      -3.141 -19.828  -1.827  1.00  0.00     0.029 A 
ATOM     48  C   UNL     1      -3.671 -20.564  -0.684  1.00  0.00     0.049 A 
ATOM     49  H   UNL     1      -5.648 -20.643  -0.033  1.00  0.00     0.167 HD
ATOM     50  C   UNL     1      -9.841 -20.632   1.261  1.00  0.00     0.037 A 
ATOM     51  C   UNL     1      -2.950 -21.330   0.155  1.00  0.00     0.037 A 
ATOM     52  C   UNL     1      -9.169 -21.544   2.150  1.00  0.00     0.049 A 
ATOM     53  C   UNL     1      -3.653 -22.044   1.278  1.00  0.00     0.074 A 
ATOM     54  C   UNL     1      -9.707 -22.306   3.172  1.00  0.00     0.029 A 
ATOM     55  N   UNL     1      -7.808 -21.814   2.124  1.00  0.00    -0.354 N 
ATOM     56  N   UNL     1      -4.925 -22.038   1.597  1.00  0.00    -0.248 NA
ATOM     57  C   UNL     1      -2.820 -22.882   2.152  1.00  0.00     0.031 C 
ATOM     58  C   UNL     1      -8.662 -22.988   3.804  1.00  0.00     0.029 A 
ATOM     59  C   UNL     1      -7.484 -22.710   3.130  1.00  0.00     0.049 A 
ATOM     60  H   UNL     1      -7.167 -21.425   1.485  1.00  0.00     0.167 HD
ATOM     61  C   UNL     1      -5.051 -22.897   2.681  1.00  0.00     0.074 A 
ATOM     62  C   UNL     1      -3.728 -23.416   2.957  1.00  0.00     0.031 C 
ATOM     63  C   UNL     1      -6.163 -23.227   3.384  1.00  0.00     0.037 A 
BRANCH  50  64
ATOM     64  C   UNL     1     -11.311 -20.393   1.461  1.00  0.00     0.064 A 
ATOM     65  C   UNL     1     -12.264 -20.827   0.526  1.00  0.00     0.173 A 
ATOM     66  C   UNL     1     -11.778 -19.755   2.621  1.00  0.00     0.173 A 
ATOM     67  F   UNL     1     -11.874 -21.433  -0.605  1.00  0.00    -0.203 F 
ATOM     68  C   UNL     1     -13.624 -20.602   0.728  1.00  0.00     0.198 A 
ATOM     69  C   UNL     1     -13.140 -19.564   2.837  1.00  0.00     0.198 A 
ATOM     70  F   UNL     1     -10.913 -19.325   3.552  1.00  0.00    -0.203 F 
ATOM     71  F   UNL     1     -14.509 -20.975  -0.206  1.00  0.00    -0.200 F 
ATOM     72  C   UNL     1     -14.061 -19.978   1.887  1.00  0.00     0.200 A 
ATOM     73  F   UNL     1     -13.562 -18.976   3.965  1.00  0.00    -0.200 F 
ATOM     74  F   UNL     1     -15.370 -19.771   2.085  1.00  0.00    -0.200 F 
ENDBRANCH  50  64
BRANCH  51  75
ATOM     75  C   UNL     1      -1.485 -21.482  -0.050  1.00  0.00     0.064 A 
ATOM     76  C   UNL     1      -0.933 -22.712  -0.434  1.00  0.00     0.173 A 
ATOM     77  C   UNL     1      -0.606 -20.405   0.140  1.00  0.00     0.173 A 
ATOM     78  F   UNL     1      -1.729 -23.777  -0.613  1.00  0.00    -0.203 F 
ATOM     79  C   UNL     1       0.443 -22.867  -0.593  1.00  0.00     0.198 A 
ATOM     80  C   UNL     1       0.766 -20.553  -0.052  1.00  0.00     0.198 A 
ATOM     81  F   UNL     1      -1.082 -19.204   0.500  1.00  0.00    -0.203 F 
ATOM     82  F   UNL     1       0.948 -24.068  -0.907  1.00  0.00    -0.200 F 
ATOM     83  C   UNL     1       1.290 -21.786  -0.407  1.00  0.00     0.200 A 
ATOM     84  F   UNL     1       1.579 -19.500   0.111  1.00  0.00    -0.200 F 
ATOM     85  F   UNL     1       2.613 -21.934  -0.563  1.00  0.00    -0.200 F 
ENDBRANCH  51  75
BRANCH  63  86
ATOM     86  C   UNL     1      -6.009 -24.238   4.484  1.00  0.00     0.064 A 
ATOM     87  C   UNL     1      -5.322 -23.946   5.672  1.00  0.00     0.173 A 
ATOM     88  C   UNL     1      -6.592 -25.510   4.361  1.00  0.00     0.173 A 
ATOM     89  F   UNL     1      -4.734 -22.751   5.836  1.00  0.00    -0.203 F 
ATOM     90  C   UNL     1      -5.195 -24.900   6.679  1.00  0.00     0.198 A 
ATOM     91  C   UNL     1      -6.496 -26.447   5.385  1.00  0.00     0.198 A 
ATOM     92  F   UNL     1      -7.269 -25.838   3.250  1.00  0.00    -0.203 F 
ATOM     93  F   UNL     1      -4.485 -24.618   7.780  1.00  0.00    -0.200 F 
ATOM     94  C   UNL     1      -5.790 -26.145   6.538  1.00  0.00     0.200 A 
ATOM     95  F   UNL     1      -7.087 -27.642   5.255  1.00  0.00    -0.200 F 
ATOM     96  F   UNL     1      -5.674 -27.058   7.513  1.00  0.00    -0.200 F 
ENDBRANCH  63  86
ENDBRANCH  37  38
ENDBRANCH  29  32
ENDBRANCH  27  28
ENDBRANCH  26  27
ENDBRANCH  25  26
ENDBRANCH  24  25
ENDBRANCH   1  24
TORSDOF 18
