REMARK SMILES O=C(NCCCCCCNC(=O)c1ccc(Cl)cc1-c1ccc(C(F)(F)F)cc1)c1ccc(-c2c3nc(c(-c4c(F)c(F)c(F)c(F)c4F)c4ccc([nH]4)c(-c4c(F)c(F)c(F)c(F)c4F)c4nc(c(-c5c(F)c(F)c(F)c(F)c5F)c5ccc2[nH]5)C=C4)C=C3)cc1
REMARK SMILES IDX 6 1 5 2 4 3 3 4 1 5 2 6 30 8 31 9 92 10 32 11 91 12 33 13
REMARK SMILES IDX 34 14 35 15 85 16 36 17 90 18 84 19 86 20 37 21 89 22 83 23
REMARK SMILES IDX 82 24 38 26 70 27 50 28 69 29 51 30 54 31 68 32 87 33 52 34
REMARK SMILES IDX 53 35 67 37 88 38 55 39 39 40 40 41 48 42 41 43 42 44 46 45
REMARK SMILES IDX 49 46 43 47 44 48 47 49 45 50 71 51 72 52 80 53 73 54 74 55
REMARK SMILES IDX 78 56 81 57 75 58 76 59 79 60 77 61 56 62 57 63 65 64 58 65
REMARK SMILES IDX 59 66 63 67 66 68 60 69 61 70 64 71 62 72 7 73 8 74 9 75
REMARK SMILES IDX 10 76 11 77 12 79 13 80 14 81 19 82 15 83 18 84 16 85 17 86
REMARK SMILES IDX 20 87 21 88 29 89 22 90 28 91 23 92 24 93 25 94 26 95 27 96
REMARK H PARENT 3 7 86 25 54 36 10 78
REMARK Flexibility Score: inf
ROOT
ATOM      1  C   UNL     1       4.361  -1.401   3.489  1.00  0.00     0.002 C 
ENDROOT
BRANCH   1   2
ATOM      2  C   UNL     1       4.834  -0.352   2.481  1.00  0.00     0.021 C 
BRANCH   2   3
ATOM      3  C   UNL     1       4.560  -0.689   1.019  1.00  0.00     0.116 C 
BRANCH   3   4
ATOM      4  N   UNL     1       3.139  -0.793   0.732  1.00  0.00    -0.352 N 
ATOM      5  O   UNL     1       1.151  -0.192  -0.144  1.00  0.00    -0.269 OA
ATOM      6  C   UNL     1       2.376  -0.093  -0.165  1.00  0.00     0.251 C 
ATOM      7  H   UNL     1       2.653  -1.466   1.261  1.00  0.00     0.163 HD
BRANCH   6   8
ATOM      8  C   UNL     1       3.019   0.799  -1.152  1.00  0.00     0.039 A 
ATOM      9  C   UNL     1       4.132   0.380  -1.888  1.00  0.00     0.014 A 
ATOM     10  C   UNL     1       2.469   2.065  -1.370  1.00  0.00     0.014 A 
ATOM     11  C   UNL     1       4.760   1.264  -2.762  1.00  0.00     0.010 A 
ATOM     12  C   UNL     1       3.060   2.927  -2.296  1.00  0.00     0.010 A 
ATOM     13  C   UNL     1       4.222   2.541  -2.983  1.00  0.00    -0.014 A 
BRANCH  13  14
ATOM     14  C   UNL     1       4.838   3.456  -3.974  1.00  0.00     0.031 A 
ATOM     15  C   UNL     1       5.458   4.750  -3.539  1.00  0.00     0.074 A 
ATOM     16  C   UNL     1       4.787   3.135  -5.280  1.00  0.00     0.049 A 
ATOM     17  N   UNL     1       5.944   5.723  -4.268  1.00  0.00    -0.248 NA
ATOM     18  C   UNL     1       5.531   4.989  -2.090  1.00  0.00     0.031 C 
ATOM     19  C   UNL     1       4.203   1.907  -5.821  1.00  0.00     0.029 A 
ATOM     20  N   UNL     1       5.210   3.822  -6.390  1.00  0.00    -0.354 N 
ATOM     21  C   UNL     1       6.357   6.699  -3.372  1.00  0.00     0.074 A 
ATOM     22  C   UNL     1       6.044   6.211  -2.045  1.00  0.00     0.031 C 
ATOM     23  C   UNL     1       4.301   1.928  -7.158  1.00  0.00     0.029 A 
ATOM     24  C   UNL     1       4.898   3.194  -7.570  1.00  0.00     0.049 A 
ATOM     25  H   UNL     1       5.691   4.680  -6.344  1.00  0.00     0.167 HD
ATOM     26  C   UNL     1       6.945   7.891  -3.636  1.00  0.00     0.037 A 
ATOM     27  C   UNL     1       5.038   3.607  -8.843  1.00  0.00     0.037 A 
ATOM     28  C   UNL     1       7.254   8.363  -4.962  1.00  0.00     0.049 A 
ATOM     29  C   UNL     1       5.657   4.948  -9.116  1.00  0.00     0.074 A 
ATOM     30  C   UNL     1       7.894   9.531  -5.335  1.00  0.00     0.029 A 
ATOM     31  N   UNL     1       6.929   7.694  -6.135  1.00  0.00    -0.354 N 
ATOM     32  N   UNL     1       6.087   5.845  -8.262  1.00  0.00    -0.248 NA
ATOM     33  C   UNL     1       5.811   5.335 -10.524  1.00  0.00     0.031 C 
ATOM     34  C   UNL     1       7.904   9.598  -6.733  1.00  0.00     0.029 A 
ATOM     35  C   UNL     1       7.327   8.441  -7.232  1.00  0.00     0.049 A 
ATOM     36  H   UNL     1       6.481   6.818  -6.180  1.00  0.00     0.167 HD
ATOM     37  C   UNL     1       6.586   6.890  -9.026  1.00  0.00     0.074 A 
ATOM     38  C   UNL     1       6.407   6.515 -10.414  1.00  0.00     0.031 C 
ATOM     39  C   UNL     1       7.149   8.052  -8.610  1.00  0.00     0.037 A 
BRANCH  26  40
ATOM     40  C   UNL     1       7.258   8.784  -2.469  1.00  0.00     0.064 A 
ATOM     41  C   UNL     1       8.254   8.464  -1.535  1.00  0.00     0.173 A 
ATOM     42  C   UNL     1       6.556   9.987  -2.291  1.00  0.00     0.173 A 
ATOM     43  F   UNL     1       8.949   7.323  -1.653  1.00  0.00    -0.203 F 
ATOM     44  C   UNL     1       8.508   9.293  -0.444  1.00  0.00     0.198 A 
ATOM     45  C   UNL     1       6.835  10.829  -1.217  1.00  0.00     0.198 A 
ATOM     46  F   UNL     1       5.600  10.348  -3.159  1.00  0.00    -0.203 F 
ATOM     47  F   UNL     1       9.421   8.935   0.469  1.00  0.00    -0.200 F 
ATOM     48  C   UNL     1       7.802  10.476  -0.288  1.00  0.00     0.200 A 
ATOM     49  F   UNL     1       6.161  11.979  -1.077  1.00  0.00    -0.200 F 
ATOM     50  F   UNL     1       8.045  11.271   0.763  1.00  0.00    -0.200 F 
ENDBRANCH  26  40
BRANCH  27  51
ATOM     51  C   UNL     1       4.563   2.729  -9.941  1.00  0.00     0.064 A 
ATOM     52  C   UNL     1       5.469   2.054 -10.769  1.00  0.00     0.173 A 
ATOM     53  C   UNL     1       3.194   2.496 -10.140  1.00  0.00     0.173 A 
ATOM     54  F   UNL     1       6.786   2.257 -10.625  1.00  0.00    -0.203 F 
ATOM     55  C   UNL     1       5.022   1.178 -11.756  1.00  0.00     0.198 A 
ATOM     56  C   UNL     1       2.750   1.599 -11.108  1.00  0.00     0.198 A 
ATOM     57  F   UNL     1       2.288   3.112  -9.365  1.00  0.00    -0.203 F 
ATOM     58  F   UNL     1       5.907   0.559 -12.549  1.00  0.00    -0.200 F 
ATOM     59  C   UNL     1       3.664   0.943 -11.918  1.00  0.00     0.200 A 
ATOM     60  F   UNL     1       1.439   1.360 -11.247  1.00  0.00    -0.200 F 
ATOM     61  F   UNL     1       3.238   0.083 -12.852  1.00  0.00    -0.200 F 
ENDBRANCH  27  51
BRANCH  39  62
ATOM     62  C   UNL     1       7.656   8.993  -9.663  1.00  0.00     0.064 A 
ATOM     63  C   UNL     1       6.786   9.764 -10.445  1.00  0.00     0.173 A 
ATOM     64  C   UNL     1       9.037   9.179  -9.834  1.00  0.00     0.173 A 
ATOM     65  F   UNL     1       5.458   9.610 -10.330  1.00  0.00    -0.203 F 
ATOM     66  C   UNL     1       7.280  10.685 -11.366  1.00  0.00     0.198 A 
ATOM     67  C   UNL     1       9.526  10.119 -10.736  1.00  0.00     0.198 A 
ATOM     68  F   UNL     1       9.910   8.467  -9.107  1.00  0.00    -0.203 F 
ATOM     69  F   UNL     1       6.431  11.393 -12.124  1.00  0.00    -0.200 F 
ATOM     70  C   UNL     1       8.648  10.870 -11.502  1.00  0.00     0.200 A 
ATOM     71  F   UNL     1      10.848  10.306 -10.855  1.00  0.00    -0.200 F 
ATOM     72  F   UNL     1       9.121  11.771 -12.374  1.00  0.00    -0.200 F 
ENDBRANCH  39  62
ENDBRANCH  13  14
ENDBRANCH   6   8
ENDBRANCH   3   4
ENDBRANCH   2   3
ENDBRANCH   1   2
BRANCH   1  73
ATOM     73  C   UNL     1       4.888  -2.821   3.263  1.00  0.00     0.002 C 
BRANCH  73  74
ATOM     74  C   UNL     1       6.410  -2.959   3.165  1.00  0.00     0.021 C 
BRANCH  74  75
ATOM     75  C   UNL     1       7.194  -2.399   4.348  1.00  0.00     0.116 C 
BRANCH  75  76
ATOM     76  N   UNL     1       6.872  -3.066   5.597  1.00  0.00    -0.352 N 
ATOM     77  C   UNL     1       7.712  -3.645   6.516  1.00  0.00     0.251 C 
ATOM     78  H   UNL     1       5.913  -3.110   5.817  1.00  0.00     0.163 HD
ATOM     79  O   UNL     1       7.259  -4.178   7.525  1.00  0.00    -0.269 OA
BRANCH  77  80
ATOM     80  C   UNL     1       9.173  -3.594   6.289  1.00  0.00     0.047 A 
ATOM     81  C   UNL     1       9.779  -2.325   6.253  1.00  0.00     0.016 A 
ATOM     82  C   UNL     1       9.940  -4.769   6.151  1.00  0.00    -0.004 A 
ATOM     83  C   UNL     1      11.146  -2.207   6.012  1.00  0.00     0.021 A 
ATOM     84  C   UNL     1      11.321  -4.620   5.909  1.00  0.00     0.030 A 
ATOM     85  C   UNL     1      11.909  -3.356   5.831  1.00  0.00     0.041 A 
ATOM     86  Cl  UNL     1      13.594  -3.216   5.514  1.00  0.00    -0.084 Cl
BRANCH  82  87
ATOM     87  C   UNL     1       9.379  -6.128   6.263  1.00  0.00    -0.018 A 
ATOM     88  C   UNL     1       9.800  -6.980   7.298  1.00  0.00     0.009 A 
ATOM     89  C   UNL     1       8.432  -6.615   5.350  1.00  0.00     0.009 A 
ATOM     90  C   UNL     1       9.286  -8.274   7.422  1.00  0.00     0.014 A 
ATOM     91  C   UNL     1       7.913  -7.909   5.474  1.00  0.00     0.014 A 
ATOM     92  C   UNL     1       8.333  -8.752   6.513  1.00  0.00     0.056 A 
BRANCH  92  93
ATOM     93  C   UNL     1       7.783 -10.149   6.666  1.00  0.00     0.416 C 
ATOM     94  F   UNL     1       8.746 -11.103   6.527  1.00  0.00    -0.166 F 
ATOM     95  F   UNL     1       7.223 -10.362   7.889  1.00  0.00    -0.166 F 
ATOM     96  F   UNL     1       6.819 -10.460   5.755  1.00  0.00    -0.166 F 
ENDBRANCH  92  93
ENDBRANCH  82  87
ENDBRANCH  77  80
ENDBRANCH  75  76
ENDBRANCH  74  75
ENDBRANCH  73  74
ENDBRANCH   1  73
TORSDOF 15
