REMARK SMILES O=C(CC1CC[NH+](CCC(=O)NC2CC2)CC1)NCCCCCCNC(=O)c1ccc(-c2c3nc(c(-c4c(F)c(F)c(F)c(F)c4F)c4ccc([nH]4)c(-c4c(F)c(F)c(F)c(F)c4F)c4nc(c(-c5c(F)c(F)c(F)c(F)c5F)c5ccc2[nH]5)C=C4)C=C3)cc1
REMARK SMILES IDX 20 1 19 2 18 3 1 4 2 5 3 7 4 8 5 9 17 10 6 11 16 12 7 13
REMARK SMILES IDX 8 15 9 16 10 17 11 18 12 19 13 21 14 22 15 23 21 24 22 25
REMARK SMILES IDX 23 26 24 27 25 28 26 29 27 31 28 32 29 33 90 34 30 35 89 36
REMARK SMILES IDX 31 37 32 38 33 39 83 40 34 41 88 42 82 43 84 44 35 45 87 46
REMARK SMILES IDX 81 47 80 48 36 50 68 51 48 52 67 53 49 54 52 55 66 56 85 57
REMARK SMILES IDX 50 58 51 59 65 61 86 62 53 63 37 64 38 65 46 66 39 67 40 68
REMARK SMILES IDX 44 69 47 70 41 71 42 72 45 73 43 74 69 75 70 76 78 77 71 78
REMARK SMILES IDX 72 79 76 80 79 81 73 82 74 83 77 84 75 85 54 86 55 87 63 88
REMARK SMILES IDX 56 89 57 90 61 91 64 92 58 93 59 94 62 95 60 96
REMARK H PARENT 18 6 7 14 12 20 25 30 84 49 52 60
REMARK Flexibility Score: inf
ROOT
ATOM      1  C   UNL     1       2.767  -2.655   2.121  1.00  0.00     0.021 C 
ENDROOT
BRANCH   1   2
ATOM      2  C   UNL     1       2.292  -1.223   2.391  1.00  0.00     0.116 C 
BRANCH   2   3
ATOM      3  N   UNL     1       3.047  -0.275   1.600  1.00  0.00    -0.356 N 
ATOM      4  O   UNL     1       1.387   1.289   1.326  1.00  0.00    -0.275 OA
ATOM      5  C   UNL     1       2.478   0.829   1.012  1.00  0.00     0.220 C 
ATOM      6  H   UNL     1       4.012  -0.428   1.477  1.00  0.00     0.163 HD
BRANCH   5   7
ATOM      7  C   UNL     1       3.257   1.302  -0.201  1.00  0.00     0.104 C 
BRANCH   7   8
ATOM      8  C   UNL     1       4.562   2.072   0.052  1.00  0.00     0.009 C 
ATOM      9  C   UNL     1       4.499   3.490  -0.523  1.00  0.00     0.066 C 
ATOM     10  C   UNL     1       5.803   1.351  -0.517  1.00  0.00     0.066 C 
ATOM     11  C   UNL     1       4.646   3.595  -2.052  1.00  0.00     0.262 C 
ATOM     12  C   UNL     1       6.222   1.741  -1.950  1.00  0.00     0.262 C 
ATOM     13  N   UNL     1       5.188   2.413  -2.735  1.00  0.00    -0.334 N 
ATOM     14  H   UNL     1       4.428   1.740  -2.834  1.00  0.00     0.348 HD
BRANCH  13  15
ATOM     15  C   UNL     1       5.665   2.769  -4.096  1.00  0.00     0.272 C 
BRANCH  15  16
ATOM     16  C   UNL     1       4.873   2.209  -5.277  1.00  0.00     0.161 C 
BRANCH  16  17
ATOM     17  C   UNL     1       3.438   2.655  -5.408  1.00  0.00     0.225 C 
ATOM     18  O   UNL     1       3.145   3.644  -6.086  1.00  0.00    -0.275 OA
ATOM     19  N   UNL     1       2.429   1.928  -4.838  1.00  0.00    -0.353 N 
ATOM     20  H   UNL     1       1.543   2.038  -5.253  1.00  0.00     0.163 HD
BRANCH  19  21
ATOM     21  C   UNL     1       2.479   1.032  -3.731  1.00  0.00     0.082 C 
ATOM     22  C   UNL     1       2.112  -0.423  -3.861  1.00  0.00     0.027 C 
ATOM     23  C   UNL     1       3.506  -0.041  -3.504  1.00  0.00     0.027 C 
ENDBRANCH  19  21
ENDBRANCH  16  17
ENDBRANCH  15  16
ENDBRANCH  13  15
ENDBRANCH   7   8
ENDBRANCH   5   7
ENDBRANCH   2   3
ENDBRANCH   1   2
BRANCH   1  24
ATOM     24  C   UNL     1       4.271  -2.886   2.334  1.00  0.00     0.002 C 
BRANCH  24  25
ATOM     25  C   UNL     1       4.819  -2.375   3.668  1.00  0.00     0.002 C 
BRANCH  25  26
ATOM     26  C   UNL     1       4.138  -2.962   4.903  1.00  0.00     0.021 C 
BRANCH  26  27
ATOM     27  C   UNL     1       4.235  -4.477   5.008  1.00  0.00     0.116 C 
BRANCH  27  28
ATOM     28  N   UNL     1       5.608  -4.926   5.166  1.00  0.00    -0.352 N 
ATOM     29  C   UNL     1       6.145  -5.753   6.123  1.00  0.00     0.251 C 
ATOM     30  H   UNL     1       6.243  -4.590   4.493  1.00  0.00     0.163 HD
ATOM     31  O   UNL     1       7.356  -5.871   6.229  1.00  0.00    -0.269 OA
BRANCH  29  32
ATOM     32  C   UNL     1       5.244  -6.490   7.036  1.00  0.00     0.039 A 
ATOM     33  C   UNL     1       5.569  -6.560   8.392  1.00  0.00     0.014 A 
ATOM     34  C   UNL     1       4.093  -7.121   6.555  1.00  0.00     0.014 A 
ATOM     35  C   UNL     1       4.717  -7.229   9.272  1.00  0.00     0.010 A 
ATOM     36  C   UNL     1       3.202  -7.711   7.446  1.00  0.00     0.010 A 
ATOM     37  C   UNL     1       3.515  -7.790   8.810  1.00  0.00    -0.014 A 
BRANCH  37  38
ATOM     38  C   UNL     1       2.598  -8.504   9.735  1.00  0.00     0.031 A 
ATOM     39  C   UNL     1       2.333  -9.973   9.540  1.00  0.00     0.074 A 
ATOM     40  C   UNL     1       1.980  -7.830  10.723  1.00  0.00     0.049 A 
ATOM     41  N   UNL     1       1.529 -10.767  10.202  1.00  0.00    -0.248 NA
ATOM     42  C   UNL     1       3.049 -10.635   8.436  1.00  0.00     0.031 C 
ATOM     43  C   UNL     1       2.119  -6.396  10.986  1.00  0.00     0.029 A 
ATOM     44  N   UNL     1       1.103  -8.260  11.687  1.00  0.00    -0.354 N 
ATOM     45  C   UNL     1       1.644 -12.011   9.597  1.00  0.00     0.074 A 
ATOM     46  C   UNL     1       2.535 -11.855   8.469  1.00  0.00     0.031 C 
ATOM     47  C   UNL     1       1.371  -6.071  12.053  1.00  0.00     0.029 A 
ATOM     48  C   UNL     1       0.672  -7.261  12.526  1.00  0.00     0.049 A 
ATOM     49  H   UNL     1       0.810  -9.197  11.770  1.00  0.00     0.167 HD
ATOM     50  C   UNL     1       1.088 -13.189   9.969  1.00  0.00     0.037 A 
ATOM     51  C   UNL     1      -0.196  -7.303  13.555  1.00  0.00     0.037 A 
ATOM     52  C   UNL     1       0.211 -13.346  11.099  1.00  0.00     0.049 A 
ATOM     53  C   UNL     1      -0.815  -8.624  13.936  1.00  0.00     0.074 A 
ATOM     54  C   UNL     1      -0.399 -14.497  11.567  1.00  0.00     0.029 A 
ATOM     55  N   UNL     1      -0.178 -12.316  11.943  1.00  0.00    -0.354 N 
ATOM     56  N   UNL     1      -0.658  -9.804  13.386  1.00  0.00    -0.248 NA
ATOM     57  C   UNL     1      -1.720  -8.620  15.094  1.00  0.00     0.031 C 
ATOM     58  C   UNL     1      -1.187 -14.157  12.671  1.00  0.00     0.029 A 
ATOM     59  C   UNL     1      -1.022 -12.805  12.927  1.00  0.00     0.049 A 
ATOM     60  H   UNL     1       0.104 -11.377  11.856  1.00  0.00     0.167 HD
ATOM     61  C   UNL     1      -1.407 -10.686  14.154  1.00  0.00     0.074 A 
ATOM     62  C   UNL     1      -2.005  -9.907  15.217  1.00  0.00     0.031 C 
ATOM     63  C   UNL     1      -1.586 -12.020  13.994  1.00  0.00     0.037 A 
BRANCH  50  64
ATOM     64  C   UNL     1       1.431 -14.405   9.158  1.00  0.00     0.064 A 
ATOM     65  C   UNL     1       2.722 -14.957   9.179  1.00  0.00     0.173 A 
ATOM     66  C   UNL     1       0.456 -15.054   8.386  1.00  0.00     0.173 A 
ATOM     67  F   UNL     1       3.696 -14.368   9.889  1.00  0.00    -0.203 F 
ATOM     68  C   UNL     1       3.030 -16.095   8.439  1.00  0.00     0.198 A 
ATOM     69  C   UNL     1       0.758 -16.211   7.673  1.00  0.00     0.198 A 
ATOM     70  F   UNL     1      -0.795 -14.572   8.333  1.00  0.00    -0.203 F 
ATOM     71  F   UNL     1       4.282 -16.573   8.437  1.00  0.00    -0.200 F 
ATOM     72  C   UNL     1       2.045 -16.727   7.694  1.00  0.00     0.200 A 
ATOM     73  F   UNL     1      -0.198 -16.829   6.965  1.00  0.00    -0.200 F 
ATOM     74  F   UNL     1       2.339 -17.829   6.992  1.00  0.00    -0.200 F 
ENDBRANCH  50  64
BRANCH  51  75
ATOM     75  C   UNL     1      -0.526  -6.066  14.312  1.00  0.00     0.064 A 
ATOM     76  C   UNL     1      -0.157  -5.918  15.657  1.00  0.00     0.173 A 
ATOM     77  C   UNL     1      -1.255  -5.024  13.720  1.00  0.00     0.173 A 
ATOM     78  F   UNL     1       0.526  -6.893  16.275  1.00  0.00    -0.203 F 
ATOM     79  C   UNL     1      -0.541  -4.798  16.392  1.00  0.00     0.198 A 
ATOM     80  C   UNL     1      -1.607  -3.888  14.446  1.00  0.00     0.198 A 
ATOM     81  F   UNL     1      -1.626  -5.109  12.434  1.00  0.00    -0.203 F 
ATOM     82  F   UNL     1      -0.236  -4.717  17.694  1.00  0.00    -0.200 F 
ATOM     83  C   UNL     1      -1.264  -3.782  15.785  1.00  0.00     0.200 A 
ATOM     84  F   UNL     1      -2.291  -2.901  13.850  1.00  0.00    -0.200 F 
ATOM     85  F   UNL     1      -1.640  -2.709  16.493  1.00  0.00    -0.200 F 
ENDBRANCH  51  75
BRANCH  63  86
ATOM     86  C   UNL     1      -2.404 -12.735  15.032  1.00  0.00     0.064 A 
ATOM     87  C   UNL     1      -3.788 -12.542  15.151  1.00  0.00     0.173 A 
ATOM     88  C   UNL     1      -1.791 -13.645  15.907  1.00  0.00     0.173 A 
ATOM     89  F   UNL     1      -4.421 -11.674  14.347  1.00  0.00    -0.203 F 
ATOM     90  C   UNL     1      -4.521 -13.203  16.133  1.00  0.00     0.198 A 
ATOM     91  C   UNL     1      -2.533 -14.332  16.864  1.00  0.00     0.198 A 
ATOM     92  F   UNL     1      -0.472 -13.875  15.830  1.00  0.00    -0.203 F 
ATOM     93  F   UNL     1      -5.831 -12.955  16.270  1.00  0.00    -0.200 F 
ATOM     94  C   UNL     1      -3.894 -14.102  16.984  1.00  0.00     0.200 A 
ATOM     95  F   UNL     1      -1.928 -15.213  17.673  1.00  0.00    -0.200 F 
ATOM     96  F   UNL     1      -4.602 -14.739  17.927  1.00  0.00    -0.200 F 
ENDBRANCH  63  86
ENDBRANCH  37  38
ENDBRANCH  29  32
ENDBRANCH  27  28
ENDBRANCH  26  27
ENDBRANCH  25  26
ENDBRANCH  24  25
ENDBRANCH   1  24
TORSDOF 18
