REMARK SMILES Cc1ccc(-c2c(C(=O)NCCCCCCNC(=O)c3ccc(-c4c5nc(c(-c6c(F)c(F)c(F)c(F)c6F)c6ccc([nH]6)c(-c6c(F)c(F)c(F)c(F)c6F)c6nc(c(-c7c(F)c(F)c(F)c(F)c7F)c7ccc4[nH]7)C=C6)C=C5)cc3)nnn2Cc2c(F)cccc2Cl)cc1
REMARK SMILES IDX 13 1 12 2 11 3 10 4 8 5 9 6 7 8 6 9 85 10 83 11 84 12 5 13
REMARK SMILES IDX 1 14 2 15 3 16 96 17 4 18 95 19 86 20 87 21 88 22 93 23
REMARK SMILES IDX 89 24 90 25 92 26 94 27 91 28 14 29 15 30 16 31 17 32 18 33
REMARK SMILES IDX 19 35 20 36 21 37 82 38 22 39 81 40 23 41 24 42 25 43 75 44
REMARK SMILES IDX 26 45 80 46 74 47 76 48 27 49 79 50 73 51 72 52 28 54 60 55
REMARK SMILES IDX 40 56 59 57 41 58 44 59 58 60 77 61 42 62 43 63 57 65 78 66
REMARK SMILES IDX 45 67 29 68 30 69 38 70 31 71 32 72 36 73 39 74 33 75 34 76
REMARK SMILES IDX 37 77 35 78 61 79 62 80 70 81 63 82 64 83 68 84 71 85 65 86
REMARK SMILES IDX 66 87 69 88 67 89 46 90 47 91 55 92 48 93 49 94 53 95 56 96
REMARK SMILES IDX 50 97 51 98 54 99 52 100
REMARK H PARENT 10 7 17 34 76 53 44 64
REMARK Flexibility Score: inf
ROOT
ATOM      1  C   UNL     1      -0.348  -1.490   4.890  1.00  0.00     0.002 C 
ENDROOT
BRANCH   1   2
ATOM      2  C   UNL     1      -0.787  -0.372   3.941  1.00  0.00     0.021 C 
BRANCH   2   3
ATOM      3  C   UNL     1      -1.646  -0.727   2.733  1.00  0.00     0.116 C 
BRANCH   3   4
ATOM      4  N   UNL     1      -2.992  -1.135   3.007  1.00  0.00    -0.351 N 
ATOM      5  C   UNL     1      -4.134  -1.042   2.240  1.00  0.00     0.274 C 
ATOM      6  O   UNL     1      -5.130  -1.550   2.768  1.00  0.00    -0.267 OA
ATOM      7  H   UNL     1      -3.124  -1.551   3.890  1.00  0.00     0.163 HD
BRANCH   5   8
ATOM      8  C   UNL     1      -4.245  -0.396   0.916  1.00  0.00     0.178 A 
ATOM      9  C   UNL     1      -3.371   0.025  -0.096  1.00  0.00     0.102 A 
ATOM     10  N   UNL     1      -4.225   0.428  -1.110  1.00  0.00    -0.239 N 
ATOM     11  N   UNL     1      -5.537  -0.115   0.491  1.00  0.00    -0.124 NA
ATOM     12  N   UNL     1      -5.503   0.423  -0.710  1.00  0.00    -0.066 NA
BRANCH   9  13
ATOM     13  C   UNL     1      -1.925   0.052  -0.269  1.00  0.00     0.002 A 
ATOM     14  C   UNL     1       2.378   0.150  -0.550  1.00  0.00     0.044 C 
ATOM     15  C   UNL     1       0.881   0.129  -0.473  1.00  0.00    -0.051 A 
ATOM     16  C   UNL     1       0.192  -1.085  -0.587  1.00  0.00     0.004 A 
ATOM     17  C   UNL     1       0.153   1.311  -0.301  1.00  0.00     0.004 A 
ATOM     18  C   UNL     1      -1.202  -1.125  -0.483  1.00  0.00     0.011 A 
ATOM     19  C   UNL     1      -1.240   1.274  -0.207  1.00  0.00     0.011 A 
ENDBRANCH   9  13
BRANCH  10  20
ATOM     20  C   UNL     1      -3.941   0.909  -2.461  1.00  0.00     0.187 C 
BRANCH  20  21
ATOM     21  C   UNL     1      -3.028   0.056  -3.306  1.00  0.00     0.028 A 
ATOM     22  C   UNL     1      -2.103   0.724  -4.123  1.00  0.00     0.129 A 
ATOM     23  C   UNL     1      -3.069  -1.343  -3.406  1.00  0.00     0.049 A 
ATOM     24  F   UNL     1      -2.079   2.066  -4.136  1.00  0.00    -0.207 F 
ATOM     25  C   UNL     1      -1.206   0.048  -4.948  1.00  0.00     0.040 A 
ATOM     26  C   UNL     1      -2.146  -2.033  -4.206  1.00  0.00     0.021 A 
ATOM     27  Cl  UNL     1      -4.247  -2.309  -2.595  1.00  0.00    -0.084 Cl
ATOM     28  C   UNL     1      -1.211  -1.341  -4.972  1.00  0.00     0.005 A 
ENDBRANCH  20  21
ENDBRANCH  10  20
ENDBRANCH   5   8
ENDBRANCH   3   4
ENDBRANCH   2   3
ENDBRANCH   1   2
BRANCH   1  29
ATOM     29  C   UNL     1       0.271  -2.768   4.305  1.00  0.00     0.002 C 
BRANCH  29  30
ATOM     30  C   UNL     1       1.284  -2.632   3.167  1.00  0.00     0.021 C 
BRANCH  30  31
ATOM     31  C   UNL     1       2.551  -1.856   3.501  1.00  0.00     0.116 C 
BRANCH  31  32
ATOM     32  N   UNL     1       3.750  -2.687   3.596  1.00  0.00    -0.352 N 
ATOM     33  C   UNL     1       5.060  -2.282   3.806  1.00  0.00     0.251 C 
ATOM     34  H   UNL     1       3.610  -3.657   3.499  1.00  0.00     0.163 HD
ATOM     35  O   UNL     1       5.967  -3.085   3.927  1.00  0.00    -0.269 OA
BRANCH  33  36
ATOM     36  C   UNL     1       5.308  -0.836   3.990  1.00  0.00     0.039 A 
ATOM     37  C   UNL     1       5.819  -0.407   5.218  1.00  0.00     0.014 A 
ATOM     38  C   UNL     1       4.791   0.073   3.069  1.00  0.00     0.014 A 
ATOM     39  C   UNL     1       5.580   0.902   5.624  1.00  0.00     0.010 A 
ATOM     40  C   UNL     1       4.474   1.344   3.506  1.00  0.00     0.010 A 
ATOM     41  C   UNL     1       4.804   1.730   4.811  1.00  0.00    -0.014 A 
BRANCH  41  42
ATOM     42  C   UNL     1       4.196   2.962   5.301  1.00  0.00     0.031 A 
ATOM     43  C   UNL     1       4.777   4.272   4.954  1.00  0.00     0.074 A 
ATOM     44  C   UNL     1       3.075   2.899   6.053  1.00  0.00     0.049 A 
ATOM     45  N   UNL     1       4.637   5.343   5.661  1.00  0.00    -0.248 NA
ATOM     46  C   UNL     1       5.624   4.463   3.786  1.00  0.00     0.031 C 
ATOM     47  C   UNL     1       2.211   4.009   6.445  1.00  0.00     0.029 A 
ATOM     48  N   UNL     1       2.611   1.810   6.812  1.00  0.00    -0.354 N 
ATOM     49  C   UNL     1       5.121   6.403   4.927  1.00  0.00     0.074 A 
ATOM     50  C   UNL     1       5.801   5.788   3.810  1.00  0.00     0.031 C 
ATOM     51  C   UNL     1       1.553   3.668   7.564  1.00  0.00     0.029 A 
ATOM     52  C   UNL     1       2.071   2.380   7.989  1.00  0.00     0.049 A 
ATOM     53  H   UNL     1       2.654   0.855   6.576  1.00  0.00     0.167 HD
ATOM     54  C   UNL     1       4.763   7.673   5.284  1.00  0.00     0.037 A 
ATOM     55  C   UNL     1       2.586   2.110   9.222  1.00  0.00     0.037 A 
ATOM     56  C   UNL     1       4.004   7.671   6.537  1.00  0.00     0.049 A 
ATOM     57  C   UNL     1       3.041   3.331   9.982  1.00  0.00     0.074 A 
ATOM     58  C   UNL     1       2.647   7.745   6.812  1.00  0.00     0.029 A 
ATOM     59  N   UNL     1       4.624   7.283   7.720  1.00  0.00    -0.354 N 
ATOM     60  N   UNL     1       3.297   4.479   9.420  1.00  0.00    -0.248 NA
ATOM     61  C   UNL     1       3.278   3.349  11.423  1.00  0.00     0.031 C 
ATOM     62  C   UNL     1       2.448   7.359   8.159  1.00  0.00     0.029 A 
ATOM     63  C   UNL     1       3.684   7.065   8.709  1.00  0.00     0.049 A 
ATOM     64  H   UNL     1       5.596   7.178   7.837  1.00  0.00     0.167 HD
ATOM     65  C   UNL     1       3.724   5.370  10.371  1.00  0.00     0.074 A 
ATOM     66  C   UNL     1       3.680   4.619  11.612  1.00  0.00     0.031 C 
ATOM     67  C   UNL     1       4.081   6.648  10.045  1.00  0.00     0.037 A 
BRANCH  54  68
ATOM     68  C   UNL     1       4.816   8.876   4.355  1.00  0.00     0.064 A 
ATOM     69  C   UNL     1       3.929   9.964   4.531  1.00  0.00     0.173 A 
ATOM     70  C   UNL     1       5.648   8.992   3.227  1.00  0.00     0.173 A 
ATOM     71  F   UNL     1       3.168  10.081   5.626  1.00  0.00    -0.203 F 
ATOM     72  C   UNL     1       3.787  10.987   3.586  1.00  0.00     0.198 A 
ATOM     73  C   UNL     1       5.474   9.985   2.256  1.00  0.00     0.198 A 
ATOM     74  F   UNL     1       6.707   8.196   3.054  1.00  0.00    -0.203 F 
ATOM     75  F   UNL     1       2.909  11.977   3.804  1.00  0.00    -0.200 F 
ATOM     76  C   UNL     1       4.529  10.973   2.426  1.00  0.00     0.200 A 
ATOM     77  F   UNL     1       6.237   9.975   1.153  1.00  0.00    -0.200 F 
ATOM     78  F   UNL     1       4.362  11.924   1.497  1.00  0.00    -0.200 F 
ENDBRANCH  54  68
BRANCH  55  79
ATOM     79  C   UNL     1       3.192   0.758   9.323  1.00  0.00     0.064 A 
ATOM     80  C   UNL     1       2.354  -0.360   9.143  1.00  0.00     0.173 A 
ATOM     81  C   UNL     1       4.572   0.559   9.206  1.00  0.00     0.173 A 
ATOM     82  F   UNL     1       1.022  -0.221   9.241  1.00  0.00    -0.203 F 
ATOM     83  C   UNL     1       2.865  -1.592   8.744  1.00  0.00     0.198 A 
ATOM     84  C   UNL     1       5.082  -0.684   8.823  1.00  0.00     0.198 A 
ATOM     85  F   UNL     1       5.420   1.588   9.344  1.00  0.00    -0.203 F 
ATOM     86  F   UNL     1       2.029  -2.603   8.463  1.00  0.00    -0.200 F 
ATOM     87  C   UNL     1       4.227  -1.745   8.557  1.00  0.00     0.200 A 
ATOM     88  F   UNL     1       6.399  -0.828   8.616  1.00  0.00    -0.200 F 
ATOM     89  F   UNL     1       4.713  -2.900   8.080  1.00  0.00    -0.200 F 
ENDBRANCH  55  79
BRANCH  67  90
ATOM     90  C   UNL     1       4.736   7.662  10.954  1.00  0.00     0.064 A 
ATOM     91  C   UNL     1       5.571   7.330  12.033  1.00  0.00     0.173 A 
ATOM     92  C   UNL     1       4.645   9.046  10.660  1.00  0.00     0.173 A 
ATOM     93  F   UNL     1       5.837   6.055  12.343  1.00  0.00    -0.203 F 
ATOM     94  C   UNL     1       6.216   8.309  12.797  1.00  0.00     0.198 A 
ATOM     95  C   UNL     1       5.335  10.014  11.388  1.00  0.00     0.198 A 
ATOM     96  F   UNL     1       3.903   9.500   9.640  1.00  0.00    -0.203 F 
ATOM     97  F   UNL     1       6.971   7.942  13.842  1.00  0.00    -0.200 F 
ATOM     98  C   UNL     1       6.109   9.647  12.468  1.00  0.00     0.200 A 
ATOM     99  F   UNL     1       5.261  11.302  11.022  1.00  0.00    -0.200 F 
ATOM    100  F   UNL     1       6.767  10.576  13.174  1.00  0.00    -0.200 F 
ENDBRANCH  67  90
ENDBRANCH  41  42
ENDBRANCH  33  36
ENDBRANCH  31  32
ENDBRANCH  30  31
ENDBRANCH  29  30
ENDBRANCH   1  29
TORSDOF 16
