REMARK SMILES C[C@@H]1CC[C@@H](C(=O)NCCCCCCNC(=O)c2ccc(-c3c4nc(c(-c5c(F)c(F)c(F)c(F)c5F)c5ccc([nH]5)c(-c5c(F)c(F)c(F)c(F)c5F)c5nc(c(-c6c(F)c(F)c(F)c(F)c6F)c6ccc3[nH]6)C=C5)C=C4)cc2)[C@H](SCC[NH+](C)C)C1
REMARK SMILES IDX 10 1 9 2 8 3 6 4 7 5 5 7 1 8 2 9 3 10 88 11 4 12 81 13 82 14
REMARK SMILES IDX 83 15 84 16 85 17 86 18 87 19 11 21 12 22 13 23 14 24 15 25
REMARK SMILES IDX 16 26 17 28 18 29 19 30 80 31 20 32 79 33 21 34 22 35 23 36
REMARK SMILES IDX 73 37 24 38 78 39 72 40 74 41 25 42 77 43 71 44 70 45 26 47
REMARK SMILES IDX 58 48 38 49 57 50 39 51 42 52 56 53 75 54 40 55 41 56 55 58
REMARK SMILES IDX 76 59 43 60 27 61 28 62 36 63 29 64 30 65 34 66 37 67 31 68
REMARK SMILES IDX 32 69 35 70 33 71 59 72 60 73 68 74 61 75 62 76 66 77 69 78
REMARK SMILES IDX 63 79 64 80 67 81 65 82 44 83 45 84 53 85 46 86 47 87 51 88
REMARK SMILES IDX 54 89 48 90 49 91 52 92 50 93
REMARK H PARENT 8 6 85 20 15 27 74 46 42 57
REMARK Flexibility Score: inf
ROOT
ATOM      1  C   UNL     1      -4.998   1.625  -2.214  1.00  0.00     0.021 C 
ENDROOT
BRANCH   1   2
ATOM      2  C   UNL     1      -4.663   0.289  -1.550  1.00  0.00     0.116 C 
BRANCH   2   3
ATOM      3  N   UNL     1      -3.603  -0.410  -2.231  1.00  0.00    -0.356 N 
ATOM      4  C   UNL     1      -2.322  -0.669  -1.898  1.00  0.00     0.224 C 
ATOM      5  O   UNL     1      -1.682  -1.311  -2.738  1.00  0.00    -0.275 OA
ATOM      6  H   UNL     1      -3.864  -0.767  -3.110  1.00  0.00     0.163 HD
BRANCH   4   7
ATOM      7  C   UNL     1      -1.660  -0.121  -0.615  1.00  0.00     0.091 C 
ATOM      8  C   UNL     1       2.253  -1.228   0.149  1.00  0.00     0.007 C 
ATOM      9  C   UNL     1       1.142  -1.235  -0.903  1.00  0.00    -0.013 C 
ATOM     10  C   UNL     1       0.810   0.166  -1.452  1.00  0.00     0.004 C 
ATOM     11  C   UNL     1      -0.030  -2.086  -0.420  1.00  0.00     0.018 C 
ATOM     12  C   UNL     1      -0.571   0.788  -1.199  1.00  0.00     0.015 C 
ATOM     13  C   UNL     1      -1.188  -1.323   0.243  1.00  0.00     0.059 C 
BRANCH  13  14
ATOM     14  S   UNL     1      -1.026  -1.542   2.116  1.00  0.00    -0.152 SA
BRANCH  14  15
ATOM     15  C   UNL     1      -0.803   0.012   3.078  1.00  0.00     0.131 C 
BRANCH  15  16
ATOM     16  C   UNL     1       0.656   0.444   3.452  1.00  0.00     0.272 C 
BRANCH  16  17
ATOM     17  N   UNL     1       1.250   1.607   2.756  1.00  0.00    -0.339 N 
ATOM     18  C   UNL     1       2.696   1.467   2.548  1.00  0.00     0.332 C 
ATOM     19  C   UNL     1       0.590   1.871   1.504  1.00  0.00     0.332 C 
ATOM     20  H   UNL     1       1.106   2.405   3.374  1.00  0.00     0.347 HD
ENDBRANCH  16  17
ENDBRANCH  15  16
ENDBRANCH  14  15
ENDBRANCH  13  14
ENDBRANCH   4   7
ENDBRANCH   2   3
ENDBRANCH   1   2
BRANCH   1  21
ATOM     21  C   UNL     1      -5.241   1.584  -3.732  1.00  0.00     0.002 C 
BRANCH  21  22
ATOM     22  C   UNL     1      -6.204   0.508  -4.246  1.00  0.00     0.002 C 
BRANCH  22  23
ATOM     23  C   UNL     1      -7.581   0.487  -3.587  1.00  0.00     0.021 C 
BRANCH  23  24
ATOM     24  C   UNL     1      -8.365   1.785  -3.710  1.00  0.00     0.116 C 
BRANCH  24  25
ATOM     25  N   UNL     1      -8.722   2.088  -5.086  1.00  0.00    -0.352 N 
ATOM     26  C   UNL     1      -9.958   2.348  -5.620  1.00  0.00     0.251 C 
ATOM     27  H   UNL     1      -7.972   2.110  -5.724  1.00  0.00     0.163 HD
ATOM     28  O   UNL     1     -10.111   2.398  -6.840  1.00  0.00    -0.269 OA
BRANCH  26  29
ATOM     29  C   UNL     1     -11.117   2.544  -4.725  1.00  0.00     0.039 A 
ATOM     30  C   UNL     1     -12.324   1.910  -5.029  1.00  0.00     0.014 A 
ATOM     31  C   UNL     1     -11.011   3.344  -3.584  1.00  0.00     0.014 A 
ATOM     32  C   UNL     1     -13.406   2.030  -4.156  1.00  0.00     0.010 A 
ATOM     33  C   UNL     1     -12.061   3.393  -2.673  1.00  0.00     0.010 A 
ATOM     34  C   UNL     1     -13.272   2.744  -2.953  1.00  0.00    -0.014 A 
BRANCH  34  35
ATOM     35  C   UNL     1     -14.389   2.824  -1.978  1.00  0.00     0.031 A 
ATOM     36  C   UNL     1     -15.010   4.154  -1.649  1.00  0.00     0.074 A 
ATOM     37  C   UNL     1     -14.804   1.710  -1.345  1.00  0.00     0.049 A 
ATOM     38  N   UNL     1     -15.956   4.437  -0.789  1.00  0.00    -0.248 NA
ATOM     39  C   UNL     1     -14.479   5.326  -2.363  1.00  0.00     0.031 C 
ATOM     40  C   UNL     1     -14.251   0.369  -1.545  1.00  0.00     0.029 A 
ATOM     41  N   UNL     1     -15.782   1.527  -0.399  1.00  0.00    -0.354 N 
ATOM     42  C   UNL     1     -16.120   5.815  -0.849  1.00  0.00     0.074 A 
ATOM     43  C   UNL     1     -15.139   6.318  -1.784  1.00  0.00     0.031 C 
ATOM     44  C   UNL     1     -14.918  -0.502  -0.771  1.00  0.00     0.029 A 
ATOM     45  C   UNL     1     -15.913   0.223   0.013  1.00  0.00     0.049 A 
ATOM     46  H   UNL     1     -16.336   2.261  -0.049  1.00  0.00     0.167 HD
ATOM     47  C   UNL     1     -17.024   6.587  -0.200  1.00  0.00     0.037 A 
ATOM     48  C   UNL     1     -16.739  -0.324   0.925  1.00  0.00     0.037 A 
ATOM     49  C   UNL     1     -18.012   6.077   0.716  1.00  0.00     0.049 A 
ATOM     50  C   UNL     1     -17.718   0.562   1.650  1.00  0.00     0.074 A 
ATOM     51  C   UNL     1     -19.014   6.766   1.375  1.00  0.00     0.029 A 
ATOM     52  N   UNL     1     -18.114   4.750   1.109  1.00  0.00    -0.354 N 
ATOM     53  N   UNL     1     -17.918   1.851   1.528  1.00  0.00    -0.248 NA
ATOM     54  C   UNL     1     -18.588  -0.088   2.639  1.00  0.00     0.031 C 
ATOM     55  C   UNL     1     -19.682   5.869   2.215  1.00  0.00     0.029 A 
ATOM     56  C   UNL     1     -19.142   4.607   2.028  1.00  0.00     0.049 A 
ATOM     57  H   UNL     1     -17.542   4.018   0.782  1.00  0.00     0.167 HD
ATOM     58  C   UNL     1     -18.958   2.161   2.394  1.00  0.00     0.074 A 
ATOM     59  C   UNL     1     -19.356   0.920   3.026  1.00  0.00     0.031 C 
ATOM     60  C   UNL     1     -19.533   3.364   2.643  1.00  0.00     0.037 A 
BRANCH  47  61
ATOM     61  C   UNL     1     -16.982   8.068  -0.451  1.00  0.00     0.064 A 
ATOM     62  C   UNL     1     -17.327   8.619  -1.695  1.00  0.00     0.173 A 
ATOM     63  C   UNL     1     -16.620   8.953   0.577  1.00  0.00     0.173 A 
ATOM     64  F   UNL     1     -17.671   7.819  -2.716  1.00  0.00    -0.203 F 
ATOM     65  C   UNL     1     -17.275   9.994  -1.911  1.00  0.00     0.198 A 
ATOM     66  C   UNL     1     -16.605  10.330   0.368  1.00  0.00     0.198 A 
ATOM     67  F   UNL     1     -16.288   8.483   1.789  1.00  0.00    -0.203 F 
ATOM     68  F   UNL     1     -17.551  10.491  -3.125  1.00  0.00    -0.200 F 
ATOM     69  C   UNL     1     -16.922  10.848  -0.877  1.00  0.00     0.200 A 
ATOM     70  F   UNL     1     -16.279  11.154   1.373  1.00  0.00    -0.200 F 
ATOM     71  F   UNL     1     -16.879  12.172  -1.085  1.00  0.00    -0.200 F 
ENDBRANCH  47  61
BRANCH  48  72
ATOM     72  C   UNL     1     -16.697  -1.787   1.188  1.00  0.00     0.064 A 
ATOM     73  C   UNL     1     -17.774  -2.612   0.834  1.00  0.00     0.173 A 
ATOM     74  C   UNL     1     -15.592  -2.388   1.808  1.00  0.00     0.173 A 
ATOM     75  F   UNL     1     -18.862  -2.082   0.257  1.00  0.00    -0.203 F 
ATOM     76  C   UNL     1     -17.758  -3.978   1.112  1.00  0.00     0.198 A 
ATOM     77  C   UNL     1     -15.563  -3.759   2.056  1.00  0.00     0.198 A 
ATOM     78  F   UNL     1     -14.533  -1.646   2.162  1.00  0.00    -0.203 F 
ATOM     79  F   UNL     1     -18.823  -4.733   0.810  1.00  0.00    -0.200 F 
ATOM     80  C   UNL     1     -16.650  -4.551   1.718  1.00  0.00     0.200 A 
ATOM     81  F   UNL     1     -14.484  -4.312   2.627  1.00  0.00    -0.200 F 
ATOM     82  F   UNL     1     -16.634  -5.864   1.983  1.00  0.00    -0.200 F 
ENDBRANCH  48  72
BRANCH  60  83
ATOM     83  C   UNL     1     -20.684   3.392   3.609  1.00  0.00     0.064 A 
ATOM     84  C   UNL     1     -20.504   3.175   4.983  1.00  0.00     0.173 A 
ATOM     85  C   UNL     1     -21.981   3.679   3.155  1.00  0.00     0.173 A 
ATOM     86  F   UNL     1     -19.287   2.883   5.467  1.00  0.00    -0.203 F 
ATOM     87  C   UNL     1     -21.584   3.214   5.861  1.00  0.00     0.198 A 
ATOM     88  C   UNL     1     -23.052   3.753   4.041  1.00  0.00     0.198 A 
ATOM     89  F   UNL     1     -22.208   3.902   1.851  1.00  0.00    -0.203 F 
ATOM     90  F   UNL     1     -21.397   2.950   7.162  1.00  0.00    -0.200 F 
ATOM     91  C   UNL     1     -22.854   3.512   5.391  1.00  0.00     0.200 A 
ATOM     92  F   UNL     1     -24.275   4.058   3.586  1.00  0.00    -0.200 F 
ATOM     93  F   UNL     1     -23.890   3.558   6.240  1.00  0.00    -0.200 F 
ENDBRANCH  60  83
ENDBRANCH  34  35
ENDBRANCH  26  29
ENDBRANCH  24  25
ENDBRANCH  23  24
ENDBRANCH  22  23
ENDBRANCH  21  22
ENDBRANCH   1  21
TORSDOF 17
