REMARK SMILES CC(=O)Nc1c(C)nn([C@H](C)C(=O)NCCCCCCNC(=O)c2ccc(-c3c4nc(c(-c5c(F)c(F)c(F)c(F)c5F)c5ccc([nH]5)c(-c5c(F)c(F)c(F)c(F)c5F)c5nc(c(-c6c(F)c(F)c(F)c(F)c6F)c6ccc3[nH]6)C=C5)C=C4)cc2)c1C
REMARK SMILES IDX 17 1 16 2 15 3 14 4 12 5 13 6 10 8 11 9 9 10 5 11 6 12 87 13
REMARK SMILES IDX 7 14 8 15 88 16 4 17 1 18 2 19 3 20 18 22 19 23 20 24 21 25
REMARK SMILES IDX 22 26 23 28 24 29 25 30 86 31 26 32 85 33 27 34 28 35 29 36
REMARK SMILES IDX 79 37 30 38 84 39 78 40 80 41 31 42 83 43 77 44 76 45 32 47
REMARK SMILES IDX 64 48 44 49 63 50 45 51 48 52 62 53 81 54 46 55 47 56 61 58
REMARK SMILES IDX 82 59 49 60 33 61 34 62 42 63 35 64 36 65 40 66 43 67 37 68
REMARK SMILES IDX 38 69 41 70 39 71 65 72 66 73 74 74 67 75 68 76 72 77 75 78
REMARK SMILES IDX 69 79 70 80 73 81 71 82 50 83 51 84 59 85 52 86 53 87 57 88
REMARK SMILES IDX 60 89 54 90 55 91 58 92 56 93
REMARK H PARENT 14 7 4 21 21 27 80 46 48 57
REMARK Flexibility Score: inf
ROOT
ATOM      1  C   UNL     1       1.758   6.890   3.802  1.00  0.00     0.002 C 
ENDROOT
BRANCH   1   2
ATOM      2  C   UNL     1       2.098   6.241   2.460  1.00  0.00     0.021 C 
BRANCH   2   3
ATOM      3  C   UNL     1       3.567   5.885   2.277  1.00  0.00     0.116 C 
BRANCH   3   4
ATOM      4  N   UNL     1       3.948   4.638   2.896  1.00  0.00    -0.354 N 
ATOM      5  C   UNL     1       4.568   3.548   2.347  1.00  0.00     0.244 C 
ATOM      6  O   UNL     1       4.869   2.639   3.131  1.00  0.00    -0.273 OA
ATOM      7  H   UNL     1       3.731   4.560   3.853  1.00  0.00     0.163 HD
BRANCH   5   8
ATOM      8  C   UNL     1       4.753   3.365   0.835  1.00  0.00     0.193 C 
ATOM      9  C   UNL     1       3.410   3.049   0.185  1.00  0.00     0.044 C 
BRANCH   8  10
ATOM     10  N   UNL     1       5.600   4.395   0.230  1.00  0.00    -0.255 N 
ATOM     11  C   UNL     1       6.460   6.227  -0.632  1.00  0.00     0.085 A 
ATOM     12  C   UNL     1       7.457   5.411  -0.054  1.00  0.00     0.083 A 
ATOM     13  C   UNL     1       5.315   5.449  -0.625  1.00  0.00     0.060 A 
ATOM     14  C   UNL     1       8.915   5.654   0.062  1.00  0.00     0.071 C 
ATOM     15  N   UNL     1       6.926   4.314   0.490  1.00  0.00    -0.175 NA
ATOM     16  C   UNL     1       4.064   5.599  -1.422  1.00  0.00     0.069 C 
BRANCH  11  17
ATOM     17  N   UNL     1       6.638   7.459  -1.228  1.00  0.00    -0.323 N 
ATOM     18  C   UNL     1       4.813   8.600  -0.002  1.00  0.00     0.114 C 
ATOM     19  C   UNL     1       5.840   8.564  -1.105  1.00  0.00     0.221 C 
ATOM     20  O   UNL     1       6.030   9.547  -1.822  1.00  0.00    -0.275 OA
ATOM     21  H   UNL     1       7.428   7.554  -1.808  1.00  0.00     0.170 HD
ENDBRANCH  11  17
ENDBRANCH   8  10
ENDBRANCH   5   8
ENDBRANCH   3   4
ENDBRANCH   2   3
ENDBRANCH   1   2
BRANCH   1  22
ATOM     22  C   UNL     1       2.583   8.130   4.182  1.00  0.00     0.002 C 
BRANCH  22  23
ATOM     23  C   UNL     1       2.686   9.242   3.128  1.00  0.00     0.021 C 
BRANCH  23  24
ATOM     24  C   UNL     1       1.359   9.891   2.773  1.00  0.00     0.116 C 
BRANCH  24  25
ATOM     25  N   UNL     1       0.768  10.613   3.894  1.00  0.00    -0.352 N 
ATOM     26  C   UNL     1      -0.421  11.315   3.929  1.00  0.00     0.251 C 
ATOM     27  H   UNL     1       1.282  10.597   4.734  1.00  0.00     0.163 HD
ATOM     28  O   UNL     1      -0.640  12.142   4.797  1.00  0.00    -0.269 OA
BRANCH  26  29
ATOM     29  C   UNL     1      -1.424  11.053   2.880  1.00  0.00     0.039 A 
ATOM     30  C   UNL     1      -2.138  12.102   2.296  1.00  0.00     0.014 A 
ATOM     31  C   UNL     1      -1.625   9.739   2.466  1.00  0.00     0.014 A 
ATOM     32  C   UNL     1      -2.992  11.821   1.234  1.00  0.00     0.010 A 
ATOM     33  C   UNL     1      -2.344   9.485   1.324  1.00  0.00     0.010 A 
ATOM     34  C   UNL     1      -3.072  10.511   0.732  1.00  0.00    -0.014 A 
BRANCH  34  35
ATOM     35  C   UNL     1      -3.850  10.231  -0.470  1.00  0.00     0.031 A 
ATOM     36  C   UNL     1      -3.562  11.116  -1.634  1.00  0.00     0.074 A 
ATOM     37  C   UNL     1      -4.648   9.150  -0.611  1.00  0.00     0.049 A 
ATOM     38  N   UNL     1      -4.370  11.946  -2.208  1.00  0.00    -0.248 NA
ATOM     39  C   UNL     1      -2.189  11.163  -2.161  1.00  0.00     0.031 C 
ATOM     40  C   UNL     1      -4.832   8.008   0.290  1.00  0.00     0.029 A 
ATOM     41  N   UNL     1      -5.412   8.806  -1.681  1.00  0.00    -0.354 N 
ATOM     42  C   UNL     1      -3.666  12.512  -3.269  1.00  0.00     0.074 A 
ATOM     43  C   UNL     1      -2.297  12.095  -3.111  1.00  0.00     0.031 C 
ATOM     44  C   UNL     1      -5.449   7.003  -0.371  1.00  0.00     0.029 A 
ATOM     45  C   UNL     1      -5.861   7.493  -1.673  1.00  0.00     0.049 A 
ATOM     46  H   UNL     1      -5.630   9.437  -2.405  1.00  0.00     0.167 HD
ATOM     47  C   UNL     1      -4.319  13.116  -4.302  1.00  0.00     0.037 A 
ATOM     48  C   UNL     1      -6.499   6.851  -2.683  1.00  0.00     0.037 A 
ATOM     49  C   UNL     1      -5.673  13.450  -3.934  1.00  0.00     0.049 A 
ATOM     50  C   UNL     1      -7.076   7.896  -3.569  1.00  0.00     0.074 A 
ATOM     51  C   UNL     1      -6.237  14.226  -2.938  1.00  0.00     0.029 A 
ATOM     52  N   UNL     1      -6.695  12.655  -4.394  1.00  0.00    -0.354 N 
ATOM     53  N   UNL     1      -8.057   8.680  -3.217  1.00  0.00    -0.248 NA
ATOM     54  C   UNL     1      -6.247   8.380  -4.663  1.00  0.00     0.031 C 
ATOM     55  C   UNL     1      -7.375  13.484  -2.499  1.00  0.00     0.029 A 
ATOM     56  C   UNL     1      -7.473  12.351  -3.306  1.00  0.00     0.049 A 
ATOM     57  H   UNL     1      -6.840  12.360  -5.322  1.00  0.00     0.167 HD
ATOM     58  C   UNL     1      -7.712   9.922  -3.727  1.00  0.00     0.074 A 
ATOM     59  C   UNL     1      -6.631   9.660  -4.675  1.00  0.00     0.031 C 
ATOM     60  C   UNL     1      -8.126  11.077  -3.128  1.00  0.00     0.037 A 
BRANCH  47  61
ATOM     61  C   UNL     1      -3.869  13.085  -5.744  1.00  0.00     0.064 A 
ATOM     62  C   UNL     1      -4.599  13.817  -6.705  1.00  0.00     0.173 A 
ATOM     63  C   UNL     1      -2.969  12.131  -6.265  1.00  0.00     0.173 A 
ATOM     64  F   UNL     1      -5.486  14.749  -6.327  1.00  0.00    -0.203 F 
ATOM     65  C   UNL     1      -4.513  13.535  -8.071  1.00  0.00     0.198 A 
ATOM     66  C   UNL     1      -2.848  11.890  -7.633  1.00  0.00     0.198 A 
ATOM     67  F   UNL     1      -2.258  11.316  -5.478  1.00  0.00    -0.203 F 
ATOM     68  F   UNL     1      -5.332  14.156  -8.931  1.00  0.00    -0.200 F 
ATOM     69  C   UNL     1      -3.647  12.563  -8.533  1.00  0.00     0.200 A 
ATOM     70  F   UNL     1      -2.012  10.932  -8.059  1.00  0.00    -0.200 F 
ATOM     71  F   UNL     1      -3.616  12.237  -9.831  1.00  0.00    -0.200 F 
ENDBRANCH  47  61
BRANCH  48  72
ATOM     72  C   UNL     1      -6.390   5.430  -3.086  1.00  0.00     0.064 A 
ATOM     73  C   UNL     1      -7.311   4.860  -3.980  1.00  0.00     0.173 A 
ATOM     74  C   UNL     1      -5.225   4.681  -2.828  1.00  0.00     0.173 A 
ATOM     75  F   UNL     1      -8.428   5.524  -4.312  1.00  0.00    -0.203 F 
ATOM     76  C   UNL     1      -7.065   3.633  -4.605  1.00  0.00     0.198 A 
ATOM     77  C   UNL     1      -4.983   3.453  -3.446  1.00  0.00     0.198 A 
ATOM     78  F   UNL     1      -4.250   5.169  -2.047  1.00  0.00    -0.203 F 
ATOM     79  F   UNL     1      -7.935   3.154  -5.505  1.00  0.00    -0.200 F 
ATOM     80  C   UNL     1      -5.896   2.937  -4.347  1.00  0.00     0.200 A 
ATOM     81  F   UNL     1      -3.831   2.808  -3.214  1.00  0.00    -0.200 F 
ATOM     82  F   UNL     1      -5.628   1.794  -4.995  1.00  0.00    -0.200 F 
ENDBRANCH  48  72
BRANCH  60  83
ATOM     83  C   UNL     1      -9.156  10.991  -2.036  1.00  0.00     0.064 A 
ATOM     84  C   UNL     1      -8.971  10.293  -0.829  1.00  0.00     0.173 A 
ATOM     85  C   UNL     1     -10.309  11.780  -2.150  1.00  0.00     0.173 A 
ATOM     86  F   UNL     1      -7.851   9.600  -0.595  1.00  0.00    -0.203 F 
ATOM     87  C   UNL     1      -9.916  10.351   0.194  1.00  0.00     0.198 A 
ATOM     88  C   UNL     1     -11.233  11.867  -1.112  1.00  0.00     0.198 A 
ATOM     89  F   UNL     1     -10.515  12.513  -3.255  1.00  0.00    -0.203 F 
ATOM     90  F   UNL     1      -9.719   9.668   1.331  1.00  0.00    -0.200 F 
ATOM     91  C   UNL     1     -11.042  11.145   0.055  1.00  0.00     0.200 A 
ATOM     92  F   UNL     1     -12.294  12.676  -1.232  1.00  0.00    -0.200 F 
ATOM     93  F   UNL     1     -11.930  11.236   1.055  1.00  0.00    -0.200 F 
ENDBRANCH  60  83
ENDBRANCH  34  35
ENDBRANCH  26  29
ENDBRANCH  24  25
ENDBRANCH  23  24
ENDBRANCH  22  23
ENDBRANCH   1  22
TORSDOF 15
