REMARK SMILES O=C(NCCCCCCNC(=O)c1cccc(S(=O)(=O)NC[C@@H]2COc3ccccc3O2)c1)c1ccc(-c2c3nc(c(-c4c(F)c(F)c(F)c(F)c4F)c4ccc([nH]4)c(-c4c(F)c(F)c(F)c(F)c4F)c4nc(c(-c5c(F)c(F)c(F)c(F)c5F)c5ccc2[nH]5)C=C4)C=C3)cc1
REMARK SMILES IDX 7 1 6 2 5 3 4 4 3 5 1 6 2 7 34 9 35 10 96 11 36 12 95 13
REMARK SMILES IDX 37 14 38 15 39 16 89 17 40 18 94 19 88 20 90 21 41 22 93 23
REMARK SMILES IDX 87 24 86 25 42 27 74 28 54 29 73 30 55 31 58 32 72 33 91 34
REMARK SMILES IDX 56 35 57 36 71 38 92 39 59 40 43 41 44 42 52 43 45 44 46 45
REMARK SMILES IDX 50 46 53 47 47 48 48 49 51 50 49 51 75 52 76 53 84 54 77 55
REMARK SMILES IDX 78 56 82 57 85 58 79 59 80 60 83 61 81 62 60 63 61 64 69 65
REMARK SMILES IDX 62 66 63 67 67 68 70 69 64 70 65 71 68 72 66 73 8 74 9 75
REMARK SMILES IDX 10 76 11 77 12 79 13 80 14 81 33 82 15 83 17 84 16 85 18 86
REMARK SMILES IDX 19 87 20 88 21 89 22 91 23 92 24 93 32 94 25 95 31 96 26 97
REMARK SMILES IDX 30 98 27 99 29 100 28 101
REMARK H PARENT 3 8 90 26 58 37 10 78 21 90
REMARK Flexibility Score: inf
ROOT
ATOM      1  C   UNL     1       4.805   4.128   1.692  1.00  0.00     0.002 C 
ENDROOT
BRANCH   1   2
ATOM      2  C   UNL     1       4.290   4.018   0.254  1.00  0.00     0.002 C 
BRANCH   2   3
ATOM      3  C   UNL     1       4.725   2.774  -0.519  1.00  0.00     0.021 C 
BRANCH   3   4
ATOM      4  C   UNL     1       4.454   1.444   0.172  1.00  0.00     0.116 C 
BRANCH   4   5
ATOM      5  N   UNL     1       3.040   1.153   0.313  1.00  0.00    -0.352 N 
ATOM      6  O   UNL     1       1.145  -0.054   0.087  1.00  0.00    -0.269 OA
ATOM      7  C   UNL     1       2.369  -0.011   0.024  1.00  0.00     0.251 C 
ATOM      8  H   UNL     1       2.486   1.888   0.662  1.00  0.00     0.163 HD
BRANCH   7   9
ATOM      9  C   UNL     1       3.127  -1.213  -0.391  1.00  0.00     0.039 A 
ATOM     10  C   UNL     1       4.271  -1.617   0.303  1.00  0.00     0.014 A 
ATOM     11  C   UNL     1       2.670  -1.959  -1.482  1.00  0.00     0.014 A 
ATOM     12  C   UNL     1       5.016  -2.698  -0.158  1.00  0.00     0.010 A 
ATOM     13  C   UNL     1       3.379  -3.089  -1.899  1.00  0.00     0.010 A 
ATOM     14  C   UNL     1       4.566  -3.458  -1.250  1.00  0.00    -0.014 A 
BRANCH  14  15
ATOM     15  C   UNL     1       5.298  -4.693  -1.626  1.00  0.00     0.031 A 
ATOM     16  C   UNL     1       6.019  -4.809  -2.938  1.00  0.00     0.074 A 
ATOM     17  C   UNL     1       5.306  -5.719  -0.753  1.00  0.00     0.049 A 
ATOM     18  N   UNL     1       6.707  -5.818  -3.411  1.00  0.00    -0.248 NA
ATOM     19  C   UNL     1       5.958  -3.650  -3.841  1.00  0.00     0.031 C 
ATOM     20  C   UNL     1       4.618  -5.726   0.540  1.00  0.00     0.029 A 
ATOM     21  N   UNL     1       5.916  -6.946  -0.810  1.00  0.00    -0.354 N 
ATOM     22  C   UNL     1       7.146  -5.426  -4.668  1.00  0.00     0.074 A 
ATOM     23  C   UNL     1       6.633  -4.091  -4.895  1.00  0.00     0.031 C 
ATOM     24  C   UNL     1       4.870  -6.883   1.168  1.00  0.00     0.029 A 
ATOM     25  C   UNL     1       5.690  -7.721   0.301  1.00  0.00     0.049 A 
ATOM     26  H   UNL     1       6.463  -7.242  -1.573  1.00  0.00     0.167 HD
ATOM     27  C   UNL     1       7.910  -6.119  -5.546  1.00  0.00     0.037 A 
ATOM     28  C   UNL     1       6.082  -8.977   0.583  1.00  0.00     0.037 A 
ATOM     29  C   UNL     1       8.435  -7.439  -5.303  1.00  0.00     0.049 A 
ATOM     30  C   UNL     1       6.921  -9.719  -0.416  1.00  0.00     0.074 A 
ATOM     31  C   UNL     1       9.271  -8.196  -6.107  1.00  0.00     0.029 A 
ATOM     32  N   UNL     1       8.170  -8.200  -4.175  1.00  0.00    -0.354 N 
ATOM     33  N   UNL     1       7.372  -9.315  -1.578  1.00  0.00    -0.248 NA
ATOM     34  C   UNL     1       7.301 -11.095  -0.068  1.00  0.00     0.031 C 
ATOM     35  C   UNL     1       9.475  -9.433  -5.486  1.00  0.00     0.029 A 
ATOM     36  C   UNL     1       8.803  -9.430  -4.275  1.00  0.00     0.049 A 
ATOM     37  H   UNL     1       7.615  -7.911  -3.415  1.00  0.00     0.167 HD
ATOM     38  C   UNL     1       8.096 -10.379  -2.095  1.00  0.00     0.074 A 
ATOM     39  C   UNL     1       8.046 -11.438  -1.108  1.00  0.00     0.031 C 
ATOM     40  C   UNL     1       8.737 -10.473  -3.285  1.00  0.00     0.037 A 
BRANCH  27  41
ATOM     41  C   UNL     1       8.230  -5.478  -6.864  1.00  0.00     0.064 A 
ATOM     42  C   UNL     1       9.175  -4.447  -6.971  1.00  0.00     0.173 A 
ATOM     43  C   UNL     1       7.651  -5.964  -8.047  1.00  0.00     0.173 A 
ATOM     44  F   UNL     1       9.750  -3.942  -5.869  1.00  0.00    -0.203 F 
ATOM     45  C   UNL     1       9.523  -3.921  -8.213  1.00  0.00     0.198 A 
ATOM     46  C   UNL     1       8.018  -5.450  -9.288  1.00  0.00     0.198 A 
ATOM     47  F   UNL     1       6.747  -6.954  -7.999  1.00  0.00    -0.203 F 
ATOM     48  F   UNL     1      10.413  -2.922  -8.290  1.00  0.00    -0.200 F 
ATOM     49  C   UNL     1       8.952  -4.430  -9.370  1.00  0.00     0.200 A 
ATOM     50  F   UNL     1       7.473  -5.951 -10.406  1.00  0.00    -0.200 F 
ATOM     51  F   UNL     1       9.302  -3.934 -10.565  1.00  0.00    -0.200 F 
ENDBRANCH  27  41
BRANCH  28  52
ATOM     52  C   UNL     1       5.671  -9.610   1.861  1.00  0.00     0.064 A 
ATOM     53  C   UNL     1       6.607  -9.885   2.866  1.00  0.00     0.173 A 
ATOM     54  C   UNL     1       4.331  -9.949   2.104  1.00  0.00     0.173 A 
ATOM     55  F   UNL     1       7.903  -9.597   2.671  1.00  0.00    -0.203 F 
ATOM     56  C   UNL     1       6.223 -10.493   4.059  1.00  0.00     0.198 A 
ATOM     57  C   UNL     1       3.943 -10.529   3.309  1.00  0.00     0.198 A 
ATOM     58  F   UNL     1       3.396  -9.700   1.176  1.00  0.00    -0.203 F 
ATOM     59  F   UNL     1       7.145 -10.787   4.986  1.00  0.00    -0.200 F 
ATOM     60  C   UNL     1       4.891 -10.809   4.282  1.00  0.00     0.200 A 
ATOM     61  F   UNL     1       2.653 -10.816   3.527  1.00  0.00    -0.200 F 
ATOM     62  F   UNL     1       4.521 -11.389   5.432  1.00  0.00    -0.200 F 
ENDBRANCH  28  52
BRANCH  40  63
ATOM     63  C   UNL     1       9.444 -11.763  -3.573  1.00  0.00     0.064 A 
ATOM     64  C   UNL     1       8.733 -12.930  -3.890  1.00  0.00     0.173 A 
ATOM     65  C   UNL     1      10.845 -11.830  -3.549  1.00  0.00     0.173 A 
ATOM     66  F   UNL     1       7.391 -12.918  -3.907  1.00  0.00    -0.203 F 
ATOM     67  C   UNL     1       9.399 -14.124  -4.149  1.00  0.00     0.198 A 
ATOM     68  C   UNL     1      11.508 -13.019  -3.834  1.00  0.00     0.198 A 
ATOM     69  F   UNL     1      11.569 -10.740  -3.253  1.00  0.00    -0.203 F 
ATOM     70  F   UNL     1       8.698 -15.238  -4.403  1.00  0.00    -0.200 F 
ATOM     71  C   UNL     1      10.785 -14.166  -4.127  1.00  0.00     0.200 A 
ATOM     72  F   UNL     1      12.848 -13.058  -3.821  1.00  0.00    -0.200 F 
ATOM     73  F   UNL     1      11.425 -15.317  -4.377  1.00  0.00    -0.200 F 
ENDBRANCH  40  63
ENDBRANCH  14  15
ENDBRANCH   7   9
ENDBRANCH   4   5
ENDBRANCH   3   4
ENDBRANCH   2   3
ENDBRANCH   1   2
BRANCH   1  74
ATOM     74  C   UNL     1       6.314   3.938   1.891  1.00  0.00     0.021 C 
BRANCH  74  75
ATOM     75  C   UNL     1       7.210   4.859   1.067  1.00  0.00     0.116 C 
BRANCH  75  76
ATOM     76  N   UNL     1       7.003   6.253   1.406  1.00  0.00    -0.352 N 
ATOM     77  C   UNL     1       7.898   7.210   1.808  1.00  0.00     0.251 C 
ATOM     78  H   UNL     1       6.071   6.563   1.336  1.00  0.00     0.163 HD
ATOM     79  O   UNL     1       7.478   8.272   2.259  1.00  0.00    -0.269 OA
BRANCH  77  80
ATOM     80  C   UNL     1       9.361   7.026   1.645  1.00  0.00     0.041 A 
ATOM     81  C   UNL     1      10.229   7.591   2.583  1.00  0.00     0.014 A 
ATOM     82  C   UNL     1       9.883   6.466   0.481  1.00  0.00     0.035 A 
ATOM     83  C   UNL     1      11.610   7.584   2.358  1.00  0.00     0.002 A 
ATOM     84  C   UNL     1      11.252   6.521   0.224  1.00  0.00     0.083 A 
ATOM     85  C   UNL     1      12.125   7.063   1.167  1.00  0.00     0.022 A 
BRANCH  84  86
ATOM     86  S   UNL     1      11.884   5.975  -1.343  1.00  0.00     0.240 S 
ATOM     87  O   UNL     1      12.411   7.122  -2.041  1.00  0.00    -0.207 OA
ATOM     88  O   UNL     1      12.667   4.790  -1.079  1.00  0.00    -0.207 OA
BRANCH  86  89
ATOM     89  N   UNL     1      10.504   5.426  -2.166  1.00  0.00    -0.207 NA
ATOM     90  H   UNL     1       9.781   5.278  -1.461  1.00  0.00     0.141 HD
BRANCH  89  91
ATOM     91  C   UNL     1       9.893   6.258  -3.241  1.00  0.00     0.147 C 
BRANCH  91  92
ATOM     92  C   UNL     1       9.377   7.647  -2.812  1.00  0.00     0.226 C 
ATOM     93  C   UNL     1       7.952   7.655  -2.248  1.00  0.00     0.276 C 
ATOM     94  O   UNL     1       9.472   8.547  -3.937  1.00  0.00    -0.482 OA
ATOM     95  O   UNL     1       6.995   7.232  -3.220  1.00  0.00    -0.486 OA
ATOM     96  C   UNL     1       8.333   8.620  -4.693  1.00  0.00     0.161 A 
ATOM     97  C   UNL     1       7.137   7.980  -4.357  1.00  0.00     0.161 A 
ATOM     98  C   UNL     1       8.399   9.397  -5.846  1.00  0.00     0.050 A 
ATOM     99  C   UNL     1       6.021   8.088  -5.182  1.00  0.00     0.050 A 
ATOM    100  C   UNL     1       7.275   9.528  -6.663  1.00  0.00     0.004 A 
ATOM    101  C   UNL     1       6.088   8.871  -6.334  1.00  0.00     0.004 A 
ENDBRANCH  91  92
ENDBRANCH  89  91
ENDBRANCH  86  89
ENDBRANCH  84  86
ENDBRANCH  77  80
ENDBRANCH  75  76
ENDBRANCH  74  75
ENDBRANCH   1  74
TORSDOF 17
