REMARK SMILES C=CC[N@@H+](CC(=O)NCCCCCCNC(=O)c1ccc(-c2c3nc(c(-c4c(F)c(F)c(F)c(F)c4F)c4ccc([nH]4)c(-c4c(F)c(F)c(F)c(F)c4F)c4nc(c(-c5c(F)c(F)c(F)c(F)c5F)c5ccc2[nH]5)C=C4)C=C3)cc1)C[C@H]1CCC[C@H](C)C1
REMARK SMILES IDX 11 1 10 2 9 3 8 4 6 5 7 6 5 8 4 9 3 11 2 12 1 13 81 14 82 15
REMARK SMILES IDX 83 16 88 17 84 18 86 19 85 20 87 21 12 22 13 23 14 24 15 25
REMARK SMILES IDX 16 26 17 28 18 29 19 30 80 31 20 32 79 33 21 34 22 35 23 36
REMARK SMILES IDX 73 37 24 38 78 39 72 40 74 41 25 42 77 43 71 44 70 45 26 47
REMARK SMILES IDX 58 48 38 49 57 50 39 51 42 52 56 53 75 54 40 55 41 56 55 58
REMARK SMILES IDX 76 59 43 60 27 61 28 62 36 63 29 64 30 65 34 66 37 67 31 68
REMARK SMILES IDX 32 69 35 70 33 71 59 72 60 73 68 74 61 75 62 76 66 77 69 78
REMARK SMILES IDX 63 79 64 80 67 81 65 82 44 83 45 84 53 85 46 86 47 87 51 88
REMARK SMILES IDX 54 89 48 90 49 91 52 92 50 93
REMARK H PARENT 8 7 4 10 15 27 74 46 42 57
REMARK Flexibility Score: inf
ROOT
ATOM      1  C   UNL     1      -2.412  -2.477  -1.718  1.00  0.00     0.002 C 
ENDROOT
BRANCH   1   2
ATOM      2  C   UNL     1      -2.028  -0.996  -1.772  1.00  0.00     0.021 C 
BRANCH   2   3
ATOM      3  C   UNL     1      -3.163  -0.014  -1.472  1.00  0.00     0.116 C 
BRANCH   3   4
ATOM      4  N   UNL     1      -3.733  -0.175  -0.150  1.00  0.00    -0.351 N 
ATOM      5  C   UNL     1      -3.818   0.680   0.907  1.00  0.00     0.275 C 
ATOM      6  O   UNL     1      -4.607   0.366   1.808  1.00  0.00    -0.269 OA
ATOM      7  H   UNL     1      -4.130  -1.061   0.013  1.00  0.00     0.163 HD
BRANCH   5   8
ATOM      8  C   UNL     1      -3.015   1.981   1.001  1.00  0.00     0.363 C 
BRANCH   8   9
ATOM      9  N   UNL     1      -1.587   1.861   1.368  1.00  0.00    -0.324 N 
ATOM     10  H   UNL     1      -1.315   2.759   1.769  1.00  0.00     0.348 HD
BRANCH   9  11
ATOM     11  C   UNL     1      -0.702   1.817   0.221  1.00  0.00     0.290 C 
BRANCH  11  12
ATOM     12  C   UNL     1       0.775   1.840   0.470  1.00  0.00     0.025 C 
ATOM     13  C   UNL     1       1.614   0.884   0.041  1.00  0.00     0.010 C 
ENDBRANCH  11  12
ENDBRANCH   9  11
BRANCH   9  14
ATOM     14  C   UNL     1      -1.258   1.149   2.611  1.00  0.00     0.266 C 
BRANCH  14  15
ATOM     15  C   UNL     1      -1.497  -0.378   2.724  1.00  0.00     0.044 C 
ATOM     16  C   UNL     1      -0.632  -1.196   1.772  1.00  0.00     0.009 C 
ATOM     17  C   UNL     1      -1.288  -0.909   4.155  1.00  0.00     0.012 C 
ATOM     18  C   UNL     1      -0.965  -2.681   1.817  1.00  0.00     0.001 C 
ATOM     19  C   UNL     1      -1.618  -2.416   4.262  1.00  0.00    -0.014 C 
ATOM     20  C   UNL     1      -0.818  -3.227   3.231  1.00  0.00     0.003 C 
ATOM     21  C   UNL     1      -3.123  -2.686   4.125  1.00  0.00     0.007 C 
ENDBRANCH  14  15
ENDBRANCH   9  14
ENDBRANCH   8   9
ENDBRANCH   5   8
ENDBRANCH   3   4
ENDBRANCH   2   3
ENDBRANCH   1   2
BRANCH   1  22
ATOM     22  C   UNL     1      -2.955  -3.019  -3.039  1.00  0.00     0.002 C 
BRANCH  22  23
ATOM     23  C   UNL     1      -2.044  -2.785  -4.247  1.00  0.00     0.021 C 
BRANCH  23  24
ATOM     24  C   UNL     1      -0.597  -3.218  -4.033  1.00  0.00     0.116 C 
BRANCH  24  25
ATOM     25  N   UNL     1      -0.482  -4.667  -3.994  1.00  0.00    -0.352 N 
ATOM     26  C   UNL     1       0.100  -5.483  -4.932  1.00  0.00     0.251 C 
ATOM     27  H   UNL     1      -0.864  -5.114  -3.205  1.00  0.00     0.163 HD
ATOM     28  O   UNL     1      -0.106  -6.693  -4.946  1.00  0.00    -0.269 OA
BRANCH  26  29
ATOM     29  C   UNL     1       0.981  -4.865  -5.939  1.00  0.00     0.039 A 
ATOM     30  C   UNL     1       0.742  -5.081  -7.297  1.00  0.00     0.014 A 
ATOM     31  C   UNL     1       2.007  -4.014  -5.518  1.00  0.00     0.014 A 
ATOM     32  C   UNL     1       1.508  -4.396  -8.242  1.00  0.00     0.010 A 
ATOM     33  C   UNL     1       2.711  -3.275  -6.458  1.00  0.00     0.010 A 
ATOM     34  C   UNL     1       2.477  -3.467  -7.829  1.00  0.00    -0.014 A 
BRANCH  34  35
ATOM     35  C   UNL     1       3.296  -2.702  -8.802  1.00  0.00     0.031 A 
ATOM     36  C   UNL     1       4.786  -2.901  -8.823  1.00  0.00     0.074 A 
ATOM     37  C   UNL     1       2.722  -1.779  -9.596  1.00  0.00     0.049 A 
ATOM     38  N   UNL     1       5.704  -2.241  -9.484  1.00  0.00    -0.248 NA
ATOM     39  C   UNL     1       5.319  -3.965  -7.956  1.00  0.00     0.031 C 
ATOM     40  C   UNL     1       1.292  -1.477  -9.648  1.00  0.00     0.029 A 
ATOM     41  N   UNL     1       3.279  -0.907 -10.500  1.00  0.00    -0.354 N 
ATOM     42  C   UNL     1       6.916  -2.796  -9.096  1.00  0.00     0.074 A 
ATOM     43  C   UNL     1       6.625  -3.802  -8.099  1.00  0.00     0.031 C 
ATOM     44  C   UNL     1       1.081  -0.503 -10.548  1.00  0.00     0.029 A 
ATOM     45  C   UNL     1       2.364  -0.076 -11.099  1.00  0.00     0.049 A 
ATOM     46  H   UNL     1       4.242  -0.881 -10.699  1.00  0.00     0.167 HD
ATOM     47  C   UNL     1       8.159  -2.509  -9.549  1.00  0.00     0.037 A 
ATOM     48  C   UNL     1       2.546   0.927 -11.980  1.00  0.00     0.037 A 
ATOM     49  C   UNL     1       8.438  -1.521 -10.557  1.00  0.00     0.049 A 
ATOM     50  C   UNL     1       3.942   1.253 -12.442  1.00  0.00     0.074 A 
ATOM     51  C   UNL     1       9.656  -1.182 -11.118  1.00  0.00     0.029 A 
ATOM     52  N   UNL     1       7.482  -0.709 -11.151  1.00  0.00    -0.354 N 
ATOM     53  N   UNL     1       5.078   0.689 -12.108  1.00  0.00    -0.248 NA
ATOM     54  C   UNL     1       4.082   2.355 -13.405  1.00  0.00     0.031 C 
ATOM     55  C   UNL     1       9.445  -0.128 -12.012  1.00  0.00     0.029 A 
ATOM     56  C   UNL     1       8.087   0.145 -12.057  1.00  0.00     0.049 A 
ATOM     57  H   UNL     1       6.517  -0.737 -10.957  1.00  0.00     0.167 HD
ATOM     58  C   UNL     1       6.059   1.335 -12.850  1.00  0.00     0.074 A 
ATOM     59  C   UNL     1       5.385   2.334 -13.652  1.00  0.00     0.031 C 
ATOM     60  C   UNL     1       7.396   1.116 -12.868  1.00  0.00     0.037 A 
BRANCH  47  61
ATOM     61  C   UNL     1       9.308  -3.271  -8.954  1.00  0.00     0.064 A 
ATOM     62  C   UNL     1       9.479  -4.646  -9.181  1.00  0.00     0.173 A 
ATOM     63  C   UNL     1      10.264  -2.615  -8.163  1.00  0.00     0.173 A 
ATOM     64  F   UNL     1       8.588  -5.324  -9.919  1.00  0.00    -0.203 F 
ATOM     65  C   UNL     1      10.541  -5.342  -8.608  1.00  0.00     0.198 A 
ATOM     66  C   UNL     1      11.345  -3.307  -7.623  1.00  0.00     0.198 A 
ATOM     67  F   UNL     1      10.154  -1.301  -7.918  1.00  0.00    -0.203 F 
ATOM     68  F   UNL     1      10.647  -6.665  -8.789  1.00  0.00    -0.200 F 
ATOM     69  C   UNL     1      11.477  -4.671  -7.837  1.00  0.00     0.200 A 
ATOM     70  F   UNL     1      12.258  -2.654  -6.891  1.00  0.00    -0.200 F 
ATOM     71  F   UNL     1      12.501  -5.340  -7.292  1.00  0.00    -0.200 F 
ENDBRANCH  47  61
BRANCH  48  72
ATOM     72  C   UNL     1       1.376   1.685 -12.499  1.00  0.00     0.064 A 
ATOM     73  C   UNL     1       0.991   1.579 -13.843  1.00  0.00     0.173 A 
ATOM     74  C   UNL     1       0.625   2.534 -11.672  1.00  0.00     0.173 A 
ATOM     75  F   UNL     1       1.688   0.795 -14.679  1.00  0.00    -0.203 F 
ATOM     76  C   UNL     1      -0.084   2.310 -14.345  1.00  0.00     0.198 A 
ATOM     77  C   UNL     1      -0.469   3.241 -12.168  1.00  0.00     0.198 A 
ATOM     78  F   UNL     1       0.946   2.667 -10.377  1.00  0.00    -0.203 F 
ATOM     79  F   UNL     1      -0.398   2.228 -15.646  1.00  0.00    -0.200 F 
ATOM     80  C   UNL     1      -0.816   3.136 -13.507  1.00  0.00     0.200 A 
ATOM     81  F   UNL     1      -1.184   4.025 -11.350  1.00  0.00    -0.200 F 
ATOM     82  F   UNL     1      -1.851   3.837 -13.989  1.00  0.00    -0.200 F 
ENDBRANCH  48  72
BRANCH  60  83
ATOM     83  C   UNL     1       8.222   1.921 -13.830  1.00  0.00     0.064 A 
ATOM     84  C   UNL     1       8.479   3.284 -13.628  1.00  0.00     0.173 A 
ATOM     85  C   UNL     1       8.828   1.293 -14.930  1.00  0.00     0.173 A 
ATOM     86  F   UNL     1       7.913   3.933 -12.599  1.00  0.00    -0.203 F 
ATOM     87  C   UNL     1       9.300   3.993 -14.501  1.00  0.00     0.198 A 
ATOM     88  C   UNL     1       9.674   1.997 -15.781  1.00  0.00     0.198 A 
ATOM     89  F   UNL     1       8.620  -0.011 -15.164  1.00  0.00    -0.203 F 
ATOM     90  F   UNL     1       9.502   5.304 -14.311  1.00  0.00    -0.200 F 
ATOM     91  C   UNL     1       9.906   3.347 -15.569  1.00  0.00     0.200 A 
ATOM     92  F   UNL     1      10.272   1.367 -16.802  1.00  0.00    -0.200 F 
ATOM     93  F   UNL     1      10.711   4.028 -16.396  1.00  0.00    -0.200 F 
ENDBRANCH  60  83
ENDBRANCH  34  35
ENDBRANCH  26  29
ENDBRANCH  24  25
ENDBRANCH  23  24
ENDBRANCH  22  23
ENDBRANCH   1  22
TORSDOF 18
