REMARK SMILES O=C(NCCCCCCNC(=O)[C@H]1CC=CC[C@@H]1C(=O)Nc1ccccc1C(=O)NCc1ccco1)c1ccc(-c2c3nc(c(-c4c(F)c(F)c(F)c(F)c4F)c4ccc([nH]4)c(-c4c(F)c(F)c(F)c(F)c4F)c4nc(c(-c5c(F)c(F)c(F)c(F)c5F)c5ccc2[nH]5)C=C4)C=C3)cc1
REMARK SMILES IDX 8 1 7 2 6 3 5 4 4 5 3 6 1 7 2 8 37 10 38 11 99 12 39 13
REMARK SMILES IDX 98 14 40 15 41 16 42 17 92 18 43 19 97 20 91 21 93 22 44 23
REMARK SMILES IDX 96 24 90 25 89 26 45 28 77 29 57 30 76 31 58 32 61 33 75 34
REMARK SMILES IDX 94 35 59 36 60 37 74 39 95 40 62 41 46 42 47 43 55 44 48 45
REMARK SMILES IDX 49 46 53 47 56 48 50 49 51 50 54 51 52 52 78 53 79 54 87 55
REMARK SMILES IDX 80 56 81 57 85 58 88 59 82 60 83 61 86 62 84 63 63 64 64 65
REMARK SMILES IDX 72 66 65 67 66 68 70 69 73 70 67 71 68 72 71 73 69 74 9 75
REMARK SMILES IDX 10 76 11 77 12 79 13 80 14 81 18 82 15 83 17 84 16 85 19 86
REMARK SMILES IDX 20 87 21 88 22 90 23 91 27 92 24 93 26 94 25 95 28 96 29 97
REMARK SMILES IDX 30 98 31 100 32 101 33 102 36 103 34 104 35 105
REMARK H PARENT 3 9 93 27 61 38 10 78 21 89 30 99
REMARK Flexibility Score: inf
ROOT
ATOM      1  C   UNL     1       5.882  -3.499  -2.231  1.00  0.00     0.021 C 
ENDROOT
BRANCH   1   2
ATOM      2  C   UNL     1       4.352  -3.439  -2.180  1.00  0.00     0.002 C 
BRANCH   2   3
ATOM      3  C   UNL     1       3.748  -3.649  -0.789  1.00  0.00     0.002 C 
BRANCH   3   4
ATOM      4  C   UNL     1       4.261  -2.687   0.282  1.00  0.00     0.021 C 
BRANCH   4   5
ATOM      5  C   UNL     1       4.170  -1.216  -0.098  1.00  0.00     0.116 C 
BRANCH   5   6
ATOM      6  N   UNL     1       2.815  -0.805  -0.426  1.00  0.00    -0.352 N 
ATOM      7  O   UNL     1       0.968   0.492  -0.294  1.00  0.00    -0.269 OA
ATOM      8  C   UNL     1       2.155   0.341  -0.056  1.00  0.00     0.251 C 
ATOM      9  H   UNL     1       2.303  -1.431  -0.988  1.00  0.00     0.163 HD
BRANCH   8  10
ATOM     10  C   UNL     1       2.911   1.380   0.669  1.00  0.00     0.039 A 
ATOM     11  C   UNL     1       4.146   1.815   0.182  1.00  0.00     0.014 A 
ATOM     12  C   UNL     1       2.396   1.885   1.864  1.00  0.00     0.014 A 
ATOM     13  C   UNL     1       4.928   2.657   0.959  1.00  0.00     0.010 A 
ATOM     14  C   UNL     1       3.149   2.796   2.604  1.00  0.00     0.010 A 
ATOM     15  C   UNL     1       4.433   3.163   2.173  1.00  0.00    -0.014 A 
BRANCH  15  16
ATOM     16  C   UNL     1       5.264   4.112   2.950  1.00  0.00     0.031 A 
ATOM     17  C   UNL     1       5.804   3.742   4.301  1.00  0.00     0.074 A 
ATOM     18  C   UNL     1       5.551   5.308   2.403  1.00  0.00     0.049 A 
ATOM     19  N   UNL     1       6.566   4.442   5.104  1.00  0.00    -0.248 NA
ATOM     20  C   UNL     1       5.436   2.419   4.827  1.00  0.00     0.031 C 
ATOM     21  C   UNL     1       5.069   5.772   1.100  1.00  0.00     0.029 A 
ATOM     22  N   UNL     1       6.332   6.338   2.856  1.00  0.00    -0.354 N 
ATOM     23  C   UNL     1       6.742   3.662   6.239  1.00  0.00     0.074 A 
ATOM     24  C   UNL     1       5.996   2.439   6.029  1.00  0.00     0.031 C 
ATOM     25  C   UNL     1       5.608   6.970   0.834  1.00  0.00     0.029 A 
ATOM     26  C   UNL     1       6.423   7.383   1.970  1.00  0.00     0.049 A 
ATOM     27  H   UNL     1       6.782   6.331   3.731  1.00  0.00     0.167 HD
ATOM     28  C   UNL     1       7.463   3.944   7.350  1.00  0.00     0.037 A 
ATOM     29  C   UNL     1       7.087   8.548   2.066  1.00  0.00     0.037 A 
ATOM     30  C   UNL     1       8.225   5.152   7.535  1.00  0.00     0.049 A 
ATOM     31  C   UNL     1       7.884   8.828   3.306  1.00  0.00     0.074 A 
ATOM     32  C   UNL     1       9.024   5.516   8.606  1.00  0.00     0.029 A 
ATOM     33  N   UNL     1       8.281   6.197   6.623  1.00  0.00    -0.354 N 
ATOM     34  N   UNL     1       8.070   8.069   4.358  1.00  0.00    -0.248 NA
ATOM     35  C   UNL     1       8.563  10.128   3.372  1.00  0.00     0.031 C 
ATOM     36  C   UNL     1       9.532   6.796   8.359  1.00  0.00     0.029 A 
ATOM     37  C   UNL     1       9.088   7.212   7.114  1.00  0.00     0.049 A 
ATOM     38  H   UNL     1       7.817   6.215   5.755  1.00  0.00     0.167 HD
ATOM     39  C   UNL     1       8.903   8.787   5.202  1.00  0.00     0.074 A 
ATOM     40  C   UNL     1       9.200  10.037   4.531  1.00  0.00     0.031 C 
ATOM     41  C   UNL     1       9.378   8.444   6.425  1.00  0.00     0.037 A 
BRANCH  28  42
ATOM     42  C   UNL     1       7.447   2.939   8.465  1.00  0.00     0.064 A 
ATOM     43  C   UNL     1       8.120   1.712   8.368  1.00  0.00     0.173 A 
ATOM     44  C   UNL     1       6.775   3.224   9.664  1.00  0.00     0.173 A 
ATOM     45  F   UNL     1       8.766   1.385   7.238  1.00  0.00    -0.203 F 
ATOM     46  C   UNL     1       8.102   0.799   9.420  1.00  0.00     0.198 A 
ATOM     47  C   UNL     1       6.781   2.320  10.724  1.00  0.00     0.198 A 
ATOM     48  F   UNL     1       6.119   4.385   9.812  1.00  0.00    -0.203 F 
ATOM     49  F   UNL     1       8.717  -0.385   9.288  1.00  0.00    -0.200 F 
ATOM     50  C   UNL     1       7.439   1.106  10.599  1.00  0.00     0.200 A 
ATOM     51  F   UNL     1       6.149   2.624  11.866  1.00  0.00    -0.200 F 
ATOM     52  F   UNL     1       7.427   0.229  11.611  1.00  0.00    -0.200 F 
ENDBRANCH  28  42
BRANCH  29  53
ATOM     53  C   UNL     1       7.038   9.517   0.943  1.00  0.00     0.064 A 
ATOM     54  C   UNL     1       8.169   9.754   0.151  1.00  0.00     0.173 A 
ATOM     55  C   UNL     1       5.858  10.203   0.622  1.00  0.00     0.173 A 
ATOM     56  F   UNL     1       9.324   9.131   0.429  1.00  0.00    -0.203 F 
ATOM     57  C   UNL     1       8.125  10.650  -0.914  1.00  0.00     0.198 A 
ATOM     58  C   UNL     1       5.808  11.078  -0.460  1.00  0.00     0.198 A 
ATOM     59  F   UNL     1       4.747  10.003   1.346  1.00  0.00    -0.203 F 
ATOM     60  F   UNL     1       9.229  10.884  -1.636  1.00  0.00    -0.200 F 
ATOM     61  C   UNL     1       6.942  11.306  -1.223  1.00  0.00     0.200 A 
ATOM     62  F   UNL     1       4.659  11.696  -0.766  1.00  0.00    -0.200 F 
ATOM     63  F   UNL     1       6.898  12.160  -2.255  1.00  0.00    -0.200 F 
ENDBRANCH  29  53
BRANCH  41  64
ATOM     64  C   UNL     1      10.302   9.419   7.090  1.00  0.00     0.064 A 
ATOM     65  C   UNL     1       9.833  10.623   7.635  1.00  0.00     0.173 A 
ATOM     66  C   UNL     1      11.672   9.136   7.195  1.00  0.00     0.173 A 
ATOM     67  F   UNL     1       8.534  10.945   7.543  1.00  0.00    -0.203 F 
ATOM     68  C   UNL     1      10.708  11.523   8.236  1.00  0.00     0.198 A 
ATOM     69  C   UNL     1      12.539  10.026   7.821  1.00  0.00     0.198 A 
ATOM     70  F   UNL     1      12.167   7.996   6.692  1.00  0.00    -0.203 F 
ATOM     71  F   UNL     1      10.248  12.691   8.704  1.00  0.00    -0.200 F 
ATOM     72  C   UNL     1      12.059  11.221   8.333  1.00  0.00     0.200 A 
ATOM     73  F   UNL     1      13.842   9.729   7.922  1.00  0.00    -0.200 F 
ATOM     74  F   UNL     1      12.900  12.089   8.912  1.00  0.00    -0.200 F 
ENDBRANCH  41  64
ENDBRANCH  15  16
ENDBRANCH   8  10
ENDBRANCH   5   6
ENDBRANCH   4   5
ENDBRANCH   3   4
ENDBRANCH   2   3
ENDBRANCH   1   2
BRANCH   1  75
ATOM     75  C   UNL     1       6.469  -4.785  -1.661  1.00  0.00     0.116 C 
BRANCH  75  76
ATOM     76  N   UNL     1       6.029  -5.933  -2.431  1.00  0.00    -0.356 N 
ATOM     77  C   UNL     1       6.729  -7.030  -2.835  1.00  0.00     0.224 C 
ATOM     78  H   UNL     1       5.083  -5.918  -2.703  1.00  0.00     0.163 HD
ATOM     79  O   UNL     1       6.147  -7.876  -3.510  1.00  0.00    -0.275 OA
BRANCH  77  80
ATOM     80  C   UNL     1       8.168  -7.185  -2.360  1.00  0.00     0.095 C 
ATOM     81  C   UNL     1       8.070  -7.706  -0.914  1.00  0.00     0.041 C 
ATOM     82  C   UNL     1       8.979  -8.016  -3.362  1.00  0.00     0.095 C 
ATOM     83  C   UNL     1       8.538  -9.103  -0.680  1.00  0.00    -0.030 C 
ATOM     84  C   UNL     1       9.045  -9.527  -3.083  1.00  0.00     0.041 C 
ATOM     85  C   UNL     1       8.962  -9.920  -1.647  1.00  0.00    -0.030 C 
BRANCH  82  86
ATOM     86  C   UNL     1      10.313  -7.513  -3.926  1.00  0.00     0.228 C 
ATOM     87  O   UNL     1      10.791  -8.108  -4.908  1.00  0.00    -0.274 OA
ATOM     88  N   UNL     1      10.991  -6.388  -3.600  1.00  0.00    -0.325 N 
ATOM     89  H   UNL     1      11.634  -6.136  -4.301  1.00  0.00     0.169 HD
BRANCH  88  90
ATOM     90  C   UNL     1      11.016  -5.491  -2.527  1.00  0.00     0.054 A 
ATOM     91  C   UNL     1      11.025  -4.139  -2.940  1.00  0.00     0.027 A 
ATOM     92  C   UNL     1      11.067  -5.779  -1.156  1.00  0.00     0.063 A 
ATOM     93  C   UNL     1      10.929  -3.090  -2.027  1.00  0.00     0.002 A 
ATOM     94  C   UNL     1      10.941  -4.697  -0.248  1.00  0.00     0.016 A 
ATOM     95  C   UNL     1      10.853  -3.371  -0.674  1.00  0.00     0.001 A 
BRANCH  92  96
ATOM     96  C   UNL     1      11.269  -7.092  -0.480  1.00  0.00     0.253 C 
ATOM     97  O   UNL     1      10.806  -7.239   0.655  1.00  0.00    -0.269 OA
ATOM     98  N   UNL     1      11.966  -8.144  -0.986  1.00  0.00    -0.345 N 
ATOM     99  H   UNL     1      11.822  -8.984  -0.494  1.00  0.00     0.164 HD
BRANCH  98 100
ATOM    100  C   UNL     1      12.877  -8.277  -2.101  1.00  0.00     0.191 C 
BRANCH 100 101
ATOM    101  C   UNL     1      13.900  -9.290  -1.738  1.00  0.00     0.122 A 
ATOM    102  C   UNL     1      13.835 -10.650  -1.506  1.00  0.00     0.047 A 
ATOM    103  O   UNL     1      15.178  -8.848  -1.577  1.00  0.00    -0.467 OA
ATOM    104  C   UNL     1      15.147 -11.057  -1.169  1.00  0.00     0.042 A 
ATOM    105  C   UNL     1      15.926  -9.927  -1.232  1.00  0.00     0.195 A 
ENDBRANCH 100 101
ENDBRANCH  98 100
ENDBRANCH  92  96
ENDBRANCH  88  90
ENDBRANCH  82  86
ENDBRANCH  77  80
ENDBRANCH  75  76
ENDBRANCH   1  75
TORSDOF 18
