REMARK SMILES O=C(/C=C/c1ccccc1)Nc1ccc(O)cc1C(=O)NCCCCCCNC(=O)c1ccc(-c2c3nc(c(-c4c(F)c(F)c(F)c(F)c4F)c4ccc([nH]4)c(-c4c(F)c(F)c(F)c(F)c4F)c4nc(c(-c5c(F)c(F)c(F)c(F)c5F)c5ccc2[nH]5)C=C4)C=C3)cc1
REMARK SMILES IDX 24 1 23 2 22 3 21 4 19 5 20 6 18 8 12 9 13 10 14 11 17 12
REMARK SMILES IDX 15 13 11 14 1 15 2 16 3 18 4 19 5 20 6 21 10 22 7 23 9 24
REMARK SMILES IDX 8 25 16 26 25 28 26 29 27 30 28 31 29 32 30 34 31 35 32 36
REMARK SMILES IDX 93 37 33 38 92 39 34 40 35 41 36 42 86 43 37 44 91 45 85 46
REMARK SMILES IDX 87 47 38 48 90 49 84 50 83 51 39 53 71 54 51 55 70 56 52 57
REMARK SMILES IDX 55 58 69 59 88 60 53 61 54 62 68 64 89 65 56 66 40 67 41 68
REMARK SMILES IDX 49 69 42 70 43 71 47 72 50 73 44 74 45 75 48 76 46 77 72 78
REMARK SMILES IDX 73 79 81 80 74 81 75 82 79 83 82 84 76 85 77 86 80 87 78 88
REMARK SMILES IDX 57 89 58 90 66 91 59 92 60 93 64 94 67 95 61 96 62 97 65 98
REMARK SMILES IDX 63 99
REMARK H PARENT 21 7 11 17 16 27 28 33 87 52 55 63
REMARK Flexibility Score: inf
ROOT
ATOM      1  C   UNL     1       2.578   0.490  -3.558  1.00  0.00     0.002 C 
ENDROOT
BRANCH   1   2
ATOM      2  C   UNL     1       3.147  -0.439  -2.470  1.00  0.00     0.021 C 
BRANCH   2   3
ATOM      3  C   UNL     1       2.421  -0.601  -1.128  1.00  0.00     0.116 C 
BRANCH   3   4
ATOM      4  N   UNL     1       1.207  -1.379  -1.079  1.00  0.00    -0.352 N 
ATOM      5  C   UNL     1       0.533  -1.973  -0.023  1.00  0.00     0.253 C 
ATOM      6  O   UNL     1      -0.637  -2.288  -0.289  1.00  0.00    -0.269 OA
ATOM      7  H   UNL     1       0.779  -1.511  -1.955  1.00  0.00     0.163 HD
BRANCH   5   8
ATOM      8  C   UNL     1       1.074  -2.419   1.329  1.00  0.00     0.067 A 
ATOM      9  C   UNL     1       2.138  -1.963   2.132  1.00  0.00     0.054 A 
ATOM     10  C   UNL     1       2.547  -2.698   3.275  1.00  0.00     0.031 A 
ATOM     11  C   UNL     1       1.870  -3.824   3.707  1.00  0.00     0.048 A 
ATOM     12  C   UNL     1       0.398  -3.579   1.813  1.00  0.00     0.062 A 
ATOM     13  C   UNL     1       0.783  -4.248   2.979  1.00  0.00     0.116 A 
BRANCH   9  14
ATOM     14  N   UNL     1       2.927  -0.820   1.991  1.00  0.00    -0.322 N 
ATOM     15  O   UNL     1       1.369   0.852   1.663  1.00  0.00    -0.270 OA
ATOM     16  C   UNL     1       2.517   0.448   1.686  1.00  0.00     0.248 C 
ATOM     17  H   UNL     1       3.895  -0.942   2.127  1.00  0.00     0.170 HD
BRANCH  16  18
ATOM     18  C   UNL     1       3.636   1.314   1.200  1.00  0.00     0.072 C 
ATOM     19  C   UNL     1       4.915   0.906   1.121  1.00  0.00     0.014 C 
BRANCH  19  20
ATOM     20  C   UNL     1       5.789   1.443   0.086  1.00  0.00    -0.025 A 
ATOM     21  C   UNL     1       6.442   0.507  -0.738  1.00  0.00     0.008 A 
ATOM     22  C   UNL     1       5.864   2.804  -0.189  1.00  0.00     0.008 A 
ATOM     23  C   UNL     1       7.093   0.921  -1.884  1.00  0.00     0.001 A 
ATOM     24  C   UNL     1       6.517   3.216  -1.336  1.00  0.00     0.001 A 
ATOM     25  C   UNL     1       7.113   2.270  -2.177  1.00  0.00     0.000 A 
ENDBRANCH  19  20
ENDBRANCH  16  18
ENDBRANCH   9  14
BRANCH  13  26
ATOM     26  O   UNL     1       0.121  -5.347   3.439  1.00  0.00    -0.508 OA
ATOM     27  H   UNL     1       0.406  -5.771   4.224  1.00  0.00     0.293 HD
ENDBRANCH  13  26
ENDBRANCH   5   8
ENDBRANCH   3   4
ENDBRANCH   2   3
ENDBRANCH   1   2
BRANCH   1  28
ATOM     28  C   UNL     1       2.211   1.952  -3.233  1.00  0.00     0.002 C 
BRANCH  28  29
ATOM     29  C   UNL     1       3.297   3.064  -3.103  1.00  0.00     0.021 C 
BRANCH  29  30
ATOM     30  C   UNL     1       4.353   3.214  -4.229  1.00  0.00     0.116 C 
BRANCH  30  31
ATOM     31  N   UNL     1       4.522   4.582  -4.767  1.00  0.00    -0.352 N 
ATOM     32  C   UNL     1       5.474   5.578  -4.863  1.00  0.00     0.251 C 
ATOM     33  H   UNL     1       3.686   4.878  -5.194  1.00  0.00     0.163 HD
ATOM     34  O   UNL     1       5.246   6.466  -5.692  1.00  0.00    -0.269 OA
BRANCH  32  35
ATOM     35  C   UNL     1       6.692   5.782  -4.027  1.00  0.00     0.039 A 
ATOM     36  C   UNL     1       6.891   7.055  -3.471  1.00  0.00     0.014 A 
ATOM     37  C   UNL     1       7.747   4.893  -3.905  1.00  0.00     0.014 A 
ATOM     38  C   UNL     1       8.046   7.374  -2.718  1.00  0.00     0.010 A 
ATOM     39  C   UNL     1       8.828   5.159  -3.012  1.00  0.00     0.010 A 
ATOM     40  C   UNL     1       9.011   6.408  -2.389  1.00  0.00    -0.014 A 
BRANCH  40  41
ATOM     41  C   UNL     1      10.169   6.738  -1.449  1.00  0.00     0.031 A 
ATOM     42  C   UNL     1      11.616   6.365  -1.766  1.00  0.00     0.074 A 
ATOM     43  C   UNL     1       9.953   7.374  -0.267  1.00  0.00     0.049 A 
ATOM     44  N   UNL     1      12.715   6.596  -1.075  1.00  0.00    -0.248 NA
ATOM     45  C   UNL     1      11.864   5.596  -2.993  1.00  0.00     0.031 C 
ATOM     46  C   UNL     1       8.641   7.725   0.283  1.00  0.00     0.029 A 
ATOM     47  N   UNL     1      10.830   7.850   0.694  1.00  0.00    -0.354 N 
ATOM     48  C   UNL     1      13.755   5.980  -1.769  1.00  0.00     0.074 A 
ATOM     49  C   UNL     1      13.148   5.287  -2.882  1.00  0.00     0.031 C 
ATOM     50  C   UNL     1       8.797   8.412   1.426  1.00  0.00     0.029 A 
ATOM     51  C   UNL     1      10.218   8.520   1.735  1.00  0.00     0.049 A 
ATOM     52  H   UNL     1      11.804   7.723   0.639  1.00  0.00     0.167 HD
ATOM     53  C   UNL     1      15.097   6.018  -1.554  1.00  0.00     0.037 A 
ATOM     54  C   UNL     1      10.724   9.160   2.813  1.00  0.00     0.037 A 
ATOM     55  C   UNL     1      15.739   6.747  -0.489  1.00  0.00     0.049 A 
ATOM     56  C   UNL     1      12.218   9.227   3.015  1.00  0.00     0.074 A 
ATOM     57  C   UNL     1      17.095   6.907  -0.244  1.00  0.00     0.029 A 
ATOM     58  N   UNL     1      15.073   7.445   0.505  1.00  0.00    -0.354 N 
ATOM     59  N   UNL     1      13.177   8.725   2.278  1.00  0.00    -0.248 NA
ATOM     60  C   UNL     1      12.700   9.967   4.194  1.00  0.00     0.031 C 
ATOM     61  C   UNL     1      17.247   7.662   0.923  1.00  0.00     0.029 A 
ATOM     62  C   UNL     1      15.989   8.025   1.370  1.00  0.00     0.049 A 
ATOM     63  H   UNL     1      14.095   7.519   0.585  1.00  0.00     0.167 HD
ATOM     64  C   UNL     1      14.367   9.122   2.876  1.00  0.00     0.074 A 
ATOM     65  C   UNL     1      14.014   9.921   4.027  1.00  0.00     0.031 C 
ATOM     66  C   UNL     1      15.640   8.843   2.502  1.00  0.00     0.037 A 
BRANCH  53  67
ATOM     67  C   UNL     1      15.990   5.282  -2.524  1.00  0.00     0.064 A 
ATOM     68  C   UNL     1      16.119   5.696  -3.861  1.00  0.00     0.173 A 
ATOM     69  C   UNL     1      16.773   4.193  -2.105  1.00  0.00     0.173 A 
ATOM     70  F   UNL     1      15.400   6.731  -4.319  1.00  0.00    -0.203 F 
ATOM     71  C   UNL     1      16.958   5.024  -4.747  1.00  0.00     0.198 A 
ATOM     72  C   UNL     1      17.642   3.549  -2.985  1.00  0.00     0.198 A 
ATOM     73  F   UNL     1      16.712   3.764  -0.836  1.00  0.00    -0.203 F 
ATOM     74  F   UNL     1      17.014   5.404  -6.031  1.00  0.00    -0.200 F 
ATOM     75  C   UNL     1      17.725   3.957  -4.307  1.00  0.00     0.200 A 
ATOM     76  F   UNL     1      18.400   2.531  -2.552  1.00  0.00    -0.200 F 
ATOM     77  F   UNL     1      18.540   3.319  -5.159  1.00  0.00    -0.200 F 
ENDBRANCH  53  67
BRANCH  54  78
ATOM     78  C   UNL     1       9.817   9.848   3.783  1.00  0.00     0.064 A 
ATOM     79  C   UNL     1       9.825  11.246   3.913  1.00  0.00     0.173 A 
ATOM     80  C   UNL     1       8.959   9.128   4.628  1.00  0.00     0.173 A 
ATOM     81  F   UNL     1      10.647  11.984   3.152  1.00  0.00    -0.203 F 
ATOM     82  C   UNL     1       9.037  11.892   4.866  1.00  0.00     0.198 A 
ATOM     83  C   UNL     1       8.144   9.778   5.556  1.00  0.00     0.198 A 
ATOM     84  F   UNL     1       8.908   7.791   4.552  1.00  0.00    -0.203 F 
ATOM     85  F   UNL     1       9.117  13.223   5.009  1.00  0.00    -0.200 F 
ATOM     86  C   UNL     1       8.192  11.158   5.683  1.00  0.00     0.200 A 
ATOM     87  F   UNL     1       7.318   9.065   6.335  1.00  0.00    -0.200 F 
ATOM     88  F   UNL     1       7.434  11.778   6.598  1.00  0.00    -0.200 F 
ENDBRANCH  54  78
BRANCH  66  89
ATOM     89  C   UNL     1      16.755   9.455   3.303  1.00  0.00     0.064 A 
ATOM     90  C   UNL     1      17.038   9.047   4.614  1.00  0.00     0.173 A 
ATOM     91  C   UNL     1      17.575  10.442   2.733  1.00  0.00     0.173 A 
ATOM     92  F   UNL     1      16.280   8.115   5.211  1.00  0.00    -0.203 F 
ATOM     93  C   UNL     1      18.078   9.628   5.337  1.00  0.00     0.198 A 
ATOM     94  C   UNL     1      18.635  10.995   3.446  1.00  0.00     0.198 A 
ATOM     95  F   UNL     1      17.356  10.863   1.478  1.00  0.00    -0.203 F 
ATOM     96  F   UNL     1      18.294   9.261   6.608  1.00  0.00    -0.200 F 
ATOM     97  C   UNL     1      18.880  10.595   4.750  1.00  0.00     0.200 A 
ATOM     98  F   UNL     1      19.419  11.918   2.870  1.00  0.00    -0.200 F 
ATOM     99  F   UNL     1      19.884  11.148   5.445  1.00  0.00    -0.200 F 
ENDBRANCH  66  89
ENDBRANCH  40  41
ENDBRANCH  32  35
ENDBRANCH  30  31
ENDBRANCH  29  30
ENDBRANCH  28  29
ENDBRANCH   1  28
TORSDOF 17
