REMARK SMILES O=C(NCCCCCCNC(=O)c1ccnc(-n2cnnn2)c1)c1ccc(-c2c3nc(c(-c4c(F)c(F)c(F)c(F)c4F)c4ccc([nH]4)c(-c4c(F)c(F)c(F)c(F)c4F)c4nc(c(-c5c(F)c(F)c(F)c(F)c5F)c5ccc2[nH]5)C=C4)C=C3)cc1
REMARK SMILES IDX 6 1 5 2 4 3 3 4 1 5 2 6 24 8 25 9 86 10 26 11 85 12 27 13
REMARK SMILES IDX 28 14 29 15 79 16 30 17 84 18 78 19 80 20 31 21 83 22 77 23
REMARK SMILES IDX 76 24 32 26 64 27 44 28 63 29 45 30 48 31 62 32 81 33 46 34
REMARK SMILES IDX 47 35 61 37 82 38 49 39 33 40 34 41 42 42 35 43 36 44 40 45
REMARK SMILES IDX 43 46 37 47 38 48 41 49 39 50 65 51 66 52 74 53 67 54 68 55
REMARK SMILES IDX 72 56 75 57 69 58 70 59 73 60 71 61 50 62 51 63 59 64 52 65
REMARK SMILES IDX 53 66 57 67 60 68 54 69 55 70 58 71 56 72 7 73 8 74 9 75
REMARK SMILES IDX 10 76 11 77 12 79 13 80 14 81 23 82 15 83 17 84 16 85 18 86
REMARK SMILES IDX 19 87 22 88 20 89 21 90
REMARK H PARENT 3 7 80 25 48 36 10 78
REMARK Flexibility Score: inf
ROOT
ATOM      1  C   UNL     1       4.188   0.568   3.436  1.00  0.00     0.002 C 
ENDROOT
BRANCH   1   2
ATOM      2  C   UNL     1       4.692   0.945   2.038  1.00  0.00     0.021 C 
BRANCH   2   3
ATOM      3  C   UNL     1       4.485  -0.123   0.963  1.00  0.00     0.116 C 
BRANCH   3   4
ATOM      4  N   UNL     1       3.100  -0.499   0.765  1.00  0.00    -0.352 N 
ATOM      5  O   UNL     1       1.015  -0.670   0.068  1.00  0.00    -0.269 OA
ATOM      6  C   UNL     1       2.043   0.014   0.066  1.00  0.00     0.251 C 
ATOM      7  H   UNL     1       2.864  -1.322   1.250  1.00  0.00     0.163 HD
BRANCH   6   8
ATOM      8  C   UNL     1       2.022   1.319  -0.656  1.00  0.00     0.039 A 
ATOM      9  C   UNL     1       3.123   2.139  -0.898  1.00  0.00     0.014 A 
ATOM     10  C   UNL     1       0.764   1.742  -1.137  1.00  0.00     0.014 A 
ATOM     11  C   UNL     1       2.969   3.354  -1.570  1.00  0.00     0.010 A 
ATOM     12  C   UNL     1       0.605   2.950  -1.816  1.00  0.00     0.010 A 
ATOM     13  C   UNL     1       1.711   3.766  -2.026  1.00  0.00    -0.014 A 
BRANCH  13  14
ATOM     14  C   UNL     1       1.646   4.983  -2.837  1.00  0.00     0.031 A 
ATOM     15  C   UNL     1       2.357   4.926  -4.148  1.00  0.00     0.074 A 
ATOM     16  C   UNL     1       0.916   6.080  -2.558  1.00  0.00     0.049 A 
ATOM     17  N   UNL     1       3.355   5.647  -4.546  1.00  0.00    -0.248 NA
ATOM     18  C   UNL     1       1.921   3.914  -5.120  1.00  0.00     0.031 C 
ATOM     19  C   UNL     1      -0.103   6.255  -1.526  1.00  0.00     0.029 A 
ATOM     20  N   UNL     1       0.895   7.274  -3.228  1.00  0.00    -0.354 N 
ATOM     21  C   UNL     1       3.594   5.286  -5.871  1.00  0.00     0.074 A 
ATOM     22  C   UNL     1       2.742   4.156  -6.145  1.00  0.00     0.031 C 
ATOM     23  C   UNL     1      -0.775   7.407  -1.757  1.00  0.00     0.029 A 
ATOM     24  C   UNL     1      -0.148   8.111  -2.866  1.00  0.00     0.049 A 
ATOM     25  H   UNL     1       1.563   7.516  -3.909  1.00  0.00     0.167 HD
ATOM     26  C   UNL     1       4.360   6.048  -6.701  1.00  0.00     0.037 A 
ATOM     27  C   UNL     1      -0.499   9.277  -3.463  1.00  0.00     0.037 A 
ATOM     28  C   UNL     1       5.180   6.978  -5.971  1.00  0.00     0.049 A 
ATOM     29  C   UNL     1       0.662   9.774  -4.237  1.00  0.00     0.074 A 
ATOM     30  C   UNL     1       6.166   6.866  -5.010  1.00  0.00     0.029 A 
ATOM     31  N   UNL     1       4.836   8.305  -5.986  1.00  0.00    -0.354 N 
ATOM     32  N   UNL     1       1.739  10.282  -3.711  1.00  0.00    -0.248 NA
ATOM     33  C   UNL     1       0.767   9.407  -5.641  1.00  0.00     0.031 C 
ATOM     34  C   UNL     1       6.003   8.009  -4.174  1.00  0.00     0.029 A 
ATOM     35  C   UNL     1       4.946   8.755  -4.697  1.00  0.00     0.049 A 
ATOM     36  H   UNL     1       4.563   8.833  -6.770  1.00  0.00     0.167 HD
ATOM     37  C   UNL     1       2.758   9.899  -4.565  1.00  0.00     0.074 A 
ATOM     38  C   UNL     1       2.090   9.489  -5.794  1.00  0.00     0.031 C 
ATOM     39  C   UNL     1       4.021   9.682  -4.096  1.00  0.00     0.037 A 
BRANCH  26  40
ATOM     40  C   UNL     1       4.156   6.177  -8.190  1.00  0.00     0.064 A 
ATOM     41  C   UNL     1       5.131   6.833  -8.971  1.00  0.00     0.173 A 
ATOM     42  C   UNL     1       2.914   5.961  -8.822  1.00  0.00     0.173 A 
ATOM     43  F   UNL     1       6.342   7.108  -8.462  1.00  0.00    -0.203 F 
ATOM     44  C   UNL     1       4.854   7.308 -10.255  1.00  0.00     0.198 A 
ATOM     45  C   UNL     1       2.659   6.389 -10.126  1.00  0.00     0.198 A 
ATOM     46  F   UNL     1       1.871   5.435  -8.168  1.00  0.00    -0.203 F 
ATOM     47  F   UNL     1       5.769   8.039 -10.906  1.00  0.00    -0.200 F 
ATOM     48  C   UNL     1       3.615   7.090 -10.829  1.00  0.00     0.200 A 
ATOM     49  F   UNL     1       1.446   6.186 -10.660  1.00  0.00    -0.200 F 
ATOM     50  F   UNL     1       3.325   7.599 -12.034  1.00  0.00    -0.200 F 
ENDBRANCH  26  40
BRANCH  27  51
ATOM     51  C   UNL     1      -1.832   9.909  -3.581  1.00  0.00     0.064 A 
ATOM     52  C   UNL     1      -1.966  11.269  -3.909  1.00  0.00     0.173 A 
ATOM     53  C   UNL     1      -3.001   9.129  -3.654  1.00  0.00     0.173 A 
ATOM     54  F   UNL     1      -0.894  12.075  -3.906  1.00  0.00    -0.203 F 
ATOM     55  C   UNL     1      -3.189  11.808  -4.318  1.00  0.00     0.198 A 
ATOM     56  C   UNL     1      -4.224   9.670  -4.051  1.00  0.00     0.198 A 
ATOM     57  F   UNL     1      -2.958   7.806  -3.435  1.00  0.00    -0.203 F 
ATOM     58  F   UNL     1      -3.262  13.093  -4.691  1.00  0.00    -0.200 F 
ATOM     59  C   UNL     1      -4.315  11.005  -4.399  1.00  0.00     0.200 A 
ATOM     60  F   UNL     1      -5.298   8.875  -4.159  1.00  0.00    -0.200 F 
ATOM     61  F   UNL     1      -5.473  11.505  -4.852  1.00  0.00    -0.200 F 
ENDBRANCH  27  51
BRANCH  39  62
ATOM     62  C   UNL     1       4.368  10.217  -2.738  1.00  0.00     0.064 A 
ATOM     63  C   UNL     1       3.711   9.848  -1.551  1.00  0.00     0.173 A 
ATOM     64  C   UNL     1       5.486  11.055  -2.624  1.00  0.00     0.173 A 
ATOM     65  F   UNL     1       2.708   8.959  -1.562  1.00  0.00    -0.203 F 
ATOM     66  C   UNL     1       4.119  10.351  -0.317  1.00  0.00     0.198 A 
ATOM     67  C   UNL     1       5.918  11.521  -1.386  1.00  0.00     0.198 A 
ATOM     68  F   UNL     1       6.190  11.392  -3.717  1.00  0.00    -0.203 F 
ATOM     69  F   UNL     1       3.462  10.006   0.799  1.00  0.00    -0.200 F 
ATOM     70  C   UNL     1       5.225  11.182  -0.235  1.00  0.00     0.200 A 
ATOM     71  F   UNL     1       7.020  12.279  -1.306  1.00  0.00    -0.200 F 
ATOM     72  F   UNL     1       5.640  11.634   0.956  1.00  0.00    -0.200 F 
ENDBRANCH  39  62
ENDBRANCH  13  14
ENDBRANCH   6   8
ENDBRANCH   3   4
ENDBRANCH   2   3
ENDBRANCH   1   2
BRANCH   1  73
ATOM     73  C   UNL     1       4.750  -0.728   4.029  1.00  0.00     0.002 C 
BRANCH  73  74
ATOM     74  C   UNL     1       6.279  -0.833   4.075  1.00  0.00     0.021 C 
BRANCH  74  75
ATOM     75  C   UNL     1       6.982   0.256   4.886  1.00  0.00     0.116 C 
BRANCH  75  76
ATOM     76  N   UNL     1       6.701   0.132   6.307  1.00  0.00    -0.352 N 
ATOM     77  C   UNL     1       7.564  -0.101   7.340  1.00  0.00     0.251 C 
ATOM     78  H   UNL     1       5.755   0.231   6.560  1.00  0.00     0.163 HD
ATOM     79  O   UNL     1       7.138  -0.415   8.454  1.00  0.00    -0.269 OA
BRANCH  77  80
ATOM     80  C   UNL     1       9.020   0.007   7.146  1.00  0.00     0.045 A 
ATOM     81  C   UNL     1       9.585   1.169   6.627  1.00  0.00     0.034 A 
ATOM     82  C   UNL     1       9.828  -1.041   7.593  1.00  0.00     0.063 A 
ATOM     83  C   UNL     1      10.960   1.228   6.552  1.00  0.00     0.114 A 
ATOM     84  C   UNL     1      11.205  -0.892   7.487  1.00  0.00     0.157 A 
ATOM     85  N   UNL     1      11.771   0.232   6.969  1.00  0.00    -0.237 NA
BRANCH  84  86
ATOM     86  N   UNL     1      12.066  -1.926   7.940  1.00  0.00    -0.182 N 
ATOM     87  C   UNL     1      11.766  -3.218   8.293  1.00  0.00     0.254 A 
ATOM     88  N   UNL     1      13.401  -1.757   8.085  1.00  0.00    -0.039 NA
ATOM     89  N   UNL     1      12.859  -3.826   8.693  1.00  0.00    -0.117 NA
ATOM     90  N   UNL     1      13.863  -2.902   8.569  1.00  0.00    -0.024 NA
ENDBRANCH  84  86
ENDBRANCH  77  80
ENDBRANCH  75  76
ENDBRANCH  74  75
ENDBRANCH  73  74
ENDBRANCH   1  73
TORSDOF 14
