REMARK SMILES O=C(CCS(=O)(=O)Nc1ccc(-c2ccccc2)cc1)NCCCCCCNC(=O)c1ccc(-c2c3nc(c(-c4c(F)c(F)c(F)c(F)c4F)c4ccc([nH]4)c(-c4c(F)c(F)c(F)c(F)c4F)c4nc(c(-c5c(F)c(F)c(F)c(F)c5F)c5ccc2[nH]5)C=C4)C=C3)cc1
REMARK SMILES IDX 23 1 22 2 21 3 1 4 2 5 3 7 4 8 5 9 6 10 7 11 8 12 9 14 10 15
REMARK SMILES IDX 20 16 11 17 19 18 12 19 13 20 14 21 18 22 15 23 17 24 16 25
REMARK SMILES IDX 24 26 25 27 26 28 27 29 28 30 29 31 30 33 31 34 32 35 93 36
REMARK SMILES IDX 33 37 92 38 34 39 35 40 36 41 86 42 37 43 91 44 85 45 87 46
REMARK SMILES IDX 38 47 90 48 84 49 83 50 39 52 71 53 51 54 70 55 52 56 55 57
REMARK SMILES IDX 69 58 88 59 53 60 54 61 68 63 89 64 56 65 40 66 41 67 49 68
REMARK SMILES IDX 42 69 43 70 47 71 50 72 44 73 45 74 48 75 46 76 72 77 73 78
REMARK SMILES IDX 81 79 74 80 75 81 79 82 82 83 76 84 77 85 80 86 78 87 57 88
REMARK SMILES IDX 58 89 66 90 59 91 60 92 64 93 67 94 61 95 62 96 65 97 63 98
REMARK H PARENT 21 6 8 13 28 32 87 51 55 62
REMARK Flexibility Score: inf
ROOT
ATOM      1  C   UNL     1       3.079  -0.743   3.781  1.00  0.00     0.021 C 
ENDROOT
BRANCH   1   2
ATOM      2  C   UNL     1       2.418  -0.397   2.448  1.00  0.00     0.116 C 
BRANCH   2   3
ATOM      3  N   UNL     1       3.242  -0.730   1.306  1.00  0.00    -0.356 N 
ATOM      4  O   UNL     1       1.579  -1.344  -0.149  1.00  0.00    -0.275 OA
ATOM      5  C   UNL     1       2.756  -1.083   0.075  1.00  0.00     0.221 C 
ATOM      6  H   UNL     1       4.220  -0.701   1.421  1.00  0.00     0.163 HD
BRANCH   5   7
ATOM      7  C   UNL     1       3.804  -1.134  -1.023  1.00  0.00     0.118 C 
BRANCH   7   8
ATOM      8  C   UNL     1       4.248   0.192  -1.636  1.00  0.00     0.170 C 
BRANCH   8   9
ATOM      9  S   UNL     1       4.966   1.394  -0.511  1.00  0.00     0.233 S 
ATOM     10  O   UNL     1       5.267   0.752   0.754  1.00  0.00    -0.207 OA
ATOM     11  O   UNL     1       6.050   2.039  -1.221  1.00  0.00    -0.207 OA
BRANCH   9  12
ATOM     12  N   UNL     1       3.866   2.631  -0.231  1.00  0.00    -0.284 N 
ATOM     13  H   UNL     1       4.180   3.553  -0.376  1.00  0.00     0.180 HD
BRANCH  12  14
ATOM     14  C   UNL     1       2.511   2.462   0.201  1.00  0.00     0.049 A 
ATOM     15  C   UNL     1       2.020   3.202   1.286  1.00  0.00     0.027 A 
ATOM     16  C   UNL     1       1.600   1.730  -0.547  1.00  0.00     0.027 A 
ATOM     17  C   UNL     1       0.662   3.121   1.662  1.00  0.00     0.011 A 
ATOM     18  C   UNL     1       0.270   1.609  -0.152  1.00  0.00     0.011 A 
ATOM     19  C   UNL     1      -0.222   2.298   0.957  1.00  0.00    -0.018 A 
BRANCH  19  20
ATOM     20  C   UNL     1      -1.645   2.159   1.267  1.00  0.00    -0.018 A 
ATOM     21  C   UNL     1      -2.574   3.058   0.723  1.00  0.00     0.009 A 
ATOM     22  C   UNL     1      -2.125   1.026   1.943  1.00  0.00     0.009 A 
ATOM     23  C   UNL     1      -3.946   2.817   0.825  1.00  0.00     0.001 A 
ATOM     24  C   UNL     1      -3.498   0.787   2.050  1.00  0.00     0.001 A 
ATOM     25  C   UNL     1      -4.406   1.678   1.482  1.00  0.00     0.000 A 
ENDBRANCH  19  20
ENDBRANCH  12  14
ENDBRANCH   9  12
ENDBRANCH   8   9
ENDBRANCH   7   8
ENDBRANCH   5   7
ENDBRANCH   2   3
ENDBRANCH   1   2
BRANCH   1  26
ATOM     26  C   UNL     1       4.493  -0.182   3.991  1.00  0.00     0.002 C 
BRANCH  26  27
ATOM     27  C   UNL     1       4.620   1.345   4.008  1.00  0.00     0.002 C 
BRANCH  27  28
ATOM     28  C   UNL     1       3.878   2.063   5.135  1.00  0.00     0.021 C 
BRANCH  28  29
ATOM     29  C   UNL     1       4.113   1.506   6.535  1.00  0.00     0.116 C 
BRANCH  29  30
ATOM     30  N   UNL     1       5.514   1.494   6.925  1.00  0.00    -0.352 N 
ATOM     31  C   UNL     1       6.089   1.823   8.129  1.00  0.00     0.251 C 
ATOM     32  H   UNL     1       6.143   1.210   6.224  1.00  0.00     0.163 HD
ATOM     33  O   UNL     1       7.310   1.852   8.242  1.00  0.00    -0.269 OA
BRANCH  31  34
ATOM     34  C   UNL     1       5.237   2.180   9.285  1.00  0.00     0.039 A 
ATOM     35  C   UNL     1       5.598   3.280  10.067  1.00  0.00     0.014 A 
ATOM     36  C   UNL     1       4.090   1.446   9.598  1.00  0.00     0.014 A 
ATOM     37  C   UNL     1       4.774   3.683  11.120  1.00  0.00     0.010 A 
ATOM     38  C   UNL     1       3.227   1.899  10.592  1.00  0.00     0.010 A 
ATOM     39  C   UNL     1       3.561   3.019  11.367  1.00  0.00    -0.014 A 
BRANCH  39  40
ATOM     40  C   UNL     1       2.632   3.494  12.425  1.00  0.00     0.031 A 
ATOM     41  C   UNL     1       2.308   2.619  13.604  1.00  0.00     0.074 A 
ATOM     42  C   UNL     1       2.038   4.696  12.296  1.00  0.00     0.049 A 
ATOM     43  N   UNL     1       1.512   2.854  14.617  1.00  0.00    -0.248 NA
ATOM     44  C   UNL     1       2.940   1.292  13.636  1.00  0.00     0.031 C 
ATOM     45  C   UNL     1       2.232   5.617  11.175  1.00  0.00     0.029 A 
ATOM     46  N   UNL     1       1.153   5.352  13.115  1.00  0.00    -0.354 N 
ATOM     47  C   UNL     1       1.537   1.703  15.394  1.00  0.00     0.074 A 
ATOM     48  C   UNL     1       2.378   0.749  14.705  1.00  0.00     0.031 C 
ATOM     49  C   UNL     1       1.524   6.736  11.398  1.00  0.00     0.029 A 
ATOM     50  C   UNL     1       0.794   6.595  12.653  1.00  0.00     0.049 A 
ATOM     51  H   UNL     1       0.809   4.968  13.953  1.00  0.00     0.167 HD
ATOM     52  C   UNL     1       0.932   1.471  16.584  1.00  0.00     0.037 A 
ATOM     53  C   UNL     1      -0.030   7.517  13.185  1.00  0.00     0.037 A 
ATOM     54  C   UNL     1       0.108   2.432  17.273  1.00  0.00     0.049 A 
ATOM     55  C   UNL     1      -0.706   7.226  14.498  1.00  0.00     0.074 A 
ATOM     56  C   UNL     1      -0.489   2.324  18.516  1.00  0.00     0.029 A 
ATOM     57  N   UNL     1      -0.245   3.676  16.768  1.00  0.00    -0.354 N 
ATOM     58  N   UNL     1      -0.605   6.171  15.268  1.00  0.00    -0.248 NA
ATOM     59  C   UNL     1      -1.609   8.263  15.016  1.00  0.00     0.031 C 
ATOM     60  C   UNL     1      -1.259   3.472  18.733  1.00  0.00     0.029 A 
ATOM     61  C   UNL     1      -1.085   4.328  17.658  1.00  0.00     0.049 A 
ATOM     62  H   UNL     1       0.057   4.042  15.905  1.00  0.00     0.167 HD
ATOM     63  C   UNL     1      -1.401   6.429  16.377  1.00  0.00     0.074 A 
ATOM     64  C   UNL     1      -1.964   7.749  16.184  1.00  0.00     0.031 C 
ATOM     65  C   UNL     1      -1.641   5.643  17.456  1.00  0.00     0.037 A 
BRANCH  52  66
ATOM     66  C   UNL     1       1.125   0.116  17.208  1.00  0.00     0.064 A 
ATOM     67  C   UNL     1       2.375  -0.313  17.681  1.00  0.00     0.173 A 
ATOM     68  C   UNL     1       0.040  -0.763  17.346  1.00  0.00     0.173 A 
ATOM     69  F   UNL     1       3.450   0.482  17.568  1.00  0.00    -0.203 F 
ATOM     70  C   UNL     1       2.540  -1.584  18.226  1.00  0.00     0.198 A 
ATOM     71  C   UNL     1       0.200  -2.019  17.926  1.00  0.00     0.198 A 
ATOM     72  F   UNL     1      -1.181  -0.404  16.919  1.00  0.00    -0.203 F 
ATOM     73  F   UNL     1       3.758  -1.995  18.607  1.00  0.00    -0.200 F 
ATOM     74  C   UNL     1       1.452  -2.433  18.353  1.00  0.00     0.200 A 
ATOM     75  F   UNL     1      -0.857  -2.832  18.063  1.00  0.00    -0.200 F 
ATOM     76  F   UNL     1       1.612  -3.656  18.878  1.00  0.00    -0.200 F 
ENDBRANCH  52  66
BRANCH  53  77
ATOM     77  C   UNL     1      -0.227   8.822  12.500  1.00  0.00     0.064 A 
ATOM     78  C   UNL     1       0.261  10.008  13.066  1.00  0.00     0.173 A 
ATOM     79  C   UNL     1      -0.905   8.916  11.276  1.00  0.00     0.173 A 
ATOM     80  F   UNL     1       0.899   9.974  14.246  1.00  0.00    -0.203 F 
ATOM     81  C   UNL     1       0.062  11.240  12.445  1.00  0.00     0.198 A 
ATOM     82  C   UNL     1      -1.077  10.144  10.641  1.00  0.00     0.198 A 
ATOM     83  F   UNL     1      -1.389   7.811  10.689  1.00  0.00    -0.203 F 
ATOM     84  F   UNL     1       0.498  12.362  13.033  1.00  0.00    -0.200 F 
ATOM     85  C   UNL     1      -0.602  11.306  11.230  1.00  0.00     0.200 A 
ATOM     86  F   UNL     1      -1.705  10.202   9.458  1.00  0.00    -0.200 F 
ATOM     87  F   UNL     1      -0.788  12.489  10.630  1.00  0.00    -0.200 F 
ENDBRANCH  53  77
BRANCH  65  88
ATOM     88  C   UNL     1      -2.524   6.210  18.534  1.00  0.00     0.064 A 
ATOM     89  C   UNL     1      -3.896   6.422  18.333  1.00  0.00     0.173 A 
ATOM     90  C   UNL     1      -1.990   6.527  19.793  1.00  0.00     0.173 A 
ATOM     91  F   UNL     1      -4.455   6.150  17.144  1.00  0.00    -0.203 F 
ATOM     92  C   UNL     1      -4.692   6.968  19.338  1.00  0.00     0.198 A 
ATOM     93  C   UNL     1      -2.796   7.036  20.807  1.00  0.00     0.198 A 
ATOM     94  F   UNL     1      -0.686   6.337  20.043  1.00  0.00    -0.203 F 
ATOM     95  F   UNL     1      -5.986   7.223  19.100  1.00  0.00    -0.200 F 
ATOM     96  C   UNL     1      -4.143   7.267  20.576  1.00  0.00     0.200 A 
ATOM     97  F   UNL     1      -2.267   7.308  22.008  1.00  0.00    -0.200 F 
ATOM     98  F   UNL     1      -4.911   7.789  21.542  1.00  0.00    -0.200 F 
ENDBRANCH  65  88
ENDBRANCH  39  40
ENDBRANCH  31  34
ENDBRANCH  29  30
ENDBRANCH  28  29
ENDBRANCH  27  28
ENDBRANCH  26  27
ENDBRANCH   1  26
TORSDOF 18
