REMARK SMILES CC1(C)CC[C@@]2(C(=O)NCCCCCCNC(=O)c3ccc(-c4c5nc(c(-c6c(F)c(F)c(F)c(F)c6F)c6ccc([nH]6)c(-c6c(F)c(F)c(F)c(F)c6F)c6nc(c(-c7c(F)c(F)c(F)c(F)c7F)c7ccc4[nH]7)C=C6)C=C5)cc3)CC[C@@]3(C)C(=CC[C@H]4[C@@]5(C)CC[C@H](O)C(C)(C)[C@@H]5CC[C@]43C)[C@@H]2C1
REMARK SMILES IDX 13 1 12 2 11 3 10 4 9 5 7 6 8 7 6 9 1 10 2 11 3 12 4 13
REMARK SMILES IDX 105 14 5 15 104 16 86 17 82 18 84 19 87 20 83 21 85 22
REMARK SMILES IDX 102 23 88 24 89 25 101 26 103 27 90 28 100 29 91 30 92 31
REMARK SMILES IDX 99 32 93 33 96 34 94 35 97 36 98 37 95 38 14 40 15 41 16 42
REMARK SMILES IDX 17 43 18 45 19 46 20 47 81 48 21 49 80 50 22 51 23 52 24 53
REMARK SMILES IDX 74 54 25 55 79 56 73 57 75 58 26 59 78 60 72 61 71 62 27 64
REMARK SMILES IDX 59 65 39 66 58 67 40 68 43 69 57 70 76 71 41 72 42 73 56 75
REMARK SMILES IDX 77 76 44 77 28 78 29 79 37 80 30 81 31 82 35 83 38 84 32 85
REMARK SMILES IDX 33 86 36 87 34 88 60 89 61 90 69 91 62 92 63 93 67 94 70 95
REMARK SMILES IDX 64 96 65 97 68 98 66 99 45 100 46 101 54 102 47 103 48 104
REMARK SMILES IDX 52 105 55 106 49 107 50 108 53 109 51 110
REMARK H PARENT 9 8 95 39 16 44 75 63 43 74
REMARK Flexibility Score: inf
ROOT
ATOM      1  C   UNL     1      -0.962   1.885   3.787  1.00  0.00     0.002 C 
ENDROOT
BRANCH   1   2
ATOM      2  C   UNL     1      -1.507   0.735   4.633  1.00  0.00     0.002 C 
BRANCH   2   3
ATOM      3  C   UNL     1      -1.797  -0.635   3.990  1.00  0.00     0.021 C 
BRANCH   3   4
ATOM      4  C   UNL     1      -1.093  -1.096   2.705  1.00  0.00     0.116 C 
BRANCH   4   5
ATOM      5  N   UNL     1       0.343  -1.303   2.707  1.00  0.00    -0.356 N 
ATOM      6  C   UNL     1       1.039  -2.411   2.259  1.00  0.00     0.226 C 
ATOM      7  O   UNL     1       0.496  -3.511   2.156  1.00  0.00    -0.274 OA
ATOM      8  H   UNL     1       0.886  -0.566   3.070  1.00  0.00     0.163 HD
BRANCH   6   9
ATOM      9  C   UNL     1       2.530  -2.182   1.764  1.00  0.00     0.056 C 
ATOM     10  C   UNL     1       2.000   0.185  -1.654  1.00  0.00     0.011 C 
ATOM     11  C   UNL     1       1.362  -0.387  -0.375  1.00  0.00    -0.035 C 
ATOM     12  C   UNL     1      -0.118   0.110  -0.417  1.00  0.00     0.011 C 
ATOM     13  C   UNL     1       1.345  -1.928  -0.490  1.00  0.00     0.007 C 
ATOM     14  C   UNL     1       2.124   0.200   0.886  1.00  0.00     0.015 C 
ATOM     15  C   UNL     1       2.474  -2.619   0.267  1.00  0.00     0.018 C 
ATOM     16  C   UNL     1       3.057  -0.728   1.790  1.00  0.00     0.031 C 
ATOM     17  C   UNL     1       3.295  -0.339   3.293  1.00  0.00    -0.064 C 
ATOM     18  C   UNL     1       3.587  -3.084   2.476  1.00  0.00     0.018 C 
ATOM     19  C   UNL     1       4.177  -1.211   4.270  1.00  0.00    -0.006 C 
ATOM     20  C   UNL     1       2.540   0.636   3.820  1.00  0.00    -0.027 C 
ATOM     21  C   UNL     1       4.052  -2.717   3.912  1.00  0.00     0.013 C 
ATOM     22  C   UNL     1       5.668  -0.862   3.971  1.00  0.00     0.017 C 
ATOM     23  C   UNL     1       3.862  -0.793   5.883  1.00  0.00    -0.020 C 
ATOM     24  C   UNL     1       1.817   0.402   5.114  1.00  0.00     0.032 C 
ATOM     25  C   UNL     1       2.326  -0.668   6.080  1.00  0.00     0.006 C 
ATOM     26  C   UNL     1       4.403  -1.646   7.096  1.00  0.00     0.008 C 
ATOM     27  C   UNL     1       4.486   0.652   6.148  1.00  0.00     0.012 C 
ATOM     28  C   UNL     1       1.450  -2.025   6.397  1.00  0.00    -0.025 C 
ATOM     29  C   UNL     1       3.319  -2.227   8.075  1.00  0.00     0.005 C 
ATOM     30  C   UNL     1       0.201  -1.529   7.171  1.00  0.00     0.012 C 
ATOM     31  C   UNL     1       0.935  -2.877   5.221  1.00  0.00     0.010 C 
ATOM     32  C   UNL     1       2.322  -3.007   7.232  1.00  0.00     0.003 C 
ATOM     33  C   UNL     1       0.597  -4.375   5.416  1.00  0.00     0.033 C 
ATOM     34  C   UNL     1       1.612  -4.311   7.758  1.00  0.00    -0.006 C 
ATOM     35  C   UNL     1       1.405  -5.153   6.464  1.00  0.00     0.120 C 
ATOM     36  C   UNL     1       0.249  -4.185   8.476  1.00  0.00     0.014 C 
ATOM     37  C   UNL     1       2.521  -5.067   8.746  1.00  0.00     0.014 C 
BRANCH  35  38
ATOM     38  O   UNL     1       0.750  -6.388   6.750  1.00  0.00    -0.393 OA
ATOM     39  H   UNL     1      -0.132  -6.210   7.112  1.00  0.00     0.210 HD
ENDBRANCH  35  38
ENDBRANCH   6   9
ENDBRANCH   4   5
ENDBRANCH   3   4
ENDBRANCH   2   3
ENDBRANCH   1   2
BRANCH   1  40
ATOM     40  C   UNL     1      -1.915   2.462   2.759  1.00  0.00     0.021 C 
BRANCH  40  41
ATOM     41  C   UNL     1      -3.336   2.594   3.257  1.00  0.00     0.116 C 
BRANCH  41  42
ATOM     42  N   UNL     1      -3.457   3.382   4.478  1.00  0.00    -0.352 N 
ATOM     43  C   UNL     1      -4.520   4.162   4.856  1.00  0.00     0.251 C 
ATOM     44  H   UNL     1      -2.693   3.350   5.098  1.00  0.00     0.163 HD
ATOM     45  O   UNL     1      -4.499   4.831   5.883  1.00  0.00    -0.269 OA
BRANCH  43  46
ATOM     46  C   UNL     1      -5.671   4.216   3.941  1.00  0.00     0.039 A 
ATOM     47  C   UNL     1      -6.055   5.452   3.425  1.00  0.00     0.014 A 
ATOM     48  C   UNL     1      -6.239   3.026   3.476  1.00  0.00     0.014 A 
ATOM     49  C   UNL     1      -6.982   5.489   2.388  1.00  0.00     0.010 A 
ATOM     50  C   UNL     1      -7.069   3.062   2.368  1.00  0.00     0.010 A 
ATOM     51  C   UNL     1      -7.466   4.294   1.829  1.00  0.00    -0.014 A 
BRANCH  51  52
ATOM     52  C   UNL     1      -8.429   4.315   0.705  1.00  0.00     0.031 A 
ATOM     53  C   UNL     1      -9.798   3.730   0.900  1.00  0.00     0.074 A 
ATOM     54  C   UNL     1      -8.057   4.811  -0.490  1.00  0.00     0.049 A 
ATOM     55  N   UNL     1     -10.779   3.615   0.043  1.00  0.00    -0.248 NA
ATOM     56  C   UNL     1     -10.093   3.161   2.226  1.00  0.00     0.031 C 
ATOM     57  C   UNL     1      -6.732   5.344  -0.811  1.00  0.00     0.029 A 
ATOM     58  N   UNL     1      -8.761   4.943  -1.659  1.00  0.00    -0.354 N 
ATOM     59  C   UNL     1     -11.790   2.947   0.720  1.00  0.00     0.074 A 
ATOM     60  C   UNL     1     -11.282   2.616   2.031  1.00  0.00     0.031 C 
ATOM     61  C   UNL     1      -6.729   5.776  -2.083  1.00  0.00     0.029 A 
ATOM     62  C   UNL     1      -8.037   5.516  -2.675  1.00  0.00     0.049 A 
ATOM     63  H   UNL     1      -9.697   4.654  -1.760  1.00  0.00     0.167 HD
ATOM     64  C   UNL     1     -13.044   2.666   0.297  1.00  0.00     0.037 A 
ATOM     65  C   UNL     1      -8.395   5.798  -3.942  1.00  0.00     0.037 A 
ATOM     66  C   UNL     1     -13.550   3.032  -0.997  1.00  0.00     0.049 A 
ATOM     67  C   UNL     1      -9.799   5.490  -4.387  1.00  0.00     0.074 A 
ATOM     68  C   UNL     1     -14.826   2.868  -1.503  1.00  0.00     0.029 A 
ATOM     69  N   UNL     1     -12.796   3.634  -1.995  1.00  0.00    -0.354 N 
ATOM     70  N   UNL     1     -10.778   4.939  -3.711  1.00  0.00    -0.248 NA
ATOM     71  C   UNL     1     -10.151   5.852  -5.766  1.00  0.00     0.031 C 
ATOM     72  C   UNL     1     -14.829   3.317  -2.827  1.00  0.00     0.029 A 
ATOM     73  C   UNL     1     -13.572   3.819  -3.127  1.00  0.00     0.049 A 
ATOM     74  H   UNL     1     -11.849   3.891  -1.911  1.00  0.00     0.167 HD
ATOM     75  C   UNL     1     -11.868   4.909  -4.571  1.00  0.00     0.074 A 
ATOM     76  C   UNL     1     -11.432   5.515  -5.813  1.00  0.00     0.031 C 
ATOM     77  C   UNL     1     -13.116   4.425  -4.353  1.00  0.00     0.037 A 
BRANCH  64  78
ATOM     78  C   UNL     1     -13.944   1.927   1.245  1.00  0.00     0.064 A 
ATOM     79  C   UNL     1     -14.405   2.508   2.438  1.00  0.00     0.173 A 
ATOM     80  C   UNL     1     -14.357   0.618   0.954  1.00  0.00     0.173 A 
ATOM     81  F   UNL     1     -14.027   3.752   2.773  1.00  0.00    -0.203 F 
ATOM     82  C   UNL     1     -15.210   1.794   3.321  1.00  0.00     0.198 A 
ATOM     83  C   UNL     1     -15.193  -0.080   1.822  1.00  0.00     0.198 A 
ATOM     84  F   UNL     1     -13.949   0.014  -0.172  1.00  0.00    -0.203 F 
ATOM     85  F   UNL     1     -15.581   2.347   4.484  1.00  0.00    -0.200 F 
ATOM     86  C   UNL     1     -15.609   0.503   3.009  1.00  0.00     0.200 A 
ATOM     87  F   UNL     1     -15.588  -1.323   1.513  1.00  0.00    -0.200 F 
ATOM     88  F   UNL     1     -16.387  -0.182   3.858  1.00  0.00    -0.200 F 
ENDBRANCH  64  78
BRANCH  65  89
ATOM     89  C   UNL     1      -7.414   6.430  -4.863  1.00  0.00     0.064 A 
ATOM     90  C   UNL     1      -7.571   7.757  -5.288  1.00  0.00     0.173 A 
ATOM     91  C   UNL     1      -6.291   5.728  -5.324  1.00  0.00     0.173 A 
ATOM     92  F   UNL     1      -8.638   8.466  -4.888  1.00  0.00    -0.203 F 
ATOM     93  C   UNL     1      -6.652   8.352  -6.150  1.00  0.00     0.198 A 
ATOM     94  C   UNL     1      -5.357   6.332  -6.163  1.00  0.00     0.198 A 
ATOM     95  F   UNL     1      -6.089   4.459  -4.941  1.00  0.00    -0.203 F 
ATOM     96  F   UNL     1      -6.848   9.608  -6.572  1.00  0.00    -0.200 F 
ATOM     97  C   UNL     1      -5.542   7.641  -6.582  1.00  0.00     0.200 A 
ATOM     98  F   UNL     1      -4.276   5.648  -6.562  1.00  0.00    -0.200 F 
ATOM     99  F   UNL     1      -4.653   8.217  -7.402  1.00  0.00    -0.200 F 
ENDBRANCH  65  89
BRANCH  77 100
ATOM    100  C   UNL     1     -14.108   4.554  -5.472  1.00  0.00     0.064 A 
ATOM    101  C   UNL     1     -14.008   3.784  -6.640  1.00  0.00     0.173 A 
ATOM    102  C   UNL     1     -15.202   5.426  -5.351  1.00  0.00     0.173 A 
ATOM    103  F   UNL     1     -12.974   2.945  -6.809  1.00  0.00    -0.203 F 
ATOM    104  C   UNL     1     -14.951   3.901  -7.657  1.00  0.00     0.198 A 
ATOM    105  C   UNL     1     -16.161   5.515  -6.355  1.00  0.00     0.198 A 
ATOM    106  F   UNL     1     -15.349   6.178  -4.250  1.00  0.00    -0.203 F 
ATOM    107  F   UNL     1     -14.808   3.193  -8.785  1.00  0.00    -0.200 F 
ATOM    108  C   UNL     1     -16.031   4.759  -7.510  1.00  0.00     0.200 A 
ATOM    109  F   UNL     1     -17.213   6.331  -6.204  1.00  0.00    -0.200 F 
ATOM    110  F   UNL     1     -16.943   4.863  -8.486  1.00  0.00    -0.200 F 
ENDBRANCH  77 100
ENDBRANCH  51  52
ENDBRANCH  43  46
ENDBRANCH  41  42
ENDBRANCH  40  41
ENDBRANCH   1  40
TORSDOF 14
