REMARK SMILES O=C(NCCCCCCNC(=O)[C@@H]1CS[C@H](Cc2cccc(F)c2)C(=O)N1)c1ccc(-c2c3nc(c(-c4c(F)c(F)c(F)c(F)c4F)c4ccc([nH]4)c(-c4c(F)c(F)c(F)c(F)c4F)c4nc(c(-c5c(F)c(F)c(F)c(F)c5F)c5ccc2[nH]5)C=C4)C=C3)cc1
REMARK SMILES IDX 6 1 5 2 4 3 3 4 1 5 2 6 28 8 29 9 90 10 30 11 89 12 31 13
REMARK SMILES IDX 32 14 33 15 83 16 34 17 88 18 82 19 84 20 35 21 87 22 81 23
REMARK SMILES IDX 80 24 36 26 68 27 48 28 67 29 49 30 52 31 66 32 85 33 50 34
REMARK SMILES IDX 51 35 65 37 86 38 53 39 37 40 38 41 46 42 39 43 40 44 44 45
REMARK SMILES IDX 47 46 41 47 42 48 45 49 43 50 69 51 70 52 78 53 71 54 72 55
REMARK SMILES IDX 76 56 79 57 73 58 74 59 77 60 75 61 54 62 55 63 63 64 56 65
REMARK SMILES IDX 57 66 61 67 64 68 58 69 59 70 62 71 60 72 7 73 8 74 9 75
REMARK SMILES IDX 10 76 11 77 12 79 13 80 14 81 27 82 15 83 25 84 16 86 26 87
REMARK SMILES IDX 17 88 18 89 19 90 24 91 20 92 22 93 21 94 23 95
REMARK H PARENT 3 7 84 25 52 36 10 78 27 85
REMARK Flexibility Score: inf
ROOT
ATOM      1  C   UNL     1       4.106   0.539  -3.806  1.00  0.00     0.002 C 
ENDROOT
BRANCH   1   2
ATOM      2  C   UNL     1       4.484  -0.392  -2.656  1.00  0.00     0.021 C 
BRANCH   2   3
ATOM      3  C   UNL     1       4.313   0.213  -1.272  1.00  0.00     0.116 C 
BRANCH   3   4
ATOM      4  N   UNL     1       2.920   0.435  -0.926  1.00  0.00    -0.352 N 
ATOM      5  O   UNL     1       1.043   0.199   0.312  1.00  0.00    -0.269 OA
ATOM      6  C   UNL     1       2.260   0.078   0.225  1.00  0.00     0.251 C 
ATOM      7  H   UNL     1       2.379   0.901  -1.604  1.00  0.00     0.163 HD
BRANCH   6   8
ATOM      8  C   UNL     1       3.032  -0.482   1.355  1.00  0.00     0.039 A 
ATOM      9  C   UNL     1       4.227   0.118   1.760  1.00  0.00     0.014 A 
ATOM     10  C   UNL     1       2.564  -1.627   2.005  1.00  0.00     0.014 A 
ATOM     11  C   UNL     1       5.020  -0.504   2.715  1.00  0.00     0.010 A 
ATOM     12  C   UNL     1       3.321  -2.201   3.032  1.00  0.00     0.010 A 
ATOM     13  C   UNL     1       4.567  -1.658   3.378  1.00  0.00    -0.014 A 
BRANCH  13  14
ATOM     14  C   UNL     1       5.389  -2.216   4.481  1.00  0.00     0.031 A 
ATOM     15  C   UNL     1       6.034  -3.568   4.375  1.00  0.00     0.074 A 
ATOM     16  C   UNL     1       5.600  -1.445   5.566  1.00  0.00     0.049 A 
ATOM     17  N   UNL     1       6.836  -4.162   5.223  1.00  0.00    -0.248 NA
ATOM     18  C   UNL     1       5.746  -4.360   3.170  1.00  0.00     0.031 C 
ATOM     19  C   UNL     1       5.015  -0.119   5.778  1.00  0.00     0.029 A 
ATOM     20  N   UNL     1       6.388  -1.639   6.671  1.00  0.00    -0.354 N 
ATOM     21  C   UNL     1       7.136  -5.397   4.665  1.00  0.00     0.074 A 
ATOM     22  C   UNL     1       6.416  -5.481   3.413  1.00  0.00     0.031 C 
ATOM     23  C   UNL     1       5.520   0.412   6.899  1.00  0.00     0.029 A 
ATOM     24  C   UNL     1       6.412  -0.560   7.521  1.00  0.00     0.049 A 
ATOM     25  H   UNL     1       6.887  -2.471   6.840  1.00  0.00     0.167 HD
ATOM     26  C   UNL     1       7.948  -6.365   5.154  1.00  0.00     0.037 A 
ATOM     27  C   UNL     1       7.077  -0.372   8.676  1.00  0.00     0.037 A 
ATOM     28  C   UNL     1       8.678  -6.266   6.392  1.00  0.00     0.049 A 
ATOM     29  C   UNL     1       7.957  -1.471   9.195  1.00  0.00     0.074 A 
ATOM     30  C   UNL     1       9.539  -7.191   6.960  1.00  0.00     0.029 A 
ATOM     31  N   UNL     1       8.637  -5.179   7.252  1.00  0.00    -0.354 N 
ATOM     32  N   UNL     1       8.239  -2.628   8.650  1.00  0.00    -0.248 NA
ATOM     33  C   UNL     1       8.600  -1.243  10.496  1.00  0.00     0.031 C 
ATOM     34  C   UNL     1       9.990  -6.678   8.180  1.00  0.00     0.029 A 
ATOM     35  C   UNL     1       9.446  -5.417   8.352  1.00  0.00     0.049 A 
ATOM     36  H   UNL     1       8.112  -4.360   7.103  1.00  0.00     0.167 HD
ATOM     37  C   UNL     1       9.097  -3.264   9.534  1.00  0.00     0.074 A 
ATOM     38  C   UNL     1       9.312  -2.353  10.639  1.00  0.00     0.031 C 
ATOM     39  C   UNL     1       9.648  -4.498   9.442  1.00  0.00     0.037 A 
BRANCH  26  40
ATOM     40  C   UNL     1       8.108  -7.626   4.358  1.00  0.00     0.064 A 
ATOM     41  C   UNL     1       7.556  -8.832   4.818  1.00  0.00     0.173 A 
ATOM     42  C   UNL     1       8.902  -7.665   3.203  1.00  0.00     0.173 A 
ATOM     43  F   UNL     1       6.796  -8.849   5.923  1.00  0.00    -0.203 F 
ATOM     44  C   UNL     1       7.813 -10.034   4.163  1.00  0.00     0.198 A 
ATOM     45  C   UNL     1       9.139  -8.866   2.538  1.00  0.00     0.198 A 
ATOM     46  F   UNL     1       9.444  -6.538   2.718  1.00  0.00    -0.203 F 
ATOM     47  F   UNL     1       7.308 -11.179   4.643  1.00  0.00    -0.200 F 
ATOM     48  C   UNL     1       8.605 -10.050   3.025  1.00  0.00     0.200 A 
ATOM     49  F   UNL     1       9.891  -8.879   1.429  1.00  0.00    -0.200 F 
ATOM     50  F   UNL     1       8.856 -11.208   2.398  1.00  0.00    -0.200 F 
ENDBRANCH  26  40
BRANCH  27  51
ATOM     51  C   UNL     1       6.938   0.915   9.404  1.00  0.00     0.064 A 
ATOM     52  C   UNL     1       5.726   1.287  10.003  1.00  0.00     0.173 A 
ATOM     53  C   UNL     1       8.013   1.810   9.491  1.00  0.00     0.173 A 
ATOM     54  F   UNL     1       4.667   0.467   9.943  1.00  0.00    -0.203 F 
ATOM     55  C   UNL     1       5.588   2.517  10.643  1.00  0.00     0.198 A 
ATOM     56  C   UNL     1       7.882   3.027  10.157  1.00  0.00     0.198 A 
ATOM     57  F   UNL     1       9.197   1.490   8.948  1.00  0.00    -0.203 F 
ATOM     58  F   UNL     1       4.407   2.864  11.173  1.00  0.00    -0.200 F 
ATOM     59  C   UNL     1       6.667   3.383  10.724  1.00  0.00     0.200 A 
ATOM     60  F   UNL     1       8.934   3.851  10.254  1.00  0.00    -0.200 F 
ATOM     61  F   UNL     1       6.538   4.559  11.352  1.00  0.00    -0.200 F 
ENDBRANCH  27  51
BRANCH  39  62
ATOM     62  C   UNL     1      10.545  -4.932  10.562  1.00  0.00     0.064 A 
ATOM     63  C   UNL     1      11.930  -5.032  10.367  1.00  0.00     0.173 A 
ATOM     64  C   UNL     1      10.026  -5.295  11.813  1.00  0.00     0.173 A 
ATOM     65  F   UNL     1      12.473  -4.703   9.185  1.00  0.00    -0.203 F 
ATOM     66  C   UNL     1      12.764  -5.488  11.384  1.00  0.00     0.198 A 
ATOM     67  C   UNL     1      10.865  -5.725  12.836  1.00  0.00     0.198 A 
ATOM     68  F   UNL     1       8.709  -5.200  12.050  1.00  0.00    -0.203 F 
ATOM     69  F   UNL     1      14.082  -5.599  11.170  1.00  0.00    -0.200 F 
ATOM     70  C   UNL     1      12.231  -5.828  12.619  1.00  0.00     0.200 A 
ATOM     71  F   UNL     1      10.353  -6.029  14.037  1.00  0.00    -0.200 F 
ATOM     72  F   UNL     1      13.037  -6.251  13.603  1.00  0.00    -0.200 F 
ENDBRANCH  39  62
ENDBRANCH  13  14
ENDBRANCH   6   8
ENDBRANCH   3   4
ENDBRANCH   2   3
ENDBRANCH   1   2
BRANCH   1  73
ATOM     73  C   UNL     1       4.837   1.886  -3.822  1.00  0.00     0.002 C 
BRANCH  73  74
ATOM     74  C   UNL     1       6.369   1.809  -3.731  1.00  0.00     0.021 C 
BRANCH  74  75
ATOM     75  C   UNL     1       7.015   0.887  -4.762  1.00  0.00     0.116 C 
BRANCH  75  76
ATOM     76  N   UNL     1       6.674   1.313  -6.101  1.00  0.00    -0.354 N 
ATOM     77  C   UNL     1       7.423   1.920  -7.060  1.00  0.00     0.243 C 
ATOM     78  H   UNL     1       5.743   1.133  -6.362  1.00  0.00     0.163 HD
ATOM     79  O   UNL     1       6.817   2.316  -8.057  1.00  0.00    -0.273 OA
BRANCH  77  80
ATOM     80  C   UNL     1       8.961   1.887  -6.965  1.00  0.00     0.181 C 
ATOM     81  C   UNL     1       9.605   3.233  -7.262  1.00  0.00     0.105 C 
ATOM     82  N   UNL     1       9.386   0.794  -7.831  1.00  0.00    -0.343 N 
ATOM     83  S   UNL     1       9.466   3.712  -8.996  1.00  0.00    -0.146 SA
ATOM     84  C   UNL     1       9.634   0.892  -9.171  1.00  0.00     0.234 C 
ATOM     85  H   UNL     1       9.505  -0.090  -7.415  1.00  0.00     0.164 HD
ATOM     86  C   UNL     1      10.171   2.200  -9.755  1.00  0.00     0.140 C 
ATOM     87  O   UNL     1       9.577  -0.151  -9.827  1.00  0.00    -0.274 OA
BRANCH  86  88
ATOM     88  C   UNL     1       9.976   2.220 -11.285  1.00  0.00     0.060 C 
BRANCH  88  89
ATOM     89  C   UNL     1      10.654   3.401 -11.944  1.00  0.00    -0.043 A 
ATOM     90  C   UNL     1      12.054   3.498 -11.955  1.00  0.00     0.004 A 
ATOM     91  C   UNL     1       9.892   4.457 -12.461  1.00  0.00     0.043 A 
ATOM     92  C   UNL     1      12.680   4.650 -12.434  1.00  0.00     0.003 A 
ATOM     93  C   UNL     1      10.527   5.597 -12.939  1.00  0.00     0.123 A 
ATOM     94  C   UNL     1      11.913   5.706 -12.921  1.00  0.00     0.039 A 
ATOM     95  F   UNL     1       9.792   6.617 -13.402  1.00  0.00    -0.207 F 
ENDBRANCH  88  89
ENDBRANCH  86  88
ENDBRANCH  77  80
ENDBRANCH  75  76
ENDBRANCH  74  75
ENDBRANCH  73  74
ENDBRANCH   1  73
TORSDOF 15
