REMARK SMILES COc1cccc(N2C(=O)/C(=C/c3ccccc3C(=O)NCCCCCCNC(=O)c3ccc(-c4c5nc(c(-c6c(F)c(F)c(F)c(F)c6F)c6ccc([nH]6)c(-c6c(F)c(F)c(F)c(F)c6F)c6nc(c(-c7c(F)c(F)c(F)c(F)c7F)c7ccc4[nH]7)C=C6)C=C5)cc3)SC2=S)c1
REMARK SMILES IDX 24 1 23 2 22 3 21 4 19 5 20 6 18 8 13 9 14 10 15 11 17 12
REMARK SMILES IDX 16 13 12 14 8 15 9 16 95 17 10 18 11 19 94 20 96 21 7 22
REMARK SMILES IDX 3 23 4 24 97 25 5 26 6 27 2 28 1 29 25 30 26 31 27 32 28 33
REMARK SMILES IDX 29 34 30 36 31 37 32 38 93 39 33 40 92 41 34 42 35 43 36 44
REMARK SMILES IDX 86 45 37 46 91 47 85 48 87 49 38 50 90 51 84 52 83 53 39 55
REMARK SMILES IDX 71 56 51 57 70 58 52 59 55 60 69 61 88 62 53 63 54 64 68 66
REMARK SMILES IDX 89 67 56 68 40 69 41 70 49 71 42 72 43 73 47 74 50 75 44 76
REMARK SMILES IDX 45 77 48 78 46 79 72 80 73 81 81 82 74 83 75 84 79 85 82 86
REMARK SMILES IDX 76 87 77 88 80 89 78 90 57 91 58 92 66 93 59 94 60 95 64 96
REMARK SMILES IDX 67 97 61 98 62 99 65 100 63 101
REMARK H PARENT 21 7 28 35 87 54 55 65
REMARK Flexibility Score: inf
ROOT
ATOM      1  C   UNL     1       2.886  -4.513  -7.245  1.00  0.00     0.002 C 
ENDROOT
BRANCH   1   2
ATOM      2  C   UNL     1       3.993  -3.725  -7.960  1.00  0.00     0.021 C 
BRANCH   2   3
ATOM      3  C   UNL     1       5.181  -3.289  -7.107  1.00  0.00     0.116 C 
BRANCH   3   4
ATOM      4  N   UNL     1       5.872  -4.378  -6.452  1.00  0.00    -0.352 N 
ATOM      5  C   UNL     1       7.157  -4.416  -5.967  1.00  0.00     0.251 C 
ATOM      6  O   UNL     1       7.584  -5.463  -5.487  1.00  0.00    -0.269 OA
ATOM      7  H   UNL     1       5.350  -5.205  -6.337  1.00  0.00     0.163 HD
BRANCH   5   8
ATOM      8  C   UNL     1       8.067  -3.248  -6.089  1.00  0.00     0.047 A 
ATOM      9  C   UNL     1       7.815  -1.955  -5.583  1.00  0.00    -0.012 A 
ATOM     10  C   UNL     1       8.744  -0.937  -5.871  1.00  0.00     0.009 A 
ATOM     11  C   UNL     1       9.918  -1.206  -6.580  1.00  0.00     0.001 A 
ATOM     12  C   UNL     1       9.273  -3.516  -6.762  1.00  0.00     0.014 A 
ATOM     13  C   UNL     1      10.193  -2.499  -7.008  1.00  0.00     0.001 A 
BRANCH   9  14
ATOM     14  C   UNL     1       6.611  -1.540  -4.840  1.00  0.00     0.030 C 
ATOM     15  N   UNL     1       4.233  -2.653  -2.387  1.00  0.00    -0.261 N 
ATOM     16  C   UNL     1       4.718  -1.693  -3.270  1.00  0.00     0.270 C 
ATOM     17  C   UNL     1       5.134  -3.629  -1.983  1.00  0.00     0.152 C 
ATOM     18  O   UNL     1       4.128  -0.715  -3.716  1.00  0.00    -0.268 OA
ATOM     19  C   UNL     1       6.080  -2.085  -3.735  1.00  0.00     0.081 C 
ATOM     20  S   UNL     1       6.683  -3.371  -2.784  1.00  0.00    -0.054 SA
ATOM     21  S   UNL     1       4.941  -4.848  -0.855  1.00  0.00    -0.051 S 
BRANCH  15  22
ATOM     22  C   UNL     1       2.853  -2.642  -2.026  1.00  0.00     0.054 A 
ATOM     23  C   UNL     1       0.901  -1.491  -1.152  1.00  0.00     0.120 A 
ATOM     24  C   UNL     1       0.115  -2.604  -1.456  1.00  0.00     0.046 A 
ATOM     25  C   UNL     1       2.261  -1.494  -1.478  1.00  0.00     0.073 A 
ATOM     26  C   UNL     1       0.686  -3.737  -2.030  1.00  0.00     0.006 A 
ATOM     27  C   UNL     1       2.054  -3.765  -2.291  1.00  0.00     0.027 A 
BRANCH  23  28
ATOM     28  O   UNL     1       0.223  -0.467  -0.549  1.00  0.00    -0.497 OA
ATOM     29  C   UNL     1       1.010   0.530   0.091  1.00  0.00     0.278 C 
ENDBRANCH  23  28
ENDBRANCH  15  22
ENDBRANCH   9  14
ENDBRANCH   5   8
ENDBRANCH   3   4
ENDBRANCH   2   3
ENDBRANCH   1   2
BRANCH   1  30
ATOM     30  C   UNL     1       2.437  -3.996  -5.875  1.00  0.00     0.002 C 
BRANCH  30  31
ATOM     31  C   UNL     1       1.972  -2.541  -5.819  1.00  0.00     0.021 C 
BRANCH  31  32
ATOM     32  C   UNL     1       0.717  -2.215  -6.615  1.00  0.00     0.116 C 
BRANCH  32  33
ATOM     33  N   UNL     1      -0.471  -2.881  -6.103  1.00  0.00    -0.352 N 
ATOM     34  C   UNL     1      -1.631  -2.385  -5.558  1.00  0.00     0.251 C 
ATOM     35  H   UNL     1      -0.437  -3.863  -6.155  1.00  0.00     0.163 HD
ATOM     36  O   UNL     1      -2.428  -3.171  -5.049  1.00  0.00    -0.269 OA
BRANCH  34  37
ATOM     37  C   UNL     1      -1.946  -0.933  -5.554  1.00  0.00     0.039 A 
ATOM     38  C   UNL     1      -2.689  -0.411  -4.487  1.00  0.00     0.014 A 
ATOM     39  C   UNL     1      -1.586  -0.087  -6.604  1.00  0.00     0.014 A 
ATOM     40  C   UNL     1      -3.009   0.952  -4.445  1.00  0.00     0.010 A 
ATOM     41  C   UNL     1      -1.815   1.286  -6.513  1.00  0.00     0.010 A 
ATOM     42  C   UNL     1      -2.541   1.823  -5.440  1.00  0.00    -0.014 A 
BRANCH  42  43
ATOM     43  C   UNL     1      -2.818   3.286  -5.406  1.00  0.00     0.031 A 
ATOM     44  C   UNL     1      -3.566   3.938  -6.541  1.00  0.00     0.074 A 
ATOM     45  C   UNL     1      -2.325   4.046  -4.409  1.00  0.00     0.049 A 
ATOM     46  N   UNL     1      -3.763   5.209  -6.787  1.00  0.00    -0.248 NA
ATOM     47  C   UNL     1      -4.136   3.038  -7.556  1.00  0.00     0.031 C 
ATOM     48  C   UNL     1      -1.549   3.554  -3.270  1.00  0.00     0.029 A 
ATOM     49  N   UNL     1      -2.388   5.404  -4.205  1.00  0.00    -0.354 N 
ATOM     50  C   UNL     1      -4.436   5.261  -8.001  1.00  0.00     0.074 A 
ATOM     51  C   UNL     1      -4.580   3.897  -8.462  1.00  0.00     0.031 C 
ATOM     52  C   UNL     1      -1.226   4.589  -2.478  1.00  0.00     0.029 A 
ATOM     53  C   UNL     1      -1.731   5.822  -3.074  1.00  0.00     0.049 A 
ATOM     54  H   UNL     1      -2.860   6.019  -4.812  1.00  0.00     0.167 HD
ATOM     55  C   UNL     1      -4.910   6.343  -8.664  1.00  0.00     0.037 A 
ATOM     56  C   UNL     1      -1.544   7.061  -2.579  1.00  0.00     0.037 A 
ATOM     57  C   UNL     1      -4.824   7.694  -8.175  1.00  0.00     0.049 A 
ATOM     58  C   UNL     1      -2.114   8.245  -3.312  1.00  0.00     0.074 A 
ATOM     59  C   UNL     1      -5.336   8.851  -8.739  1.00  0.00     0.029 A 
ATOM     60  N   UNL     1      -4.197   8.068  -6.996  1.00  0.00    -0.354 N 
ATOM     61  N   UNL     1      -2.781   8.276  -4.440  1.00  0.00    -0.248 NA
ATOM     62  C   UNL     1      -1.908   9.566  -2.701  1.00  0.00     0.031 C 
ATOM     63  C   UNL     1      -4.994   9.928  -7.915  1.00  0.00     0.029 A 
ATOM     64  C   UNL     1      -4.303   9.438  -6.819  1.00  0.00     0.049 A 
ATOM     65  H   UNL     1      -3.744   7.451  -6.377  1.00  0.00     0.167 HD
ATOM     66  C   UNL     1      -3.100   9.609  -4.658  1.00  0.00     0.074 A 
ATOM     67  C   UNL     1      -2.561  10.357  -3.542  1.00  0.00     0.031 C 
ATOM     68  C   UNL     1      -3.778  10.164  -5.692  1.00  0.00     0.037 A 
BRANCH  55  69
ATOM     69  C   UNL     1      -5.573   6.113  -9.991  1.00  0.00     0.064 A 
ATOM     70  C   UNL     1      -6.829   5.495 -10.089  1.00  0.00     0.173 A 
ATOM     71  C   UNL     1      -4.962   6.548 -11.177  1.00  0.00     0.173 A 
ATOM     72  F   UNL     1      -7.451   5.051  -8.987  1.00  0.00    -0.203 F 
ATOM     73  C   UNL     1      -7.433   5.292 -11.328  1.00  0.00     0.198 A 
ATOM     74  C   UNL     1      -5.583   6.371 -12.411  1.00  0.00     0.198 A 
ATOM     75  F   UNL     1      -3.765   7.152 -11.139  1.00  0.00    -0.203 F 
ATOM     76  F   UNL     1      -8.609   4.654 -11.401  1.00  0.00    -0.200 F 
ATOM     77  C   UNL     1      -6.813   5.736 -12.486  1.00  0.00     0.200 A 
ATOM     78  F   UNL     1      -4.989   6.813 -13.528  1.00  0.00    -0.200 F 
ATOM     79  F   UNL     1      -7.399   5.546 -13.676  1.00  0.00    -0.200 F 
ENDBRANCH  55  69
BRANCH  56  80
ATOM     80  C   UNL     1      -0.803   7.245  -1.304  1.00  0.00     0.064 A 
ATOM     81  C   UNL     1      -1.474   7.628  -0.135  1.00  0.00     0.173 A 
ATOM     82  C   UNL     1       0.582   7.042  -1.226  1.00  0.00     0.173 A 
ATOM     83  F   UNL     1      -2.796   7.855  -0.167  1.00  0.00    -0.203 F 
ATOM     84  C   UNL     1      -0.787   7.817   1.061  1.00  0.00     0.198 A 
ATOM     85  C   UNL     1       1.266   7.207  -0.022  1.00  0.00     0.198 A 
ATOM     86  F   UNL     1       1.271   6.672  -2.316  1.00  0.00    -0.203 F 
ATOM     87  F   UNL     1      -1.447   8.223   2.154  1.00  0.00    -0.200 F 
ATOM     88  C   UNL     1       0.582   7.601   1.118  1.00  0.00     0.200 A 
ATOM     89  F   UNL     1       2.586   6.983   0.032  1.00  0.00    -0.200 F 
ATOM     90  F   UNL     1       1.243   7.777   2.270  1.00  0.00    -0.200 F 
ENDBRANCH  56  80
BRANCH  68  91
ATOM     91  C   UNL     1      -4.018  11.643  -5.645  1.00  0.00     0.064 A 
ATOM     92  C   UNL     1      -2.990  12.563  -5.897  1.00  0.00     0.173 A 
ATOM     93  C   UNL     1      -5.304  12.143  -5.391  1.00  0.00     0.173 A 
ATOM     94  F   UNL     1      -1.741  12.133  -6.129  1.00  0.00    -0.203 F 
ATOM     95  C   UNL     1      -3.238  13.933  -5.878  1.00  0.00     0.198 A 
ATOM     96  C   UNL     1      -5.553  13.513  -5.398  1.00  0.00     0.198 A 
ATOM     97  F   UNL     1      -6.321  11.303  -5.150  1.00  0.00    -0.203 F 
ATOM     98  F   UNL     1      -2.234  14.796  -6.085  1.00  0.00    -0.200 F 
ATOM     99  C   UNL     1      -4.520  14.406  -5.636  1.00  0.00     0.200 A 
ATOM    100  F   UNL     1      -6.794  13.968  -5.175  1.00  0.00    -0.200 F 
ATOM    101  F   UNL     1      -4.758  15.725  -5.627  1.00  0.00    -0.200 F 
ENDBRANCH  68  91
ENDBRANCH  42  43
ENDBRANCH  34  37
ENDBRANCH  32  33
ENDBRANCH  31  32
ENDBRANCH  30  31
ENDBRANCH   1  30
TORSDOF 16
