REMARK SMILES COc1ccc(OC)c(/C=C2\S/C(=[NH+]\c3ccc(C(=O)NCCCCCCNC(=O)c4ccc(-c5c6nc(c(-c7c(F)c(F)c(F)c(F)c7F)c7ccc([nH]7)c(-c7c(F)c(F)c(F)c(F)c7F)c7nc(c(-c8c(F)c(F)c(F)c(F)c8F)c8ccc5[nH]8)C=C7)C=C6)cc4)cc3)N(C)C2=O)c1
REMARK SMILES IDX 24 1 23 2 22 3 21 4 19 5 20 6 18 8 15 9 16 10 95 11 17 12
REMARK SMILES IDX 94 13 14 14 10 15 11 16 12 17 98 18 13 19 96 20 99 21 97 22
REMARK SMILES IDX 9 24 3 25 4 26 100 27 5 28 6 29 2 30 1 31 7 32 8 33 25 34
REMARK SMILES IDX 26 35 27 36 28 37 29 38 30 40 31 41 32 42 93 43 33 44 92 45
REMARK SMILES IDX 34 46 35 47 36 48 86 49 37 50 91 51 85 52 87 53 38 54 90 55
REMARK SMILES IDX 84 56 83 57 39 59 71 60 51 61 70 62 52 63 55 64 69 65 88 66
REMARK SMILES IDX 53 67 54 68 68 70 89 71 56 72 40 73 41 74 49 75 42 76 43 77
REMARK SMILES IDX 47 78 50 79 44 80 45 81 48 82 46 83 72 84 73 85 81 86 74 87
REMARK SMILES IDX 75 88 79 89 82 90 76 91 77 92 80 93 78 94 57 95 58 96 66 97
REMARK SMILES IDX 59 98 60 99 64 100 67 101 61 102 62 103 65 104 63 105
REMARK H PARENT 21 7 14 23 28 39 87 58 55 69
REMARK Flexibility Score: inf
ROOT
ATOM      1  C   UNL     1      -3.253  -8.292   8.827  1.00  0.00     0.002 C 
ENDROOT
BRANCH   1   2
ATOM      2  C   UNL     1      -1.792  -8.171   8.364  1.00  0.00     0.021 C 
BRANCH   2   3
ATOM      3  C   UNL     1      -1.446  -6.823   7.726  1.00  0.00     0.116 C 
BRANCH   3   4
ATOM      4  N   UNL     1      -1.286  -5.805   8.746  1.00  0.00    -0.352 N 
ATOM      5  C   UNL     1      -0.195  -5.119   9.215  1.00  0.00     0.251 C 
ATOM      6  O   UNL     1      -0.400  -4.245  10.058  1.00  0.00    -0.269 OA
ATOM      7  H   UNL     1      -2.128  -5.557   9.191  1.00  0.00     0.163 HD
BRANCH   5   8
ATOM      8  C   UNL     1       1.199  -5.341   8.736  1.00  0.00     0.040 A 
ATOM      9  C   UNL     1       3.888  -5.556   7.865  1.00  0.00     0.125 A 
ATOM     10  C   UNL     1       3.375  -4.332   8.308  1.00  0.00     0.052 A 
ATOM     11  C   UNL     1       3.066  -6.685   7.930  1.00  0.00     0.052 A 
ATOM     12  C   UNL     1       2.047  -4.224   8.735  1.00  0.00     0.018 A 
ATOM     13  C   UNL     1       1.731  -6.581   8.366  1.00  0.00     0.018 A 
BRANCH   9  14
ATOM     14  N   UNL     1       5.183  -5.578   7.294  1.00  0.00    -0.234 N 
ATOM     15  C   UNL     1       4.011  -3.438   3.177  1.00  0.00     0.036 C 
ATOM     16  C   UNL     1       4.615  -4.407   3.883  1.00  0.00     0.110 C 
ATOM     17  S   UNL     1       3.939  -5.603   4.878  1.00  0.00     0.007 SA
ATOM     18  C   UNL     1       6.102  -4.457   4.099  1.00  0.00     0.348 C 
ATOM     19  C   UNL     1       5.250  -5.457   6.006  1.00  0.00     0.324 C 
ATOM     20  N   UNL     1       6.366  -5.102   5.299  1.00  0.00    -0.189 N 
ATOM     21  O   UNL     1       6.916  -3.920   3.360  1.00  0.00    -0.240 OA
ATOM     22  C   UNL     1       7.699  -5.190   5.846  1.00  0.00     0.301 C 
ATOM     23  H   UNL     1       5.991  -5.681   7.847  1.00  0.00     0.313 HD
BRANCH  15  24
ATOM     24  C   UNL     1       2.591  -2.998   2.978  1.00  0.00     0.022 A 
ATOM     25  C   UNL     1       1.211  -1.265   1.900  1.00  0.00     0.119 A 
ATOM     26  C   UNL     1       0.080  -1.708   2.565  1.00  0.00     0.050 A 
ATOM     27  C   UNL     1       2.445  -1.898   2.098  1.00  0.00     0.058 A 
ATOM     28  C   UNL     1       0.177  -2.803   3.411  1.00  0.00     0.051 A 
ATOM     29  C   UNL     1       1.412  -3.445   3.616  1.00  0.00     0.126 A 
BRANCH  25  30
ATOM     30  O   UNL     1       1.085  -0.116   1.170  1.00  0.00    -0.497 OA
ATOM     31  C   UNL     1       1.441  -0.297  -0.197  1.00  0.00     0.278 C 
ENDBRANCH  25  30
BRANCH  29  32
ATOM     32  O   UNL     1       1.402  -4.402   4.593  1.00  0.00    -0.496 OA
ATOM     33  C   UNL     1       0.846  -5.634   4.125  1.00  0.00     0.278 C 
ENDBRANCH  29  32
ENDBRANCH  15  24
ENDBRANCH   9  14
ENDBRANCH   5   8
ENDBRANCH   3   4
ENDBRANCH   2   3
ENDBRANCH   1   2
BRANCH   1  34
ATOM     34  C   UNL     1      -4.306  -8.274   7.710  1.00  0.00     0.002 C 
BRANCH  34  35
ATOM     35  C   UNL     1      -4.100  -9.303   6.595  1.00  0.00     0.021 C 
BRANCH  35  36
ATOM     36  C   UNL     1      -4.099 -10.757   7.059  1.00  0.00     0.116 C 
BRANCH  36  37
ATOM     37  N   UNL     1      -5.410 -11.188   7.521  1.00  0.00    -0.352 N 
ATOM     38  C   UNL     1      -6.205 -12.210   7.058  1.00  0.00     0.251 C 
ATOM     39  H   UNL     1      -5.782 -10.674   8.273  1.00  0.00     0.163 HD
ATOM     40  O   UNL     1      -7.367 -12.315   7.435  1.00  0.00    -0.269 OA
BRANCH  38  41
ATOM     41  C   UNL     1      -5.661 -13.178   6.082  1.00  0.00     0.039 A 
ATOM     42  C   UNL     1      -6.414 -13.494   4.947  1.00  0.00     0.014 A 
ATOM     43  C   UNL     1      -4.410 -13.766   6.283  1.00  0.00     0.014 A 
ATOM     44  C   UNL     1      -5.876 -14.338   3.973  1.00  0.00     0.010 A 
ATOM     45  C   UNL     1      -3.849 -14.555   5.283  1.00  0.00     0.010 A 
ATOM     46  C   UNL     1      -4.572 -14.840   4.114  1.00  0.00    -0.014 A 
BRANCH  46  47
ATOM     47  C   UNL     1      -3.928 -15.642   3.043  1.00  0.00     0.031 A 
ATOM     48  C   UNL     1      -3.556 -17.075   3.291  1.00  0.00     0.074 A 
ATOM     49  C   UNL     1      -3.596 -15.049   1.881  1.00  0.00     0.049 A 
ATOM     50  N   UNL     1      -2.897 -17.904   2.522  1.00  0.00    -0.248 NA
ATOM     51  C   UNL     1      -3.957 -17.643   4.586  1.00  0.00     0.031 C 
ATOM     52  C   UNL     1      -3.877 -13.655   1.533  1.00  0.00     0.029 A 
ATOM     53  N   UNL     1      -2.937 -15.539   0.781  1.00  0.00    -0.354 N 
ATOM     54  C   UNL     1      -2.786 -19.083   3.247  1.00  0.00     0.074 A 
ATOM     55  C   UNL     1      -3.406 -18.847   4.534  1.00  0.00     0.031 C 
ATOM     56  C   UNL     1      -3.416 -13.409   0.297  1.00  0.00     0.029 A 
ATOM     57  C   UNL     1      -2.766 -14.612  -0.217  1.00  0.00     0.049 A 
ATOM     58  H   UNL     1      -2.617 -16.468   0.715  1.00  0.00     0.167 HD
ATOM     59  C   UNL     1      -2.233 -20.259   2.866  1.00  0.00     0.037 A 
ATOM     60  C   UNL     1      -2.143 -14.715  -1.406  1.00  0.00     0.037 A 
ATOM     61  C   UNL     1      -1.639 -20.494   1.576  1.00  0.00     0.049 A 
ATOM     62  C   UNL     1      -1.492 -16.017  -1.785  1.00  0.00     0.074 A 
ATOM     63  C   UNL     1      -1.134 -21.674   1.060  1.00  0.00     0.029 A 
ATOM     64  N   UNL     1      -1.458 -19.522   0.603  1.00  0.00    -0.354 N 
ATOM     65  N   UNL     1      -1.461 -17.149  -1.125  1.00  0.00    -0.248 NA
ATOM     66  C   UNL     1      -0.779 -16.051  -3.069  1.00  0.00     0.031 C 
ATOM     67  C   UNL     1      -0.595 -21.403  -0.203  1.00  0.00     0.029 A 
ATOM     68  C   UNL     1      -0.807 -20.065  -0.494  1.00  0.00     0.049 A 
ATOM     69  H   UNL     1      -1.748 -18.584   0.679  1.00  0.00     0.167 HD
ATOM     70  C   UNL     1      -0.748 -18.035  -1.919  1.00  0.00     0.074 A 
ATOM     71  C   UNL     1      -0.373 -17.312  -3.118  1.00  0.00     0.031 C 
ATOM     72  C   UNL     1      -0.433 -19.331  -1.677  1.00  0.00     0.037 A 
BRANCH  59  73
ATOM     73  C   UNL     1      -2.233 -21.379   3.867  1.00  0.00     0.064 A 
ATOM     74  C   UNL     1      -3.418 -22.020   4.261  1.00  0.00     0.173 A 
ATOM     75  C   UNL     1      -1.029 -21.824   4.433  1.00  0.00     0.173 A 
ATOM     76  F   UNL     1      -4.598 -21.627   3.757  1.00  0.00    -0.203 F 
ATOM     77  C   UNL     1      -3.401 -23.035   5.214  1.00  0.00     0.198 A 
ATOM     78  C   UNL     1      -1.012 -22.862   5.362  1.00  0.00     0.198 A 
ATOM     79  F   UNL     1       0.134 -21.252   4.087  1.00  0.00    -0.203 F 
ATOM     80  F   UNL     1      -4.552 -23.590   5.620  1.00  0.00    -0.200 F 
ATOM     81  C   UNL     1      -2.199 -23.458   5.760  1.00  0.00     0.200 A 
ATOM     82  F   UNL     1       0.152 -23.278   5.879  1.00  0.00    -0.200 F 
ATOM     83  F   UNL     1      -2.185 -24.434   6.679  1.00  0.00    -0.200 F 
ENDBRANCH  59  73
BRANCH  60  84
ATOM     84  C   UNL     1      -2.128 -13.556  -2.335  1.00  0.00     0.064 A 
ATOM     85  C   UNL     1      -2.883 -13.581  -3.516  1.00  0.00     0.173 A 
ATOM     86  C   UNL     1      -1.382 -12.401  -2.060  1.00  0.00     0.173 A 
ATOM     87  F   UNL     1      -3.595 -14.673  -3.831  1.00  0.00    -0.203 F 
ATOM     88  C   UNL     1      -2.886 -12.497  -4.390  1.00  0.00     0.198 A 
ATOM     89  C   UNL     1      -1.406 -11.308  -2.923  1.00  0.00     0.198 A 
ATOM     90  F   UNL     1      -0.645 -12.327  -0.942  1.00  0.00    -0.203 F 
ATOM     91  F   UNL     1      -3.592 -12.559  -5.527  1.00  0.00    -0.200 F 
ATOM     92  C   UNL     1      -2.155 -11.358  -4.090  1.00  0.00     0.200 A 
ATOM     93  F   UNL     1      -0.709 -10.204  -2.622  1.00  0.00    -0.200 F 
ATOM     94  F   UNL     1      -2.167 -10.311  -4.925  1.00  0.00    -0.200 F 
ENDBRANCH  60  84
BRANCH  72  95
ATOM     95  C   UNL     1       0.348 -20.059  -2.732  1.00  0.00     0.064 A 
ATOM     96  C   UNL     1       1.711 -19.802  -2.942  1.00  0.00     0.173 A 
ATOM     97  C   UNL     1      -0.258 -21.062  -3.503  1.00  0.00     0.173 A 
ATOM     98  F   UNL     1       2.331 -18.838  -2.243  1.00  0.00    -0.203 F 
ATOM     99  C   UNL     1       2.434 -20.513  -3.894  1.00  0.00     0.198 A 
ATOM    100  C   UNL     1       0.475 -21.791  -4.434  1.00  0.00     0.198 A 
ATOM    101  F   UNL     1      -1.558 -21.349  -3.338  1.00  0.00    -0.203 F 
ATOM    102  F   UNL     1       3.727 -20.225  -4.104  1.00  0.00    -0.200 F 
ATOM    103  C   UNL     1       1.819 -21.514  -4.633  1.00  0.00     0.200 A 
ATOM    104  F   UNL     1      -0.118 -22.766  -5.138  1.00  0.00    -0.200 F 
ATOM    105  F   UNL     1       2.521 -22.207  -5.540  1.00  0.00    -0.200 F 
ENDBRANCH  72  95
ENDBRANCH  46  47
ENDBRANCH  38  41
ENDBRANCH  36  37
ENDBRANCH  35  36
ENDBRANCH  34  35
ENDBRANCH   1  34
TORSDOF 17
