REMARK SMILES CC(C)c1ccc([C@]2(C(=O)NCCCCCCNC(=O)c3ccc(-c4c5nc(c(-c6c(F)c(F)c(F)c(F)c6F)c6ccc([nH]6)c(-c6c(F)c(F)c(F)c(F)c6F)c6nc(c(-c7c(F)c(F)c(F)c(F)c7F)c7ccc4[nH]7)C=C6)C=C5)cc3)CCC[C@@H]2C)cc1
REMARK SMILES IDX 14 1 13 2 12 3 11 4 9 5 10 6 8 8 84 9 87 10 85 11 86 12
REMARK SMILES IDX 88 13 7 14 4 15 5 16 90 17 6 18 89 19 2 20 1 21 3 22 15 23
REMARK SMILES IDX 16 24 17 25 18 26 19 27 20 29 21 30 22 31 83 32 23 33 82 34
REMARK SMILES IDX 24 35 25 36 26 37 76 38 27 39 81 40 75 41 77 42 28 43 80 44
REMARK SMILES IDX 74 45 73 46 29 48 61 49 41 50 60 51 42 52 45 53 59 54 78 55
REMARK SMILES IDX 43 56 44 57 58 59 79 60 46 61 30 62 31 63 39 64 32 65 33 66
REMARK SMILES IDX 37 67 40 68 34 69 35 70 38 71 36 72 62 73 63 74 71 75 64 76
REMARK SMILES IDX 65 77 69 78 72 79 66 80 67 81 70 82 68 83 47 84 48 85 56 86
REMARK SMILES IDX 49 87 50 88 54 89 57 90 51 91 52 92 55 93 53 94
REMARK H PARENT 11 7 18 28 77 47 45 58
REMARK Flexibility Score: inf
ROOT
ATOM      1  C   UNL     1      -9.773  -2.794   3.602  1.00  0.00     0.002 C 
ENDROOT
BRANCH   1   2
ATOM      2  C   UNL     1      -8.936  -2.303   2.423  1.00  0.00     0.021 C 
BRANCH   2   3
ATOM      3  C   UNL     1      -8.187  -1.002   2.657  1.00  0.00     0.116 C 
BRANCH   3   4
ATOM      4  N   UNL     1      -6.883  -1.139   3.243  1.00  0.00    -0.355 N 
ATOM      5  C   UNL     1      -5.684  -0.564   2.951  1.00  0.00     0.230 C 
ATOM      6  O   UNL     1      -4.904  -0.585   3.917  1.00  0.00    -0.274 OA
ATOM      7  H   UNL     1      -6.849  -1.768   4.000  1.00  0.00     0.163 HD
BRANCH   5   8
ATOM      8  C   UNL     1      -5.236   0.060   1.545  1.00  0.00     0.077 C 
ATOM      9  C   UNL     1      -5.810  -0.724   0.334  1.00  0.00     0.022 C 
ATOM     10  C   UNL     1      -5.777   1.523   1.283  1.00  0.00     0.006 C 
ATOM     11  C   UNL     1      -6.954   0.098  -0.280  1.00  0.00     0.002 C 
ATOM     12  C   UNL     1      -7.127   1.347   0.580  1.00  0.00     0.005 C 
ATOM     13  C   UNL     1      -4.984   2.446   0.326  1.00  0.00     0.009 C 
BRANCH   8  14
ATOM     14  C   UNL     1      -3.680  -0.020   1.574  1.00  0.00    -0.032 A 
ATOM     15  C   UNL     1      -0.827  -0.120   1.614  1.00  0.00    -0.045 A 
ATOM     16  C   UNL     1      -1.512   1.006   2.070  1.00  0.00     0.004 A 
ATOM     17  C   UNL     1      -1.588  -1.232   1.222  1.00  0.00     0.004 A 
ATOM     18  C   UNL     1      -2.909   1.029   2.102  1.00  0.00     0.005 A 
ATOM     19  C   UNL     1      -2.989  -1.183   1.200  1.00  0.00     0.005 A 
BRANCH  15  20
ATOM     20  C   UNL     1       0.689  -0.176   1.517  1.00  0.00     0.013 C 
ATOM     21  C   UNL     1       1.124  -0.007   0.057  1.00  0.00     0.012 C 
ATOM     22  C   UNL     1       1.427   0.845   2.393  1.00  0.00     0.012 C 
ENDBRANCH  15  20
ENDBRANCH   8  14
ENDBRANCH   5   8
ENDBRANCH   3   4
ENDBRANCH   2   3
ENDBRANCH   1   2
BRANCH   1  23
ATOM     23  C   UNL     1     -10.752  -1.774   4.198  1.00  0.00     0.002 C 
BRANCH  23  24
ATOM     24  C   UNL     1     -11.675  -1.062   3.202  1.00  0.00     0.021 C 
BRANCH  24  25
ATOM     25  C   UNL     1     -12.537  -1.981   2.342  1.00  0.00     0.116 C 
BRANCH  25  26
ATOM     26  N   UNL     1     -13.369  -2.861   3.146  1.00  0.00    -0.352 N 
ATOM     27  C   UNL     1     -14.735  -2.973   3.204  1.00  0.00     0.251 C 
ATOM     28  H   UNL     1     -12.876  -3.471   3.741  1.00  0.00     0.163 HD
ATOM     29  O   UNL     1     -15.264  -3.618   4.101  1.00  0.00    -0.269 OA
BRANCH  27  30
ATOM     30  C   UNL     1     -15.574  -2.301   2.190  1.00  0.00     0.039 A 
ATOM     31  C   UNL     1     -16.702  -1.591   2.610  1.00  0.00     0.014 A 
ATOM     32  C   UNL     1     -15.259  -2.383   0.831  1.00  0.00     0.014 A 
ATOM     33  C   UNL     1     -17.471  -0.899   1.673  1.00  0.00     0.010 A 
ATOM     34  C   UNL     1     -15.989  -1.641  -0.094  1.00  0.00     0.010 A 
ATOM     35  C   UNL     1     -17.095  -0.883   0.320  1.00  0.00    -0.014 A 
BRANCH  35  36
ATOM     36  C   UNL     1     -17.815  -0.042  -0.670  1.00  0.00     0.031 A 
ATOM     37  C   UNL     1     -18.549  -0.677  -1.816  1.00  0.00     0.074 A 
ATOM     38  C   UNL     1     -17.723   1.300  -0.582  1.00  0.00     0.049 A 
ATOM     39  N   UNL     1     -19.143  -0.107  -2.834  1.00  0.00    -0.248 NA
ATOM     40  C   UNL     1     -18.605  -2.147  -1.837  1.00  0.00     0.031 C 
ATOM     41  C   UNL     1     -16.996   2.030   0.460  1.00  0.00     0.029 A 
ATOM     42  N   UNL     1     -18.221   2.291  -1.392  1.00  0.00    -0.354 N 
ATOM     43  C   UNL     1     -19.621  -1.144  -3.623  1.00  0.00     0.074 A 
ATOM     44  C   UNL     1     -19.223  -2.380  -2.987  1.00  0.00     0.031 C 
ATOM     45  C   UNL     1     -17.099   3.348   0.228  1.00  0.00     0.029 A 
ATOM     46  C   UNL     1     -17.856   3.557  -1.002  1.00  0.00     0.049 A 
ATOM     47  H   UNL     1     -18.786   2.111  -2.178  1.00  0.00     0.167 HD
ATOM     48  C   UNL     1     -20.339  -1.065  -4.769  1.00  0.00     0.037 A 
ATOM     49  C   UNL     1     -18.082   4.750  -1.584  1.00  0.00     0.037 A 
ATOM     50  C   UNL     1     -20.763   0.170  -5.375  1.00  0.00     0.049 A 
ATOM     51  C   UNL     1     -18.872   4.801  -2.866  1.00  0.00     0.074 A 
ATOM     52  C   UNL     1     -21.585   0.350  -6.474  1.00  0.00     0.029 A 
ATOM     53  N   UNL     1     -20.389   1.433  -4.942  1.00  0.00    -0.354 N 
ATOM     54  N   UNL     1     -19.409   3.817  -3.545  1.00  0.00    -0.248 NA
ATOM     55  C   UNL     1     -19.085   6.127  -3.463  1.00  0.00     0.031 C 
ATOM     56  C   UNL     1     -21.653   1.719  -6.747  1.00  0.00     0.029 A 
ATOM     57  C   UNL     1     -20.923   2.395  -5.784  1.00  0.00     0.049 A 
ATOM     58  H   UNL     1     -19.827   1.618  -4.155  1.00  0.00     0.167 HD
ATOM     59  C   UNL     1     -20.038   4.404  -4.634  1.00  0.00     0.074 A 
ATOM     60  C   UNL     1     -19.838   5.833  -4.513  1.00  0.00     0.031 C 
ATOM     61  C   UNL     1     -20.715   3.814  -5.648  1.00  0.00     0.037 A 
BRANCH  48  62
ATOM     62  C   UNL     1     -20.718  -2.343  -5.458  1.00  0.00     0.064 A 
ATOM     63  C   UNL     1     -21.693  -3.205  -4.936  1.00  0.00     0.173 A 
ATOM     64  C   UNL     1     -20.161  -2.662  -6.707  1.00  0.00     0.173 A 
ATOM     65  F   UNL     1     -22.250  -2.949  -3.743  1.00  0.00    -0.203 F 
ATOM     66  C   UNL     1     -22.088  -4.345  -5.632  1.00  0.00     0.198 A 
ATOM     67  C   UNL     1     -20.579  -3.786  -7.413  1.00  0.00     0.198 A 
ATOM     68  F   UNL     1     -19.230  -1.867  -7.255  1.00  0.00    -0.203 F 
ATOM     69  F   UNL     1     -23.001  -5.169  -5.101  1.00  0.00    -0.200 F 
ATOM     70  C   UNL     1     -21.539  -4.628  -6.874  1.00  0.00     0.200 A 
ATOM     71  F   UNL     1     -20.059  -4.050  -8.620  1.00  0.00    -0.200 F 
ATOM     72  F   UNL     1     -21.937  -5.714  -7.552  1.00  0.00    -0.200 F 
ENDBRANCH  48  62
BRANCH  49  73
ATOM     73  C   UNL     1     -17.537   5.996  -0.981  1.00  0.00     0.064 A 
ATOM     74  C   UNL     1     -18.388   6.982  -0.463  1.00  0.00     0.173 A 
ATOM     75  C   UNL     1     -16.156   6.242  -0.941  1.00  0.00     0.173 A 
ATOM     76  F   UNL     1     -19.717   6.804  -0.497  1.00  0.00    -0.203 F 
ATOM     77  C   UNL     1     -17.882   8.180   0.038  1.00  0.00     0.198 A 
ATOM     78  C   UNL     1     -15.649   7.425  -0.407  1.00  0.00     0.198 A 
ATOM     79  F   UNL     1     -15.296   5.330  -1.418  1.00  0.00    -0.203 F 
ATOM     80  F   UNL     1     -18.722   9.132   0.467  1.00  0.00    -0.200 F 
ATOM     81  C   UNL     1     -16.513   8.399   0.069  1.00  0.00     0.200 A 
ATOM     82  F   UNL     1     -14.325   7.625  -0.365  1.00  0.00    -0.200 F 
ATOM     83  F   UNL     1     -16.027   9.553   0.547  1.00  0.00    -0.200 F 
ENDBRANCH  49  73
BRANCH  61  84
ATOM     84  C   UNL     1     -21.303   4.708  -6.700  1.00  0.00     0.064 A 
ATOM     85  C   UNL     1     -20.493   5.364  -7.638  1.00  0.00     0.173 A 
ATOM     86  C   UNL     1     -22.693   4.864  -6.809  1.00  0.00     0.173 A 
ATOM     87  F   UNL     1     -19.157   5.261  -7.566  1.00  0.00    -0.203 F 
ATOM     88  C   UNL     1     -21.052   6.158  -8.636  1.00  0.00     0.198 A 
ATOM     89  C   UNL     1     -23.251   5.631  -7.827  1.00  0.00     0.198 A 
ATOM     90  F   UNL     1     -23.512   4.252  -5.940  1.00  0.00    -0.203 F 
ATOM     91  F   UNL     1     -20.257   6.809  -9.496  1.00  0.00    -0.200 F 
ATOM     92  C   UNL     1     -22.430   6.282  -8.736  1.00  0.00     0.200 A 
ATOM     93  F   UNL     1     -24.583   5.737  -7.931  1.00  0.00    -0.200 F 
ATOM     94  F   UNL     1     -22.968   7.034  -9.706  1.00  0.00    -0.200 F 
ENDBRANCH  61  84
ENDBRANCH  35  36
ENDBRANCH  27  30
ENDBRANCH  25  26
ENDBRANCH  24  25
ENDBRANCH  23  24
ENDBRANCH   1  23
TORSDOF 15
