REMARK SMILES O=C(/C=C/c1c(Cl)cccc1Cl)NCC(=O)NCCCCCCNC(=O)c1ccc(-c2c3nc(c(-c4c(F)c(F)c(F)c(F)c4F)c4ccc([nH]4)c(-c4c(F)c(F)c(F)c(F)c4F)c4nc(c(-c5c(F)c(F)c(F)c(F)c5F)c5ccc2[nH]5)C=C4)C=C3)cc1
REMARK SMILES IDX 20 1 19 2 18 3 17 4 15 5 16 6 14 8 13 9 1 10 2 11 3 13 4 14
REMARK SMILES IDX 5 15 6 16 11 17 7 18 8 19 10 20 12 21 9 22 21 23 22 24 23 25
REMARK SMILES IDX 24 26 25 27 26 29 27 30 28 31 89 32 29 33 88 34 30 35 31 36
REMARK SMILES IDX 32 37 82 38 33 39 87 40 81 41 83 42 34 43 86 44 80 45 79 46
REMARK SMILES IDX 35 48 67 49 47 50 66 51 48 52 51 53 65 54 84 55 49 56 50 57
REMARK SMILES IDX 64 59 85 60 52 61 36 62 37 63 45 64 38 65 39 66 43 67 46 68
REMARK SMILES IDX 40 69 41 70 44 71 42 72 68 73 69 74 77 75 70 76 71 77 75 78
REMARK SMILES IDX 78 79 72 80 73 81 76 82 74 83 53 84 54 85 62 86 55 87 56 88
REMARK SMILES IDX 60 89 63 90 57 91 58 92 61 93 59 94
REMARK H PARENT 17 7 13 12 24 28 83 47 51 58
REMARK Flexibility Score: inf
ROOT
ATOM      1  C   UNL     1       3.047   1.649   4.730  1.00  0.00     0.002 C 
ENDROOT
BRANCH   1   2
ATOM      2  C   UNL     1       2.682   1.016   3.380  1.00  0.00     0.021 C 
BRANCH   2   3
ATOM      3  C   UNL     1       1.688   1.842   2.561  1.00  0.00     0.116 C 
BRANCH   3   4
ATOM      4  N   UNL     1       2.308   3.051   2.054  1.00  0.00    -0.355 N 
ATOM      5  C   UNL     1       2.683   3.352   0.777  1.00  0.00     0.239 C 
ATOM      6  O   UNL     1       3.187   4.456   0.561  1.00  0.00    -0.273 OA
ATOM      7  H   UNL     1       2.482   3.751   2.724  1.00  0.00     0.163 HD
BRANCH   5   8
ATOM      8  C   UNL     1       2.406   2.368  -0.362  1.00  0.00     0.216 C 
BRANCH   8   9
ATOM      9  N   UNL     1       3.083   1.093  -0.180  1.00  0.00    -0.343 N 
ATOM     10  O   UNL     1       1.201  -0.187  -0.443  1.00  0.00    -0.270 OA
ATOM     11  C   UNL     1       2.409  -0.094  -0.255  1.00  0.00     0.244 C 
ATOM     12  H   UNL     1       4.051   1.086   0.001  1.00  0.00     0.164 HD
BRANCH  11  13
ATOM     13  C   UNL     1       3.197  -1.321   0.006  1.00  0.00     0.072 C 
ATOM     14  C   UNL     1       4.517  -1.459  -0.184  1.00  0.00     0.017 C 
BRANCH  14  15
ATOM     15  C   UNL     1       5.216  -2.738   0.057  1.00  0.00     0.012 A 
ATOM     16  C   UNL     1       4.938  -3.901  -0.692  1.00  0.00     0.049 A 
ATOM     17  C   UNL     1       6.226  -2.817   1.037  1.00  0.00     0.049 A 
ATOM     18  Cl  UNL     1       3.764  -3.926  -1.966  1.00  0.00    -0.084 Cl
ATOM     19  C   UNL     1       5.630  -5.095  -0.453  1.00  0.00     0.021 A 
ATOM     20  C   UNL     1       6.922  -4.011   1.264  1.00  0.00     0.021 A 
ATOM     21  Cl  UNL     1       6.654  -1.455   2.020  1.00  0.00    -0.084 Cl
ATOM     22  C   UNL     1       6.622  -5.150   0.522  1.00  0.00     0.003 A 
ENDBRANCH  14  15
ENDBRANCH  11  13
ENDBRANCH   8   9
ENDBRANCH   5   8
ENDBRANCH   3   4
ENDBRANCH   2   3
ENDBRANCH   1   2
BRANCH   1  23
ATOM     23  C   UNL     1       1.867   1.890   5.679  1.00  0.00     0.002 C 
BRANCH  23  24
ATOM     24  C   UNL     1       1.021   0.654   5.995  1.00  0.00     0.021 C 
BRANCH  24  25
ATOM     25  C   UNL     1       1.782  -0.482   6.671  1.00  0.00     0.116 C 
BRANCH  25  26
ATOM     26  N   UNL     1       2.269  -0.108   7.990  1.00  0.00    -0.352 N 
ATOM     27  C   UNL     1       2.098  -0.740   9.194  1.00  0.00     0.251 C 
ATOM     28  H   UNL     1       2.800   0.721   8.022  1.00  0.00     0.163 HD
ATOM     29  O   UNL     1       2.426  -0.179  10.239  1.00  0.00    -0.269 OA
BRANCH  27  30
ATOM     30  C   UNL     1       1.502  -2.091   9.247  1.00  0.00     0.039 A 
ATOM     31  C   UNL     1       0.533  -2.365  10.216  1.00  0.00     0.014 A 
ATOM     32  C   UNL     1       1.909  -3.092   8.360  1.00  0.00     0.014 A 
ATOM     33  C   UNL     1      -0.071  -3.623  10.258  1.00  0.00     0.010 A 
ATOM     34  C   UNL     1       1.261  -4.324   8.360  1.00  0.00     0.010 A 
ATOM     35  C   UNL     1       0.267  -4.603   9.310  1.00  0.00    -0.014 A 
BRANCH  35  36
ATOM     36  C   UNL     1      -0.410  -5.925   9.297  1.00  0.00     0.031 A 
ATOM     37  C   UNL     1       0.368  -7.176   9.589  1.00  0.00     0.074 A 
ATOM     38  C   UNL     1      -1.712  -6.002   8.959  1.00  0.00     0.049 A 
ATOM     39  N   UNL     1      -0.026  -8.425   9.555  1.00  0.00    -0.248 NA
ATOM     40  C   UNL     1       1.786  -7.005   9.940  1.00  0.00     0.031 C 
ATOM     41  C   UNL     1      -2.563  -4.864   8.613  1.00  0.00     0.029 A 
ATOM     42  N   UNL     1      -2.543  -7.088   8.841  1.00  0.00    -0.354 N 
ATOM     43  C   UNL     1       1.094  -9.184   9.866  1.00  0.00     0.074 A 
ATOM     44  C   UNL     1       2.196  -8.261  10.036  1.00  0.00     0.031 C 
ATOM     45  C   UNL     1      -3.801  -5.308   8.340  1.00  0.00     0.029 A 
ATOM     46  C   UNL     1      -3.820  -6.763   8.456  1.00  0.00     0.049 A 
ATOM     47  H   UNL     1      -2.251  -8.012   9.015  1.00  0.00     0.167 HD
ATOM     48  C   UNL     1       1.189 -10.526  10.019  1.00  0.00     0.037 A 
ATOM     49  C   UNL     1      -4.885  -7.552   8.217  1.00  0.00     0.037 A 
ATOM     50  C   UNL     1       0.086 -11.439   9.874  1.00  0.00     0.049 A 
ATOM     51  C   UNL     1      -4.751  -9.040   8.386  1.00  0.00     0.074 A 
ATOM     52  C   UNL     1       0.067 -12.809  10.067  1.00  0.00     0.029 A 
ATOM     53  N   UNL     1      -1.198 -11.071   9.498  1.00  0.00    -0.354 N 
ATOM     54  N   UNL     1      -3.703  -9.741   8.745  1.00  0.00    -0.248 NA
ATOM     55  C   UNL     1      -5.950  -9.847   8.123  1.00  0.00     0.031 C 
ATOM     56  C   UNL     1      -1.216 -13.277   9.765  1.00  0.00     0.029 A 
ATOM     57  C   UNL     1      -2.011 -12.192   9.431  1.00  0.00     0.049 A 
ATOM     58  H   UNL     1      -1.489 -10.150   9.307  1.00  0.00     0.167 HD
ATOM     59  C   UNL     1      -4.121 -11.065   8.776  1.00  0.00     0.074 A 
ATOM     60  C   UNL     1      -5.523 -11.068   8.414  1.00  0.00     0.031 C 
ATOM     61  C   UNL     1      -3.407 -12.177   9.076  1.00  0.00     0.037 A 
BRANCH  48  62
ATOM     62  C   UNL     1       2.537 -11.090  10.365  1.00  0.00     0.064 A 
ATOM     63  C   UNL     1       3.118 -10.885  11.626  1.00  0.00     0.173 A 
ATOM     64  C   UNL     1       3.242 -11.873   9.438  1.00  0.00     0.173 A 
ATOM     65  F   UNL     1       2.490 -10.135  12.544  1.00  0.00    -0.203 F 
ATOM     66  C   UNL     1       4.367 -11.417  11.935  1.00  0.00     0.198 A 
ATOM     67  C   UNL     1       4.477 -12.429   9.762  1.00  0.00     0.198 A 
ATOM     68  F   UNL     1       2.730 -12.105   8.220  1.00  0.00    -0.203 F 
ATOM     69  F   UNL     1       4.923 -11.165  13.128  1.00  0.00    -0.200 F 
ATOM     70  C   UNL     1       5.042 -12.194  11.006  1.00  0.00     0.200 A 
ATOM     71  F   UNL     1       5.123 -13.189   8.867  1.00  0.00    -0.200 F 
ATOM     72  F   UNL     1       6.242 -12.709  11.307  1.00  0.00    -0.200 F 
ENDBRANCH  48  62
BRANCH  49  73
ATOM     73  C   UNL     1      -6.181  -6.946   7.816  1.00  0.00     0.064 A 
ATOM     74  C   UNL     1      -7.276  -6.949   8.691  1.00  0.00     0.173 A 
ATOM     75  C   UNL     1      -6.354  -6.356   6.555  1.00  0.00     0.173 A 
ATOM     76  F   UNL     1      -7.165  -7.520   9.899  1.00  0.00    -0.203 F 
ATOM     77  C   UNL     1      -8.501  -6.403   8.313  1.00  0.00     0.198 A 
ATOM     78  C   UNL     1      -7.571  -5.786   6.189  1.00  0.00     0.198 A 
ATOM     79  F   UNL     1      -5.336  -6.324   5.683  1.00  0.00    -0.203 F 
ATOM     80  F   UNL     1      -9.544  -6.459   9.153  1.00  0.00    -0.200 F 
ATOM     81  C   UNL     1      -8.646  -5.817   7.065  1.00  0.00     0.200 A 
ATOM     82  F   UNL     1      -7.704  -5.209   4.987  1.00  0.00    -0.200 F 
ATOM     83  F   UNL     1      -9.823  -5.288   6.704  1.00  0.00    -0.200 F 
ENDBRANCH  49  73
BRANCH  61  84
ATOM     84  C   UNL     1      -4.138 -13.488   9.057  1.00  0.00     0.064 A 
ATOM     85  C   UNL     1      -4.538 -14.090   7.855  1.00  0.00     0.173 A 
ATOM     86  C   UNL     1      -4.408 -14.167  10.255  1.00  0.00     0.173 A 
ATOM     87  F   UNL     1      -4.317 -13.472   6.685  1.00  0.00    -0.203 F 
ATOM     88  C   UNL     1      -5.203 -15.313   7.855  1.00  0.00     0.198 A 
ATOM     89  C   UNL     1      -5.047 -15.404  10.249  1.00  0.00     0.198 A 
ATOM     90  F   UNL     1      -4.040 -13.637  11.431  1.00  0.00    -0.203 F 
ATOM     91  F   UNL     1      -5.617 -15.848   6.698  1.00  0.00    -0.200 F 
ATOM     92  C   UNL     1      -5.450 -15.972   9.050  1.00  0.00     0.200 A 
ATOM     93  F   UNL     1      -5.273 -16.045  11.403  1.00  0.00    -0.200 F 
ATOM     94  F   UNL     1      -6.084 -17.152   9.047  1.00  0.00    -0.200 F 
ENDBRANCH  61  84
ENDBRANCH  35  36
ENDBRANCH  27  30
ENDBRANCH  25  26
ENDBRANCH  24  25
ENDBRANCH  23  24
ENDBRANCH   1  23
TORSDOF 16
