REMARK SMILES C=CCN(CC(=O)NCCCCCCNC(=O)c1ccc(-c2c3nc(c(-c4c(F)c(F)c(F)c(F)c4F)c4ccc([nH]4)c(-c4c(F)c(F)c(F)c(F)c4F)c4nc(c(-c5c(F)c(F)c(F)c(F)c5F)c5ccc2[nH]5)C=C4)C=C3)cc1)C(=O)NC1CC[NH+](CCC)CC1
REMARK SMILES IDX 10 1 9 2 8 3 6 4 7 5 5 7 4 8 3 9 2 10 1 11 81 12 82 13 83 14
REMARK SMILES IDX 84 16 85 17 92 18 86 19 91 20 87 21 88 23 89 24 90 25 11 26
REMARK SMILES IDX 12 27 13 28 14 29 15 30 16 31 17 33 18 34 19 35 80 36 20 37
REMARK SMILES IDX 79 38 21 39 22 40 23 41 73 42 24 43 78 44 72 45 74 46 25 47
REMARK SMILES IDX 77 48 71 49 70 50 26 52 58 53 38 54 57 55 39 56 42 57 56 58
REMARK SMILES IDX 75 59 40 60 41 61 55 63 76 64 43 65 27 66 28 67 36 68 29 69
REMARK SMILES IDX 30 70 34 71 37 72 31 73 32 74 35 75 33 76 59 77 60 78 68 79
REMARK SMILES IDX 61 80 62 81 66 82 69 83 63 84 64 85 67 86 65 87 44 88 45 89
REMARK SMILES IDX 53 90 46 91 47 92 51 93 54 94 48 95 49 96 52 97 50 98
REMARK H PARENT 8 6 83 15 87 22 15 32 74 51 42 62
REMARK Flexibility Score: inf
ROOT
ATOM      1  C   UNL     1      -4.565   0.283   0.873  1.00  0.00     0.021 C 
ENDROOT
BRANCH   1   2
ATOM      2  C   UNL     1      -4.583   0.375  -0.647  1.00  0.00     0.116 C 
BRANCH   2   3
ATOM      3  N   UNL     1      -4.903   1.695  -1.128  1.00  0.00    -0.355 N 
ATOM      4  C   UNL     1      -4.144   2.475  -1.950  1.00  0.00     0.239 C 
ATOM      5  O   UNL     1      -4.712   3.355  -2.602  1.00  0.00    -0.273 OA
ATOM      6  H   UNL     1      -5.761   2.075  -0.832  1.00  0.00     0.163 HD
BRANCH   4   7
ATOM      7  C   UNL     1      -2.662   2.151  -2.165  1.00  0.00     0.221 C 
BRANCH   7   8
ATOM      8  N   UNL     1      -1.851   1.971  -0.956  1.00  0.00    -0.312 N 
BRANCH   8   9
ATOM      9  C   UNL     1      -1.171   0.677  -0.833  1.00  0.00     0.149 C 
BRANCH   9  10
ATOM     10  C   UNL     1       0.314   0.815  -1.003  1.00  0.00    -0.013 C 
ATOM     11  C   UNL     1       1.196   0.228  -0.181  1.00  0.00     0.006 C 
ENDBRANCH   9  10
ENDBRANCH   8   9
BRANCH   8  12
ATOM     12  C   UNL     1      -1.608   2.872   0.038  1.00  0.00     0.318 C 
ATOM     13  O   UNL     1      -0.999   2.540   1.064  1.00  0.00    -0.249 OA
ATOM     14  N   UNL     1      -1.974   4.159   0.037  1.00  0.00    -0.335 N 
ATOM     15  H   UNL     1      -1.569   4.612   0.811  1.00  0.00     0.165 HD
BRANCH  14  16
ATOM     16  C   UNL     1      -2.776   5.127  -0.728  1.00  0.00     0.095 C 
ATOM     17  C   UNL     1      -2.210   5.513  -2.091  1.00  0.00     0.086 C 
ATOM     18  C   UNL     1      -2.950   6.428   0.086  1.00  0.00     0.086 C 
ATOM     19  C   UNL     1      -0.921   6.307  -1.970  1.00  0.00     0.264 C 
ATOM     20  C   UNL     1      -1.671   7.279   0.128  1.00  0.00     0.264 C 
ATOM     21  N   UNL     1      -1.141   7.532  -1.212  1.00  0.00    -0.335 N 
ATOM     22  H   UNL     1      -1.882   8.041  -1.693  1.00  0.00     0.348 HD
BRANCH  21  23
ATOM     23  C   UNL     1       0.011   8.438  -1.244  1.00  0.00     0.261 C 
BRANCH  23  24
ATOM     24  C   UNL     1       1.244   8.142  -0.372  1.00  0.00     0.058 C 
ATOM     25  C   UNL     1       1.982   6.849  -0.680  1.00  0.00     0.010 C 
ENDBRANCH  23  24
ENDBRANCH  21  23
ENDBRANCH  14  16
ENDBRANCH   8  12
ENDBRANCH   7   8
ENDBRANCH   4   7
ENDBRANCH   2   3
ENDBRANCH   1   2
BRANCH   1  26
ATOM     26  C   UNL     1      -5.942   0.436   1.525  1.00  0.00     0.002 C 
BRANCH  26  27
ATOM     27  C   UNL     1      -7.056  -0.415   0.905  1.00  0.00     0.002 C 
BRANCH  27  28
ATOM     28  C   UNL     1      -6.731  -1.903   0.745  1.00  0.00     0.021 C 
BRANCH  28  29
ATOM     29  C   UNL     1      -6.374  -2.612   2.042  1.00  0.00     0.116 C 
BRANCH  29  30
ATOM     30  N   UNL     1      -7.493  -2.634   2.967  1.00  0.00    -0.352 N 
ATOM     31  C   UNL     1      -8.098  -3.710   3.559  1.00  0.00     0.251 C 
ATOM     32  H   UNL     1      -7.869  -1.754   3.200  1.00  0.00     0.163 HD
ATOM     33  O   UNL     1      -9.176  -3.578   4.137  1.00  0.00    -0.269 OA
BRANCH  31  34
ATOM     34  C   UNL     1      -7.458  -5.039   3.486  1.00  0.00     0.039 A 
ATOM     35  C   UNL     1      -8.245  -6.153   3.187  1.00  0.00     0.014 A 
ATOM     36  C   UNL     1      -6.086  -5.184   3.714  1.00  0.00     0.014 A 
ATOM     37  C   UNL     1      -7.646  -7.407   3.066  1.00  0.00     0.010 A 
ATOM     38  C   UNL     1      -5.479  -6.419   3.515  1.00  0.00     0.010 A 
ATOM     39  C   UNL     1      -6.254  -7.545   3.200  1.00  0.00    -0.014 A 
BRANCH  39  40
ATOM     40  C   UNL     1      -5.593  -8.861   3.020  1.00  0.00     0.031 A 
ATOM     41  C   UNL     1      -4.878  -9.509   4.172  1.00  0.00     0.074 A 
ATOM     42  C   UNL     1      -5.589  -9.443   1.805  1.00  0.00     0.049 A 
ATOM     43  N   UNL     1      -4.192 -10.624   4.200  1.00  0.00    -0.248 NA
ATOM     44  C   UNL     1      -4.914  -8.796   5.459  1.00  0.00     0.031 C 
ATOM     45  C   UNL     1      -6.209  -8.888   0.601  1.00  0.00     0.029 A 
ATOM     46  N   UNL     1      -5.036 -10.625   1.380  1.00  0.00    -0.354 N 
ATOM     47  C   UNL     1      -3.709 -10.738   5.497  1.00  0.00     0.074 A 
ATOM     48  C   UNL     1      -4.128  -9.552   6.211  1.00  0.00     0.031 C 
ATOM     49  C   UNL     1      -6.023  -9.739  -0.421  1.00  0.00     0.029 A 
ATOM     50  C   UNL     1      -5.238 -10.878   0.045  1.00  0.00     0.049 A 
ATOM     51  H   UNL     1      -4.542 -11.233   1.976  1.00  0.00     0.167 HD
ATOM     52  C   UNL     1      -3.000 -11.752   6.048  1.00  0.00     0.037 A 
ATOM     53  C   UNL     1      -4.828 -11.909  -0.717  1.00  0.00     0.037 A 
ATOM     54  C   UNL     1      -2.604 -12.939   5.337  1.00  0.00     0.049 A 
ATOM     55  C   UNL     1      -4.031 -13.017  -0.083  1.00  0.00     0.074 A 
ATOM     56  C   UNL     1      -1.935 -14.050   5.819  1.00  0.00     0.029 A 
ATOM     57  N   UNL     1      -2.837 -13.167   3.988  1.00  0.00    -0.354 N 
ATOM     58  N   UNL     1      -3.640 -13.148   1.162  1.00  0.00    -0.248 NA
ATOM     59  C   UNL     1      -3.624 -14.124  -0.959  1.00  0.00     0.031 C 
ATOM     60  C   UNL     1      -1.716 -14.926   4.750  1.00  0.00     0.029 A 
ATOM     61  C   UNL     1      -2.302 -14.389   3.615  1.00  0.00     0.049 A 
ATOM     62  H   UNL     1      -3.313 -12.550   3.385  1.00  0.00     0.167 HD
ATOM     63  C   UNL     1      -2.971 -14.363   1.226  1.00  0.00     0.074 A 
ATOM     64  C   UNL     1      -3.021 -14.937  -0.103  1.00  0.00     0.031 C 
ATOM     65  C   UNL     1      -2.368 -14.950   2.289  1.00  0.00     0.037 A 
BRANCH  52  66
ATOM     66  C   UNL     1      -2.608 -11.622   7.492  1.00  0.00     0.064 A 
ATOM     67  C   UNL     1      -3.560 -11.676   8.522  1.00  0.00     0.173 A 
ATOM     68  C   UNL     1      -1.260 -11.479   7.854  1.00  0.00     0.173 A 
ATOM     69  F   UNL     1      -4.864 -11.801   8.231  1.00  0.00    -0.203 F 
ATOM     70  C   UNL     1      -3.180 -11.560   9.857  1.00  0.00     0.198 A 
ATOM     71  C   UNL     1      -0.881 -11.397   9.191  1.00  0.00     0.198 A 
ATOM     72  F   UNL     1      -0.308 -11.427   6.911  1.00  0.00    -0.203 F 
ATOM     73  F   UNL     1      -4.113 -11.562  10.820  1.00  0.00    -0.200 F 
ATOM     74  C   UNL     1      -1.841 -11.429  10.191  1.00  0.00     0.200 A 
ATOM     75  F   UNL     1       0.415 -11.286   9.513  1.00  0.00    -0.200 F 
ATOM     76  F   UNL     1      -1.476 -11.327  11.476  1.00  0.00    -0.200 F 
ENDBRANCH  52  66
BRANCH  53  77
ATOM     77  C   UNL     1      -5.183 -11.954  -2.160  1.00  0.00     0.064 A 
ATOM     78  C   UNL     1      -6.080 -12.912  -2.652  1.00  0.00     0.173 A 
ATOM     79  C   UNL     1      -4.632 -11.046  -3.076  1.00  0.00     0.173 A 
ATOM     80  F   UNL     1      -6.619 -13.814  -1.819  1.00  0.00    -0.203 F 
ATOM     81  C   UNL     1      -6.393 -12.977  -4.008  1.00  0.00     0.198 A 
ATOM     82  C   UNL     1      -4.970 -11.092  -4.427  1.00  0.00     0.198 A 
ATOM     83  F   UNL     1      -3.774 -10.104  -2.657  1.00  0.00    -0.203 F 
ATOM     84  F   UNL     1      -7.214 -13.935  -4.458  1.00  0.00    -0.200 F 
ATOM     85  C   UNL     1      -5.842 -12.063  -4.894  1.00  0.00     0.200 A 
ATOM     86  F   UNL     1      -4.448 -10.197  -5.277  1.00  0.00    -0.200 F 
ATOM     87  F   UNL     1      -6.146 -12.123  -6.197  1.00  0.00    -0.200 F 
ENDBRANCH  53  77
BRANCH  65  88
ATOM     88  C   UNL     1      -1.749 -16.300   2.071  1.00  0.00     0.064 A 
ATOM     89  C   UNL     1      -0.579 -16.463   1.315  1.00  0.00     0.173 A 
ATOM     90  C   UNL     1      -2.314 -17.442   2.661  1.00  0.00     0.173 A 
ATOM     91  F   UNL     1      -0.008 -15.406   0.718  1.00  0.00    -0.203 F 
ATOM     92  C   UNL     1      -0.013 -17.723   1.136  1.00  0.00     0.198 A 
ATOM     93  C   UNL     1      -1.726 -18.694   2.507  1.00  0.00     0.198 A 
ATOM     94  F   UNL     1      -3.429 -17.340   3.400  1.00  0.00    -0.203 F 
ATOM     95  F   UNL     1       1.076 -17.862   0.367  1.00  0.00    -0.200 F 
ATOM     96  C   UNL     1      -0.582 -18.835   1.738  1.00  0.00     0.200 A 
ATOM     97  F   UNL     1      -2.269 -19.765   3.104  1.00  0.00    -0.200 F 
ATOM     98  F   UNL     1      -0.030 -20.045   1.571  1.00  0.00    -0.200 F 
ENDBRANCH  65  88
ENDBRANCH  39  40
ENDBRANCH  31  34
ENDBRANCH  29  30
ENDBRANCH  28  29
ENDBRANCH  27  28
ENDBRANCH  26  27
ENDBRANCH   1  26
TORSDOF 20
