REMARK SMILES C[NH2+][C@]1(C(=O)NCCCCCCNC(=O)c2ccc(-c3c4nc(c(-c5c(F)c(F)c(F)c(F)c5F)c5ccc([nH]5)c(-c5c(F)c(F)c(F)c(F)c5F)c5nc(c(-c6c(F)c(F)c(F)c(F)c6F)c6ccc3[nH]6)C=C5)C=C4)cc2)CC[C@@H](Sc2ccc3c(c2)CCC3)C1
REMARK SMILES IDX 9 1 8 2 7 3 6 4 4 5 5 6 3 8 79 9 92 10 80 11 81 12 2 13 1 14
REMARK SMILES IDX 82 17 83 18 84 19 88 20 85 21 87 22 86 23 89 24 91 25 90 26
REMARK SMILES IDX 10 27 11 28 12 29 13 30 14 31 15 33 16 34 17 35 78 36 18 37
REMARK SMILES IDX 77 38 19 39 20 40 21 41 71 42 22 43 76 44 70 45 72 46 23 47
REMARK SMILES IDX 75 48 69 49 68 50 24 52 56 53 36 54 55 55 37 56 40 57 54 58
REMARK SMILES IDX 73 59 38 60 39 61 53 63 74 64 41 65 25 66 26 67 34 68 27 69
REMARK SMILES IDX 28 70 32 71 35 72 29 73 30 74 33 75 31 76 57 77 58 78 66 79
REMARK SMILES IDX 59 80 60 81 64 82 67 83 61 84 62 85 65 86 63 87 42 88 43 89
REMARK SMILES IDX 51 90 44 91 45 92 49 93 52 94 46 95 47 96 50 97 48 98
REMARK H PARENT 6 7 2 15 2 16 13 32 72 51 40 62
REMARK Flexibility Score: inf
ROOT
ATOM      1  C   UNL     1       3.190   1.554  -2.068  1.00  0.00     0.002 C 
ENDROOT
BRANCH   1   2
ATOM      2  C   UNL     1       1.654   1.558  -2.000  1.00  0.00     0.021 C 
BRANCH   2   3
ATOM      3  C   UNL     1       1.004   0.449  -1.167  1.00  0.00     0.116 C 
BRANCH   3   4
ATOM      4  N   UNL     1       1.282   0.582   0.252  1.00  0.00    -0.351 N 
ATOM      5  C   UNL     1       0.493   0.709   1.351  1.00  0.00     0.281 C 
ATOM      6  O   UNL     1       1.106   0.817   2.427  1.00  0.00    -0.268 OA
ATOM      7  H   UNL     1       2.244   0.580   0.462  1.00  0.00     0.163 HD
BRANCH   5   8
ATOM      8  C   UNL     1      -1.081   0.777   1.347  1.00  0.00     0.176 C 
ATOM      9  C   UNL     1      -1.578   1.984   0.536  1.00  0.00     0.080 C 
ATOM     10  C   UNL     1      -1.758  -0.420   0.650  1.00  0.00     0.094 C 
ATOM     11  C   UNL     1      -2.971   1.623   0.016  1.00  0.00     0.022 C 
ATOM     12  C   UNL     1      -3.132   0.114   0.233  1.00  0.00     0.058 C 
BRANCH   8  13
ATOM     13  N   UNL     1      -1.504   0.721   2.782  1.00  0.00    -0.336 N 
ATOM     14  C   UNL     1      -2.561   1.592   3.254  1.00  0.00     0.331 C 
ATOM     15  H   UNL     1      -1.806  -0.236   2.964  1.00  0.00     0.346 HD
ATOM     16  H   UNL     1      -0.680   1.052   3.285  1.00  0.00     0.346 HD
ENDBRANCH   8  13
BRANCH  12  17
ATOM     17  S   UNL     1      -3.988  -0.787  -1.114  1.00  0.00    -0.122 SA
BRANCH  17  18
ATOM     18  C   UNL     1      -2.898  -0.548  -2.502  1.00  0.00     0.008 A 
ATOM     19  C   UNL     1      -3.099   0.530  -3.385  1.00  0.00     0.015 A 
ATOM     20  C   UNL     1      -1.883  -1.476  -2.753  1.00  0.00     0.019 A 
ATOM     21  C   UNL     1      -2.259   0.724  -4.484  1.00  0.00     0.005 A 
ATOM     22  C   UNL     1      -1.065  -1.285  -3.854  1.00  0.00    -0.044 A 
ATOM     23  C   UNL     1      -1.246  -0.193  -4.704  1.00  0.00    -0.045 A 
ATOM     24  C   UNL     1       0.100  -2.119  -4.278  1.00  0.00     0.036 C 
ATOM     25  C   UNL     1      -0.208  -0.168  -5.776  1.00  0.00     0.036 C 
ATOM     26  C   UNL     1       0.359  -1.594  -5.699  1.00  0.00     0.010 C 
ENDBRANCH  17  18
ENDBRANCH  12  17
ENDBRANCH   5   8
ENDBRANCH   3   4
ENDBRANCH   2   3
ENDBRANCH   1   2
BRANCH   1  27
ATOM     27  C   UNL     1       3.863   0.316  -2.683  1.00  0.00     0.002 C 
BRANCH  27  28
ATOM     28  C   UNL     1       3.351  -0.116  -4.061  1.00  0.00     0.021 C 
BRANCH  28  29
ATOM     29  C   UNL     1       3.599   0.870  -5.204  1.00  0.00     0.116 C 
BRANCH  29  30
ATOM     30  N   UNL     1       4.744   0.508  -6.019  1.00  0.00    -0.352 N 
ATOM     31  C   UNL     1       4.883  -0.033  -7.275  1.00  0.00     0.251 C 
ATOM     32  H   UNL     1       5.606   0.687  -5.578  1.00  0.00     0.163 HD
ATOM     33  O   UNL     1       6.022  -0.340  -7.629  1.00  0.00    -0.269 OA
BRANCH  31  34
ATOM     34  C   UNL     1       3.759  -0.289  -8.225  1.00  0.00     0.039 A 
ATOM     35  C   UNL     1       3.937  -1.326  -9.156  1.00  0.00     0.014 A 
ATOM     36  C   UNL     1       2.607   0.494  -8.333  1.00  0.00     0.014 A 
ATOM     37  C   UNL     1       2.982  -1.586 -10.150  1.00  0.00     0.010 A 
ATOM     38  C   UNL     1       1.613   0.187  -9.281  1.00  0.00     0.010 A 
ATOM     39  C   UNL     1       1.794  -0.846 -10.215  1.00  0.00    -0.014 A 
BRANCH  39  40
ATOM     40  C   UNL     1       0.774  -1.136 -11.269  1.00  0.00     0.031 A 
ATOM     41  C   UNL     1       0.445  -0.122 -12.337  1.00  0.00     0.074 A 
ATOM     42  C   UNL     1       0.131  -2.321 -11.281  1.00  0.00     0.049 A 
ATOM     43  N   UNL     1      -0.407  -0.211 -13.333  1.00  0.00    -0.248 NA
ATOM     44  C   UNL     1       1.151   1.165 -12.273  1.00  0.00     0.031 C 
ATOM     45  C   UNL     1       0.319  -3.393 -10.305  1.00  0.00     0.029 A 
ATOM     46  N   UNL     1      -0.812  -2.825 -12.149  1.00  0.00    -0.354 N 
ATOM     47  C   UNL     1      -0.345   1.006 -14.001  1.00  0.00     0.074 A 
ATOM     48  C   UNL     1       0.594   1.833 -13.273  1.00  0.00     0.031 C 
ATOM     49  C   UNL     1      -0.462  -4.434 -10.638  1.00  0.00     0.029 A 
ATOM     50  C   UNL     1      -1.232  -4.094 -11.832  1.00  0.00     0.049 A 
ATOM     51  H   UNL     1      -1.153  -2.322 -12.924  1.00  0.00     0.167 HD
ATOM     52  C   UNL     1      -0.992   1.395 -15.128  1.00  0.00     0.037 A 
ATOM     53  C   UNL     1      -2.137  -4.897 -12.428  1.00  0.00     0.037 A 
ATOM     54  C   UNL     1      -1.904   0.574 -15.883  1.00  0.00     0.049 A 
ATOM     55  C   UNL     1      -2.851  -4.436 -13.670  1.00  0.00     0.074 A 
ATOM     56  C   UNL     1      -2.548   0.871 -17.074  1.00  0.00     0.029 A 
ATOM     57  N   UNL     1      -2.307  -0.702 -15.523  1.00  0.00    -0.354 N 
ATOM     58  N   UNL     1      -2.729  -3.309 -14.325  1.00  0.00    -0.248 NA
ATOM     59  C   UNL     1      -3.827  -5.367 -14.259  1.00  0.00     0.031 C 
ATOM     60  C   UNL     1      -3.376  -0.206 -17.409  1.00  0.00     0.029 A 
ATOM     61  C   UNL     1      -3.211  -1.193 -16.453  1.00  0.00     0.049 A 
ATOM     62  H   UNL     1      -1.997  -1.188 -14.725  1.00  0.00     0.167 HD
ATOM     63  C   UNL     1      -3.589  -3.404 -15.413  1.00  0.00     0.074 A 
ATOM     64  C   UNL     1      -4.217  -4.706 -15.339  1.00  0.00     0.031 C 
ATOM     65  C   UNL     1      -3.833  -2.490 -16.383  1.00  0.00     0.037 A 
BRANCH  52  66
ATOM     66  C   UNL     1      -0.736   2.788 -15.630  1.00  0.00     0.064 A 
ATOM     67  C   UNL     1       0.484   3.143 -16.224  1.00  0.00     0.173 A 
ATOM     68  C   UNL     1      -1.744   3.762 -15.569  1.00  0.00     0.173 A 
ATOM     69  F   UNL     1       1.482   2.250 -16.302  1.00  0.00    -0.203 F 
ATOM     70  C   UNL     1       0.695   4.430 -16.713  1.00  0.00     0.198 A 
ATOM     71  C   UNL     1      -1.540   5.039 -16.084  1.00  0.00     0.198 A 
ATOM     72  F   UNL     1      -2.934   3.471 -15.021  1.00  0.00    -0.203 F 
ATOM     73  F   UNL     1       1.883   4.759 -17.238  1.00  0.00    -0.200 F 
ATOM     74  C   UNL     1      -0.319   5.374 -16.650  1.00  0.00     0.200 A 
ATOM     75  F   UNL     1      -2.526   5.946 -16.035  1.00  0.00    -0.200 F 
ATOM     76  F   UNL     1      -0.117   6.610 -17.128  1.00  0.00    -0.200 F 
ENDBRANCH  52  66
BRANCH  53  77
ATOM     77  C   UNL     1      -2.415  -6.242 -11.860  1.00  0.00     0.064 A 
ATOM     78  C   UNL     1      -2.011  -7.406 -12.528  1.00  0.00     0.173 A 
ATOM     79  C   UNL     1      -3.103  -6.390 -10.646  1.00  0.00     0.173 A 
ATOM     80  F   UNL     1      -1.375  -7.315 -13.705  1.00  0.00    -0.203 F 
ATOM     81  C   UNL     1      -2.297  -8.668 -12.012  1.00  0.00     0.198 A 
ATOM     82  C   UNL     1      -3.364  -7.652 -10.117  1.00  0.00     0.198 A 
ATOM     83  F   UNL     1      -3.511  -5.306  -9.970  1.00  0.00    -0.203 F 
ATOM     84  F   UNL     1      -1.939  -9.765 -12.693  1.00  0.00    -0.200 F 
ATOM     85  C   UNL     1      -2.968  -8.790 -10.804  1.00  0.00     0.200 A 
ATOM     86  F   UNL     1      -4.002  -7.765  -8.945  1.00  0.00    -0.200 F 
ATOM     87  F   UNL     1      -3.240 -10.003 -10.306  1.00  0.00    -0.200 F 
ENDBRANCH  53  77
BRANCH  65  88
ATOM     88  C   UNL     1      -4.801  -2.870 -17.467  1.00  0.00     0.064 A 
ATOM     89  C   UNL     1      -6.181  -2.952 -17.226  1.00  0.00     0.173 A 
ATOM     90  C   UNL     1      -4.348  -3.120 -18.771  1.00  0.00     0.173 A 
ATOM     91  F   UNL     1      -6.664  -2.737 -15.993  1.00  0.00    -0.203 F 
ATOM     92  C   UNL     1      -7.067  -3.291 -18.245  1.00  0.00     0.198 A 
ATOM     93  C   UNL     1      -5.240  -3.433 -19.794  1.00  0.00     0.198 A 
ATOM     94  F   UNL     1      -3.039  -3.050 -19.057  1.00  0.00    -0.203 F 
ATOM     95  F   UNL     1      -8.377  -3.406 -17.982  1.00  0.00    -0.200 F 
ATOM     96  C   UNL     1      -6.598  -3.525 -19.529  1.00  0.00     0.200 A 
ATOM     97  F   UNL     1      -4.785  -3.646 -21.037  1.00  0.00    -0.200 F 
ATOM     98  F   UNL     1      -7.453  -3.845 -20.510  1.00  0.00    -0.200 F 
ENDBRANCH  65  88
ENDBRANCH  39  40
ENDBRANCH  31  34
ENDBRANCH  29  30
ENDBRANCH  28  29
ENDBRANCH  27  28
ENDBRANCH   1  27
TORSDOF 16
