REMARK SMILES CCN1C(=O)/C(=C/c2cc([N+](=O)[O-])ccc2O)S/C1=[NH+]\c1ccc(C(=O)NCCCCCCNC(=O)c2ccc(-c3c4nc(c(-c5c(F)c(F)c(F)c(F)c5F)c5ccc([nH]5)c(-c5c(F)c(F)c(F)c(F)c5F)c5nc(c(-c6c(F)c(F)c(F)c(F)c6F)c6ccc3[nH]6)C=C5)C=C4)cc2)cc1
REMARK SMILES IDX 30 1 29 2 28 3 27 4 25 5 26 6 24 8 21 9 22 10 101 11 23 12
REMARK SMILES IDX 100 13 20 14 3 15 4 16 19 17 5 18 6 19 18 20 7 21 2 23 1 24
REMARK SMILES IDX 8 25 9 26 16 27 10 28 15 29 14 30 17 31 11 33 12 34 13 35
REMARK SMILES IDX 31 36 32 37 33 38 34 39 35 40 36 42 37 43 38 44 99 45 39 46
REMARK SMILES IDX 98 47 40 48 41 49 42 50 92 51 43 52 97 53 91 54 93 55 44 56
REMARK SMILES IDX 96 57 90 58 89 59 45 61 77 62 57 63 76 64 58 65 61 66 75 67
REMARK SMILES IDX 94 68 59 69 60 70 74 72 95 73 62 74 46 75 47 76 55 77 48 78
REMARK SMILES IDX 49 79 53 80 56 81 50 82 51 83 54 84 52 85 78 86 79 87 87 88
REMARK SMILES IDX 80 89 81 90 85 91 88 92 82 93 83 94 86 95 84 96 63 97 64 98
REMARK SMILES IDX 72 99 65 100 66 101 70 102 73 103 67 104 68 105 71 106
REMARK SMILES IDX 69 107
REMARK H PARENT 27 7 20 22 17 32 34 41 93 60 61 71
REMARK Flexibility Score: inf
ROOT
ATOM      1  C   UNL     1      -6.227   9.533  -2.564  1.00  0.00     0.002 C 
ENDROOT
BRANCH   1   2
ATOM      2  C   UNL     1      -5.236   8.395  -2.283  1.00  0.00     0.021 C 
BRANCH   2   3
ATOM      3  C   UNL     1      -4.035   8.840  -1.445  1.00  0.00     0.116 C 
BRANCH   3   4
ATOM      4  N   UNL     1      -4.417   8.945  -0.050  1.00  0.00    -0.352 N 
ATOM      5  C   UNL     1      -4.166   8.143   1.033  1.00  0.00     0.251 C 
ATOM      6  O   UNL     1      -4.610   8.488   2.127  1.00  0.00    -0.269 OA
ATOM      7  H   UNL     1      -4.957   9.741   0.159  1.00  0.00     0.163 HD
BRANCH   5   8
ATOM      8  C   UNL     1      -3.331   6.916   0.944  1.00  0.00     0.040 A 
ATOM      9  C   UNL     1      -1.601   4.698   0.874  1.00  0.00     0.125 A 
ATOM     10  C   UNL     1      -1.703   5.467   2.032  1.00  0.00     0.052 A 
ATOM     11  C   UNL     1      -2.434   4.989  -0.210  1.00  0.00     0.052 A 
ATOM     12  C   UNL     1      -2.559   6.574   2.065  1.00  0.00     0.018 A 
ATOM     13  C   UNL     1      -3.305   6.077  -0.170  1.00  0.00     0.018 A 
BRANCH   9  14
ATOM     14  N   UNL     1      -0.764   3.579   0.825  1.00  0.00    -0.234 N 
ATOM     15  N   UNL     1       1.002   2.406  -0.153  1.00  0.00    -0.186 N 
ATOM     16  C   UNL     1       2.064   2.506  -1.027  1.00  0.00     0.348 C 
ATOM     17  C   UNL     1       0.263   3.552   0.038  1.00  0.00     0.324 C 
ATOM     18  O   UNL     1       2.857   1.623  -1.335  1.00  0.00    -0.240 OA
ATOM     19  C   UNL     1       2.137   3.881  -1.598  1.00  0.00     0.110 C 
ATOM     20  S   UNL     1       0.892   4.861  -0.936  1.00  0.00     0.007 SA
ATOM     21  C   UNL     1       3.063   4.234  -2.502  1.00  0.00     0.036 C 
ATOM     22  H   UNL     1      -0.958   2.801   1.396  1.00  0.00     0.313 HD
BRANCH  15  23
ATOM     23  C   UNL     1       0.667   1.195   0.594  1.00  0.00     0.244 C 
ATOM     24  C   UNL     1       1.029  -0.133  -0.049  1.00  0.00     0.055 C 
ENDBRANCH  15  23
BRANCH  21  25
ATOM     25  C   UNL     1       3.234   5.589  -3.048  1.00  0.00     0.024 A 
ATOM     26  C   UNL     1       2.906   5.838  -4.387  1.00  0.00     0.097 A 
ATOM     27  C   UNL     1       3.715   6.644  -2.254  1.00  0.00     0.123 A 
ATOM     28  C   UNL     1       3.035   7.138  -4.901  1.00  0.00     0.270 A 
ATOM     29  C   UNL     1       3.841   7.935  -2.765  1.00  0.00     0.054 A 
ATOM     30  C   UNL     1       3.496   8.188  -4.094  1.00  0.00     0.089 A 
BRANCH  27  31
ATOM     31  O   UNL     1       4.070   6.391  -0.956  1.00  0.00    -0.507 OA
ATOM     32  H   UNL     1       3.987   5.525  -0.608  1.00  0.00     0.293 HD
ENDBRANCH  27  31
BRANCH  28  33
ATOM     33  N   UNL     1       2.674   7.409  -6.299  1.00  0.00     0.062 N 
ATOM     34  O   UNL     1       2.332   6.448  -7.003  1.00  0.00    -0.258 OA
ATOM     35  O   UNL     1       2.723   8.584  -6.689  1.00  0.00    -0.258 OA
ENDBRANCH  28  33
ENDBRANCH  21  25
ENDBRANCH   9  14
ENDBRANCH   5   8
ENDBRANCH   3   4
ENDBRANCH   2   3
ENDBRANCH   1   2
BRANCH   1  36
ATOM     36  C   UNL     1      -5.650  10.691  -3.386  1.00  0.00     0.002 C 
BRANCH  36  37
ATOM     37  C   UNL     1      -5.045  10.281  -4.731  1.00  0.00     0.021 C 
BRANCH  37  38
ATOM     38  C   UNL     1      -6.042   9.635  -5.685  1.00  0.00     0.116 C 
BRANCH  38  39
ATOM     39  N   UNL     1      -7.090  10.567  -6.074  1.00  0.00    -0.352 N 
ATOM     40  C   UNL     1      -7.444  11.000  -7.326  1.00  0.00     0.251 C 
ATOM     41  H   UNL     1      -7.620  10.939  -5.333  1.00  0.00     0.163 HD
ATOM     42  O   UNL     1      -8.178  11.973  -7.462  1.00  0.00    -0.269 OA
BRANCH  40  43
ATOM     43  C   UNL     1      -6.930  10.291  -8.515  1.00  0.00     0.039 A 
ATOM     44  C   UNL     1      -6.468  11.034  -9.603  1.00  0.00     0.014 A 
ATOM     45  C   UNL     1      -6.913   8.894  -8.555  1.00  0.00     0.014 A 
ATOM     46  C   UNL     1      -5.940  10.374 -10.713  1.00  0.00     0.010 A 
ATOM     47  C   UNL     1      -6.311   8.241  -9.624  1.00  0.00     0.010 A 
ATOM     48  C   UNL     1      -5.829   8.974 -10.718  1.00  0.00    -0.014 A 
BRANCH  48  49
ATOM     49  C   UNL     1      -5.212   8.257 -11.862  1.00  0.00     0.031 A 
ATOM     50  C   UNL     1      -6.029   7.301 -12.684  1.00  0.00     0.074 A 
ATOM     51  C   UNL     1      -3.901   8.420 -12.117  1.00  0.00     0.049 A 
ATOM     52  N   UNL     1      -5.662   6.549 -13.691  1.00  0.00    -0.248 NA
ATOM     53  C   UNL     1      -7.442   7.146 -12.305  1.00  0.00     0.031 C 
ATOM     54  C   UNL     1      -2.995   9.285 -11.361  1.00  0.00     0.029 A 
ATOM     55  N   UNL     1      -3.101   7.861 -13.082  1.00  0.00    -0.354 N 
ATOM     56  C   UNL     1      -6.789   5.824 -14.052  1.00  0.00     0.074 A 
ATOM     57  C   UNL     1      -7.836   6.179 -13.118  1.00  0.00     0.031 C 
ATOM     58  C   UNL     1      -1.772   9.227 -11.912  1.00  0.00     0.029 A 
ATOM     59  C   UNL     1      -1.798   8.290 -13.030  1.00  0.00     0.049 A 
ATOM     60  H   UNL     1      -3.430   7.213 -13.746  1.00  0.00     0.167 HD
ATOM     61  C   UNL     1      -6.944   4.958 -15.082  1.00  0.00     0.037 A 
ATOM     62  C   UNL     1      -0.743   7.961 -13.799  1.00  0.00     0.037 A 
ATOM     63  C   UNL     1      -5.899   4.620 -16.014  1.00  0.00     0.049 A 
ATOM     64  C   UNL     1      -0.932   6.977 -14.920  1.00  0.00     0.074 A 
ATOM     65  C   UNL     1      -5.968   3.808 -17.131  1.00  0.00     0.029 A 
ATOM     66  N   UNL     1      -4.587   5.067 -15.925  1.00  0.00    -0.354 N 
ATOM     67  N   UNL     1      -2.021   6.359 -15.306  1.00  0.00    -0.248 NA
ATOM     68  C   UNL     1       0.259   6.648 -15.715  1.00  0.00     0.031 C 
ATOM     69  C   UNL     1      -4.684   3.710 -17.680  1.00  0.00     0.029 A 
ATOM     70  C   UNL     1      -3.829   4.517 -16.947  1.00  0.00     0.049 A 
ATOM     71  H   UNL     1      -4.246   5.685 -15.238  1.00  0.00     0.167 HD
ATOM     72  C   UNL     1      -1.658   5.593 -16.406  1.00  0.00     0.074 A 
ATOM     73  C   UNL     1      -0.247   5.836 -16.633  1.00  0.00     0.031 C 
ATOM     74  C   UNL     1      -2.424   4.767 -17.161  1.00  0.00     0.037 A 
BRANCH  61  75
ATOM     75  C   UNL     1      -8.289   4.303 -15.238  1.00  0.00     0.064 A 
ATOM     76  C   UNL     1      -9.438   5.037 -15.577  1.00  0.00     0.173 A 
ATOM     77  C   UNL     1      -8.433   2.921 -15.046  1.00  0.00     0.173 A 
ATOM     78  F   UNL     1      -9.361   6.364 -15.764  1.00  0.00    -0.203 F 
ATOM     79  C   UNL     1     -10.684   4.421 -15.666  1.00  0.00     0.198 A 
ATOM     80  C   UNL     1      -9.674   2.302 -15.175  1.00  0.00     0.198 A 
ATOM     81  F   UNL     1      -7.370   2.167 -14.729  1.00  0.00    -0.203 F 
ATOM     82  F   UNL     1     -11.776   5.157 -15.917  1.00  0.00    -0.200 F 
ATOM     83  C   UNL     1     -10.800   3.054 -15.470  1.00  0.00     0.200 A 
ATOM     84  F   UNL     1      -9.781   0.977 -15.001  1.00  0.00    -0.200 F 
ATOM     85  F   UNL     1     -12.000   2.463 -15.554  1.00  0.00    -0.200 F 
ENDBRANCH  61  75
BRANCH  62  86
ATOM     86  C   UNL     1       0.574   8.607 -13.558  1.00  0.00     0.064 A 
ATOM     87  C   UNL     1       1.095   9.530 -14.475  1.00  0.00     0.173 A 
ATOM     88  C   UNL     1       1.327   8.334 -12.406  1.00  0.00     0.173 A 
ATOM     89  F   UNL     1       0.421   9.808 -15.601  1.00  0.00    -0.203 F 
ATOM     90  C   UNL     1       2.324  10.148 -14.255  1.00  0.00     0.198 A 
ATOM     91  C   UNL     1       2.543   8.973 -12.174  1.00  0.00     0.198 A 
ATOM     92  F   UNL     1       0.869   7.462 -11.497  1.00  0.00    -0.203 F 
ATOM     93  F   UNL     1       2.816  10.998 -15.167  1.00  0.00    -0.200 F 
ATOM     94  C   UNL     1       3.043   9.875 -13.101  1.00  0.00     0.200 A 
ATOM     95  F   UNL     1       3.230   8.718 -11.053  1.00  0.00    -0.200 F 
ATOM     96  F   UNL     1       4.221  10.477 -12.887  1.00  0.00    -0.200 F 
ENDBRANCH  62  86
BRANCH  74  97
ATOM     97  C   UNL     1      -1.763   4.090 -18.329  1.00  0.00     0.064 A 
ATOM     98  C   UNL     1      -0.808   3.077 -18.155  1.00  0.00     0.173 A 
ATOM     99  C   UNL     1      -2.119   4.436 -19.642  1.00  0.00     0.173 A 
ATOM    100  F   UNL     1      -0.421   2.718 -16.922  1.00  0.00    -0.203 F 
ATOM    101  C   UNL     1      -0.214   2.457 -19.252  1.00  0.00     0.198 A 
ATOM    102  C   UNL     1      -1.551   3.788 -20.735  1.00  0.00     0.198 A 
ATOM    103  F   UNL     1      -3.032   5.393 -19.866  1.00  0.00    -0.203 F 
ATOM    104  F   UNL     1       0.735   1.530 -19.062  1.00  0.00    -0.200 F 
ATOM    105  C   UNL     1      -0.592   2.806 -20.540  1.00  0.00     0.200 A 
ATOM    106  F   UNL     1      -1.930   4.116 -21.978  1.00  0.00    -0.200 F 
ATOM    107  F   UNL     1      -0.027   2.201 -21.593  1.00  0.00    -0.200 F 
ENDBRANCH  74  97
ENDBRANCH  48  49
ENDBRANCH  40  43
ENDBRANCH  38  39
ENDBRANCH  37  38
ENDBRANCH  36  37
ENDBRANCH   1  36
TORSDOF 18
