REMARK SMILES CC(C)c1ccc(OCC[C@H]2CCC[C@@]2([NH3+])C(=O)NCCCCCCNC(=O)c2ccc(-c3c4nc(c(-c5c(F)c(F)c(F)c(F)c5F)c5ccc([nH]5)c(-c5c(F)c(F)c(F)c(F)c5F)c5nc(c(-c6c(F)c(F)c(F)c(F)c6F)c6ccc3[nH]6)C=C5)C=C4)cc2)cc1
REMARK SMILES IDX 21 1 20 2 19 3 17 4 18 5 15 7 11 8 12 9 13 10 14 11 10 12
REMARK SMILES IDX 9 13 8 14 7 15 4 16 5 17 93 18 6 19 92 20 2 21 1 22 3 23
REMARK SMILES IDX 16 24 22 28 23 29 24 30 25 31 26 32 27 33 28 35 29 36 30 37
REMARK SMILES IDX 91 38 31 39 90 40 32 41 33 42 34 43 84 44 35 45 89 46 83 47
REMARK SMILES IDX 85 48 36 49 88 50 82 51 81 52 37 54 69 55 49 56 68 57 50 58
REMARK SMILES IDX 53 59 67 60 86 61 51 62 52 63 66 65 87 66 54 67 38 68 39 69
REMARK SMILES IDX 47 70 40 71 41 72 45 73 48 74 42 75 43 76 46 77 44 78 70 79
REMARK SMILES IDX 71 80 79 81 72 82 73 83 77 84 80 85 74 86 75 87 78 88 76 89
REMARK SMILES IDX 55 90 56 91 64 92 57 93 58 94 62 95 65 96 59 97 60 98 63 99
REMARK SMILES IDX 61 100
REMARK H PARENT 19 6 16 25 16 26 16 27 26 34 85 53 53 64
REMARK Flexibility Score: inf
ROOT
ATOM      1  C   UNL     1      -4.119   3.912   1.711  1.00  0.00     0.021 C 
ENDROOT
BRANCH   1   2
ATOM      2  C   UNL     1      -4.957   3.537   0.481  1.00  0.00     0.116 C 
BRANCH   2   3
ATOM      3  N   UNL     1      -4.120   3.189  -0.650  1.00  0.00    -0.351 N 
ATOM      4  C   UNL     1      -3.450   2.031  -0.932  1.00  0.00     0.281 C 
ATOM      5  O   UNL     1      -2.709   2.058  -1.922  1.00  0.00    -0.268 OA
ATOM      6  H   UNL     1      -4.018   3.900  -1.323  1.00  0.00     0.163 HD
BRANCH   4   7
ATOM      7  C   UNL     1      -3.544   0.766  -0.031  1.00  0.00     0.176 C 
ATOM      8  C   UNL     1      -3.955  -0.575  -0.728  1.00  0.00     0.064 C 
ATOM      9  C   UNL     1      -3.646  -1.554   0.403  1.00  0.00     0.011 C 
ATOM     10  C   UNL     1      -2.397  -0.992   1.117  1.00  0.00     0.008 C 
ATOM     11  C   UNL     1      -2.174   0.405   0.539  1.00  0.00     0.079 C 
BRANCH   8  12
ATOM     12  C   UNL     1      -3.339  -1.007  -2.105  1.00  0.00     0.052 C 
BRANCH  12  13
ATOM     13  C   UNL     1      -2.045  -1.864  -2.226  1.00  0.00     0.230 C 
BRANCH  13  14
ATOM     14  O   UNL     1      -2.249  -3.294  -2.341  1.00  0.00    -0.494 OA
BRANCH  14  15
ATOM     15  C   UNL     1      -2.156  -4.062  -1.213  1.00  0.00     0.119 A 
ATOM     16  C   UNL     1      -2.839  -5.070   1.313  1.00  0.00    -0.045 A 
ATOM     17  C   UNL     1      -3.388  -5.629   0.152  1.00  0.00     0.008 A 
ATOM     18  C   UNL     1      -1.705  -4.261   1.146  1.00  0.00     0.008 A 
ATOM     19  C   UNL     1      -3.056  -5.118  -1.108  1.00  0.00     0.047 A 
ATOM     20  C   UNL     1      -1.340  -3.788  -0.126  1.00  0.00     0.047 A 
BRANCH  16  21
ATOM     21  C   UNL     1      -3.479  -5.229   2.693  1.00  0.00     0.013 C 
ATOM     22  C   UNL     1      -3.776  -3.857   3.340  1.00  0.00     0.012 C 
ATOM     23  C   UNL     1      -4.809  -6.001   2.691  1.00  0.00     0.012 C 
ENDBRANCH  16  21
ENDBRANCH  14  15
ENDBRANCH  13  14
ENDBRANCH  12  13
ENDBRANCH   8  12
BRANCH   7  24
ATOM     24  N   UNL     1      -4.450   0.972   1.143  1.00  0.00    -0.345 N 
ATOM     25  H   UNL     1      -4.481   0.120   1.703  1.00  0.00     0.345 HD
ATOM     26  H   UNL     1      -5.389   1.196   0.813  1.00  0.00     0.345 HD
ATOM     27  H   UNL     1      -4.098   1.741   1.713  1.00  0.00     0.345 HD
ENDBRANCH   7  24
ENDBRANCH   4   7
ENDBRANCH   2   3
ENDBRANCH   1   2
BRANCH   1  28
ATOM     28  C   UNL     1      -3.636   5.364   1.677  1.00  0.00     0.002 C 
BRANCH  28  29
ATOM     29  C   UNL     1      -4.763   6.384   1.486  1.00  0.00     0.002 C 
BRANCH  29  30
ATOM     30  C   UNL     1      -5.913   6.234   2.487  1.00  0.00     0.021 C 
BRANCH  30  31
ATOM     31  C   UNL     1      -5.485   6.507   3.922  1.00  0.00     0.116 C 
BRANCH  31  32
ATOM     32  N   UNL     1      -5.037   7.885   4.061  1.00  0.00    -0.352 N 
ATOM     33  C   UNL     1      -5.646   8.914   4.733  1.00  0.00     0.251 C 
ATOM     34  H   UNL     1      -4.187   8.107   3.616  1.00  0.00     0.163 HD
ATOM     35  O   UNL     1      -5.389  10.079   4.471  1.00  0.00    -0.269 OA
BRANCH  33  36
ATOM     36  C   UNL     1      -6.613   8.579   5.794  1.00  0.00     0.039 A 
ATOM     37  C   UNL     1      -7.821   9.273   5.868  1.00  0.00     0.014 A 
ATOM     38  C   UNL     1      -6.309   7.568   6.710  1.00  0.00     0.014 A 
ATOM     39  C   UNL     1      -8.753   8.914   6.840  1.00  0.00     0.010 A 
ATOM     40  C   UNL     1      -7.268   7.160   7.625  1.00  0.00     0.010 A 
ATOM     41  C   UNL     1      -8.495   7.835   7.703  1.00  0.00    -0.014 A 
BRANCH  41  42
ATOM     42  C   UNL     1      -9.493   7.388   8.702  1.00  0.00     0.031 A 
ATOM     43  C   UNL     1      -9.174   7.476  10.166  1.00  0.00     0.074 A 
ATOM     44  C   UNL     1     -10.642   6.827   8.282  1.00  0.00     0.049 A 
ATOM     45  N   UNL     1      -9.863   7.043  11.191  1.00  0.00    -0.248 NA
ATOM     46  C   UNL     1      -7.895   8.108  10.527  1.00  0.00     0.031 C 
ATOM     47  C   UNL     1     -11.035   6.650   6.883  1.00  0.00     0.029 A 
ATOM     48  N   UNL     1     -11.684   6.286   8.991  1.00  0.00    -0.354 N 
ATOM     49  C   UNL     1      -9.098   7.338  12.310  1.00  0.00     0.074 A 
ATOM     50  C   UNL     1      -7.867   7.935  11.840  1.00  0.00     0.031 C 
ATOM     51  C   UNL     1     -12.239   6.059   6.837  1.00  0.00     0.029 A 
ATOM     52  C   UNL     1     -12.680   5.772   8.198  1.00  0.00     0.049 A 
ATOM     53  H   UNL     1     -11.715   6.268   9.975  1.00  0.00     0.167 HD
ATOM     54  C   UNL     1      -9.407   7.147  13.614  1.00  0.00     0.037 A 
ATOM     55  C   UNL     1     -13.811   5.126   8.534  1.00  0.00     0.037 A 
ATOM     56  C   UNL     1     -10.643   6.569  14.070  1.00  0.00     0.049 A 
ATOM     57  C   UNL     1     -14.118   4.903   9.990  1.00  0.00     0.074 A 
ATOM     58  C   UNL     1     -11.083   6.389  15.369  1.00  0.00     0.029 A 
ATOM     59  N   UNL     1     -11.635   6.068  13.238  1.00  0.00    -0.354 N 
ATOM     60  N   UNL     1     -13.422   5.251  11.046  1.00  0.00    -0.248 NA
ATOM     61  C   UNL     1     -15.368   4.197  10.303  1.00  0.00     0.031 C 
ATOM     62  C   UNL     1     -12.313   5.725  15.325  1.00  0.00     0.029 A 
ATOM     63  C   UNL     1     -12.671   5.548  13.998  1.00  0.00     0.049 A 
ATOM     64  H   UNL     1     -11.607   6.081  12.254  1.00  0.00     0.167 HD
ATOM     65  C   UNL     1     -14.160   4.834  12.145  1.00  0.00     0.074 A 
ATOM     66  C   UNL     1     -15.367   4.221  11.628  1.00  0.00     0.031 C 
ATOM     67  C   UNL     1     -13.866   4.946  13.463  1.00  0.00     0.037 A 
BRANCH  54  68
ATOM     68  C   UNL     1      -8.392   7.564  14.640  1.00  0.00     0.064 A 
ATOM     69  C   UNL     1      -8.085   8.914  14.869  1.00  0.00     0.173 A 
ATOM     70  C   UNL     1      -7.746   6.602  15.431  1.00  0.00     0.173 A 
ATOM     71  F   UNL     1      -8.665   9.873  14.133  1.00  0.00    -0.203 F 
ATOM     72  C   UNL     1      -7.148   9.283  15.831  1.00  0.00     0.198 A 
ATOM     73  C   UNL     1      -6.835   6.977  16.415  1.00  0.00     0.198 A 
ATOM     74  F   UNL     1      -8.005   5.297  15.257  1.00  0.00    -0.203 F 
ATOM     75  F   UNL     1      -6.833  10.575  15.996  1.00  0.00    -0.200 F 
ATOM     76  C   UNL     1      -6.530   8.316  16.608  1.00  0.00     0.200 A 
ATOM     77  F   UNL     1      -6.250   6.041  17.175  1.00  0.00    -0.200 F 
ATOM     78  F   UNL     1      -5.636   8.673  17.541  1.00  0.00    -0.200 F 
ENDBRANCH  54  68
BRANCH  55  79
ATOM     79  C   UNL     1     -14.739   4.651   7.474  1.00  0.00     0.064 A 
ATOM     80  C   UNL     1     -16.008   5.226   7.317  1.00  0.00     0.173 A 
ATOM     81  C   UNL     1     -14.381   3.614   6.600  1.00  0.00     0.173 A 
ATOM     82  F   UNL     1     -16.404   6.208   8.140  1.00  0.00    -0.203 F 
ATOM     83  C   UNL     1     -16.892   4.764   6.345  1.00  0.00     0.198 A 
ATOM     84  C   UNL     1     -15.254   3.175   5.607  1.00  0.00     0.198 A 
ATOM     85  F   UNL     1     -13.176   3.034   6.702  1.00  0.00    -0.203 F 
ATOM     86  F   UNL     1     -18.118   5.297   6.250  1.00  0.00    -0.200 F 
ATOM     87  C   UNL     1     -16.513   3.744   5.486  1.00  0.00     0.200 A 
ATOM     88  F   UNL     1     -14.876   2.200   4.769  1.00  0.00    -0.200 F 
ATOM     89  F   UNL     1     -17.362   3.303   4.548  1.00  0.00    -0.200 F 
ENDBRANCH  55  79
BRANCH  67  90
ATOM     90  C   UNL     1     -14.877   4.422  14.442  1.00  0.00     0.064 A 
ATOM     91  C   UNL     1     -15.099   3.047  14.608  1.00  0.00     0.173 A 
ATOM     92  C   UNL     1     -15.596   5.308  15.260  1.00  0.00     0.173 A 
ATOM     93  F   UNL     1     -14.449   2.161  13.839  1.00  0.00    -0.203 F 
ATOM     94  C   UNL     1     -16.021   2.579  15.540  1.00  0.00     0.198 A 
ATOM     95  C   UNL     1     -16.492   4.835  16.215  1.00  0.00     0.198 A 
ATOM     96  F   UNL     1     -15.416   6.632  15.146  1.00  0.00    -0.203 F 
ATOM     97  F   UNL     1     -16.252   1.264  15.648  1.00  0.00    -0.200 F 
ATOM     98  C   UNL     1     -16.709   3.472  16.349  1.00  0.00     0.200 A 
ATOM     99  F   UNL     1     -17.142   5.698  17.007  1.00  0.00    -0.200 F 
ATOM    100  F   UNL     1     -17.586   3.018  17.255  1.00  0.00    -0.200 F 
ENDBRANCH  67  90
ENDBRANCH  41  42
ENDBRANCH  33  36
ENDBRANCH  31  32
ENDBRANCH  30  31
ENDBRANCH  29  30
ENDBRANCH  28  29
ENDBRANCH   1  28
TORSDOF 19
