REMARK SMILES CC[C@]1(C(=O)NCCCCCCNC(=O)c2ccc(-c3c4nc(c(-c5c(F)c(F)c(F)c(F)c5F)c5ccc([nH]5)c(-c5c(F)c(F)c(F)c(F)c5F)c5nc(c(-c6c(F)c(F)c(F)c(F)c6F)c6ccc3[nH]6)C=C5)C=C4)cc2)CCC[N@@H+]([C@@H]2CCC[C@H](S(C)(=O)=O)C2)C1
REMARK SMILES IDX 9 1 8 2 7 3 6 4 4 5 5 6 3 8 79 9 93 10 80 11 82 12 81 13
REMARK SMILES IDX 2 15 1 16 83 17 84 18 92 19 85 20 87 21 86 22 88 23 89 24
REMARK SMILES IDX 90 25 91 26 10 27 11 28 12 29 13 30 14 31 15 33 16 34 17 35
REMARK SMILES IDX 78 36 18 37 77 38 19 39 20 40 21 41 71 42 22 43 76 44 70 45
REMARK SMILES IDX 72 46 23 47 75 48 69 49 68 50 24 52 56 53 36 54 55 55 37 56
REMARK SMILES IDX 40 57 54 58 73 59 38 60 39 61 53 63 74 64 41 65 25 66 26 67
REMARK SMILES IDX 34 68 27 69 28 70 32 71 35 72 29 73 30 74 33 75 31 76 57 77
REMARK SMILES IDX 58 78 66 79 59 80 60 81 64 82 67 83 61 84 62 85 65 86 63 87
REMARK SMILES IDX 42 88 43 89 51 90 44 91 45 92 49 93 52 94 46 95 47 96 50 97
REMARK SMILES IDX 48 98
REMARK H PARENT 6 7 82 14 13 32 72 51 40 62
REMARK Flexibility Score: inf
ROOT
ATOM      1  C   UNL     1       3.143   6.197  -2.196  1.00  0.00     0.002 C 
ENDROOT
BRANCH   1   2
ATOM      2  C   UNL     1       3.716   5.302  -1.088  1.00  0.00     0.021 C 
BRANCH   2   3
ATOM      3  C   UNL     1       2.664   4.603  -0.234  1.00  0.00     0.116 C 
BRANCH   3   4
ATOM      4  N   UNL     1       2.041   3.508  -0.934  1.00  0.00    -0.355 N 
ATOM      5  C   UNL     1       1.210   2.525  -0.508  1.00  0.00     0.231 C 
ATOM      6  O   UNL     1       0.645   1.920  -1.426  1.00  0.00    -0.274 OA
ATOM      7  H   UNL     1       2.258   3.466  -1.894  1.00  0.00     0.163 HD
BRANCH   5   8
ATOM      8  C   UNL     1       0.907   2.223   0.989  1.00  0.00     0.098 C 
ATOM      9  C   UNL     1       2.148   1.879   1.841  1.00  0.00     0.028 C 
ATOM     10  C   UNL     1       0.145   3.473   1.569  1.00  0.00     0.279 C 
ATOM     11  C   UNL     1       1.834   2.009   3.331  1.00  0.00     0.063 C 
ATOM     12  N   UNL     1       0.522   4.083   2.861  1.00  0.00    -0.332 N 
ATOM     13  C   UNL     1       1.568   3.467   3.662  1.00  0.00     0.262 C 
ATOM     14  H   UNL     1      -0.265   3.774   3.432  1.00  0.00     0.348 HD
BRANCH   8  15
ATOM     15  C   UNL     1      -0.050   0.965   1.020  1.00  0.00     0.019 C 
ATOM     16  C   UNL     1       0.483  -0.310   0.342  1.00  0.00     0.005 C 
ENDBRANCH   8  15
BRANCH  12  17
ATOM     17  C   UNL     1       0.442   5.559   2.898  1.00  0.00     0.185 C 
ATOM     18  C   UNL     1       1.813   6.267   2.890  1.00  0.00     0.065 C 
ATOM     19  C   UNL     1      -0.365   6.091   4.101  1.00  0.00     0.084 C 
ATOM     20  C   UNL     1       1.645   7.768   2.722  1.00  0.00     0.007 C 
ATOM     21  C   UNL     1      -0.518   7.630   4.026  1.00  0.00     0.114 C 
ATOM     22  C   UNL     1       0.827   8.348   3.860  1.00  0.00     0.020 C 
BRANCH  21  23
ATOM     23  S   UNL     1      -1.397   8.252   5.471  1.00  0.00     0.150 S 
ATOM     24  C   UNL     1      -1.540  10.005   5.181  1.00  0.00     0.158 C 
ATOM     25  O   UNL     1      -2.744   7.711   5.435  1.00  0.00    -0.229 OA
ATOM     26  O   UNL     1      -0.554   8.072   6.634  1.00  0.00    -0.229 OA
ENDBRANCH  21  23
ENDBRANCH  12  17
ENDBRANCH   5   8
ENDBRANCH   3   4
ENDBRANCH   2   3
ENDBRANCH   1   2
BRANCH   1  27
ATOM     27  C   UNL     1       2.254   7.355  -1.728  1.00  0.00     0.002 C 
BRANCH  27  28
ATOM     28  C   UNL     1       2.841   8.226  -0.620  1.00  0.00     0.021 C 
BRANCH  28  29
ATOM     29  C   UNL     1       4.220   8.806  -0.890  1.00  0.00     0.116 C 
BRANCH  29  30
ATOM     30  N   UNL     1       4.248   9.680  -2.045  1.00  0.00    -0.352 N 
ATOM     31  C   UNL     1       4.795  10.931  -2.178  1.00  0.00     0.251 C 
ATOM     32  H   UNL     1       3.811   9.324  -2.852  1.00  0.00     0.163 HD
ATOM     33  O   UNL     1       4.596  11.577  -3.203  1.00  0.00    -0.269 OA
BRANCH  31  34
ATOM     34  C   UNL     1       5.601  11.521  -1.084  1.00  0.00     0.039 A 
ATOM     35  C   UNL     1       5.451  12.882  -0.807  1.00  0.00     0.014 A 
ATOM     36  C   UNL     1       6.518  10.760  -0.353  1.00  0.00     0.014 A 
ATOM     37  C   UNL     1       6.195  13.470   0.217  1.00  0.00     0.010 A 
ATOM     38  C   UNL     1       7.189  11.325   0.729  1.00  0.00     0.010 A 
ATOM     39  C   UNL     1       7.056  12.693   1.009  1.00  0.00    -0.014 A 
BRANCH  39  40
ATOM     40  C   UNL     1       7.858  13.312   2.096  1.00  0.00     0.031 A 
ATOM     41  C   UNL     1       9.362  13.309   2.018  1.00  0.00     0.074 A 
ATOM     42  C   UNL     1       7.238  13.854   3.162  1.00  0.00     0.049 A 
ATOM     43  N   UNL     1      10.238  13.783   2.870  1.00  0.00    -0.248 NA
ATOM     44  C   UNL     1       9.965  12.665   0.841  1.00  0.00     0.031 C 
ATOM     45  C   UNL     1       5.790  13.880   3.373  1.00  0.00     0.029 A 
ATOM     46  N   UNL     1       7.746  14.489   4.267  1.00  0.00    -0.354 N 
ATOM     47  C   UNL     1      11.485  13.486   2.335  1.00  0.00     0.074 A 
ATOM     48  C   UNL     1      11.257  12.731   1.123  1.00  0.00     0.031 C 
ATOM     49  C   UNL     1       5.525  14.529   4.519  1.00  0.00     0.029 A 
ATOM     50  C   UNL     1       6.783  14.930   5.141  1.00  0.00     0.049 A 
ATOM     51  H   UNL     1       8.711  14.617   4.419  1.00  0.00     0.167 HD
ATOM     52  C   UNL     1      12.710  13.837   2.795  1.00  0.00     0.037 A 
ATOM     53  C   UNL     1       6.903  15.583   6.313  1.00  0.00     0.037 A 
ATOM     54  C   UNL     1      12.932  14.606   3.991  1.00  0.00     0.049 A 
ATOM     55  C   UNL     1       8.277  15.950   6.808  1.00  0.00     0.074 A 
ATOM     56  C   UNL     1      14.130  15.051   4.522  1.00  0.00     0.029 A 
ATOM     57  N   UNL     1      11.929  15.042   4.846  1.00  0.00    -0.354 N 
ATOM     58  N   UNL     1       9.446  15.721   6.259  1.00  0.00    -0.248 NA
ATOM     59  C   UNL     1       8.346  16.681   8.080  1.00  0.00     0.031 C 
ATOM     60  C   UNL     1      13.857  15.708   5.726  1.00  0.00     0.029 A 
ATOM     61  C   UNL     1      12.484  15.734   5.910  1.00  0.00     0.049 A 
ATOM     62  H   UNL     1      10.966  14.883   4.715  1.00  0.00     0.167 HD
ATOM     63  C   UNL     1      10.383  16.314   7.095  1.00  0.00     0.074 A 
ATOM     64  C   UNL     1       9.645  16.925   8.180  1.00  0.00     0.031 C 
ATOM     65  C   UNL     1      11.734  16.351   6.975  1.00  0.00     0.037 A 
BRANCH  52  66
ATOM     66  C   UNL     1      13.906  13.393   1.999  1.00  0.00     0.064 A 
ATOM     67  C   UNL     1      14.177  13.911   0.722  1.00  0.00     0.173 A 
ATOM     68  C   UNL     1      14.812  12.464   2.532  1.00  0.00     0.173 A 
ATOM     69  F   UNL     1      13.338  14.793   0.159  1.00  0.00    -0.203 F 
ATOM     70  C   UNL     1      15.290  13.491  -0.002  1.00  0.00     0.198 A 
ATOM     71  C   UNL     1      15.943  12.073   1.820  1.00  0.00     0.198 A 
ATOM     72  F   UNL     1      14.606  11.939   3.749  1.00  0.00    -0.203 F 
ATOM     73  F   UNL     1      15.495  13.957  -1.242  1.00  0.00    -0.200 F 
ATOM     74  C   UNL     1      16.176  12.579   0.550  1.00  0.00     0.200 A 
ATOM     75  F   UNL     1      16.807  11.203   2.362  1.00  0.00    -0.200 F 
ATOM     76  F   UNL     1      17.252  12.182  -0.144  1.00  0.00    -0.200 F 
ENDBRANCH  52  66
BRANCH  53  77
ATOM     77  C   UNL     1       5.689  15.959   7.087  1.00  0.00     0.064 A 
ATOM     78  C   UNL     1       5.328  17.304   7.256  1.00  0.00     0.173 A 
ATOM     79  C   UNL     1       4.878  14.988   7.690  1.00  0.00     0.173 A 
ATOM     80  F   UNL     1       6.080  18.273   6.713  1.00  0.00    -0.203 F 
ATOM     81  C   UNL     1       4.222  17.663   8.024  1.00  0.00     0.198 A 
ATOM     82  C   UNL     1       3.752  15.346   8.429  1.00  0.00     0.198 A 
ATOM     83  F   UNL     1       5.171  13.686   7.552  1.00  0.00    -0.203 F 
ATOM     84  F   UNL     1       3.934  18.957   8.216  1.00  0.00    -0.200 F 
ATOM     85  C   UNL     1       3.432  16.683   8.606  1.00  0.00     0.200 A 
ATOM     86  F   UNL     1       2.980  14.395   8.972  1.00  0.00    -0.200 F 
ATOM     87  F   UNL     1       2.367  17.028   9.342  1.00  0.00    -0.200 F 
ENDBRANCH  53  77
BRANCH  65  88
ATOM     88  C   UNL     1      12.496  17.130   8.010  1.00  0.00     0.064 A 
ATOM     89  C   UNL     1      12.594  16.701   9.342  1.00  0.00     0.173 A 
ATOM     90  C   UNL     1      13.159  18.315   7.653  1.00  0.00     0.173 A 
ATOM     91  F   UNL     1      11.970  15.582   9.739  1.00  0.00    -0.203 F 
ATOM     92  C   UNL     1      13.290  17.452  10.286  1.00  0.00     0.198 A 
ATOM     93  C   UNL     1      13.886  19.042   8.591  1.00  0.00     0.198 A 
ATOM     94  F   UNL     1      13.107  18.765   6.390  1.00  0.00    -0.203 F 
ATOM     95  F   UNL     1      13.314  17.058  11.567  1.00  0.00    -0.200 F 
ATOM     96  C   UNL     1      13.941  18.617   9.909  1.00  0.00     0.200 A 
ATOM     97  F   UNL     1      14.530  20.157   8.219  1.00  0.00    -0.200 F 
ATOM     98  F   UNL     1      14.614  19.336  10.818  1.00  0.00    -0.200 F 
ENDBRANCH  65  88
ENDBRANCH  39  40
ENDBRANCH  31  34
ENDBRANCH  29  30
ENDBRANCH  28  29
ENDBRANCH  27  28
ENDBRANCH   1  27
TORSDOF 16
