REMARK SMILES Cc1noc(C)c1[C@H](C)NC(=O)NC[C@@](C)(O)C(=O)NCCCCCCNC(=O)c1ccc(-c2c3nc(c(-c4c(F)c(F)c(F)c(F)c4F)c4ccc([nH]4)c(-c4c(F)c(F)c(F)c(F)c4F)c4nc(c(-c5c(F)c(F)c(F)c(F)c5F)c5ccc2[nH]5)C=C4)C=C3)cc1
REMARK SMILES IDX 22 1 21 2 20 3 18 4 19 5 15 7 16 8 14 9 13 10 10 11 11 12
REMARK SMILES IDX 12 14 8 16 9 17 7 18 1 19 2 20 3 21 4 22 5 23 6 24 17 25
REMARK SMILES IDX 23 27 24 28 25 29 26 30 27 31 28 32 29 34 30 35 31 36 92 37
REMARK SMILES IDX 32 38 91 39 33 40 34 41 35 42 85 43 36 44 90 45 84 46 86 47
REMARK SMILES IDX 37 48 89 49 83 50 82 51 38 53 70 54 50 55 69 56 51 57 54 58
REMARK SMILES IDX 68 59 87 60 52 61 53 62 67 64 88 65 55 66 39 67 40 68 48 69
REMARK SMILES IDX 41 70 42 71 46 72 49 73 43 74 44 75 47 76 45 77 71 78 72 79
REMARK SMILES IDX 80 80 73 81 74 82 78 83 81 84 75 85 76 86 79 87 77 88 56 89
REMARK SMILES IDX 57 90 65 91 58 92 59 93 63 94 66 95 60 96 61 97 64 98 62 99
REMARK H PARENT 20 6 10 13 13 15 17 26 27 33 86 52 54 63
REMARK Flexibility Score: inf
ROOT
ATOM      1  C   UNL     1       2.815   7.407  -3.196  1.00  0.00     0.021 C 
ENDROOT
BRANCH   1   2
ATOM      2  C   UNL     1       3.228   7.417  -1.725  1.00  0.00     0.116 C 
BRANCH   2   3
ATOM      3  N   UNL     1       2.115   7.185  -0.829  1.00  0.00    -0.354 N 
ATOM      4  C   UNL     1       1.917   6.241   0.141  1.00  0.00     0.253 C 
ATOM      5  O   UNL     1       0.920   6.417   0.843  1.00  0.00    -0.272 OA
ATOM      6  H   UNL     1       1.369   7.818  -0.936  1.00  0.00     0.163 HD
BRANCH   4   7
ATOM      7  C   UNL     1       2.957   5.108   0.398  1.00  0.00     0.157 C 
ATOM      8  C   UNL     1       4.115   5.757   1.175  1.00  0.00     0.055 C 
BRANCH   7   9
ATOM      9  C   UNL     1       2.442   3.861   1.188  1.00  0.00     0.162 C 
BRANCH   9  10
ATOM     10  N   UNL     1       1.296   3.997   2.062  1.00  0.00    -0.335 N 
ATOM     11  N   UNL     1      -0.616   3.302   0.840  1.00  0.00    -0.331 N 
ATOM     12  C   UNL     1      -0.023   3.794   1.935  1.00  0.00     0.315 C 
ATOM     13  H   UNL     1      -1.598   3.360   0.873  1.00  0.00     0.165 HD
ATOM     14  O   UNL     1      -0.737   4.066   2.904  1.00  0.00    -0.249 OA
ATOM     15  H   UNL     1       1.543   4.313   2.960  1.00  0.00     0.165 HD
BRANCH  11  16
ATOM     16  C   UNL     1      -0.119   2.701  -0.385  1.00  0.00     0.116 C 
ATOM     17  C   UNL     1       0.212   1.235  -0.113  1.00  0.00     0.036 C 
BRANCH  16  18
ATOM     18  C   UNL     1      -1.117   2.939  -1.486  1.00  0.00     0.040 A 
ATOM     19  C   UNL     1      -1.019   5.557  -1.599  1.00  0.00     0.071 C 
ATOM     20  C   UNL     1      -1.494   4.218  -2.010  1.00  0.00     0.086 A 
ATOM     21  N   UNL     1      -2.361   4.108  -3.021  1.00  0.00    -0.085 NA
ATOM     22  O   UNL     1      -2.567   2.761  -3.189  1.00  0.00    -0.361 OA
ATOM     23  C   UNL     1      -1.822   2.062  -2.292  1.00  0.00     0.139 A 
ATOM     24  C   UNL     1      -1.933   0.595  -2.420  1.00  0.00     0.091 C 
ENDBRANCH  16  18
ENDBRANCH  11  16
ENDBRANCH   9  10
ENDBRANCH   7   9
BRANCH   7  25
ATOM     25  O   UNL     1       3.468   4.596  -0.847  1.00  0.00    -0.378 OA
ATOM     26  H   UNL     1       4.112   3.894  -0.667  1.00  0.00     0.212 HD
ENDBRANCH   7  25
ENDBRANCH   4   7
ENDBRANCH   2   3
ENDBRANCH   1   2
BRANCH   1  27
ATOM     27  C   UNL     1       1.767   8.452  -3.601  1.00  0.00     0.002 C 
BRANCH  27  28
ATOM     28  C   UNL     1       2.045   9.895  -3.167  1.00  0.00     0.002 C 
BRANCH  28  29
ATOM     29  C   UNL     1       3.416  10.455  -3.550  1.00  0.00     0.021 C 
BRANCH  29  30
ATOM     30  C   UNL     1       3.723  10.454  -5.042  1.00  0.00     0.116 C 
BRANCH  30  31
ATOM     31  N   UNL     1       2.864  11.358  -5.789  1.00  0.00    -0.352 N 
ATOM     32  C   UNL     1       3.200  12.394  -6.623  1.00  0.00     0.251 C 
ATOM     33  H   UNL     1       1.897  11.204  -5.680  1.00  0.00     0.163 HD
ATOM     34  O   UNL     1       2.333  13.163  -7.032  1.00  0.00    -0.269 OA
BRANCH  32  35
ATOM     35  C   UNL     1       4.611  12.611  -7.014  1.00  0.00     0.039 A 
ATOM     36  C   UNL     1       5.118  13.914  -7.014  1.00  0.00     0.014 A 
ATOM     37  C   UNL     1       5.432  11.544  -7.390  1.00  0.00     0.014 A 
ATOM     38  C   UNL     1       6.461  14.137  -7.326  1.00  0.00     0.010 A 
ATOM     39  C   UNL     1       6.788  11.759  -7.623  1.00  0.00     0.010 A 
ATOM     40  C   UNL     1       7.319  13.058  -7.596  1.00  0.00    -0.014 A 
BRANCH  40  41
ATOM     41  C   UNL     1       8.769  13.270  -7.846  1.00  0.00     0.031 A 
ATOM     42  C   UNL     1       9.371  12.905  -9.176  1.00  0.00     0.074 A 
ATOM     43  C   UNL     1       9.555  13.737  -6.856  1.00  0.00     0.049 A 
ATOM     44  N   UNL     1      10.623  12.954  -9.560  1.00  0.00    -0.248 NA
ATOM     45  C   UNL     1       8.451  12.395 -10.205  1.00  0.00     0.031 C 
ATOM     46  C   UNL     1       9.101  14.090  -5.510  1.00  0.00     0.029 A 
ATOM     47  N   UNL     1      10.906  13.987  -6.824  1.00  0.00    -0.354 N 
ATOM     48  C   UNL     1      10.639  12.470 -10.862  1.00  0.00     0.074 A 
ATOM     49  C   UNL     1       9.284  12.086 -11.188  1.00  0.00     0.031 C 
ATOM     50  C   UNL     1      10.146  14.532  -4.793  1.00  0.00     0.029 A 
ATOM     51  C   UNL     1      11.353  14.452  -5.610  1.00  0.00     0.049 A 
ATOM     52  H   UNL     1      11.498  13.847  -7.598  1.00  0.00     0.167 HD
ATOM     53  C   UNL     1      11.688  12.376 -11.714  1.00  0.00     0.037 A 
ATOM     54  C   UNL     1      12.597  14.765  -5.199  1.00  0.00     0.037 A 
ATOM     55  C   UNL     1      13.030  12.787 -11.397  1.00  0.00     0.049 A 
ATOM     56  C   UNL     1      13.745  14.629  -6.165  1.00  0.00     0.074 A 
ATOM     57  C   UNL     1      14.146  12.792 -12.217  1.00  0.00     0.029 A 
ATOM     58  N   UNL     1      13.442  13.261 -10.161  1.00  0.00    -0.354 N 
ATOM     59  N   UNL     1      13.734  14.243  -7.418  1.00  0.00    -0.248 NA
ATOM     60  C   UNL     1      15.080  14.979  -5.660  1.00  0.00     0.031 C 
ATOM     61  C   UNL     1      15.244  13.210 -11.461  1.00  0.00     0.029 A 
ATOM     62  C   UNL     1      14.801  13.531 -10.188  1.00  0.00     0.049 A 
ATOM     63  H   UNL     1      12.855  13.387  -9.380  1.00  0.00     0.167 HD
ATOM     64  C   UNL     1      15.047  14.340  -7.859  1.00  0.00     0.074 A 
ATOM     65  C   UNL     1      15.826  14.837  -6.746  1.00  0.00     0.031 C 
ATOM     66  C   UNL     1      15.562  14.044  -9.078  1.00  0.00     0.037 A 
BRANCH  53  67
ATOM     67  C   UNL     1      11.434  11.807 -13.082  1.00  0.00     0.064 A 
ATOM     68  C   UNL     1      10.701  12.510 -14.049  1.00  0.00     0.173 A 
ATOM     69  C   UNL     1      11.996  10.575 -13.452  1.00  0.00     0.173 A 
ATOM     70  F   UNL     1      10.135  13.687 -13.744  1.00  0.00    -0.203 F 
ATOM     71  C   UNL     1      10.524  11.993 -15.330  1.00  0.00     0.198 A 
ATOM     72  C   UNL     1      11.844  10.076 -14.743  1.00  0.00     0.198 A 
ATOM     73  F   UNL     1      12.712   9.865 -12.568  1.00  0.00    -0.203 F 
ATOM     74  F   UNL     1       9.788  12.664 -16.226  1.00  0.00    -0.200 F 
ATOM     75  C   UNL     1      11.104  10.782 -15.679  1.00  0.00     0.200 A 
ATOM     76  F   UNL     1      12.420   8.915 -15.083  1.00  0.00    -0.200 F 
ATOM     77  F   UNL     1      10.949  10.295 -16.918  1.00  0.00    -0.200 F 
ENDBRANCH  53  67
BRANCH  54  78
ATOM     78  C   UNL     1      12.834  15.245  -3.810  1.00  0.00     0.064 A 
ATOM     79  C   UNL     1      13.284  16.551  -3.565  1.00  0.00     0.173 A 
ATOM     80  C   UNL     1      12.660  14.400  -2.704  1.00  0.00     0.173 A 
ATOM     81  F   UNL     1      13.486  17.393  -4.589  1.00  0.00    -0.203 F 
ATOM     82  C   UNL     1      13.587  16.979  -2.274  1.00  0.00     0.198 A 
ATOM     83  C   UNL     1      12.930  14.841  -1.410  1.00  0.00     0.198 A 
ATOM     84  F   UNL     1      12.228  13.142  -2.880  1.00  0.00    -0.203 F 
ATOM     85  F   UNL     1      14.081  18.209  -2.078  1.00  0.00    -0.200 F 
ATOM     86  C   UNL     1      13.406  16.125  -1.197  1.00  0.00     0.200 A 
ATOM     87  F   UNL     1      12.738  14.016  -0.371  1.00  0.00    -0.200 F 
ATOM     88  F   UNL     1      13.704  16.534   0.043  1.00  0.00    -0.200 F 
ENDBRANCH  54  78
BRANCH  66  89
ATOM     89  C   UNL     1      17.027  14.297  -9.291  1.00  0.00     0.064 A 
ATOM     90  C   UNL     1      18.012  13.516  -8.669  1.00  0.00     0.173 A 
ATOM     91  C   UNL     1      17.449  15.314 -10.162  1.00  0.00     0.173 A 
ATOM     92  F   UNL     1      17.663  12.541  -7.816  1.00  0.00    -0.203 F 
ATOM     93  C   UNL     1      19.365  13.763  -8.888  1.00  0.00     0.198 A 
ATOM     94  C   UNL     1      18.802  15.534 -10.406  1.00  0.00     0.198 A 
ATOM     95  F   UNL     1      16.548  16.085 -10.789  1.00  0.00    -0.203 F 
ATOM     96  F   UNL     1      20.289  13.040  -8.240  1.00  0.00    -0.200 F 
ATOM     97  C   UNL     1      19.758  14.765  -9.762  1.00  0.00     0.200 A 
ATOM     98  F   UNL     1      19.178  16.491 -11.265  1.00  0.00    -0.200 F 
ATOM     99  F   UNL     1      21.061  14.995  -9.978  1.00  0.00    -0.200 F 
ENDBRANCH  66  89
ENDBRANCH  40  41
ENDBRANCH  32  35
ENDBRANCH  30  31
ENDBRANCH  29  30
ENDBRANCH  28  29
ENDBRANCH  27  28
ENDBRANCH   1  27
TORSDOF 18
