REMARK SMILES O=C(NCCCCCCNC(=O)c1cccc(Nc2ccnc3ccc(F)cc23)c1)c1ccc(-c2c3nc(c(-c4c(F)c(F)c(F)c(F)c4F)c4ccc([nH]4)c(-c4c(F)c(F)c(F)c(F)c4F)c4nc(c(-c5c(F)c(F)c(F)c(F)c5F)c5ccc2[nH]5)C=C4)C=C3)cc1
REMARK SMILES IDX 6 1 5 2 4 3 3 4 1 5 2 6 31 8 32 9 93 10 33 11 92 12 34 13
REMARK SMILES IDX 35 14 36 15 86 16 37 17 91 18 85 19 87 20 38 21 90 22 84 23
REMARK SMILES IDX 83 24 39 26 71 27 51 28 70 29 52 30 55 31 69 32 88 33 53 34
REMARK SMILES IDX 54 35 68 37 89 38 56 39 40 40 41 41 49 42 42 43 43 44 47 45
REMARK SMILES IDX 50 46 44 47 45 48 48 49 46 50 72 51 73 52 81 53 74 54 75 55
REMARK SMILES IDX 79 56 82 57 76 58 77 59 80 60 78 61 57 62 58 63 66 64 59 65
REMARK SMILES IDX 60 66 64 67 67 68 61 69 62 70 65 71 63 72 7 73 8 74 9 75
REMARK SMILES IDX 10 76 11 77 12 79 13 80 14 81 30 82 15 83 17 84 16 85 18 86
REMARK SMILES IDX 19 88 20 89 29 90 21 91 23 92 28 93 22 94 24 95 26 96 25 97
REMARK SMILES IDX 27 98
REMARK H PARENT 3 7 87 25 55 36 10 78 18 87
REMARK Flexibility Score: inf
ROOT
ATOM      1  C   UNL     1       4.330   1.632  -3.732  1.00  0.00     0.002 C 
ENDROOT
BRANCH   1   2
ATOM      2  C   UNL     1       4.706   0.469  -2.817  1.00  0.00     0.021 C 
BRANCH   2   3
ATOM      3  C   UNL     1       4.451   0.698  -1.336  1.00  0.00     0.116 C 
BRANCH   3   4
ATOM      4  N   UNL     1       3.041   0.689  -0.987  1.00  0.00    -0.352 N 
ATOM      5  O   UNL     1       1.165  -0.043   0.038  1.00  0.00    -0.269 OA
ATOM      6  C   UNL     1       2.383  -0.069  -0.041  1.00  0.00     0.251 C 
ATOM      7  H   UNL     1       2.475   1.311  -1.499  1.00  0.00     0.163 HD
BRANCH   6   8
ATOM      8  C   UNL     1       3.165  -0.945   0.865  1.00  0.00     0.039 A 
ATOM      9  C   UNL     1       4.341  -0.485   1.457  1.00  0.00     0.014 A 
ATOM     10  C   UNL     1       2.722  -2.248   1.114  1.00  0.00     0.014 A 
ATOM     11  C   UNL     1       5.157  -1.370   2.147  1.00  0.00     0.010 A 
ATOM     12  C   UNL     1       3.493  -3.108   1.906  1.00  0.00     0.010 A 
ATOM     13  C   UNL     1       4.735  -2.687   2.402  1.00  0.00    -0.014 A 
BRANCH  13  14
ATOM     14  C   UNL     1       5.590  -3.550   3.260  1.00  0.00     0.031 A 
ATOM     15  C   UNL     1       6.230  -4.805   2.736  1.00  0.00     0.074 A 
ATOM     16  C   UNL     1       5.843  -3.137   4.518  1.00  0.00     0.049 A 
ATOM     17  N   UNL     1       7.071  -5.611   3.337  1.00  0.00    -0.248 NA
ATOM     18  C   UNL     1       5.882  -5.218   1.369  1.00  0.00     0.031 C 
ATOM     19  C   UNL     1       5.253  -1.951   5.144  1.00  0.00     0.029 A 
ATOM     20  N   UNL     1       6.680  -3.637   5.482  1.00  0.00    -0.354 N 
ATOM     21  C   UNL     1       7.346  -6.626   2.429  1.00  0.00     0.074 A 
ATOM     22  C   UNL     1       6.558  -6.354   1.246  1.00  0.00     0.031 C 
ATOM     23  C   UNL     1       5.794  -1.777   6.357  1.00  0.00     0.029 A 
ATOM     24  C   UNL     1       6.715  -2.875   6.623  1.00  0.00     0.049 A 
ATOM     25  H   UNL     1       7.204  -4.463   5.367  1.00  0.00     0.167 HD
ATOM     26  C   UNL     1       8.189  -7.678   2.570  1.00  0.00     0.037 A 
ATOM     27  C   UNL     1       7.402  -3.044   7.768  1.00  0.00     0.037 A 
ATOM     28  C   UNL     1       8.973  -7.942   3.751  1.00  0.00     0.049 A 
ATOM     29  C   UNL     1       8.325  -4.221   7.891  1.00  0.00     0.074 A 
ATOM     30  C   UNL     1       9.861  -8.979   3.986  1.00  0.00     0.029 A 
ATOM     31  N   UNL     1       8.963  -7.162   4.899  1.00  0.00    -0.354 N 
ATOM     32  N   UNL     1       8.595  -5.155   7.012  1.00  0.00    -0.248 NA
ATOM     33  C   UNL     1       9.038  -4.367   9.166  1.00  0.00     0.031 C 
ATOM     34  C   UNL     1      10.357  -8.848   5.288  1.00  0.00     0.029 A 
ATOM     35  C   UNL     1       9.818  -7.702   5.848  1.00  0.00     0.049 A 
ATOM     36  H   UNL     1       8.427  -6.345   5.021  1.00  0.00     0.167 HD
ATOM     37  C   UNL     1       9.510  -5.998   7.624  1.00  0.00     0.074 A 
ATOM     38  C   UNL     1       9.780  -5.440   8.933  1.00  0.00     0.031 C 
ATOM     39  C   UNL     1      10.066  -7.139   7.151  1.00  0.00     0.037 A 
BRANCH  26  40
ATOM     40  C   UNL     1       8.313  -8.636   1.418  1.00  0.00     0.064 A 
ATOM     41  C   UNL     1       8.983  -8.281   0.238  1.00  0.00     0.173 A 
ATOM     42  C   UNL     1       7.820  -9.947   1.522  1.00  0.00     0.173 A 
ATOM     43  F   UNL     1       9.465  -7.039   0.083  1.00  0.00    -0.203 F 
ATOM     44  C   UNL     1       9.141  -9.197  -0.801  1.00  0.00     0.198 A 
ATOM     45  C   UNL     1       8.003 -10.867   0.493  1.00  0.00     0.198 A 
ATOM     46  F   UNL     1       7.178 -10.341   2.632  1.00  0.00    -0.203 F 
ATOM     47  F   UNL     1       9.757  -8.824  -1.931  1.00  0.00    -0.200 F 
ATOM     48  C   UNL     1       8.660 -10.491  -0.669  1.00  0.00     0.200 A 
ATOM     49  F   UNL     1       7.549 -12.121   0.627  1.00  0.00    -0.200 F 
ATOM     50  F   UNL     1       8.826 -11.374  -1.663  1.00  0.00    -0.200 F 
ENDBRANCH  26  40
BRANCH  27  51
ATOM     51  C   UNL     1       7.225  -2.080   8.885  1.00  0.00     0.064 A 
ATOM     52  C   UNL     1       8.269  -1.240   9.294  1.00  0.00     0.173 A 
ATOM     53  C   UNL     1       6.001  -1.979   9.564  1.00  0.00     0.173 A 
ATOM     54  F   UNL     1       9.463  -1.310   8.688  1.00  0.00    -0.203 F 
ATOM     55  C   UNL     1       8.102  -0.351  10.354  1.00  0.00     0.198 A 
ATOM     56  C   UNL     1       5.824  -1.065  10.599  1.00  0.00     0.198 A 
ATOM     57  F   UNL     1       4.968  -2.755   9.205  1.00  0.00    -0.203 F 
ATOM     58  F   UNL     1       9.130   0.406  10.759  1.00  0.00    -0.200 F 
ATOM     59  C   UNL     1       6.878  -0.259  11.001  1.00  0.00     0.200 A 
ATOM     60  F   UNL     1       4.633  -0.966  11.205  1.00  0.00    -0.200 F 
ATOM     61  F   UNL     1       6.716   0.601  12.015  1.00  0.00    -0.200 F 
ENDBRANCH  27  51
BRANCH  39  62
ATOM     62  C   UNL     1      11.029  -7.846   8.060  1.00  0.00     0.064 A 
ATOM     63  C   UNL     1      10.592  -8.507   9.218  1.00  0.00     0.173 A 
ATOM     64  C   UNL     1      12.402  -7.859   7.773  1.00  0.00     0.173 A 
ATOM     65  F   UNL     1       9.291  -8.508   9.545  1.00  0.00    -0.203 F 
ATOM     66  C   UNL     1      11.500  -9.119  10.078  1.00  0.00     0.198 A 
ATOM     67  C   UNL     1      13.303  -8.500   8.618  1.00  0.00     0.198 A 
ATOM     68  F   UNL     1      12.870  -7.247   6.675  1.00  0.00    -0.203 F 
ATOM     69  F   UNL     1      11.068  -9.687  11.212  1.00  0.00    -0.200 F 
ATOM     70  C   UNL     1      12.854  -9.119   9.775  1.00  0.00     0.200 A 
ATOM     71  F   UNL     1      14.610  -8.508   8.319  1.00  0.00    -0.200 F 
ATOM     72  F   UNL     1      13.727  -9.704  10.606  1.00  0.00    -0.200 F 
ENDBRANCH  39  62
ENDBRANCH  13  14
ENDBRANCH   6   8
ENDBRANCH   3   4
ENDBRANCH   2   3
ENDBRANCH   1   2
BRANCH   1  73
ATOM     73  C   UNL     1       4.970   2.986  -3.407  1.00  0.00     0.002 C 
BRANCH  73  74
ATOM     74  C   UNL     1       6.486   2.999  -3.180  1.00  0.00     0.021 C 
BRANCH  74  75
ATOM     75  C   UNL     1       7.331   2.332  -4.261  1.00  0.00     0.116 C 
BRANCH  75  76
ATOM     76  N   UNL     1       7.184   2.960  -5.557  1.00  0.00    -0.352 N 
ATOM     77  C   UNL     1       7.988   3.847  -6.220  1.00  0.00     0.251 C 
ATOM     78  H   UNL     1       6.367   2.707  -6.043  1.00  0.00     0.163 HD
ATOM     79  O   UNL     1       7.587   4.346  -7.269  1.00  0.00    -0.269 OA
BRANCH  77  80
ATOM     80  C   UNL     1       9.321   4.231  -5.704  1.00  0.00     0.041 A 
ATOM     81  C   UNL     1       9.677   5.583  -5.779  1.00  0.00     0.014 A 
ATOM     82  C   UNL     1      10.273   3.279  -5.317  1.00  0.00     0.039 A 
ATOM     83  C   UNL     1      10.963   5.989  -5.431  1.00  0.00     0.003 A 
ATOM     84  C   UNL     1      11.572   3.679  -4.976  1.00  0.00     0.039 A 
ATOM     85  C   UNL     1      11.904   5.040  -5.037  1.00  0.00     0.026 A 
BRANCH  84  86
ATOM     86  N   UNL     1      12.610   2.721  -4.839  1.00  0.00    -0.355 N 
ATOM     87  H   UNL     1      12.709   2.212  -4.002  1.00  0.00     0.167 HD
BRANCH  86  88
ATOM     88  C   UNL     1      13.505   2.504  -5.925  1.00  0.00     0.050 A 
ATOM     89  C   UNL     1      12.981   2.038  -7.133  1.00  0.00     0.047 A 
ATOM     90  C   UNL     1      14.889   2.768  -5.824  1.00  0.00     0.027 A 
ATOM     91  C   UNL     1      13.820   1.935  -8.219  1.00  0.00     0.114 A 
ATOM     92  C   UNL     1      15.655   2.622  -7.005  1.00  0.00     0.072 A 
ATOM     93  C   UNL     1      15.530   3.183  -4.635  1.00  0.00     0.051 A 
ATOM     94  N   UNL     1      15.133   2.225  -8.175  1.00  0.00    -0.256 NA
ATOM     95  C   UNL     1      17.014   2.903  -6.966  1.00  0.00     0.032 A 
ATOM     96  C   UNL     1      16.897   3.433  -4.630  1.00  0.00     0.124 A 
ATOM     97  C   UNL     1      17.646   3.301  -5.788  1.00  0.00     0.041 A 
ATOM     98  F   UNL     1      17.500   3.807  -3.494  1.00  0.00    -0.207 F 
ENDBRANCH  86  88
ENDBRANCH  84  86
ENDBRANCH  77  80
ENDBRANCH  75  76
ENDBRANCH  74  75
ENDBRANCH  73  74
ENDBRANCH   1  73
TORSDOF 15
