REMARK SMILES O=C(CCc1cncc([C@@H]2CN(c3ccccc3)CCO2)n1)NCCCCCCNC(=O)c1ccc(-c2c3nc(c(-c4c(F)c(F)c(F)c(F)c4F)c4ccc([nH]4)c(-c4c(F)c(F)c(F)c(F)c4F)c4nc(c(-c5c(F)c(F)c(F)c(F)c5F)c5ccc2[nH]5)C=C4)C=C3)cc1
REMARK SMILES IDX 25 1 24 2 23 3 1 4 2 5 3 7 4 8 5 9 6 10 22 11 7 12 9 13 8 14
REMARK SMILES IDX 10 15 11 16 21 17 12 18 20 19 19 20 13 21 14 22 18 23 15 24
REMARK SMILES IDX 17 25 16 26 26 27 27 28 28 29 29 30 30 31 31 32 32 34 33 35
REMARK SMILES IDX 34 36 95 37 35 38 94 39 36 40 37 41 38 42 88 43 39 44 93 45
REMARK SMILES IDX 87 46 89 47 40 48 92 49 86 50 85 51 41 53 73 54 53 55 72 56
REMARK SMILES IDX 54 57 57 58 71 59 90 60 55 61 56 62 70 64 91 65 58 66 42 67
REMARK SMILES IDX 43 68 51 69 44 70 45 71 49 72 52 73 46 74 47 75 50 76 48 77
REMARK SMILES IDX 74 78 75 79 83 80 76 81 77 82 81 83 84 84 78 85 79 86 82 87
REMARK SMILES IDX 80 88 59 89 60 90 68 91 61 92 62 93 66 94 69 95 63 96 64 97
REMARK SMILES IDX 67 98 65 99
REMARK H PARENT 23 6 30 33 89 52 57 63
REMARK Flexibility Score: inf
ROOT
ATOM      1  C   UNL     1       2.124   2.733   0.130  1.00  0.00     0.021 C 
ENDROOT
BRANCH   1   2
ATOM      2  C   UNL     1       1.472   1.502  -0.541  1.00  0.00     0.116 C 
BRANCH   2   3
ATOM      3  N   UNL     1       2.257   0.323  -0.317  1.00  0.00    -0.356 N 
ATOM      4  O   UNL     1       0.801  -0.895   0.948  1.00  0.00    -0.275 OA
ATOM      5  C   UNL     1       1.916  -0.747   0.455  1.00  0.00     0.220 C 
ATOM      6  H   UNL     1       3.132   0.282  -0.767  1.00  0.00     0.163 HD
BRANCH   5   7
ATOM      7  C   UNL     1       3.066  -1.694   0.785  1.00  0.00     0.106 C 
BRANCH   7   8
ATOM      8  C   UNL     1       3.896  -2.218  -0.394  1.00  0.00     0.068 C 
BRANCH   8   9
ATOM      9  C   UNL     1       5.005  -1.300  -0.848  1.00  0.00     0.060 A 
ATOM     10  C   UNL     1       6.221  -1.775  -1.311  1.00  0.00     0.134 A 
ATOM     11  N   UNL     1       4.729   0.025  -0.902  1.00  0.00    -0.252 NA
ATOM     12  N   UNL     1       7.187  -0.958  -1.798  1.00  0.00    -0.261 NA
ATOM     13  C   UNL     1       5.654   0.860  -1.425  1.00  0.00     0.090 A 
ATOM     14  C   UNL     1       6.876   0.360  -1.850  1.00  0.00     0.137 A 
BRANCH  13  15
ATOM     15  C   UNL     1       5.286   2.326  -1.618  1.00  0.00     0.188 C 
ATOM     16  C   UNL     1       5.879   3.500  -0.196  1.00  0.00     0.155 C 
ATOM     17  O   UNL     1       3.562   2.473  -2.186  1.00  0.00    -0.368 OA
ATOM     18  N   UNL     1       4.940   5.072   0.078  1.00  0.00    -0.366 N 
ATOM     19  C   UNL     1       2.599   4.008  -1.927  1.00  0.00     0.182 C 
ATOM     20  C   UNL     1       3.187   5.254  -0.522  1.00  0.00     0.145 C 
BRANCH  18  21
ATOM     21  C   UNL     1       5.521   6.020   0.913  1.00  0.00     0.037 A 
ATOM     22  C   UNL     1       4.761   6.917   1.670  1.00  0.00     0.026 A 
ATOM     23  C   UNL     1       6.916   6.181   0.954  1.00  0.00     0.026 A 
ATOM     24  C   UNL     1       5.363   7.945   2.410  1.00  0.00     0.002 A 
ATOM     25  C   UNL     1       7.524   7.216   1.672  1.00  0.00     0.002 A 
ATOM     26  C   UNL     1       6.745   8.103   2.400  1.00  0.00     0.000 A 
ENDBRANCH  18  21
ENDBRANCH  13  15
ENDBRANCH   8   9
ENDBRANCH   7   8
ENDBRANCH   5   7
ENDBRANCH   2   3
ENDBRANCH   1   2
BRANCH   1  27
ATOM     27  C   UNL     1       3.719   3.252  -0.299  1.00  0.00     0.002 C 
BRANCH  27  28
ATOM     28  C   UNL     1       4.625   4.359  -1.871  1.00  0.00     0.002 C 
BRANCH  28  29
ATOM     29  C   UNL     1       4.467   5.856  -2.635  1.00  0.00     0.021 C 
BRANCH  29  30
ATOM     30  C   UNL     1       4.916   7.202  -2.078  1.00  0.00     0.116 C 
BRANCH  30  31
ATOM     31  N   UNL     1       6.318   7.546  -2.165  1.00  0.00    -0.352 N 
ATOM     32  C   UNL     1       6.822   8.810  -2.413  1.00  0.00     0.251 C 
ATOM     33  H   UNL     1       6.969   6.819  -2.037  1.00  0.00     0.163 HD
ATOM     34  O   UNL     1       8.027   9.035  -2.408  1.00  0.00    -0.269 OA
BRANCH  32  35
ATOM     35  C   UNL     1       5.863   9.887  -2.777  1.00  0.00     0.039 A 
ATOM     36  C   UNL     1       5.984  10.491  -4.029  1.00  0.00     0.014 A 
ATOM     37  C   UNL     1       4.759  10.166  -1.964  1.00  0.00     0.014 A 
ATOM     38  C   UNL     1       4.952  11.306  -4.504  1.00  0.00     0.010 A 
ATOM     39  C   UNL     1       3.686  10.889  -2.485  1.00  0.00     0.010 A 
ATOM     40  C   UNL     1       3.772  11.473  -3.758  1.00  0.00    -0.014 A 
BRANCH  40  41
ATOM     41  C   UNL     1       2.641  12.280  -4.294  1.00  0.00     0.031 A 
ATOM     42  C   UNL     1       2.206  13.532  -3.583  1.00  0.00     0.074 A 
ATOM     43  C   UNL     1       1.978  11.879  -5.399  1.00  0.00     0.049 A 
ATOM     44  N   UNL     1       1.269  14.388  -3.908  1.00  0.00    -0.248 NA
ATOM     45  C   UNL     1       2.892  13.848  -2.321  1.00  0.00     0.031 C 
ATOM     46  C   UNL     1       2.232  10.641  -6.138  1.00  0.00     0.029 A 
ATOM     47  N   UNL     1       0.953  12.475  -6.094  1.00  0.00    -0.354 N 
ATOM     48  C   UNL     1       1.252  15.331  -2.889  1.00  0.00     0.074 A 
ATOM     49  C   UNL     1       2.213  14.902  -1.898  1.00  0.00     0.031 C 
ATOM     50  C   UNL     1       1.412  10.587  -7.201  1.00  0.00     0.029 A 
ATOM     51  C   UNL     1       0.565  11.777  -7.213  1.00  0.00     0.049 A 
ATOM     52  H   UNL     1       0.536  13.322  -5.816  1.00  0.00     0.167 HD
ATOM     53  C   UNL     1       0.535  16.476  -2.803  1.00  0.00     0.037 A 
ATOM     54  C   UNL     1      -0.356  12.073  -8.151  1.00  0.00     0.037 A 
ATOM     55  C   UNL     1      -0.393  16.928  -3.802  1.00  0.00     0.049 A 
ATOM     56  C   UNL     1      -1.117  13.369  -8.059  1.00  0.00     0.074 A 
ATOM     57  C   UNL     1      -1.106  18.112  -3.847  1.00  0.00     0.029 A 
ATOM     58  N   UNL     1      -0.737  16.208  -4.936  1.00  0.00    -0.354 N 
ATOM     59  N   UNL     1      -1.047  14.304  -7.143  1.00  0.00    -0.248 NA
ATOM     60  C   UNL     1      -2.074  13.656  -9.137  1.00  0.00     0.031 C 
ATOM     61  C   UNL     1      -1.909  18.094  -4.994  1.00  0.00     0.029 A 
ATOM     62  C   UNL     1      -1.669  16.914  -5.679  1.00  0.00     0.049 A 
ATOM     63  H   UNL     1      -0.372  15.326  -5.178  1.00  0.00     0.167 HD
ATOM     64  C   UNL     1      -1.937  15.294  -7.538  1.00  0.00     0.074 A 
ATOM     65  C   UNL     1      -2.521  14.855  -8.789  1.00  0.00     0.031 C 
ATOM     66  C   UNL     1      -2.245  16.459  -6.918  1.00  0.00     0.037 A 
BRANCH  53  67
ATOM     67  C   UNL     1       0.755  17.325  -1.586  1.00  0.00     0.064 A 
ATOM     68  C   UNL     1       1.962  18.014  -1.384  1.00  0.00     0.173 A 
ATOM     69  C   UNL     1      -0.240  17.442  -0.605  1.00  0.00     0.173 A 
ATOM     70  F   UNL     1       2.951  17.921  -2.285  1.00  0.00    -0.203 F 
ATOM     71  C   UNL     1       2.180  18.752  -0.224  1.00  0.00     0.198 A 
ATOM     72  C   UNL     1      -0.029  18.206   0.540  1.00  0.00     0.198 A 
ATOM     73  F   UNL     1      -1.412  16.806  -0.752  1.00  0.00    -0.203 F 
ATOM     74  F   UNL     1       3.365  19.345  -0.023  1.00  0.00    -0.200 F 
ATOM     75  C   UNL     1       1.184  18.850   0.735  1.00  0.00     0.200 A 
ATOM     76  F   UNL     1      -0.995  18.307   1.463  1.00  0.00    -0.200 F 
ATOM     77  F   UNL     1       1.398  19.555   1.855  1.00  0.00    -0.200 F 
ENDBRANCH  53  67
BRANCH  54  78
ATOM     78  C   UNL     1      -0.575  11.143  -9.289  1.00  0.00     0.064 A 
ATOM     79  C   UNL     1      -0.124  11.462 -10.578  1.00  0.00     0.173 A 
ATOM     80  C   UNL     1      -1.230   9.916  -9.112  1.00  0.00     0.173 A 
ATOM     81  F   UNL     1       0.488  12.634 -10.801  1.00  0.00    -0.203 F 
ATOM     82  C   UNL     1      -0.328  10.593 -11.648  1.00  0.00     0.198 A 
ATOM     83  C   UNL     1      -1.414   9.038 -10.179  1.00  0.00     0.198 A 
ATOM     84  F   UNL     1      -1.679   9.565  -7.898  1.00  0.00    -0.203 F 
ATOM     85  F   UNL     1       0.086  10.936 -12.876  1.00  0.00    -0.200 F 
ATOM     86  C   UNL     1      -0.967   9.379 -11.446  1.00  0.00     0.200 A 
ATOM     87  F   UNL     1      -2.024   7.862  -9.978  1.00  0.00    -0.200 F 
ATOM     88  F   UNL     1      -1.157   8.540 -12.474  1.00  0.00    -0.200 F 
ENDBRANCH  54  78
BRANCH  66  89
ATOM     89  C   UNL     1      -3.260  17.343  -7.579  1.00  0.00     0.064 A 
ATOM     90  C   UNL     1      -4.626  17.027  -7.557  1.00  0.00     0.173 A 
ATOM     91  C   UNL     1      -2.871  18.545  -8.188  1.00  0.00     0.173 A 
ATOM     92  F   UNL     1      -5.044  15.881  -6.997  1.00  0.00    -0.203 F 
ATOM     93  C   UNL     1      -5.565  17.875  -8.136  1.00  0.00     0.198 A 
ATOM     94  C   UNL     1      -3.816  19.402  -8.746  1.00  0.00     0.198 A 
ATOM     95  F   UNL     1      -1.577  18.895  -8.229  1.00  0.00    -0.203 F 
ATOM     96  F   UNL     1      -6.862  17.537  -8.134  1.00  0.00    -0.200 F 
ATOM     97  C   UNL     1      -5.161  19.065  -8.723  1.00  0.00     0.200 A 
ATOM     98  F   UNL     1      -3.425  20.557  -9.303  1.00  0.00    -0.200 F 
ATOM     99  F   UNL     1      -6.068  19.885  -9.271  1.00  0.00    -0.200 F 
ENDBRANCH  66  89
ENDBRANCH  40  41
ENDBRANCH  32  35
ENDBRANCH  30  31
ENDBRANCH  29  30
ENDBRANCH  28  29
ENDBRANCH  27  28
ENDBRANCH   1  27
TORSDOF 17
