REMARK SMILES CC(C)[NH2+][C@@]1(C(=O)NCCCCCCNC(=O)c2ccc(-c3c4nc(c(-c5c(F)c(F)c(F)c(F)c5F)c5ccc([nH]5)c(-c5c(F)c(F)c(F)c(F)c5F)c5nc(c(-c6c(F)c(F)c(F)c(F)c6F)c6ccc3[nH]6)C=C5)C=C4)cc2)CCC[C@@H]([NH+]2CCS(=O)CC2)C1
REMARK SMILES IDX 11 1 10 2 9 3 8 4 6 5 7 6 5 8 81 9 92 10 82 11 84 12 83 13
REMARK SMILES IDX 4 14 2 17 1 18 3 19 85 20 86 21 91 22 87 24 90 25 88 26
REMARK SMILES IDX 89 27 12 28 13 29 14 30 15 31 16 32 17 34 18 35 19 36 80 37
REMARK SMILES IDX 20 38 79 39 21 40 22 41 23 42 73 43 24 44 78 45 72 46 74 47
REMARK SMILES IDX 25 48 77 49 71 50 70 51 26 53 58 54 38 55 57 56 39 57 42 58
REMARK SMILES IDX 56 59 75 60 40 61 41 62 55 64 76 65 43 66 27 67 28 68 36 69
REMARK SMILES IDX 29 70 30 71 34 72 37 73 31 74 32 75 35 76 33 77 59 78 60 79
REMARK SMILES IDX 68 80 61 81 62 82 66 83 69 84 63 85 64 86 67 87 65 88 44 89
REMARK SMILES IDX 45 90 53 91 46 92 47 93 51 94 54 95 48 96 49 97 52 98 50 99
REMARK H PARENT 8 7 4 15 4 16 85 23 15 33 74 52 42 63
REMARK Flexibility Score: inf
ROOT
ATOM      1  C   UNL     1      -5.965   6.194   1.182  1.00  0.00     0.002 C 
ENDROOT
BRANCH   1   2
ATOM      2  C   UNL     1      -4.538   5.723   0.892  1.00  0.00     0.021 C 
BRANCH   2   3
ATOM      3  C   UNL     1      -3.991   4.701   1.893  1.00  0.00     0.116 C 
BRANCH   3   4
ATOM      4  N   UNL     1      -3.931   3.367   1.349  1.00  0.00    -0.351 N 
ATOM      5  C   UNL     1      -2.941   2.515   0.997  1.00  0.00     0.281 C 
ATOM      6  O   UNL     1      -3.373   1.435   0.556  1.00  0.00    -0.268 OA
ATOM      7  H   UNL     1      -4.826   2.984   1.198  1.00  0.00     0.163 HD
BRANCH   5   8
ATOM      8  C   UNL     1      -1.355   2.808   0.996  1.00  0.00     0.181 C 
ATOM      9  C   UNL     1      -0.795   3.142   2.394  1.00  0.00     0.079 C 
ATOM     10  C   UNL     1      -1.067   3.839  -0.117  1.00  0.00     0.144 C 
ATOM     11  C   UNL     1      -0.545   4.606   2.740  1.00  0.00     0.013 C 
ATOM     12  C   UNL     1      -0.923   5.309   0.300  1.00  0.00     0.190 C 
ATOM     13  C   UNL     1      -0.061   5.445   1.566  1.00  0.00     0.065 C 
BRANCH   8  14
ATOM     14  N   UNL     1      -0.810   1.483   0.553  1.00  0.00    -0.331 N 
ATOM     15  H   UNL     1      -1.333   0.791   1.090  1.00  0.00     0.347 HD
ATOM     16  H   UNL     1      -0.898   1.598  -0.456  1.00  0.00     0.347 HD
BRANCH  14  17
ATOM     17  C   UNL     1       0.574   1.042   0.619  1.00  0.00     0.176 C 
ATOM     18  C   UNL     1       0.627  -0.390   0.064  1.00  0.00     0.075 C 
ATOM     19  C   UNL     1       1.587   1.894  -0.139  1.00  0.00     0.075 C 
ENDBRANCH  14  17
ENDBRANCH   8  14
BRANCH  12  20
ATOM     20  N   UNL     1      -0.548   6.246  -0.782  1.00  0.00    -0.331 N 
ATOM     21  C   UNL     1       0.852   6.649  -0.943  1.00  0.00     0.276 C 
ATOM     22  C   UNL     1      -1.207   6.073  -2.087  1.00  0.00     0.276 C 
ATOM     23  H   UNL     1      -0.978   7.054  -0.332  1.00  0.00     0.348 HD
ATOM     24  C   UNL     1       1.717   5.650  -1.697  1.00  0.00     0.166 C 
ATOM     25  C   UNL     1      -0.554   5.090  -3.065  1.00  0.00     0.166 C 
ATOM     26  S   UNL     1       1.183   5.471  -3.421  1.00  0.00     0.032 S 
ATOM     27  O   UNL     1       1.246   6.817  -4.078  1.00  0.00    -0.259 OA
ENDBRANCH  12  20
ENDBRANCH   5   8
ENDBRANCH   3   4
ENDBRANCH   2   3
ENDBRANCH   1   2
BRANCH   1  28
ATOM     28  C   UNL     1      -6.180   6.837   2.558  1.00  0.00     0.002 C 
BRANCH  28  29
ATOM     29  C   UNL     1      -5.232   7.987   2.916  1.00  0.00     0.021 C 
BRANCH  29  30
ATOM     30  C   UNL     1      -5.244   9.165   1.944  1.00  0.00     0.116 C 
BRANCH  30  31
ATOM     31  N   UNL     1      -6.574   9.731   1.791  1.00  0.00    -0.352 N 
ATOM     32  C   UNL     1      -7.051  10.977   2.106  1.00  0.00     0.251 C 
ATOM     33  H   UNL     1      -7.240   9.121   1.398  1.00  0.00     0.163 HD
ATOM     34  O   UNL     1      -8.261  11.183   2.113  1.00  0.00    -0.269 OA
BRANCH  32  35
ATOM     35  C   UNL     1      -6.123  12.079   2.437  1.00  0.00     0.039 A 
ATOM     36  C   UNL     1      -6.455  12.947   3.481  1.00  0.00     0.014 A 
ATOM     37  C   UNL     1      -4.966  12.301   1.684  1.00  0.00     0.014 A 
ATOM     38  C   UNL     1      -5.608  14.011   3.798  1.00  0.00     0.010 A 
ATOM     39  C   UNL     1      -4.091  13.324   2.041  1.00  0.00     0.010 A 
ATOM     40  C   UNL     1      -4.408  14.195   3.094  1.00  0.00    -0.014 A 
BRANCH  40  41
ATOM     41  C   UNL     1      -3.484  15.309   3.426  1.00  0.00     0.031 A 
ATOM     42  C   UNL     1      -3.251  16.414   2.433  1.00  0.00     0.074 A 
ATOM     43  C   UNL     1      -2.817  15.297   4.596  1.00  0.00     0.049 A 
ATOM     44  N   UNL     1      -2.418  17.422   2.495  1.00  0.00    -0.248 NA
ATOM     45  C   UNL     1      -4.043  16.366   1.193  1.00  0.00     0.031 C 
ATOM     46  C   UNL     1      -2.933  14.263   5.625  1.00  0.00     0.029 A 
ATOM     47  N   UNL     1      -1.896  16.175   5.110  1.00  0.00    -0.354 N 
ATOM     48  C   UNL     1      -2.578  18.119   1.304  1.00  0.00     0.074 A 
ATOM     49  C   UNL     1      -3.550  17.392   0.515  1.00  0.00     0.031 C 
ATOM     50  C   UNL     1      -2.123  14.571   6.651  1.00  0.00     0.029 A 
ATOM     51  C   UNL     1      -1.405  15.803   6.338  1.00  0.00     0.049 A 
ATOM     52  H   UNL     1      -1.614  16.995   4.643  1.00  0.00     0.167 HD
ATOM     53  C   UNL     1      -1.986  19.272   0.914  1.00  0.00     0.037 A 
ATOM     54  C   UNL     1      -0.472  16.385   7.115  1.00  0.00     0.037 A 
ATOM     55  C   UNL     1      -1.037  20.006   1.710  1.00  0.00     0.049 A 
ATOM     56  C   UNL     1       0.173  17.665   6.654  1.00  0.00     0.074 A 
ATOM     57  C   UNL     1      -0.403  21.200   1.416  1.00  0.00     0.029 A 
ATOM     58  N   UNL     1      -0.592  19.614   2.964  1.00  0.00    -0.354 N 
ATOM     59  N   UNL     1      -0.022  18.337   5.546  1.00  0.00    -0.248 NA
ATOM     60  C   UNL     1       1.161  18.271   7.556  1.00  0.00     0.031 C 
ATOM     61  C   UNL     1       0.450  21.516   2.479  1.00  0.00     0.029 A 
ATOM     62  C   UNL     1       0.314  20.541   3.453  1.00  0.00     0.049 A 
ATOM     63  H   UNL     1      -0.877  18.798   3.436  1.00  0.00     0.167 HD
ATOM     64  C   UNL     1       0.791  19.459   5.633  1.00  0.00     0.074 A 
ATOM     65  C   UNL     1       1.472  19.385   6.908  1.00  0.00     0.031 C 
ATOM     66  C   UNL     1       0.962  20.460   4.736  1.00  0.00     0.037 A 
BRANCH  53  67
ATOM     67  C   UNL     1      -2.357  19.827  -0.430  1.00  0.00     0.064 A 
ATOM     68  C   UNL     1      -3.617  20.399  -0.661  1.00  0.00     0.173 A 
ATOM     69  C   UNL     1      -1.427  19.841  -1.481  1.00  0.00     0.173 A 
ATOM     70  F   UNL     1      -4.545  20.401   0.308  1.00  0.00    -0.203 F 
ATOM     71  C   UNL     1      -3.939  20.948  -1.899  1.00  0.00     0.198 A 
ATOM     72  C   UNL     1      -1.744  20.415  -2.710  1.00  0.00     0.198 A 
ATOM     73  F   UNL     1      -0.206  19.312  -1.312  1.00  0.00    -0.203 F 
ATOM     74  F   UNL     1      -5.162  21.456  -2.107  1.00  0.00    -0.200 F 
ATOM     75  C   UNL     1      -3.000  20.963  -2.920  1.00  0.00     0.200 A 
ATOM     76  F   UNL     1      -0.831  20.441  -3.691  1.00  0.00    -0.200 F 
ATOM     77  F   UNL     1      -3.308  21.504  -4.107  1.00  0.00    -0.200 F 
ENDBRANCH  53  67
BRANCH  54  78
ATOM     78  C   UNL     1      -0.097  15.775   8.418  1.00  0.00     0.064 A 
ATOM     79  C   UNL     1      -0.421  16.405   9.628  1.00  0.00     0.173 A 
ATOM     80  C   UNL     1       0.617  14.570   8.481  1.00  0.00     0.173 A 
ATOM     81  F   UNL     1      -1.085  17.570   9.619  1.00  0.00    -0.203 F 
ATOM     82  C   UNL     1      -0.018  15.869  10.850  1.00  0.00     0.198 A 
ATOM     83  C   UNL     1       0.994  14.019   9.705  1.00  0.00     0.198 A 
ATOM     84  F   UNL     1       0.947  13.924   7.353  1.00  0.00    -0.203 F 
ATOM     85  F   UNL     1      -0.291  16.522  11.987  1.00  0.00    -0.200 F 
ATOM     86  C   UNL     1       0.686  14.675  10.887  1.00  0.00     0.200 A 
ATOM     87  F   UNL     1       1.662  12.858   9.737  1.00  0.00    -0.200 F 
ATOM     88  F   UNL     1       1.078  14.163  12.062  1.00  0.00    -0.200 F 
ENDBRANCH  54  78
BRANCH  66  89
ATOM     89  C   UNL     1       1.881  21.581   5.123  1.00  0.00     0.064 A 
ATOM     90  C   UNL     1       3.273  21.412   5.161  1.00  0.00     0.173 A 
ATOM     91  C   UNL     1       1.363  22.850   5.420  1.00  0.00     0.173 A 
ATOM     92  F   UNL     1       3.815  20.213   4.899  1.00  0.00    -0.203 F 
ATOM     93  C   UNL     1       4.111  22.468   5.508  1.00  0.00     0.198 A 
ATOM     94  C   UNL     1       2.206  23.911   5.739  1.00  0.00     0.198 A 
ATOM     95  F   UNL     1       0.039  23.064   5.391  1.00  0.00    -0.203 F 
ATOM     96  F   UNL     1       5.435  22.273   5.583  1.00  0.00    -0.200 F 
ATOM     97  C   UNL     1       3.578  23.717   5.789  1.00  0.00     0.200 A 
ATOM     98  F   UNL     1       1.690  25.120   5.998  1.00  0.00    -0.200 F 
ATOM     99  F   UNL     1       4.387  24.734   6.117  1.00  0.00    -0.200 F 
ENDBRANCH  66  89
ENDBRANCH  40  41
ENDBRANCH  32  35
ENDBRANCH  30  31
ENDBRANCH  29  30
ENDBRANCH  28  29
ENDBRANCH   1  28
TORSDOF 16
