REMARK SMILES CC1(C)[C@H](C(=O)NCCCCCCNC(=O)c2ccc(-c3c4nc(c(-c5c(F)c(F)c(F)c(F)c5F)c5ccc([nH]5)c(-c5c(F)c(F)c(F)c(F)c5F)c5nc(c(-c6c(F)c(F)c(F)c(F)c6F)c6ccc3[nH]6)C=C5)C=C4)cc2)[C@@H]1c1nc2ccc(F)cc2s1
REMARK SMILES IDX 11 1 10 2 9 3 8 4 7 5 5 6 6 7 4 9 1 10 2 11 3 12 80 13 81 14
REMARK SMILES IDX 82 15 90 16 83 17 89 18 84 19 88 20 85 21 86 22 87 23 12 24
REMARK SMILES IDX 13 25 14 26 15 27 16 29 17 30 18 31 79 32 19 33 78 34 20 35
REMARK SMILES IDX 21 36 22 37 72 38 23 39 77 40 71 41 73 42 24 43 76 44 70 45
REMARK SMILES IDX 69 46 25 48 57 49 37 50 56 51 38 52 41 53 55 54 74 55 39 56
REMARK SMILES IDX 40 57 54 59 75 60 42 61 26 62 27 63 35 64 28 65 29 66 33 67
REMARK SMILES IDX 36 68 30 69 31 70 34 71 32 72 58 73 59 74 67 75 60 76 61 77
REMARK SMILES IDX 65 78 68 79 62 80 63 81 66 82 64 83 43 84 44 85 52 86 45 87
REMARK SMILES IDX 46 88 50 89 53 90 47 91 48 92 51 93 49 94
REMARK H PARENT 7 8 14 28 73 47 41 58
REMARK Flexibility Score: inf
ROOT
ATOM      1  C   UNL     1      -1.911   6.084  -1.090  1.00  0.00     0.002 C 
ENDROOT
BRANCH   1   2
ATOM      2  C   UNL     1      -0.959   5.274  -1.978  1.00  0.00     0.002 C 
BRANCH   2   3
ATOM      3  C   UNL     1      -0.247   4.112  -1.287  1.00  0.00     0.021 C 
BRANCH   3   4
ATOM      4  C   UNL     1      -1.181   3.091  -0.646  1.00  0.00     0.116 C 
BRANCH   4   5
ATOM      5  N   UNL     1      -1.634   2.090  -1.568  1.00  0.00    -0.356 N 
ATOM      6  C   UNL     1      -1.625   0.726  -1.549  1.00  0.00     0.224 C 
ATOM      7  O   UNL     1      -2.115   0.191  -2.547  1.00  0.00    -0.275 OA
ATOM      8  H   UNL     1      -2.036   2.466  -2.384  1.00  0.00     0.163 HD
BRANCH   6   9
ATOM      9  C   UNL     1      -1.099  -0.192  -0.502  1.00  0.00     0.095 C 
ATOM     10  C   UNL     1       0.988  -1.495   0.231  1.00  0.00     0.013 C 
ATOM     11  C   UNL     1       0.254  -0.166   0.226  1.00  0.00    -0.013 C 
ATOM     12  C   UNL     1       1.208   0.986   0.052  1.00  0.00     0.013 C 
ATOM     13  C   UNL     1      -1.063  -0.099   0.991  1.00  0.00     0.068 C 
BRANCH  13  14
ATOM     14  C   UNL     1      -1.740   1.015   1.771  1.00  0.00     0.098 A 
ATOM     15  N   UNL     1      -3.051   1.010   1.855  1.00  0.00    -0.241 NA
ATOM     16  S   UNL     1      -0.957   2.207   2.721  1.00  0.00    -0.118 S 
ATOM     17  C   UNL     1      -3.487   2.159   2.485  1.00  0.00     0.082 A 
ATOM     18  C   UNL     1      -2.473   2.997   2.958  1.00  0.00     0.057 A 
ATOM     19  C   UNL     1      -4.831   2.554   2.647  1.00  0.00     0.033 A 
ATOM     20  C   UNL     1      -2.752   4.251   3.523  1.00  0.00     0.060 A 
ATOM     21  C   UNL     1      -5.122   3.800   3.210  1.00  0.00     0.041 A 
ATOM     22  C   UNL     1      -4.089   4.632   3.619  1.00  0.00     0.124 A 
ATOM     23  F   UNL     1      -4.385   5.839   4.120  1.00  0.00    -0.207 F 
ENDBRANCH  13  14
ENDBRANCH   6   9
ENDBRANCH   4   5
ENDBRANCH   3   4
ENDBRANCH   2   3
ENDBRANCH   1   2
BRANCH   1  24
ATOM     24  C   UNL     1      -1.332   6.563   0.245  1.00  0.00     0.021 C 
BRANCH  24  25
ATOM     25  C   UNL     1      -0.063   7.404   0.136  1.00  0.00     0.116 C 
BRANCH  25  26
ATOM     26  N   UNL     1      -0.264   8.607  -0.653  1.00  0.00    -0.352 N 
ATOM     27  C   UNL     1      -0.009   9.916  -0.338  1.00  0.00     0.251 C 
ATOM     28  H   UNL     1      -0.641   8.459  -1.550  1.00  0.00     0.163 HD
ATOM     29  O   UNL     1      -0.416  10.813  -1.069  1.00  0.00    -0.269 OA
BRANCH  27  30
ATOM     30  C   UNL     1       0.744  10.257   0.888  1.00  0.00     0.039 A 
ATOM     31  C   UNL     1       0.301  11.326   1.671  1.00  0.00     0.014 A 
ATOM     32  C   UNL     1       1.900   9.557   1.247  1.00  0.00     0.014 A 
ATOM     33  C   UNL     1       0.989  11.664   2.838  1.00  0.00     0.010 A 
ATOM     34  C   UNL     1       2.546   9.851   2.446  1.00  0.00     0.010 A 
ATOM     35  C   UNL     1       2.103  10.913   3.248  1.00  0.00    -0.014 A 
BRANCH  35  36
ATOM     36  C   UNL     1       2.820  11.236   4.507  1.00  0.00     0.031 A 
ATOM     37  C   UNL     1       4.245  11.716   4.464  1.00  0.00     0.074 A 
ATOM     38  C   UNL     1       2.205  11.049   5.690  1.00  0.00     0.049 A 
ATOM     39  N   UNL     1       5.055  11.998   5.454  1.00  0.00    -0.248 NA
ATOM     40  C   UNL     1       4.850  11.874   3.132  1.00  0.00     0.031 C 
ATOM     41  C   UNL     1       0.842  10.545   5.863  1.00  0.00     0.029 A 
ATOM     42  N   UNL     1       2.650  11.252   6.973  1.00  0.00    -0.354 N 
ATOM     43  C   UNL     1       6.262  12.351   4.867  1.00  0.00     0.074 A 
ATOM     44  C   UNL     1       6.098  12.198   3.437  1.00  0.00     0.031 C 
ATOM     45  C   UNL     1       0.554  10.497   7.173  1.00  0.00     0.029 A 
ATOM     46  C   UNL     1       1.721  10.934   7.934  1.00  0.00     0.049 A 
ATOM     47  H   UNL     1       3.549  11.593   7.184  1.00  0.00     0.167 HD
ATOM     48  C   UNL     1       7.397  12.786   5.464  1.00  0.00     0.037 A 
ATOM     49  C   UNL     1       1.805  10.986   9.276  1.00  0.00     0.037 A 
ATOM     50  C   UNL     1       7.548  12.963   6.885  1.00  0.00     0.049 A 
ATOM     51  C   UNL     1       3.075  11.480   9.914  1.00  0.00     0.074 A 
ATOM     52  C   UNL     1       8.637  13.453   7.584  1.00  0.00     0.029 A 
ATOM     53  N   UNL     1       6.576  12.655   7.826  1.00  0.00    -0.354 N 
ATOM     54  N   UNL     1       4.188  11.876   9.345  1.00  0.00    -0.248 NA
ATOM     55  C   UNL     1       3.097  11.544  11.382  1.00  0.00     0.031 C 
ATOM     56  C   UNL     1       8.341  13.400   8.950  1.00  0.00     0.029 A 
ATOM     57  C   UNL     1       7.048  12.927   9.100  1.00  0.00     0.049 A 
ATOM     58  H   UNL     1       5.683  12.297   7.619  1.00  0.00     0.167 HD
ATOM     59  C   UNL     1       5.029  12.264  10.379  1.00  0.00     0.074 A 
ATOM     60  C   UNL     1       4.292  12.071  11.610  1.00  0.00     0.031 C 
ATOM     61  C   UNL     1       6.297  12.739  10.315  1.00  0.00     0.037 A 
BRANCH  48  62
ATOM     62  C   UNL     1       8.570  13.106   4.582  1.00  0.00     0.064 A 
ATOM     63  C   UNL     1       8.567  14.219   3.728  1.00  0.00     0.173 A 
ATOM     64  C   UNL     1       9.727  12.313   4.620  1.00  0.00     0.173 A 
ATOM     65  F   UNL     1       7.481  15.003   3.644  1.00  0.00    -0.203 F 
ATOM     66  C   UNL     1       9.666  14.511   2.925  1.00  0.00     0.198 A 
ATOM     67  C   UNL     1      10.837  12.626   3.839  1.00  0.00     0.198 A 
ATOM     68  F   UNL     1       9.787  11.240   5.422  1.00  0.00    -0.203 F 
ATOM     69  F   UNL     1       9.621  15.552   2.082  1.00  0.00    -0.200 F 
ATOM     70  C   UNL     1      10.803  13.720   2.986  1.00  0.00     0.200 A 
ATOM     71  F   UNL     1      11.940  11.868   3.909  1.00  0.00    -0.200 F 
ATOM     72  F   UNL     1      11.864  14.007   2.220  1.00  0.00    -0.200 F 
ENDBRANCH  48  62
BRANCH  49  73
ATOM     73  C   UNL     1       0.641  10.585  10.109  1.00  0.00     0.064 A 
ATOM     74  C   UNL     1      -0.078  11.535  10.848  1.00  0.00     0.173 A 
ATOM     75  C   UNL     1       0.230   9.247  10.193  1.00  0.00     0.173 A 
ATOM     76  F   UNL     1       0.289  12.825  10.816  1.00  0.00    -0.203 F 
ATOM     77  C   UNL     1      -1.148  11.160  11.657  1.00  0.00     0.198 A 
ATOM     78  C   UNL     1      -0.859   8.876  10.980  1.00  0.00     0.198 A 
ATOM     79  F   UNL     1       0.881   8.299   9.502  1.00  0.00    -0.203 F 
ATOM     80  F   UNL     1      -1.786  12.082  12.391  1.00  0.00    -0.200 F 
ATOM     81  C   UNL     1      -1.541   9.831  11.718  1.00  0.00     0.200 A 
ATOM     82  F   UNL     1      -1.244   7.594  11.025  1.00  0.00    -0.200 F 
ATOM     83  F   UNL     1      -2.571   9.470  12.496  1.00  0.00    -0.200 F 
ENDBRANCH  49  73
BRANCH  61  84
ATOM     84  C   UNL     1       6.954  13.120  11.610  1.00  0.00     0.064 A 
ATOM     85  C   UNL     1       7.362  12.156  12.543  1.00  0.00     0.173 A 
ATOM     86  C   UNL     1       7.205  14.469  11.906  1.00  0.00     0.173 A 
ATOM     87  F   UNL     1       7.132  10.855  12.314  1.00  0.00    -0.203 F 
ATOM     88  C   UNL     1       7.971  12.530  13.738  1.00  0.00     0.198 A 
ATOM     89  C   UNL     1       7.842  14.837  13.087  1.00  0.00     0.198 A 
ATOM     90  F   UNL     1       6.840  15.430  11.043  1.00  0.00    -0.203 F 
ATOM     91  F   UNL     1       8.305  11.596  14.639  1.00  0.00    -0.200 F 
ATOM     92  C   UNL     1       8.216  13.869  14.006  1.00  0.00     0.200 A 
ATOM     93  F   UNL     1       8.091  16.130  13.338  1.00  0.00    -0.200 F 
ATOM     94  F   UNL     1       8.806  14.227  15.155  1.00  0.00    -0.200 F 
ENDBRANCH  61  84
ENDBRANCH  35  36
ENDBRANCH  27  30
ENDBRANCH  25  26
ENDBRANCH  24  25
ENDBRANCH   1  24
TORSDOF 14
