REMARK SMILES O=C(NCCCCCCNC(=O)c1ccc(S(=O)(=O)[O-])cc1N1C(=O)/C(=C\C=C\c2ccccc2)[NH+]=C1c1ccccc1)c1ccc(-c2c3nc(c(-c4c(F)c(F)c(F)c(F)c4F)c4ccc([nH]4)c(-c4c(F)c(F)c(F)c(F)c4F)c4nc(c(-c5c(F)c(F)c(F)c(F)c5F)c5ccc2[nH]5)C=C4)C=C3)cc1
REMARK SMILES IDX 7 1 6 2 5 3 4 4 3 5 1 6 2 7 44 9 45 10 106 11 46 12 105 13
REMARK SMILES IDX 47 14 48 15 49 16 99 17 50 18 104 19 98 20 100 21 51 22
REMARK SMILES IDX 103 23 97 24 96 25 52 27 84 28 64 29 83 30 65 31 68 32 82 33
REMARK SMILES IDX 101 34 66 35 67 36 81 38 102 39 69 40 53 41 54 42 62 43
REMARK SMILES IDX 55 44 56 45 60 46 63 47 57 48 58 49 61 50 59 51 85 52 86 53
REMARK SMILES IDX 94 54 87 55 88 56 92 57 95 58 89 59 90 60 93 61 91 62 70 63
REMARK SMILES IDX 71 64 79 65 72 66 73 67 77 68 80 69 74 70 75 71 78 72 76 73
REMARK SMILES IDX 8 74 9 75 10 76 11 77 12 79 13 80 14 81 22 82 15 83 21 84
REMARK SMILES IDX 16 85 23 86 24 87 37 88 25 89 26 90 36 91 27 92 38 94 39 95
REMARK SMILES IDX 43 96 40 97 42 98 41 99 28 100 29 101 30 102 31 103 35 104
REMARK SMILES IDX 32 105 34 106 33 107 17 108 18 109 19 110 20 111
REMARK H PARENT 3 8 100 26 68 37 10 78 36 93
REMARK Flexibility Score: inf
ROOT
ATOM      1  C   UNL     1       4.343  -1.837   4.010  1.00  0.00     0.002 C 
ENDROOT
BRANCH   1   2
ATOM      2  C   UNL     1       3.993  -0.355   3.816  1.00  0.00     0.002 C 
BRANCH   2   3
ATOM      3  C   UNL     1       4.643   0.337   2.615  1.00  0.00     0.021 C 
BRANCH   3   4
ATOM      4  C   UNL     1       4.394  -0.339   1.271  1.00  0.00     0.116 C 
BRANCH   4   5
ATOM      5  N   UNL     1       2.976  -0.476   0.980  1.00  0.00    -0.352 N 
ATOM      6  O   UNL     1       1.021  -0.038  -0.053  1.00  0.00    -0.269 OA
ATOM      7  C   UNL     1       2.247   0.006  -0.075  1.00  0.00     0.251 C 
ATOM      8  H   UNL     1       2.462  -0.995   1.640  1.00  0.00     0.163 HD
BRANCH   7   9
ATOM      9  C   UNL     1       2.939   0.588  -1.242  1.00  0.00     0.039 A 
ATOM     10  C   UNL     1       4.052  -0.046  -1.800  1.00  0.00     0.014 A 
ATOM     11  C   UNL     1       2.440   1.764  -1.808  1.00  0.00     0.014 A 
ATOM     12  C   UNL     1       4.736   0.553  -2.851  1.00  0.00     0.010 A 
ATOM     13  C   UNL     1       3.079   2.322  -2.916  1.00  0.00     0.010 A 
ATOM     14  C   UNL     1       4.242   1.729  -3.434  1.00  0.00    -0.014 A 
BRANCH  14  15
ATOM     15  C   UNL     1       4.903   2.291  -4.636  1.00  0.00     0.031 A 
ATOM     16  C   UNL     1       5.544   3.646  -4.602  1.00  0.00     0.074 A 
ATOM     17  C   UNL     1       4.888   1.574  -5.776  1.00  0.00     0.049 A 
ATOM     18  N   UNL     1       6.101   4.321  -5.575  1.00  0.00    -0.248 NA
ATOM     19  C   UNL     1       5.549   4.340  -3.307  1.00  0.00     0.031 C 
ATOM     20  C   UNL     1       4.280   0.251  -5.926  1.00  0.00     0.029 A 
ATOM     21  N   UNL     1       5.380   1.860  -7.023  1.00  0.00    -0.354 N 
ATOM     22  C   UNL     1       6.503   5.527  -5.018  1.00  0.00     0.074 A 
ATOM     23  C   UNL     1       6.099   5.503  -3.628  1.00  0.00     0.031 C 
ATOM     24  C   UNL     1       4.441  -0.165  -7.190  1.00  0.00     0.029 A 
ATOM     25  C   UNL     1       5.099   0.889  -7.953  1.00  0.00     0.049 A 
ATOM     26  H   UNL     1       5.885   2.679  -7.232  1.00  0.00     0.167 HD
ATOM     27  C   UNL     1       7.151   6.556  -5.617  1.00  0.00     0.037 A 
ATOM     28  C   UNL     1       5.307   0.866  -9.282  1.00  0.00     0.037 A 
ATOM     29  C   UNL     1       7.540   6.564  -7.006  1.00  0.00     0.049 A 
ATOM     30  C   UNL     1       5.987   2.035  -9.934  1.00  0.00     0.074 A 
ATOM     31  C   UNL     1       8.245   7.532  -7.698  1.00  0.00     0.029 A 
ATOM     32  N   UNL     1       7.235   5.563  -7.920  1.00  0.00    -0.354 N 
ATOM     33  N   UNL     1       6.416   3.147  -9.389  1.00  0.00    -0.248 NA
ATOM     34  C   UNL     1       6.215   1.947 -11.382  1.00  0.00     0.031 C 
ATOM     35  C   UNL     1       8.302   7.154  -9.043  1.00  0.00     0.029 A 
ATOM     36  C   UNL     1       7.703   5.911  -9.178  1.00  0.00     0.049 A 
ATOM     37  H   UNL     1       6.757   4.730  -7.706  1.00  0.00     0.167 HD
ATOM     38  C   UNL     1       6.984   3.883 -10.419  1.00  0.00     0.074 A 
ATOM     39  C   UNL     1       6.852   3.085 -11.621  1.00  0.00     0.031 C 
ATOM     40  C   UNL     1       7.567   5.106 -10.368  1.00  0.00     0.037 A 
BRANCH  27  41
ATOM     41  C   UNL     1       7.441   7.774  -4.784  1.00  0.00     0.064 A 
ATOM     42  C   UNL     1       8.347   7.747  -3.713  1.00  0.00     0.173 A 
ATOM     43  C   UNL     1       6.807   8.994  -5.071  1.00  0.00     0.173 A 
ATOM     44  F   UNL     1       8.979   6.608  -3.390  1.00  0.00    -0.203 F 
ATOM     45  C   UNL     1       8.569   8.878  -2.931  1.00  0.00     0.198 A 
ATOM     46  C   UNL     1       7.061  10.133  -4.311  1.00  0.00     0.198 A 
ATOM     47  F   UNL     1       5.941   9.084  -6.091  1.00  0.00    -0.203 F 
ATOM     48  F   UNL     1       9.386   8.807  -1.871  1.00  0.00    -0.200 F 
ATOM     49  C   UNL     1       7.930  10.071  -3.233  1.00  0.00     0.200 A 
ATOM     50  F   UNL     1       6.456  11.289  -4.617  1.00  0.00    -0.200 F 
ATOM     51  F   UNL     1       8.144  11.158  -2.479  1.00  0.00    -0.200 F 
ENDBRANCH  27  41
BRANCH  28  52
ATOM     52  C   UNL     1       4.837  -0.304 -10.066  1.00  0.00     0.064 A 
ATOM     53  C   UNL     1       5.743  -1.213 -10.627  1.00  0.00     0.173 A 
ATOM     54  C   UNL     1       3.467  -0.567 -10.220  1.00  0.00     0.173 A 
ATOM     55  F   UNL     1       7.062  -0.998 -10.518  1.00  0.00    -0.203 F 
ATOM     56  C   UNL     1       5.296  -2.338 -11.317  1.00  0.00     0.198 A 
ATOM     57  C   UNL     1       3.021  -1.708 -10.882  1.00  0.00     0.198 A 
ATOM     58  F   UNL     1       2.560   0.268  -9.690  1.00  0.00    -0.203 F 
ATOM     59  F   UNL     1       6.182  -3.178 -11.869  1.00  0.00    -0.200 F 
ATOM     60  C   UNL     1       3.936  -2.590 -11.435  1.00  0.00     0.200 A 
ATOM     61  F   UNL     1       1.708  -1.958 -10.972  1.00  0.00    -0.200 F 
ATOM     62  F   UNL     1       3.509  -3.683 -12.081  1.00  0.00    -0.200 F 
ENDBRANCH  28  52
BRANCH  40  63
ATOM     63  C   UNL     1       8.148   5.651 -11.641  1.00  0.00     0.064 A 
ATOM     64  C   UNL     1       7.338   6.105 -12.691  1.00  0.00     0.173 A 
ATOM     65  C   UNL     1       9.539   5.785 -11.778  1.00  0.00     0.173 A 
ATOM     66  F   UNL     1       6.004   5.983 -12.618  1.00  0.00    -0.203 F 
ATOM     67  C   UNL     1       7.900   6.665 -13.837  1.00  0.00     0.198 A 
ATOM     68  C   UNL     1      10.095   6.374 -12.910  1.00  0.00     0.198 A 
ATOM     69  F   UNL     1      10.358   5.368 -10.801  1.00  0.00    -0.203 F 
ATOM     70  F   UNL     1       7.109   7.060 -14.844  1.00  0.00    -0.200 F 
ATOM     71  C   UNL     1       9.276   6.810 -13.940  1.00  0.00     0.200 A 
ATOM     72  F   UNL     1      11.423   6.528 -12.999  1.00  0.00    -0.200 F 
ATOM     73  F   UNL     1       9.813   7.368 -15.033  1.00  0.00    -0.200 F 
ENDBRANCH  40  63
ENDBRANCH  14  15
ENDBRANCH   7   9
ENDBRANCH   4   5
ENDBRANCH   3   4
ENDBRANCH   2   3
ENDBRANCH   1   2
BRANCH   1  74
ATOM     74  C   UNL     1       5.832  -2.167   4.063  1.00  0.00     0.021 C 
BRANCH  74  75
ATOM     75  C   UNL     1       6.620  -1.374   5.090  1.00  0.00     0.116 C 
BRANCH  75  76
ATOM     76  N   UNL     1       6.531  -1.821   6.454  1.00  0.00    -0.352 N 
ATOM     77  C   UNL     1       7.529  -1.981   7.391  1.00  0.00     0.255 C 
ATOM     78  H   UNL     1       5.624  -2.046   6.763  1.00  0.00     0.163 HD
ATOM     79  O   UNL     1       7.223  -2.444   8.490  1.00  0.00    -0.269 OA
BRANCH  77  80
ATOM     80  C   UNL     1       8.980  -1.728   7.105  1.00  0.00     0.087 A 
ATOM     81  C   UNL     1       9.841  -2.767   7.516  1.00  0.00     0.019 A 
ATOM     82  C   UNL     1       9.545  -0.596   6.472  1.00  0.00     0.150 A 
ATOM     83  C   UNL     1      11.221  -2.698   7.304  1.00  0.00     0.020 A 
ATOM     84  C   UNL     1      10.938  -0.524   6.282  1.00  0.00     0.072 A 
ATOM     85  C   UNL     1      11.761  -1.570   6.692  1.00  0.00     0.059 A 
BRANCH  82  86
ATOM     86  N   UNL     1       8.783   0.495   6.018  1.00  0.00    -0.153 N 
ATOM     87  C   UNL     1       7.923   1.182   6.835  1.00  0.00     0.385 C 
ATOM     88  C   UNL     1       8.802   1.114   4.789  1.00  0.00     0.295 C 
ATOM     89  O   UNL     1       7.727   1.044   8.030  1.00  0.00    -0.236 OA
ATOM     90  C   UNL     1       7.349   2.211   5.912  1.00  0.00     0.215 C 
ATOM     91  N   UNL     1       7.987   2.130   4.684  1.00  0.00    -0.233 N 
ATOM     92  C   UNL     1       6.327   3.036   6.188  1.00  0.00     0.060 C 
ATOM     93  H   UNL     1       7.855   2.712   3.902  1.00  0.00     0.312 HD
BRANCH  88  94
ATOM     94  C   UNL     1       9.606   0.627   3.625  1.00  0.00     0.065 A 
ATOM     95  C   UNL     1      10.210   1.573   2.792  1.00  0.00     0.017 A 
ATOM     96  C   UNL     1       9.730  -0.732   3.290  1.00  0.00     0.017 A 
ATOM     97  C   UNL     1      10.926   1.163   1.660  1.00  0.00     0.001 A 
ATOM     98  C   UNL     1      10.416  -1.138   2.145  1.00  0.00     0.001 A 
ATOM     99  C   UNL     1      11.018  -0.189   1.331  1.00  0.00     0.000 A 
ENDBRANCH  88  94
BRANCH  92 100
ATOM    100  C   UNL     1       5.613   3.116   7.448  1.00  0.00     0.005 C 
ATOM    101  C   UNL     1       4.600   3.958   7.710  1.00  0.00     0.008 C 
BRANCH 101 102
ATOM    102  C   UNL     1       3.974   4.021   9.043  1.00  0.00    -0.026 A 
ATOM    103  C   UNL     1       2.582   4.120   9.162  1.00  0.00     0.008 A 
ATOM    104  C   UNL     1       4.751   4.030  10.212  1.00  0.00     0.008 A 
ATOM    105  C   UNL     1       1.982   4.195  10.424  1.00  0.00     0.001 A 
ATOM    106  C   UNL     1       4.151   4.106  11.471  1.00  0.00     0.001 A 
ATOM    107  C   UNL     1       2.765   4.186  11.577  1.00  0.00     0.000 A 
ENDBRANCH 101 102
ENDBRANCH  92 100
ENDBRANCH  82  86
BRANCH  85 108
ATOM    108  S   UNL     1      13.509  -1.474   6.437  1.00  0.00     0.124 S 
ATOM    109  O   UNL     1      14.145  -1.430   7.733  1.00  0.00    -0.237 OA
ATOM    110  O   UNL     1      13.857  -2.466   5.445  1.00  0.00    -0.237 OA
ATOM    111  O   UNL     1      13.771  -0.035   5.754  1.00  0.00    -0.744 OA
ENDBRANCH  85 108
ENDBRANCH  77  80
ENDBRANCH  75  76
ENDBRANCH  74  75
ENDBRANCH   1  74
TORSDOF 18
