REMARK SMILES C[NH+](C)CC[NH2+][C@@H](C(=O)NCCCCCCNC(=O)c1ccc(-c2c3nc(c(-c4c(F)c(F)c(F)c(F)c4F)c4ccc([nH]4)c(-c4c(F)c(F)c(F)c(F)c4F)c4nc(c(-c5c(F)c(F)c(F)c(F)c5F)c5ccc2[nH]5)C=C4)C=C3)cc1)c1cccc(C2CC2)c1
REMARK SMILES IDX 12 1 11 2 10 3 8 4 9 5 7 7 6 8 5 11 4 12 2 13 1 14 3 15
REMARK SMILES IDX 83 17 84 18 91 19 85 20 87 21 86 22 88 23 89 24 90 25 13 26
REMARK SMILES IDX 14 27 15 28 16 29 17 30 18 31 19 33 20 34 21 35 82 36 22 37
REMARK SMILES IDX 81 38 23 39 24 40 25 41 75 42 26 43 80 44 74 45 76 46 27 47
REMARK SMILES IDX 79 48 73 49 72 50 28 52 60 53 40 54 59 55 41 56 44 57 58 58
REMARK SMILES IDX 77 59 42 60 43 61 57 63 78 64 45 65 29 66 30 67 38 68 31 69
REMARK SMILES IDX 32 70 36 71 39 72 33 73 34 74 37 75 35 76 61 77 62 78 70 79
REMARK SMILES IDX 63 80 64 81 68 82 71 83 65 84 66 85 69 86 67 87 46 88 47 89
REMARK SMILES IDX 55 90 48 91 49 92 53 93 56 94 50 95 51 96 54 97 52 98
REMARK H PARENT 10 6 6 9 6 10 2 16 17 32 76 51 44 62
REMARK Flexibility Score: inf
ROOT
ATOM      1  C   UNL     1      -1.852   1.749  -3.549  1.00  0.00     0.021 C 
ENDROOT
BRANCH   1   2
ATOM      2  C   UNL     1      -1.371   3.167  -3.197  1.00  0.00     0.116 C 
BRANCH   2   3
ATOM      3  N   UNL     1      -1.692   3.460  -1.814  1.00  0.00    -0.351 N 
ATOM      4  C   UNL     1      -0.940   3.331  -0.680  1.00  0.00     0.283 C 
ATOM      5  O   UNL     1      -1.583   3.158   0.363  1.00  0.00    -0.268 OA
ATOM      6  H   UNL     1      -2.601   3.809  -1.667  1.00  0.00     0.163 HD
BRANCH   4   7
ATOM      7  C   UNL     1       0.631   3.394  -0.687  1.00  0.00     0.304 C 
BRANCH   7   8
ATOM      8  N   UNL     1       1.192   2.022  -0.682  1.00  0.00    -0.328 N 
ATOM      9  H   UNL     1       2.137   2.078  -0.302  1.00  0.00     0.347 HD
ATOM     10  H   UNL     1       0.536   1.472  -0.128  1.00  0.00     0.347 HD
BRANCH   8  11
ATOM     11  C   UNL     1       1.273   1.336  -1.956  1.00  0.00     0.323 C 
BRANCH  11  12
ATOM     12  C   UNL     1       1.656  -0.162  -1.849  1.00  0.00     0.323 C 
BRANCH  12  13
ATOM     13  N   UNL     1       0.933  -1.041  -0.915  1.00  0.00    -0.335 N 
ATOM     14  C   UNL     1       1.364  -0.929   0.474  1.00  0.00     0.332 C 
ATOM     15  C   UNL     1      -0.518  -1.005  -1.038  1.00  0.00     0.332 C 
ATOM     16  H   UNL     1       1.212  -1.972  -1.226  1.00  0.00     0.347 HD
ENDBRANCH  12  13
ENDBRANCH  11  12
ENDBRANCH   8  11
ENDBRANCH   7   8
BRANCH   7  17
ATOM     17  C   UNL     1       1.086   4.131   0.597  1.00  0.00     0.019 A 
ATOM     18  C   UNL     1       1.528   3.422   1.731  1.00  0.00     0.010 A 
ATOM     19  C   UNL     1       0.938   5.530   0.716  1.00  0.00     0.014 A 
ATOM     20  C   UNL     1       1.780   4.068   2.935  1.00  0.00     0.001 A 
ATOM     21  C   UNL     1       1.173   6.213   1.932  1.00  0.00    -0.044 A 
ATOM     22  C   UNL     1       1.595   5.442   3.031  1.00  0.00     0.004 A 
BRANCH  21  23
ATOM     23  C   UNL     1       0.947   7.698   2.146  1.00  0.00     0.019 C 
ATOM     24  C   UNL     1       0.787   8.700   1.035  1.00  0.00     0.009 C 
ATOM     25  C   UNL     1      -0.413   8.277   1.833  1.00  0.00     0.009 C 
ENDBRANCH  21  23
ENDBRANCH   7  17
ENDBRANCH   4   7
ENDBRANCH   2   3
ENDBRANCH   1   2
BRANCH   1  26
ATOM     26  C   UNL     1      -3.343   1.624  -3.869  1.00  0.00     0.002 C 
BRANCH  26  27
ATOM     27  C   UNL     1      -3.759   2.179  -5.231  1.00  0.00     0.002 C 
BRANCH  27  28
ATOM     28  C   UNL     1      -2.986   1.623  -6.431  1.00  0.00     0.021 C 
BRANCH  28  29
ATOM     29  C   UNL     1      -2.964   0.099  -6.537  1.00  0.00     0.116 C 
BRANCH  29  30
ATOM     30  N   UNL     1      -4.292  -0.452  -6.755  1.00  0.00    -0.352 N 
ATOM     31  C   UNL     1      -4.794  -1.106  -7.853  1.00  0.00     0.251 C 
ATOM     32  H   UNL     1      -4.922  -0.341  -6.006  1.00  0.00     0.163 HD
ATOM     33  O   UNL     1      -5.998  -1.305  -7.963  1.00  0.00    -0.269 OA
BRANCH  31  34
ATOM     34  C   UNL     1      -3.874  -1.560  -8.917  1.00  0.00     0.039 A 
ATOM     35  C   UNL     1      -4.190  -1.285 -10.250  1.00  0.00     0.014 A 
ATOM     36  C   UNL     1      -2.709  -2.262  -8.598  1.00  0.00     0.014 A 
ATOM     37  C   UNL     1      -3.301  -1.658 -11.261  1.00  0.00     0.010 A 
ATOM     38  C   UNL     1      -1.794  -2.574  -9.599  1.00  0.00     0.010 A 
ATOM     39  C   UNL     1      -2.081  -2.275 -10.941  1.00  0.00    -0.014 A 
BRANCH  39  40
ATOM     40  C   UNL     1      -1.087  -2.608 -11.992  1.00  0.00     0.031 A 
ATOM     41  C   UNL     1      -0.728  -4.041 -12.267  1.00  0.00     0.074 A 
ATOM     42  C   UNL     1      -0.453  -1.615 -12.646  1.00  0.00     0.049 A 
ATOM     43  N   UNL     1       0.172  -4.528 -13.085  1.00  0.00    -0.248 NA
ATOM     44  C   UNL     1      -1.458  -5.062 -11.501  1.00  0.00     0.031 C 
ATOM     45  C   UNL     1      -0.678  -0.185 -12.432  1.00  0.00     0.029 A 
ATOM     46  N   UNL     1       0.523  -1.657 -13.610  1.00  0.00    -0.354 N 
ATOM     47  C   UNL     1       0.125  -5.906 -12.921  1.00  0.00     0.074 A 
ATOM     48  C   UNL     1      -0.853  -6.175 -11.889  1.00  0.00     0.031 C 
ATOM     49  C   UNL     1       0.127   0.513 -13.248  1.00  0.00     0.029 A 
ATOM     50  C   UNL     1       0.950  -0.416 -14.015  1.00  0.00     0.049 A 
ATOM     51  H   UNL     1       0.882  -2.497 -13.977  1.00  0.00     0.167 HD
ATOM     52  C   UNL     1       0.819  -6.860 -13.586  1.00  0.00     0.037 A 
ATOM     53  C   UNL     1       1.908  -0.068 -14.895  1.00  0.00     0.037 A 
ATOM     54  C   UNL     1       1.776  -6.587 -14.626  1.00  0.00     0.049 A 
ATOM     55  C   UNL     1       2.670  -1.146 -15.617  1.00  0.00     0.074 A 
ATOM     56  C   UNL     1       2.482  -7.485 -15.408  1.00  0.00     0.029 A 
ATOM     57  N   UNL     1       2.167  -5.316 -15.025  1.00  0.00    -0.354 N 
ATOM     58  N   UNL     1       2.562  -2.448 -15.509  1.00  0.00    -0.248 NA
ATOM     59  C   UNL     1       3.682  -0.706 -16.587  1.00  0.00     0.031 C 
ATOM     60  C   UNL     1       3.337  -6.759 -16.244  1.00  0.00     0.029 A 
ATOM     61  C   UNL     1       3.126  -5.408 -16.022  1.00  0.00     0.049 A 
ATOM     62  H   UNL     1       1.816  -4.475 -14.654  1.00  0.00     0.167 HD
ATOM     63  C   UNL     1       3.472  -2.982 -16.412  1.00  0.00     0.074 A 
ATOM     64  C   UNL     1       4.112  -1.863 -17.071  1.00  0.00     0.031 C 
ATOM     65  C   UNL     1       3.753  -4.283 -16.670  1.00  0.00     0.037 A 
BRANCH  52  66
ATOM     66  C   UNL     1       0.568  -8.291 -13.208  1.00  0.00     0.064 A 
ATOM     67  C   UNL     1      -0.650  -8.927 -13.495  1.00  0.00     0.173 A 
ATOM     68  C   UNL     1       1.568  -9.048 -12.578  1.00  0.00     0.173 A 
ATOM     69  F   UNL     1      -1.643  -8.247 -14.087  1.00  0.00    -0.203 F 
ATOM     70  C   UNL     1      -0.870 -10.254 -13.135  1.00  0.00     0.198 A 
ATOM     71  C   UNL     1       1.357 -10.384 -12.248  1.00  0.00     0.198 A 
ATOM     72  F   UNL     1       2.754  -8.493 -12.287  1.00  0.00    -0.203 F 
ATOM     73  F   UNL     1      -2.060 -10.823 -13.371  1.00  0.00    -0.200 F 
ATOM     74  C   UNL     1       0.136 -10.983 -12.518  1.00  0.00     0.200 A 
ATOM     75  F   UNL     1       2.334 -11.092 -11.665  1.00  0.00    -0.200 F 
ATOM     76  F   UNL     1      -0.075 -12.262 -12.178  1.00  0.00    -0.200 F 
ENDBRANCH  52  66
BRANCH  53  77
ATOM     77  C   UNL     1       2.189   1.369 -15.151  1.00  0.00     0.064 A 
ATOM     78  C   UNL     1       1.858   1.961 -16.378  1.00  0.00     0.173 A 
ATOM     79  C   UNL     1       2.786   2.180 -14.175  1.00  0.00     0.173 A 
ATOM     80  F   UNL     1       1.303   1.222 -17.350  1.00  0.00    -0.203 F 
ATOM     81  C   UNL     1       2.132   3.305 -16.626  1.00  0.00     0.198 A 
ATOM     82  C   UNL     1       3.032   3.531 -14.413  1.00  0.00     0.198 A 
ATOM     83  F   UNL     1       3.116   1.664 -12.982  1.00  0.00    -0.203 F 
ATOM     84  F   UNL     1       1.845   3.835 -17.822  1.00  0.00    -0.200 F 
ATOM     85  C   UNL     1       2.712   4.090 -15.641  1.00  0.00     0.200 A 
ATOM     86  F   UNL     1       3.578   4.290 -13.453  1.00  0.00    -0.200 F 
ATOM     87  F   UNL     1       2.968   5.384 -15.877  1.00  0.00    -0.200 F 
ENDBRANCH  53  77
BRANCH  65  88
ATOM     88  C   UNL     1       4.778  -4.570 -17.728  1.00  0.00     0.064 A 
ATOM     89  C   UNL     1       6.144  -4.330 -17.514  1.00  0.00     0.173 A 
ATOM     90  C   UNL     1       4.394  -5.132 -18.955  1.00  0.00     0.173 A 
ATOM     91  F   UNL     1       6.560  -3.779 -16.364  1.00  0.00    -0.203 F 
ATOM     92  C   UNL     1       7.084  -4.623 -18.497  1.00  0.00     0.198 A 
ATOM     93  C   UNL     1       5.341  -5.452 -19.924  1.00  0.00     0.198 A 
ATOM     94  F   UNL     1       3.102  -5.386 -19.208  1.00  0.00    -0.203 F 
ATOM     95  F   UNL     1       8.378  -4.344 -18.288  1.00  0.00    -0.200 F 
ATOM     96  C   UNL     1       6.684  -5.192 -19.698  1.00  0.00     0.200 A 
ATOM     97  F   UNL     1       4.953  -6.014 -21.078  1.00  0.00    -0.200 F 
ATOM     98  F   UNL     1       7.592  -5.482 -20.639  1.00  0.00    -0.200 F 
ENDBRANCH  65  88
ENDBRANCH  39  40
ENDBRANCH  31  34
ENDBRANCH  29  30
ENDBRANCH  28  29
ENDBRANCH  27  28
ENDBRANCH  26  27
ENDBRANCH   1  26
TORSDOF 19
