REMARK SMILES O=C(NCCCCCCNC(=O)[C@@]1(Cc2cn3ccccc3n2)CCC[NH2+]C1)c1ccc(-c2c3nc(c(-c4c(F)c(F)c(F)c(F)c4F)c4ccc([nH]4)c(-c4c(F)c(F)c(F)c(F)c4F)c4nc(c(-c5c(F)c(F)c(F)c(F)c5F)c5ccc2[nH]5)C=C4)C=C3)cc1
REMARK SMILES IDX 6 1 5 2 4 3 3 4 1 5 2 6 29 8 30 9 91 10 31 11 90 12 32 13
REMARK SMILES IDX 33 14 34 15 84 16 35 17 89 18 83 19 85 20 36 21 88 22 82 23
REMARK SMILES IDX 81 24 37 26 69 27 49 28 68 29 50 30 53 31 67 32 86 33 51 34
REMARK SMILES IDX 52 35 66 37 87 38 54 39 38 40 39 41 47 42 40 43 41 44 45 45
REMARK SMILES IDX 48 46 42 47 43 48 46 49 44 50 70 51 71 52 79 53 72 54 73 55
REMARK SMILES IDX 77 56 80 57 74 58 75 59 78 60 76 61 55 62 56 63 64 64 57 65
REMARK SMILES IDX 58 66 62 67 65 68 59 69 60 70 63 71 61 72 7 73 8 74 9 75
REMARK SMILES IDX 10 76 11 77 12 79 13 80 24 81 28 82 25 83 27 84 26 85 14 88
REMARK SMILES IDX 15 89 16 90 23 91 17 92 22 93 18 94 21 95 19 96 20 97
REMARK H PARENT 3 7 85 25 53 36 10 78 27 86 27 87
REMARK Flexibility Score: inf
ROOT
ATOM      1  C   UNL     1       5.081  -0.396   2.890  1.00  0.00     0.002 C 
ENDROOT
BRANCH   1   2
ATOM      2  C   UNL     1       3.771  -0.301   3.675  1.00  0.00     0.021 C 
BRANCH   2   3
ATOM      3  C   UNL     1       2.765   0.659   3.058  1.00  0.00     0.116 C 
BRANCH   3   4
ATOM      4  N   UNL     1       2.353   0.209   1.738  1.00  0.00    -0.352 N 
ATOM      5  O   UNL     1       0.975  -0.806   0.266  1.00  0.00    -0.269 OA
ATOM      6  C   UNL     1       1.112  -0.194   1.317  1.00  0.00     0.251 C 
ATOM      7  H   UNL     1       3.061   0.193   1.053  1.00  0.00     0.163 HD
BRANCH   6   8
ATOM      8  C   UNL     1      -0.062   0.125   2.152  1.00  0.00     0.039 A 
ATOM      9  C   UNL     1      -0.189   1.397   2.717  1.00  0.00     0.014 A 
ATOM     10  C   UNL     1      -1.047  -0.843   2.352  1.00  0.00     0.014 A 
ATOM     11  C   UNL     1      -1.240   1.664   3.580  1.00  0.00     0.010 A 
ATOM     12  C   UNL     1      -2.156  -0.539   3.143  1.00  0.00     0.010 A 
ATOM     13  C   UNL     1      -2.253   0.713   3.771  1.00  0.00    -0.014 A 
BRANCH  13  14
ATOM     14  C   UNL     1      -3.456   1.091   4.548  1.00  0.00     0.031 A 
ATOM     15  C   UNL     1      -3.802   0.402   5.833  1.00  0.00     0.074 A 
ATOM     16  C   UNL     1      -4.232   2.084   4.072  1.00  0.00     0.049 A 
ATOM     17  N   UNL     1      -4.827   0.601   6.624  1.00  0.00    -0.248 NA
ATOM     18  C   UNL     1      -2.886  -0.653   6.291  1.00  0.00     0.031 C 
ATOM     19  C   UNL     1      -3.988   2.817   2.825  1.00  0.00     0.029 A 
ATOM     20  N   UNL     1      -5.369   2.658   4.575  1.00  0.00    -0.354 N 
ATOM     21  C   UNL     1      -4.689  -0.309   7.662  1.00  0.00     0.074 A 
ATOM     22  C   UNL     1      -3.497  -1.085   7.386  1.00  0.00     0.031 C 
ATOM     23  C   UNL     1      -4.920   3.768   2.683  1.00  0.00     0.029 A 
ATOM     24  C   UNL     1      -5.869   3.663   3.784  1.00  0.00     0.049 A 
ATOM     25  H   UNL     1      -5.788   2.378   5.421  1.00  0.00     0.167 HD
ATOM     26  C   UNL     1      -5.484  -0.472   8.747  1.00  0.00     0.037 A 
ATOM     27  C   UNL     1      -6.986   4.401   3.914  1.00  0.00     0.037 A 
ATOM     28  C   UNL     1      -6.667   0.311   9.005  1.00  0.00     0.049 A 
ATOM     29  C   UNL     1      -7.875   4.159   5.099  1.00  0.00     0.074 A 
ATOM     30  C   UNL     1      -7.526   0.245  10.089  1.00  0.00     0.029 A 
ATOM     31  N   UNL     1      -7.164   1.297   8.163  1.00  0.00    -0.354 N 
ATOM     32  N   UNL     1      -7.717   3.321   6.093  1.00  0.00    -0.248 NA
ATOM     33  C   UNL     1      -9.099   4.964   5.178  1.00  0.00     0.031 C 
ATOM     34  C   UNL     1      -8.573   1.146   9.873  1.00  0.00     0.029 A 
ATOM     35  C   UNL     1      -8.334   1.824   8.689  1.00  0.00     0.049 A 
ATOM     36  H   UNL     1      -6.747   1.580   7.318  1.00  0.00     0.167 HD
ATOM     37  C   UNL     1      -8.807   3.511   6.929  1.00  0.00     0.074 A 
ATOM     38  C   UNL     1      -9.608   4.561   6.333  1.00  0.00     0.031 C 
ATOM     39  C   UNL     1      -9.118   2.872   8.083  1.00  0.00     0.037 A 
BRANCH  26  40
ATOM     40  C   UNL     1      -5.118  -1.551   9.727  1.00  0.00     0.064 A 
ATOM     41  C   UNL     1      -3.985  -1.452  10.549  1.00  0.00     0.173 A 
ATOM     42  C   UNL     1      -5.940  -2.679   9.880  1.00  0.00     0.173 A 
ATOM     43  F   UNL     1      -3.160  -0.400  10.438  1.00  0.00    -0.203 F 
ATOM     44  C   UNL     1      -3.675  -2.453  11.467  1.00  0.00     0.198 A 
ATOM     45  C   UNL     1      -5.644  -3.662  10.821  1.00  0.00     0.198 A 
ATOM     46  F   UNL     1      -7.040  -2.822   9.126  1.00  0.00    -0.203 F 
ATOM     47  F   UNL     1      -2.562  -2.358  12.208  1.00  0.00    -0.200 F 
ATOM     48  C   UNL     1      -4.508  -3.552  11.608  1.00  0.00     0.200 A 
ATOM     49  F   UNL     1      -6.459  -4.716  10.967  1.00  0.00    -0.200 F 
ATOM     50  F   UNL     1      -4.213  -4.509  12.499  1.00  0.00    -0.200 F 
ENDBRANCH  26  40
BRANCH  27  51
ATOM     51  C   UNL     1      -7.323   5.419   2.886  1.00  0.00     0.064 A 
ATOM     52  C   UNL     1      -7.310   6.786   3.193  1.00  0.00     0.173 A 
ATOM     53  C   UNL     1      -7.653   5.048   1.573  1.00  0.00     0.173 A 
ATOM     54  F   UNL     1      -7.015   7.190   4.438  1.00  0.00    -0.203 F 
ATOM     55  C   UNL     1      -7.634   7.742   2.233  1.00  0.00     0.198 A 
ATOM     56  C   UNL     1      -7.943   6.006   0.605  1.00  0.00     0.198 A 
ATOM     57  F   UNL     1      -7.672   3.753   1.225  1.00  0.00    -0.203 F 
ATOM     58  F   UNL     1      -7.660   9.039   2.565  1.00  0.00    -0.200 F 
ATOM     59  C   UNL     1      -7.943   7.351   0.938  1.00  0.00     0.200 A 
ATOM     60  F   UNL     1      -8.219   5.625  -0.649  1.00  0.00    -0.200 F 
ATOM     61  F   UNL     1      -8.247   8.272   0.013  1.00  0.00    -0.200 F 
ENDBRANCH  27  51
BRANCH  39  62
ATOM     62  C   UNL     1     -10.361   3.320   8.797  1.00  0.00     0.064 A 
ATOM     63  C   UNL     1     -11.641   3.055   8.288  1.00  0.00     0.173 A 
ATOM     64  C   UNL     1     -10.268   3.997  10.023  1.00  0.00     0.173 A 
ATOM     65  F   UNL     1     -11.784   2.427   7.111  1.00  0.00    -0.203 F 
ATOM     66  C   UNL     1     -12.781   3.477   8.967  1.00  0.00     0.198 A 
ATOM     67  C   UNL     1     -11.410   4.385  10.715  1.00  0.00     0.198 A 
ATOM     68  F   UNL     1      -9.067   4.271  10.555  1.00  0.00    -0.203 F 
ATOM     69  F   UNL     1     -13.992   3.263   8.434  1.00  0.00    -0.200 F 
ATOM     70  C   UNL     1     -12.665   4.133  10.183  1.00  0.00     0.200 A 
ATOM     71  F   UNL     1     -11.296   5.006  11.898  1.00  0.00    -0.200 F 
ATOM     72  F   UNL     1     -13.764   4.531  10.838  1.00  0.00    -0.200 F 
ENDBRANCH  39  62
ENDBRANCH  13  14
ENDBRANCH   6   8
ENDBRANCH   3   4
ENDBRANCH   2   3
ENDBRANCH   1   2
BRANCH   1  73
ATOM     73  C   UNL     1       5.841   0.931   2.750  1.00  0.00     0.002 C 
BRANCH  73  74
ATOM     74  C   UNL     1       6.029   1.700   4.062  1.00  0.00     0.021 C 
BRANCH  74  75
ATOM     75  C   UNL     1       6.719   0.869   5.143  1.00  0.00     0.116 C 
BRANCH  75  76
ATOM     76  N   UNL     1       8.160   1.004   5.058  1.00  0.00    -0.355 N 
ATOM     77  C   UNL     1       9.106   1.763   5.658  1.00  0.00     0.232 C 
ATOM     78  H   UNL     1       8.549   0.387   4.396  1.00  0.00     0.163 HD
ATOM     79  O   UNL     1      10.220   1.673   5.118  1.00  0.00    -0.274 OA
BRANCH  77  80
ATOM     80  C   UNL     1       8.943   2.612   6.952  1.00  0.00     0.104 C 
ATOM     81  C   UNL     1       9.713   1.836   8.054  1.00  0.00     0.029 C 
ATOM     82  C   UNL     1       9.710   3.934   6.671  1.00  0.00     0.277 C 
ATOM     83  C   UNL     1      10.069   2.690   9.268  1.00  0.00     0.063 C 
ATOM     84  N   UNL     1       9.971   4.756   7.855  1.00  0.00    -0.345 N 
ATOM     85  C   UNL     1      10.709   4.022   8.881  1.00  0.00     0.260 C 
ATOM     86  H   UNL     1      10.518   5.571   7.575  1.00  0.00     0.346 HD
ATOM     87  H   UNL     1       9.073   5.033   8.251  1.00  0.00     0.346 HD
BRANCH  80  88
ATOM     88  C   UNL     1       7.469   2.848   7.333  1.00  0.00     0.080 C 
BRANCH  88  89
ATOM     89  C   UNL     1       7.083   3.683   8.502  1.00  0.00     0.061 A 
ATOM     90  C   UNL     1       7.102   5.050   8.671  1.00  0.00     0.116 A 
ATOM     91  N   UNL     1       6.537   3.071   9.613  1.00  0.00    -0.234 NA
ATOM     92  N   UNL     1       6.765   5.260   9.981  1.00  0.00    -0.307 N 
ATOM     93  C   UNL     1       6.364   4.033  10.493  1.00  0.00     0.136 A 
ATOM     94  C   UNL     1       6.816   6.429  10.734  1.00  0.00     0.093 A 
ATOM     95  C   UNL     1       5.904   4.008  11.839  1.00  0.00     0.048 A 
ATOM     96  C   UNL     1       6.438   6.390  12.024  1.00  0.00     0.018 A 
ATOM     97  C   UNL     1       5.946   5.135  12.576  1.00  0.00     0.005 A 
ENDBRANCH  88  89
ENDBRANCH  80  88
ENDBRANCH  77  80
ENDBRANCH  75  76
ENDBRANCH  74  75
ENDBRANCH  73  74
ENDBRANCH   1  73
TORSDOF 15
