REMARK SMILES NS(=O)(=O)c1ccc(-n2nc(NC(=O)NCCCCCCCCCCC(=O)NCCCCCCNC(=O)c3ccc(-c4c5nc(c(-c6c(F)c(F)c(F)c(F)c6F)c6ccc([nH]6)c(-c6c(F)c(F)c(F)c(F)c6F)c6nc(c(-c7c(F)c(F)c(F)c(F)c7F)c7ccc4[nH]7)C=C6)C=C5)cc3)cc2-c2ccccc2)cc1
REMARK SMILES IDX 23 1 22 2 21 3 20 4 19 5 18 6 17 7 16 8 15 9 12 10 13 11
REMARK SMILES IDX 14 13 11 15 9 16 10 17 102 18 101 19 8 20 5 21 6 22 110 23
REMARK SMILES IDX 7 24 109 25 2 26 3 27 4 28 1 29 103 32 104 33 108 34 105 35
REMARK SMILES IDX 107 36 106 37 24 38 25 39 26 40 27 41 28 42 29 44 30 45
REMARK SMILES IDX 31 46 32 47 33 48 34 49 35 50 36 51 37 53 38 54 39 55 100 56
REMARK SMILES IDX 40 57 99 58 41 59 42 60 43 61 93 62 44 63 98 64 92 65 94 66
REMARK SMILES IDX 45 67 97 68 91 69 90 70 46 72 78 73 58 74 77 75 59 76 62 77
REMARK SMILES IDX 76 78 95 79 60 80 61 81 75 83 96 84 63 85 47 86 48 87 56 88
REMARK SMILES IDX 49 89 50 90 54 91 57 92 51 93 52 94 55 95 53 96 79 97 80 98
REMARK SMILES IDX 88 99 81 100 82 101 86 102 89 103 83 104 84 105 87 106
REMARK SMILES IDX 85 107 64 108 65 109 73 110 66 111 67 112 71 113 74 114
REMARK SMILES IDX 68 115 69 116 72 117 70 118
REMARK H PARENT 12 12 15 14 1 30 1 31 28 43 35 52 94 71 62 82
REMARK Flexibility Score: inf
ROOT
ATOM      1  C   UNL     1      -2.257   3.856   4.745  1.00  0.00     0.001 C 
ENDROOT
BRANCH   1   2
ATOM      2  C   UNL     1      -2.842   2.480   5.083  1.00  0.00     0.000 C 
BRANCH   2   3
ATOM      3  C   UNL     1      -1.794   1.396   5.232  1.00  0.00     0.000 C 
BRANCH   3   4
ATOM      4  C   UNL     1      -0.890   1.579   6.445  1.00  0.00     0.000 C 
BRANCH   4   5
ATOM      5  C   UNL     1      -1.576   1.673   7.812  1.00  0.00     0.000 C 
BRANCH   5   6
ATOM      6  C   UNL     1      -2.495   0.509   8.199  1.00  0.00     0.002 C 
BRANCH   6   7
ATOM      7  C   UNL     1      -1.949  -0.902   7.979  1.00  0.00     0.021 C 
BRANCH   7   8
ATOM      8  C   UNL     1      -0.515  -1.149   8.421  1.00  0.00     0.117 C 
BRANCH   8   9
ATOM      9  N   UNL     1      -0.289  -1.273   9.837  1.00  0.00    -0.338 N 
ATOM     10  N   UNL     1       1.685  -2.614   9.844  1.00  0.00    -0.291 N 
ATOM     11  C   UNL     1       0.698  -1.939  10.479  1.00  0.00     0.320 C 
ATOM     12  H   UNL     1       2.108  -3.308  10.398  1.00  0.00     0.173 HD
ATOM     13  O   UNL     1       0.617  -2.027  11.709  1.00  0.00    -0.248 OA
ATOM     14  H   UNL     1      -0.939  -0.811  10.415  1.00  0.00     0.165 HD
BRANCH  10  15
ATOM     15  C   UNL     1       2.214  -2.522   8.572  1.00  0.00     0.157 A 
ATOM     16  N   UNL     1       2.483  -1.925   6.555  1.00  0.00    -0.231 N 
ATOM     17  N   UNL     1       2.162  -1.450   7.777  1.00  0.00    -0.149 NA
ATOM     18  C   UNL     1       3.168  -3.127   6.647  1.00  0.00     0.076 A 
ATOM     19  C   UNL     1       2.952  -3.556   7.944  1.00  0.00     0.078 A 
BRANCH  16  20
ATOM     20  C   UNL     1       2.050  -1.252   5.379  1.00  0.00     0.065 A 
ATOM     21  C   UNL     1       1.188   0.062   3.075  1.00  0.00     0.082 A 
ATOM     22  C   UNL     1       1.121  -1.331   3.136  1.00  0.00     0.024 A 
ATOM     23  C   UNL     1       1.677   0.802   4.157  1.00  0.00     0.024 A 
ATOM     24  C   UNL     1       1.564  -1.989   4.285  1.00  0.00     0.030 A 
ATOM     25  C   UNL     1       2.086   0.145   5.323  1.00  0.00     0.030 A 
BRANCH  21  26
ATOM     26  S   UNL     1       0.633   0.899   1.619  1.00  0.00     0.238 S 
ATOM     27  O   UNL     1       1.263   2.205   1.562  1.00  0.00    -0.207 OA
ATOM     28  O   UNL     1      -0.785   0.713   1.494  1.00  0.00    -0.207 OA
BRANCH  26  29
ATOM     29  N   UNL     1       1.345   0.018   0.377  1.00  0.00    -0.225 NA
ATOM     30  H   UNL     1       1.084   0.425  -0.521  1.00  0.00     0.137 HD
ATOM     31  H   UNL     1       1.025  -0.949   0.418  1.00  0.00     0.137 HD
ENDBRANCH  26  29
ENDBRANCH  21  26
ENDBRANCH  16  20
BRANCH  18  32
ATOM     32  C   UNL     1       3.943  -3.684   5.544  1.00  0.00     0.000 A 
ATOM     33  C   UNL     1       4.870  -2.861   4.880  1.00  0.00     0.010 A 
ATOM     34  C   UNL     1       3.723  -4.981   5.075  1.00  0.00     0.010 A 
ATOM     35  C   UNL     1       5.528  -3.308   3.738  1.00  0.00     0.001 A 
ATOM     36  C   UNL     1       4.389  -5.428   3.931  1.00  0.00     0.001 A 
ATOM     37  C   UNL     1       5.281  -4.590   3.260  1.00  0.00     0.000 A 
ENDBRANCH  18  32
ENDBRANCH  10  15
ENDBRANCH   8   9
ENDBRANCH   7   8
ENDBRANCH   6   7
ENDBRANCH   5   6
ENDBRANCH   4   5
ENDBRANCH   3   4
ENDBRANCH   2   3
ENDBRANCH   1   2
BRANCH   1  38
ATOM     38  C   UNL     1      -2.390   4.261   3.277  1.00  0.00     0.010 C 
BRANCH  38  39
ATOM     39  C   UNL     1      -3.808   4.273   2.703  1.00  0.00     0.100 C 
BRANCH  39  40
ATOM     40  C   UNL     1      -4.615   5.517   3.027  1.00  0.00     0.219 C 
ATOM     41  O   UNL     1      -4.628   6.476   2.254  1.00  0.00    -0.275 OA
ATOM     42  N   UNL     1      -5.366   5.601   4.160  1.00  0.00    -0.356 N 
ATOM     43  H   UNL     1      -5.883   6.434   4.249  1.00  0.00     0.163 HD
BRANCH  42  44
ATOM     44  C   UNL     1      -5.531   4.668   5.257  1.00  0.00     0.116 C 
BRANCH  44  45
ATOM     45  C   UNL     1      -4.966   5.236   6.565  1.00  0.00     0.021 C 
BRANCH  45  46
ATOM     46  C   UNL     1      -5.976   6.029   7.395  1.00  0.00     0.002 C 
BRANCH  46  47
ATOM     47  C   UNL     1      -7.183   5.230   7.906  1.00  0.00     0.002 C 
BRANCH  47  48
ATOM     48  C   UNL     1      -6.877   3.982   8.748  1.00  0.00     0.021 C 
BRANCH  48  49
ATOM     49  C   UNL     1      -6.162   4.278  10.058  1.00  0.00     0.116 C 
BRANCH  49  50
ATOM     50  N   UNL     1      -6.940   5.155  10.932  1.00  0.00    -0.352 N 
ATOM     51  C   UNL     1      -6.607   5.708  12.151  1.00  0.00     0.251 C 
ATOM     52  H   UNL     1      -7.837   5.386  10.601  1.00  0.00     0.163 HD
ATOM     53  O   UNL     1      -7.481   6.135  12.899  1.00  0.00    -0.269 OA
BRANCH  51  54
ATOM     54  C   UNL     1      -5.193   5.783  12.556  1.00  0.00     0.039 A 
ATOM     55  C   UNL     1      -4.817   5.653  13.896  1.00  0.00     0.014 A 
ATOM     56  C   UNL     1      -4.232   6.003  11.574  1.00  0.00     0.014 A 
ATOM     57  C   UNL     1      -3.463   5.683  14.220  1.00  0.00     0.010 A 
ATOM     58  C   UNL     1      -2.904   5.845  11.864  1.00  0.00     0.010 A 
ATOM     59  C   UNL     1      -2.512   5.766  13.190  1.00  0.00    -0.014 A 
BRANCH  59  60
ATOM     60  C   UNL     1      -1.087   5.669  13.472  1.00  0.00     0.031 A 
ATOM     61  C   UNL     1      -0.704   4.425  14.186  1.00  0.00     0.074 A 
ATOM     62  C   UNL     1      -0.172   6.508  12.940  1.00  0.00     0.049 A 
ATOM     63  N   UNL     1      -0.262   4.314  15.394  1.00  0.00    -0.248 NA
ATOM     64  C   UNL     1      -0.989   3.135  13.534  1.00  0.00     0.031 C 
ATOM     65  C   UNL     1      -0.374   7.567  11.942  1.00  0.00     0.029 A 
ATOM     66  N   UNL     1       1.177   6.520  13.108  1.00  0.00    -0.354 N 
ATOM     67  C   UNL     1      -0.015   2.958  15.585  1.00  0.00     0.074 A 
ATOM     68  C   UNL     1      -0.664   2.273  14.499  1.00  0.00     0.031 C 
ATOM     69  C   UNL     1       0.819   7.945  11.431  1.00  0.00     0.029 A 
ATOM     70  C   UNL     1       1.873   7.289  12.181  1.00  0.00     0.049 A 
ATOM     71  H   UNL     1       1.627   6.024  13.829  1.00  0.00     0.167 HD
ATOM     72  C   UNL     1       0.935   2.548  16.470  1.00  0.00     0.037 A 
ATOM     73  C   UNL     1       3.221   7.346  12.030  1.00  0.00     0.037 A 
ATOM     74  C   UNL     1       1.275   3.613  17.384  1.00  0.00     0.049 A 
ATOM     75  C   UNL     1       3.821   6.818  13.280  1.00  0.00     0.074 A 
ATOM     76  C   UNL     1       0.569   4.378  18.294  1.00  0.00     0.029 A 
ATOM     77  N   UNL     1       2.446   4.295  17.159  1.00  0.00    -0.354 N 
ATOM     78  N   UNL     1       3.762   7.426  14.431  1.00  0.00    -0.248 NA
ATOM     79  C   UNL     1       4.101   5.391  13.338  1.00  0.00     0.031 C 
ATOM     80  C   UNL     1       1.121   5.689  18.181  1.00  0.00     0.029 A 
ATOM     81  C   UNL     1       2.178   5.634  17.272  1.00  0.00     0.049 A 
ATOM     82  H   UNL     1       3.321   3.894  16.954  1.00  0.00     0.167 HD
ATOM     83  C   UNL     1       3.549   6.411  15.350  1.00  0.00     0.074 A 
ATOM     84  C   UNL     1       3.861   5.176  14.634  1.00  0.00     0.031 C 
ATOM     85  C   UNL     1       2.858   6.648  16.503  1.00  0.00     0.037 A 
BRANCH  72  86
ATOM     86  C   UNL     1       1.847   1.357  16.254  1.00  0.00     0.064 A 
ATOM     87  C   UNL     1       2.759   1.013  17.273  1.00  0.00     0.173 A 
ATOM     88  C   UNL     1       2.088   0.751  15.000  1.00  0.00     0.173 A 
ATOM     89  F   UNL     1       2.640   1.536  18.503  1.00  0.00    -0.203 F 
ATOM     90  C   UNL     1       3.879   0.216  17.026  1.00  0.00     0.198 A 
ATOM     91  C   UNL     1       3.175  -0.091  14.773  1.00  0.00     0.198 A 
ATOM     92  F   UNL     1       1.367   1.039  13.912  1.00  0.00    -0.203 F 
ATOM     93  F   UNL     1       4.797   0.045  17.987  1.00  0.00    -0.200 F 
ATOM     94  C   UNL     1       4.091  -0.329  15.774  1.00  0.00     0.200 A 
ATOM     95  F   UNL     1       3.381  -0.587  13.545  1.00  0.00    -0.200 F 
ATOM     96  F   UNL     1       5.202  -1.031  15.515  1.00  0.00    -0.200 F 
ENDBRANCH  72  86
BRANCH  73  97
ATOM     97  C   UNL     1       4.035   7.541  10.806  1.00  0.00     0.064 A 
ATOM     98  C   UNL     1       5.408   7.830  10.901  1.00  0.00     0.173 A 
ATOM     99  C   UNL     1       3.567   7.140   9.540  1.00  0.00     0.173 A 
ATOM    100  F   UNL     1       5.942   8.189  12.077  1.00  0.00    -0.203 F 
ATOM    101  C   UNL     1       6.270   7.671   9.811  1.00  0.00     0.198 A 
ATOM    102  C   UNL     1       4.428   6.989   8.451  1.00  0.00     0.198 A 
ATOM    103  F   UNL     1       2.286   6.786   9.361  1.00  0.00    -0.203 F 
ATOM    104  F   UNL     1       7.586   7.877   9.965  1.00  0.00    -0.200 F 
ATOM    105  C   UNL     1       5.782   7.235   8.592  1.00  0.00     0.200 A 
ATOM    106  F   UNL     1       3.951   6.533   7.284  1.00  0.00    -0.200 F 
ATOM    107  F   UNL     1       6.618   7.008   7.569  1.00  0.00    -0.200 F 
ENDBRANCH  73  97
BRANCH  85 108
ATOM    108  C   UNL     1       2.607   8.080  16.887  1.00  0.00     0.064 A 
ATOM    109  C   UNL     1       1.853   8.991  16.126  1.00  0.00     0.173 A 
ATOM    110  C   UNL     1       3.049   8.506  18.147  1.00  0.00     0.173 A 
ATOM    111  F   UNL     1       1.311   8.634  14.955  1.00  0.00    -0.203 F 
ATOM    112  C   UNL     1       1.599  10.282  16.589  1.00  0.00     0.198 A 
ATOM    113  C   UNL     1       2.760   9.781  18.623  1.00  0.00     0.198 A 
ATOM    114  F   UNL     1       3.731   7.664  18.939  1.00  0.00    -0.203 F 
ATOM    115  F   UNL     1       0.894  11.141  15.836  1.00  0.00    -0.200 F 
ATOM    116  C   UNL     1       2.046  10.673  17.840  1.00  0.00     0.200 A 
ATOM    117  F   UNL     1       3.155  10.136  19.853  1.00  0.00    -0.200 F 
ATOM    118  F   UNL     1       1.770  11.900  18.302  1.00  0.00    -0.200 F 
ENDBRANCH  85 108
ENDBRANCH  59  60
ENDBRANCH  51  54
ENDBRANCH  49  50
ENDBRANCH  48  49
ENDBRANCH  47  48
ENDBRANCH  46  47
ENDBRANCH  45  46
ENDBRANCH  44  45
ENDBRANCH  42  44
ENDBRANCH  39  40
ENDBRANCH  38  39
ENDBRANCH   1  38
TORSDOF 28
