REMARK SMILES C[C@H]([NH3+])c1ccc(F)cc1OCC(C)(C)C(=O)NCCCCCCNC(=O)c1ccc(-c2c3nc(c(-c4c(F)c(F)c(F)c(F)c4F)c4ccc([nH]4)c(-c4c(F)c(F)c(F)c(F)c4F)c4nc(c(-c5c(F)c(F)c(F)c(F)c5F)c5ccc2[nH]5)C=C4)C=C3)cc1
REMARK SMILES IDX 20 1 19 2 18 3 16 4 17 5 13 7 14 8 15 9 12 10 11 11 10 12
REMARK SMILES IDX 4 13 5 14 6 15 9 16 7 17 8 18 2 19 1 20 3 21 21 25 22 26
REMARK SMILES IDX 23 27 24 28 25 29 26 30 27 32 28 33 29 34 90 35 30 36 89 37
REMARK SMILES IDX 31 38 32 39 33 40 83 41 34 42 88 43 82 44 84 45 35 46 87 47
REMARK SMILES IDX 81 48 80 49 36 51 68 52 48 53 67 54 49 55 52 56 66 57 85 58
REMARK SMILES IDX 50 59 51 60 65 62 86 63 53 64 37 65 38 66 46 67 39 68 40 69
REMARK SMILES IDX 44 70 47 71 41 72 42 73 45 74 43 75 69 76 70 77 78 78 71 79
REMARK SMILES IDX 72 80 76 81 79 82 73 83 74 84 77 85 75 86 54 87 55 88 63 89
REMARK SMILES IDX 56 90 57 91 61 92 64 93 58 94 59 95 62 96 60 97
REMARK H PARENT 18 6 3 22 3 23 3 24 25 31 84 50 52 61
REMARK Flexibility Score: inf
ROOT
ATOM      1  C   UNL     1       3.089  -5.106  -1.190  1.00  0.00     0.021 C 
ENDROOT
BRANCH   1   2
ATOM      2  C   UNL     1       1.969  -4.186  -0.743  1.00  0.00     0.116 C 
BRANCH   2   3
ATOM      3  N   UNL     1       1.275  -4.675   0.441  1.00  0.00    -0.356 N 
ATOM      4  C   UNL     1       0.726  -3.980   1.492  1.00  0.00     0.229 C 
ATOM      5  O   UNL     1       0.085  -4.627   2.321  1.00  0.00    -0.274 OA
ATOM      6  H   UNL     1       1.185  -5.653   0.496  1.00  0.00     0.163 HD
BRANCH   4   7
ATOM      7  C   UNL     1       0.959  -2.461   1.617  1.00  0.00     0.077 C 
ATOM      8  C   UNL     1       0.485  -1.810   0.300  1.00  0.00     0.025 C 
ATOM      9  C   UNL     1       2.476  -2.265   1.889  1.00  0.00     0.025 C 
BRANCH   7  10
ATOM     10  C   UNL     1       0.275  -1.874   2.902  1.00  0.00     0.245 C 
BRANCH  10  11
ATOM     11  O   UNL     1      -1.101  -1.550   2.828  1.00  0.00    -0.492 OA
BRANCH  11  12
ATOM     12  C   UNL     1      -1.653  -0.435   2.267  1.00  0.00     0.131 A 
ATOM     13  C   UNL     1      -1.080   0.723   1.684  1.00  0.00     0.051 A 
ATOM     14  C   UNL     1      -1.958   1.601   0.992  1.00  0.00     0.017 A 
ATOM     15  C   UNL     1      -3.328   1.359   0.885  1.00  0.00     0.040 A 
ATOM     16  C   UNL     1      -3.049  -0.621   2.206  1.00  0.00     0.086 A 
ATOM     17  C   UNL     1      -3.865   0.256   1.513  1.00  0.00     0.126 A 
ATOM     18  F   UNL     1      -5.179   0.011   1.423  1.00  0.00    -0.207 F 
BRANCH  13  19
ATOM     19  C   UNL     1       0.397   1.100   1.684  1.00  0.00     0.212 C 
ATOM     20  C   UNL     1       0.734   2.159   2.730  1.00  0.00     0.081 C 
BRANCH  19  21
ATOM     21  N   UNL     1       0.882   1.533   0.359  1.00  0.00    -0.351 N 
ATOM     22  H   UNL     1       0.408   2.394   0.088  1.00  0.00     0.345 HD
ATOM     23  H   UNL     1       0.686   0.805  -0.328  1.00  0.00     0.345 HD
ATOM     24  H   UNL     1       1.888   1.697   0.403  1.00  0.00     0.345 HD
ENDBRANCH  19  21
ENDBRANCH  13  19
ENDBRANCH  11  12
ENDBRANCH  10  11
ENDBRANCH   7  10
ENDBRANCH   4   7
ENDBRANCH   2   3
ENDBRANCH   1   2
BRANCH   1  25
ATOM     25  C   UNL     1       2.586  -6.317  -1.974  1.00  0.00     0.002 C 
BRANCH  25  26
ATOM     26  C   UNL     1       1.733  -5.984  -3.207  1.00  0.00     0.002 C 
BRANCH  26  27
ATOM     27  C   UNL     1       2.359  -4.988  -4.188  1.00  0.00     0.021 C 
BRANCH  27  28
ATOM     28  C   UNL     1       3.752  -5.370  -4.671  1.00  0.00     0.116 C 
BRANCH  28  29
ATOM     29  N   UNL     1       3.778  -6.687  -5.286  1.00  0.00    -0.352 N 
ATOM     30  C   UNL     1       4.395  -7.079  -6.444  1.00  0.00     0.251 C 
ATOM     31  H   UNL     1       3.286  -7.392  -4.806  1.00  0.00     0.163 HD
ATOM     32  O   UNL     1       4.196  -8.191  -6.920  1.00  0.00    -0.269 OA
BRANCH  30  33
ATOM     33  C   UNL     1       5.293  -6.130  -7.125  1.00  0.00     0.039 A 
ATOM     34  C   UNL     1       5.125  -5.899  -8.491  1.00  0.00     0.014 A 
ATOM     35  C   UNL     1       6.282  -5.458  -6.401  1.00  0.00     0.014 A 
ATOM     36  C   UNL     1       5.924  -4.951  -9.128  1.00  0.00     0.010 A 
ATOM     37  C   UNL     1       7.029  -4.465  -7.022  1.00  0.00     0.010 A 
ATOM     38  C   UNL     1       6.864  -4.211  -8.392  1.00  0.00    -0.014 A 
BRANCH  38  39
ATOM     39  C   UNL     1       7.719  -3.185  -9.034  1.00  0.00     0.031 A 
ATOM     40  C   UNL     1       9.205  -3.392  -9.082  1.00  0.00     0.074 A 
ATOM     41  C   UNL     1       7.170  -2.048  -9.499  1.00  0.00     0.049 A 
ATOM     42  N   UNL     1      10.144  -2.566  -9.466  1.00  0.00    -0.248 NA
ATOM     43  C   UNL     1       9.706  -4.692  -8.605  1.00  0.00     0.031 C 
ATOM     44  C   UNL     1       5.742  -1.730  -9.486  1.00  0.00     0.029 A 
ATOM     45  N   UNL     1       7.753  -0.941 -10.062  1.00  0.00    -0.354 N 
ATOM     46  C   UNL     1      11.341  -3.237  -9.258  1.00  0.00     0.074 A 
ATOM     47  C   UNL     1      11.017  -4.516  -8.668  1.00  0.00     0.031 C 
ATOM     48  C   UNL     1       5.557  -0.519 -10.035  1.00  0.00     0.029 A 
ATOM     49  C   UNL     1       6.855   0.043 -10.397  1.00  0.00     0.049 A 
ATOM     50  H   UNL     1       8.722  -0.859 -10.213  1.00  0.00     0.167 HD
ATOM     51  C   UNL     1      12.595  -2.828  -9.558  1.00  0.00     0.037 A 
ATOM     52  C   UNL     1       7.060   1.265 -10.925  1.00  0.00     0.037 A 
ATOM     53  C   UNL     1      12.903  -1.569 -10.179  1.00  0.00     0.049 A 
ATOM     54  C   UNL     1       8.466   1.703 -11.235  1.00  0.00     0.074 A 
ATOM     55  C   UNL     1      14.138  -1.078 -10.562  1.00  0.00     0.029 A 
ATOM     56  N   UNL     1      11.964  -0.605 -10.516  1.00  0.00    -0.354 N 
ATOM     57  N   UNL     1       9.590   1.052 -11.060  1.00  0.00    -0.248 NA
ATOM     58  C   UNL     1       8.635   3.044 -11.813  1.00  0.00     0.031 C 
ATOM     59  C   UNL     1      13.952   0.200 -11.093  1.00  0.00     0.029 A 
ATOM     60  C   UNL     1      12.595   0.485 -11.091  1.00  0.00     0.049 A 
ATOM     61  H   UNL     1      10.994  -0.684 -10.368  1.00  0.00     0.167 HD
ATOM     62  C   UNL     1      10.594   1.885 -11.535  1.00  0.00     0.074 A 
ATOM     63  C   UNL     1       9.947   3.091 -12.008  1.00  0.00     0.031 C 
ATOM     64  C   UNL     1      11.930   1.667 -11.577  1.00  0.00     0.037 A 
BRANCH  51  65
ATOM     65  C   UNL     1      13.729  -3.755  -9.234  1.00  0.00     0.064 A 
ATOM     66  C   UNL     1      14.658  -3.422  -8.236  1.00  0.00     0.173 A 
ATOM     67  C   UNL     1      13.934  -4.942  -9.952  1.00  0.00     0.173 A 
ATOM     68  F   UNL     1      14.510  -2.296  -7.522  1.00  0.00    -0.203 F 
ATOM     69  C   UNL     1      15.756  -4.239  -7.979  1.00  0.00     0.198 A 
ATOM     70  C   UNL     1      15.016  -5.772  -9.671  1.00  0.00     0.198 A 
ATOM     71  F   UNL     1      13.067  -5.312 -10.907  1.00  0.00    -0.203 F 
ATOM     72  F   UNL     1      16.647  -3.885  -7.042  1.00  0.00    -0.200 F 
ATOM     73  C   UNL     1      15.931  -5.414  -8.693  1.00  0.00     0.200 A 
ATOM     74  F   UNL     1      15.169  -6.921 -10.344  1.00  0.00    -0.200 F 
ATOM     75  F   UNL     1      16.982  -6.205  -8.435  1.00  0.00    -0.200 F 
ENDBRANCH  51  65
BRANCH  52  76
ATOM     76  C   UNL     1       5.898   2.141 -11.224  1.00  0.00     0.064 A 
ATOM     77  C   UNL     1       5.131   2.718 -10.202  1.00  0.00     0.173 A 
ATOM     78  C   UNL     1       5.513   2.389 -12.549  1.00  0.00     0.173 A 
ATOM     79  F   UNL     1       5.454   2.506  -8.918  1.00  0.00    -0.203 F 
ATOM     80  C   UNL     1       4.011   3.494 -10.494  1.00  0.00     0.198 A 
ATOM     81  C   UNL     1       4.408   3.187 -12.840  1.00  0.00     0.198 A 
ATOM     82  F   UNL     1       6.227   1.874 -13.560  1.00  0.00    -0.203 F 
ATOM     83  F   UNL     1       3.275   4.007  -9.498  1.00  0.00    -0.200 F 
ATOM     84  C   UNL     1       3.653   3.732 -11.812  1.00  0.00     0.200 A 
ATOM     85  F   UNL     1       4.080   3.432 -14.115  1.00  0.00    -0.200 F 
ATOM     86  F   UNL     1       2.583   4.488 -12.093  1.00  0.00    -0.200 F 
ENDBRANCH  52  76
BRANCH  64  87
ATOM     87  C   UNL     1      12.796   2.726 -12.191  1.00  0.00     0.064 A 
ATOM     88  C   UNL     1      13.428   2.493 -13.423  1.00  0.00     0.173 A 
ATOM     89  C   UNL     1      13.091   3.916 -11.513  1.00  0.00     0.173 A 
ATOM     90  F   UNL     1      13.184   1.363 -14.104  1.00  0.00    -0.203 F 
ATOM     91  C   UNL     1      14.345   3.402 -13.940  1.00  0.00     0.198 A 
ATOM     92  C   UNL     1      13.990   4.836 -12.047  1.00  0.00     0.198 A 
ATOM     93  F   UNL     1      12.504   4.188 -10.338  1.00  0.00    -0.203 F 
ATOM     94  F   UNL     1      14.972   3.136 -15.095  1.00  0.00    -0.200 F 
ATOM     95  C   UNL     1      14.625   4.572 -13.252  1.00  0.00     0.200 A 
ATOM     96  F   UNL     1      14.246   5.977 -11.392  1.00  0.00    -0.200 F 
ATOM     97  F   UNL     1      15.511   5.446 -13.749  1.00  0.00    -0.200 F 
ENDBRANCH  64  87
ENDBRANCH  38  39
ENDBRANCH  30  33
ENDBRANCH  28  29
ENDBRANCH  27  28
ENDBRANCH  26  27
ENDBRANCH  25  26
ENDBRANCH   1  25
TORSDOF 18
