REMARK SMILES CC(=O)O[C@@H]1[C@H](O)C(C)=C(CC[C@@H](C)CC(=O)NCCCCCCNC(=O)c2ccc(-c3c4nc(c(-c5c(F)c(F)c(F)c(F)c5F)c5ccc([nH]5)c(-c5c(F)c(F)c(F)c(F)c5F)c5nc(c(-c6c(F)c(F)c(F)c(F)c6F)c6ccc3[nH]6)C=C5)C=C4)cc2)[C@@]2(C)CCCC(C)(C)[C@H]12
REMARK SMILES IDX 19 1 18 2 16 3 17 4 15 6 13 7 14 8 12 9 11 10 10 11 5 12
REMARK SMILES IDX 6 13 99 14 8 15 91 16 96 17 9 18 93 19 92 20 95 21 97 22
REMARK SMILES IDX 98 23 94 24 4 25 2 26 1 27 3 28 7 29 20 31 21 32 22 33 23 34
REMARK SMILES IDX 24 35 25 36 26 37 27 39 28 40 29 41 90 42 30 43 89 44 31 45
REMARK SMILES IDX 32 46 33 47 83 48 34 49 88 50 82 51 84 52 35 53 87 54 81 55
REMARK SMILES IDX 80 56 36 58 68 59 48 60 67 61 49 62 52 63 66 64 85 65 50 66
REMARK SMILES IDX 51 67 65 69 86 70 53 71 37 72 38 73 46 74 39 75 40 76 44 77
REMARK SMILES IDX 47 78 41 79 42 80 45 81 43 82 69 83 70 84 78 85 71 86 72 87
REMARK SMILES IDX 76 88 79 89 73 90 74 91 77 92 75 93 54 94 55 95 63 96 56 97
REMARK SMILES IDX 57 98 61 99 64 100 58 101 59 102 62 103 60 104
REMARK H PARENT 18 5 7 30 25 38 84 57 52 68
REMARK Flexibility Score: inf
ROOT
ATOM      1  C   UNL     1      -0.551  -2.552  -7.313  1.00  0.00     0.116 C 
ENDROOT
BRANCH   1   2
ATOM      2  N   UNL     1      -1.362  -3.391  -6.440  1.00  0.00    -0.356 N 
ATOM      3  C   UNL     1      -1.891  -3.167  -5.204  1.00  0.00     0.220 C 
ATOM      4  O   UNL     1      -2.424  -4.117  -4.623  1.00  0.00    -0.275 OA
ATOM      5  H   UNL     1      -1.563  -4.281  -6.809  1.00  0.00     0.163 HD
BRANCH   3   6
ATOM      6  C   UNL     1      -1.805  -1.806  -4.524  1.00  0.00     0.103 C 
BRANCH   6   7
ATOM      7  C   UNL     1      -0.608  -1.748  -3.550  1.00  0.00    -0.005 C 
ATOM      8  C   UNL     1      -0.824  -0.706  -2.453  1.00  0.00     0.008 C 
BRANCH   7   9
ATOM      9  C   UNL     1       0.673  -1.463  -4.334  1.00  0.00     0.008 C 
BRANCH   9  10
ATOM     10  C   UNL     1       2.061  -1.837  -3.809  1.00  0.00     0.032 C 
BRANCH  10  11
ATOM     11  C   UNL     1       2.447  -3.321  -3.579  1.00  0.00    -0.062 C 
ATOM     12  C   UNL     1       2.548  -3.894  -0.685  1.00  0.00     0.213 C 
ATOM     13  C   UNL     1       1.263  -3.741  -1.561  1.00  0.00     0.181 C 
ATOM     14  C   UNL     1       3.756  -3.140  -1.428  1.00  0.00     0.049 C 
ATOM     15  C   UNL     1       1.543  -4.146  -2.995  1.00  0.00    -0.042 C 
ATOM     16  C   UNL     1       3.900  -3.493  -2.978  1.00  0.00    -0.004 C 
ATOM     17  C   UNL     1       5.119  -2.986  -0.674  1.00  0.00    -0.028 C 
ATOM     18  C   UNL     1       1.448  -5.630  -3.272  1.00  0.00     0.042 C 
ATOM     19  C   UNL     1       4.916  -2.531  -3.670  1.00  0.00     0.011 C 
ATOM     20  C   UNL     1       4.433  -4.928  -3.244  1.00  0.00     0.016 C 
ATOM     21  C   UNL     1       6.009  -1.985  -1.471  1.00  0.00     0.007 C 
ATOM     22  C   UNL     1       4.863  -2.349   0.712  1.00  0.00     0.011 C 
ATOM     23  C   UNL     1       5.897  -4.291  -0.446  1.00  0.00     0.011 C 
ATOM     24  C   UNL     1       6.239  -2.372  -2.929  1.00  0.00     0.001 C 
BRANCH  12  25
ATOM     25  O   UNL     1       2.868  -5.271  -0.403  1.00  0.00    -0.459 OA
BRANCH  25  26
ATOM     26  C   UNL     1       2.413  -5.819   0.756  1.00  0.00     0.303 C 
ATOM     27  C   UNL     1       0.930  -6.022   0.859  1.00  0.00     0.139 C 
ATOM     28  O   UNL     1       3.183  -6.218   1.623  1.00  0.00    -0.253 OA
ENDBRANCH  25  26
ENDBRANCH  12  25
BRANCH  13  29
ATOM     29  O   UNL     1       0.091  -4.368  -1.085  1.00  0.00    -0.385 OA
ATOM     30  H   UNL     1       0.208  -5.330  -1.105  1.00  0.00     0.211 HD
ENDBRANCH  13  29
ENDBRANCH  10  11
ENDBRANCH   9  10
ENDBRANCH   7   9
ENDBRANCH   6   7
ENDBRANCH   3   6
ENDBRANCH   1   2
BRANCH   1  31
ATOM     31  C   UNL     1       0.916  -3.029  -7.326  1.00  0.00     0.021 C 
BRANCH  31  32
ATOM     32  C   UNL     1       1.365  -3.690  -8.623  1.00  0.00     0.002 C 
BRANCH  32  33
ATOM     33  C   UNL     1       1.418  -2.742  -9.823  1.00  0.00     0.002 C 
BRANCH  33  34
ATOM     34  C   UNL     1       2.341  -1.527  -9.667  1.00  0.00     0.021 C 
BRANCH  34  35
ATOM     35  C   UNL     1       3.800  -1.861  -9.363  1.00  0.00     0.116 C 
BRANCH  35  36
ATOM     36  N   UNL     1       4.387  -2.689 -10.404  1.00  0.00    -0.352 N 
ATOM     37  C   UNL     1       5.295  -2.361 -11.379  1.00  0.00     0.251 C 
ATOM     38  H   UNL     1       4.088  -3.627 -10.411  1.00  0.00     0.163 HD
ATOM     39  O   UNL     1       5.447  -3.092 -12.351  1.00  0.00    -0.269 OA
BRANCH  37  40
ATOM     40  C   UNL     1       6.098  -1.126 -11.260  1.00  0.00     0.039 A 
ATOM     41  C   UNL     1       6.292  -0.329 -12.391  1.00  0.00     0.014 A 
ATOM     42  C   UNL     1       6.703  -0.783 -10.047  1.00  0.00     0.014 A 
ATOM     43  C   UNL     1       7.046   0.843 -12.292  1.00  0.00     0.010 A 
ATOM     44  C   UNL     1       7.400   0.417  -9.934  1.00  0.00     0.010 A 
ATOM     45  C   UNL     1       7.581   1.240 -11.056  1.00  0.00    -0.014 A 
BRANCH  45  46
ATOM     46  C   UNL     1       8.325   2.517 -10.915  1.00  0.00     0.031 A 
ATOM     47  C   UNL     1       9.784   2.511 -10.554  1.00  0.00     0.074 A 
ATOM     48  C   UNL     1       7.664   3.683 -11.045  1.00  0.00     0.049 A 
ATOM     49  N   UNL     1      10.582   3.522 -10.319  1.00  0.00    -0.248 NA
ATOM     50  C   UNL     1      10.425   1.195 -10.415  1.00  0.00     0.031 C 
ATOM     51  C   UNL     1       6.237   3.816 -11.345  1.00  0.00     0.029 A 
ATOM     52  N   UNL     1       8.100   4.979 -10.927  1.00  0.00    -0.354 N 
ATOM     53  C   UNL     1      11.811   2.965  -9.992  1.00  0.00     0.074 A 
ATOM     54  C   UNL     1      11.643   1.528 -10.010  1.00  0.00     0.031 C 
ATOM     55  C   UNL     1       5.920   5.119 -11.406  1.00  0.00     0.029 A 
ATOM     56  C   UNL     1       7.109   5.912 -11.111  1.00  0.00     0.049 A 
ATOM     57  H   UNL     1       9.035   5.217 -10.730  1.00  0.00     0.167 HD
ATOM     58  C   UNL     1      12.979   3.596  -9.721  1.00  0.00     0.037 A 
ATOM     59  C   UNL     1       7.153   7.256 -11.040  1.00  0.00     0.037 A 
ATOM     60  C   UNL     1      13.146   5.027  -9.728  1.00  0.00     0.049 A 
ATOM     61  C   UNL     1       8.463   7.931 -10.734  1.00  0.00     0.074 A 
ATOM     62  C   UNL     1      14.303   5.761  -9.532  1.00  0.00     0.029 A 
ATOM     63  N   UNL     1      12.123   5.940  -9.937  1.00  0.00    -0.354 N 
ATOM     64  N   UNL     1       9.635   7.395 -10.499  1.00  0.00    -0.248 NA
ATOM     65  C   UNL     1       8.456   9.400 -10.691  1.00  0.00     0.031 C 
ATOM     66  C   UNL     1      13.971   7.120  -9.574  1.00  0.00     0.029 A 
ATOM     67  C   UNL     1      12.618   7.232  -9.848  1.00  0.00     0.049 A 
ATOM     68  H   UNL     1      11.185   5.705 -10.120  1.00  0.00     0.167 HD
ATOM     69  C   UNL     1      10.509   8.456 -10.305  1.00  0.00     0.074 A 
ATOM     70  C   UNL     1       9.734   9.668 -10.469  1.00  0.00     0.031 C 
ATOM     71  C   UNL     1      11.833   8.429 -10.017  1.00  0.00     0.037 A 
BRANCH  58  72
ATOM     72  C   UNL     1      14.174   2.745  -9.398  1.00  0.00     0.064 A 
ATOM     73  C   UNL     1      14.803   1.957 -10.374  1.00  0.00     0.173 A 
ATOM     74  C   UNL     1      14.725   2.753  -8.107  1.00  0.00     0.173 A 
ATOM     75  F   UNL     1      14.310   1.906 -11.621  1.00  0.00    -0.203 F 
ATOM     76  C   UNL     1      15.921   1.188 -10.063  1.00  0.00     0.198 A 
ATOM     77  C   UNL     1      15.862   2.006  -7.808  1.00  0.00     0.198 A 
ATOM     78  F   UNL     1      14.167   3.493  -7.138  1.00  0.00    -0.203 F 
ATOM     79  F   UNL     1      16.477   0.407 -11.001  1.00  0.00    -0.200 F 
ATOM     80  C   UNL     1      16.454   1.219  -8.784  1.00  0.00     0.200 A 
ATOM     81  F   UNL     1      16.384   2.048  -6.574  1.00  0.00    -0.200 F 
ATOM     82  F   UNL     1      17.537   0.486  -8.489  1.00  0.00    -0.200 F 
ENDBRANCH  58  72
BRANCH  59  83
ATOM     83  C   UNL     1       5.922   8.053 -11.282  1.00  0.00     0.064 A 
ATOM     84  C   UNL     1       5.793   8.848 -12.429  1.00  0.00     0.173 A 
ATOM     85  C   UNL     1       4.853   8.038 -10.374  1.00  0.00     0.173 A 
ATOM     86  F   UNL     1       6.796   8.910 -13.317  1.00  0.00    -0.203 F 
ATOM     87  C   UNL     1       4.651   9.616 -12.648  1.00  0.00     0.198 A 
ATOM     88  C   UNL     1       3.700   8.783 -10.608  1.00  0.00     0.198 A 
ATOM     89  F   UNL     1       4.924   7.288  -9.264  1.00  0.00    -0.203 F 
ATOM     90  F   UNL     1       4.573  10.403 -13.729  1.00  0.00    -0.200 F 
ATOM     91  C   UNL     1       3.603   9.578 -11.740  1.00  0.00     0.200 A 
ATOM     92  F   UNL     1       2.683   8.731  -9.737  1.00  0.00    -0.200 F 
ATOM     93  F   UNL     1       2.503  10.313 -11.953  1.00  0.00    -0.200 F 
ENDBRANCH  59  83
BRANCH  71  94
ATOM     94  C   UNL     1      12.535   9.750  -9.888  1.00  0.00     0.064 A 
ATOM     95  C   UNL     1      12.317  10.595  -8.790  1.00  0.00     0.173 A 
ATOM     96  C   UNL     1      13.463  10.158 -10.858  1.00  0.00     0.173 A 
ATOM     97  F   UNL     1      11.427  10.257  -7.844  1.00  0.00    -0.203 F 
ATOM     98  C   UNL     1      12.983  11.812  -8.681  1.00  0.00     0.198 A 
ATOM     99  C   UNL     1      14.150  11.361 -10.730  1.00  0.00     0.198 A 
ATOM    100  F   UNL     1      13.713   9.383 -11.924  1.00  0.00    -0.203 F 
ATOM    101  F   UNL     1      12.722  12.627  -7.649  1.00  0.00    -0.200 F 
ATOM    102  C   UNL     1      13.904  12.191  -9.646  1.00  0.00     0.200 A 
ATOM    103  F   UNL     1      15.050  11.719 -11.656  1.00  0.00    -0.200 F 
ATOM    104  F   UNL     1      14.549  13.361  -9.536  1.00  0.00    -0.200 F 
ENDBRANCH  71  94
ENDBRANCH  45  46
ENDBRANCH  37  40
ENDBRANCH  35  36
ENDBRANCH  34  35
ENDBRANCH  33  34
ENDBRANCH  32  33
ENDBRANCH  31  32
ENDBRANCH   1  31
TORSDOF 20
