REMARK SMILES C[C@H](C(=O)NCCCCCCNC(=O)c1ccc(-c2c3nc(c(-c4c(F)c(F)c(F)c(F)c4F)c4ccc([nH]4)c(-c4c(F)c(F)c(F)c(F)c4F)c4nc(c(-c5c(F)c(F)c(F)c(F)c5F)c5ccc2[nH]5)C=C4)C=C3)cc1)c1ccc(-c2ccccc2)c(F)c1
REMARK SMILES IDX 8 1 7 2 6 3 5 4 3 5 4 6 2 8 1 9 78 10 79 11 90 12 80 13
REMARK SMILES IDX 88 14 81 15 89 16 82 17 83 18 87 19 84 20 86 21 85 22 9 23
REMARK SMILES IDX 10 24 11 25 12 26 13 27 14 29 15 30 16 31 77 32 17 33 76 34
REMARK SMILES IDX 18 35 19 36 20 37 70 38 21 39 75 40 69 41 71 42 22 43 74 44
REMARK SMILES IDX 68 45 67 46 23 48 55 49 35 50 54 51 36 52 39 53 53 54 72 55
REMARK SMILES IDX 37 56 38 57 52 59 73 60 40 61 24 62 25 63 33 64 26 65 27 66
REMARK SMILES IDX 31 67 34 68 28 69 29 70 32 71 30 72 56 73 57 74 65 75 58 76
REMARK SMILES IDX 59 77 63 78 66 79 60 80 61 81 64 82 62 83 41 84 42 85 50 86
REMARK SMILES IDX 43 87 44 88 48 89 51 90 45 91 46 92 49 93 47 94
REMARK H PARENT 5 7 12 28 71 47 39 58
REMARK Flexibility Score: inf
ROOT
ATOM      1  C   UNL     1      -0.493  -2.703  -2.960  1.00  0.00     0.002 C 
ENDROOT
BRANCH   1   2
ATOM      2  C   UNL     1      -0.787  -2.577  -1.460  1.00  0.00     0.021 C 
BRANCH   2   3
ATOM      3  C   UNL     1       0.463  -2.358  -0.608  1.00  0.00     0.116 C 
BRANCH   3   4
ATOM      4  N   UNL     1       0.984  -1.017  -0.784  1.00  0.00    -0.356 N 
ATOM      5  C   UNL     1       0.945   0.050   0.067  1.00  0.00     0.227 C 
ATOM      6  O   UNL     1       1.345   1.137  -0.356  1.00  0.00    -0.274 OA
ATOM      7  H   UNL     1       1.431  -0.851  -1.646  1.00  0.00     0.163 HD
BRANCH   5   8
ATOM      8  C   UNL     1       0.434  -0.136   1.501  1.00  0.00     0.105 C 
ATOM      9  C   UNL     1       1.062   0.921   2.419  1.00  0.00     0.023 C 
BRANCH   8  10
ATOM     10  C   UNL     1      -1.086  -0.121   1.573  1.00  0.00    -0.033 A 
ATOM     11  C   UNL     1      -1.825   1.042   1.324  1.00  0.00     0.005 A 
ATOM     12  C   UNL     1      -1.793  -1.294   1.868  1.00  0.00     0.044 A 
ATOM     13  C   UNL     1      -3.226   1.029   1.369  1.00  0.00     0.012 A 
ATOM     14  C   UNL     1      -3.189  -1.307   1.875  1.00  0.00     0.131 A 
ATOM     15  C   UNL     1      -3.943  -0.152   1.633  1.00  0.00     0.017 A 
ATOM     16  F   UNL     1      -3.795  -2.483   2.105  1.00  0.00    -0.206 F 
BRANCH  15  17
ATOM     17  C   UNL     1      -5.419  -0.156   1.659  1.00  0.00    -0.015 A 
ATOM     18  C   UNL     1      -6.168   0.509   0.672  1.00  0.00     0.009 A 
ATOM     19  C   UNL     1      -6.129  -0.813   2.680  1.00  0.00     0.009 A 
ATOM     20  C   UNL     1      -7.565   0.527   0.710  1.00  0.00     0.001 A 
ATOM     21  C   UNL     1      -7.526  -0.798   2.719  1.00  0.00     0.001 A 
ATOM     22  C   UNL     1      -8.244  -0.125   1.735  1.00  0.00     0.000 A 
ENDBRANCH  15  17
ENDBRANCH   8  10
ENDBRANCH   5   8
ENDBRANCH   3   4
ENDBRANCH   2   3
ENDBRANCH   1   2
BRANCH   1  23
ATOM     23  C   UNL     1       0.427  -3.868  -3.345  1.00  0.00     0.002 C 
BRANCH  23  24
ATOM     24  C   UNL     1      -0.051  -5.249  -2.890  1.00  0.00     0.021 C 
BRANCH  24  25
ATOM     25  C   UNL     1      -1.406  -5.668  -3.457  1.00  0.00     0.116 C 
BRANCH  25  26
ATOM     26  N   UNL     1      -1.373  -5.799  -4.906  1.00  0.00    -0.352 N 
ATOM     27  C   UNL     1      -1.637  -6.891  -5.694  1.00  0.00     0.251 C 
ATOM     28  H   UNL     1      -1.125  -4.981  -5.395  1.00  0.00     0.163 HD
ATOM     29  O   UNL     1      -1.351  -6.874  -6.890  1.00  0.00    -0.269 OA
BRANCH  27  30
ATOM     30  C   UNL     1      -2.241  -8.102  -5.103  1.00  0.00     0.039 A 
ATOM     31  C   UNL     1      -1.704  -9.351  -5.425  1.00  0.00     0.014 A 
ATOM     32  C   UNL     1      -3.332  -8.010  -4.233  1.00  0.00     0.014 A 
ATOM     33  C   UNL     1      -2.204 -10.499  -4.809  1.00  0.00     0.010 A 
ATOM     34  C   UNL     1      -3.787  -9.148  -3.570  1.00  0.00     0.010 A 
ATOM     35  C   UNL     1      -3.216 -10.401  -3.838  1.00  0.00    -0.014 A 
BRANCH  35  36
ATOM     36  C   UNL     1      -3.639 -11.588  -3.050  1.00  0.00     0.031 A 
ATOM     37  C   UNL     1      -5.042 -12.116  -3.151  1.00  0.00     0.074 A 
ATOM     38  C   UNL     1      -2.769 -12.138  -2.179  1.00  0.00     0.049 A 
ATOM     39  N   UNL     1      -5.607 -13.089  -2.481  1.00  0.00    -0.248 NA
ATOM     40  C   UNL     1      -5.935 -11.454  -4.115  1.00  0.00     0.031 C 
ATOM     41  C   UNL     1      -1.396 -11.680  -1.953  1.00  0.00     0.029 A 
ATOM     42  N   UNL     1      -2.914 -13.188  -1.305  1.00  0.00    -0.354 N 
ATOM     43  C   UNL     1      -6.920 -13.146  -2.930  1.00  0.00     0.074 A 
ATOM     44  C   UNL     1      -7.081 -12.089  -3.904  1.00  0.00     0.031 C 
ATOM     45  C   UNL     1      -0.824 -12.449  -1.014  1.00  0.00     0.029 A 
ATOM     46  C   UNL     1      -1.799 -13.423  -0.536  1.00  0.00     0.049 A 
ATOM     47  H   UNL     1      -3.738 -13.722  -1.236  1.00  0.00     0.167 HD
ATOM     48  C   UNL     1      -7.894 -14.014  -2.569  1.00  0.00     0.037 A 
ATOM     49  C   UNL     1      -1.593 -14.307   0.459  1.00  0.00     0.037 A 
ATOM     50  C   UNL     1      -7.720 -15.084  -1.620  1.00  0.00     0.049 A 
ATOM     51  C   UNL     1      -2.705 -15.246   0.846  1.00  0.00     0.074 A 
ATOM     52  C   UNL     1      -8.621 -16.072  -1.264  1.00  0.00     0.029 A 
ATOM     53  N   UNL     1      -6.574 -15.298  -0.870  1.00  0.00    -0.354 N 
ATOM     54  N   UNL     1      -3.909 -15.355   0.341  1.00  0.00    -0.248 NA
ATOM     55  C   UNL     1      -2.429 -16.185   1.942  1.00  0.00     0.031 C 
ATOM     56  C   UNL     1      -8.045 -16.845  -0.252  1.00  0.00     0.029 A 
ATOM     57  C   UNL     1      -6.763 -16.376  -0.019  1.00  0.00     0.049 A 
ATOM     58  H   UNL     1      -5.749 -14.764  -0.932  1.00  0.00     0.167 HD
ATOM     59  C   UNL     1      -4.524 -16.384   1.041  1.00  0.00     0.074 A 
ATOM     60  C   UNL     1      -3.551 -16.887   1.987  1.00  0.00     0.031 C 
ATOM     61  C   UNL     1      -5.785 -16.865   0.917  1.00  0.00     0.037 A 
BRANCH  48  62
ATOM     62  C   UNL     1      -9.249 -13.861  -3.195  1.00  0.00     0.064 A 
ATOM     63  C   UNL     1      -9.485 -14.208  -4.534  1.00  0.00     0.173 A 
ATOM     64  C   UNL     1     -10.347 -13.463  -2.417  1.00  0.00     0.173 A 
ATOM     65  F   UNL     1      -8.469 -14.589  -5.322  1.00  0.00    -0.203 F 
ATOM     66  C   UNL     1     -10.769 -14.154  -5.071  1.00  0.00     0.198 A 
ATOM     67  C   UNL     1     -11.633 -13.436  -2.950  1.00  0.00     0.198 A 
ATOM     68  F   UNL     1     -10.176 -13.128  -1.129  1.00  0.00    -0.203 F 
ATOM     69  F   UNL     1     -10.968 -14.469  -6.358  1.00  0.00    -0.200 F 
ATOM     70  C   UNL     1     -11.842 -13.780  -4.276  1.00  0.00     0.200 A 
ATOM     71  F   UNL     1     -12.671 -13.090  -2.176  1.00  0.00    -0.200 F 
ATOM     72  F   UNL     1     -13.080 -13.753  -4.789  1.00  0.00    -0.200 F 
ENDBRANCH  48  62
BRANCH  49  73
ATOM     73  C   UNL     1      -0.292 -14.339   1.180  1.00  0.00     0.064 A 
ATOM     74  C   UNL     1       0.553 -15.455   1.100  1.00  0.00     0.173 A 
ATOM     75  C   UNL     1       0.111 -13.276   2.002  1.00  0.00     0.173 A 
ATOM     76  F   UNL     1       0.202 -16.507   0.345  1.00  0.00    -0.203 F 
ATOM     77  C   UNL     1       1.730 -15.523   1.842  1.00  0.00     0.198 A 
ATOM     78  C   UNL     1       1.307 -13.329   2.715  1.00  0.00     0.198 A 
ATOM     79  F   UNL     1      -0.656 -12.182   2.112  1.00  0.00    -0.203 F 
ATOM     80  F   UNL     1       2.483 -16.630   1.799  1.00  0.00    -0.200 F 
ATOM     81  C   UNL     1       2.108 -14.459   2.646  1.00  0.00     0.200 A 
ATOM     82  F   UNL     1       1.676 -12.291   3.478  1.00  0.00    -0.200 F 
ATOM     83  F   UNL     1       3.237 -14.526   3.365  1.00  0.00    -0.200 F 
ENDBRANCH  49  73
BRANCH  61  84
ATOM     84  C   UNL     1      -6.180 -18.001   1.817  1.00  0.00     0.064 A 
ATOM     85  C   UNL     1      -6.376 -17.812   3.193  1.00  0.00     0.173 A 
ATOM     86  C   UNL     1      -6.402 -19.283   1.292  1.00  0.00     0.173 A 
ATOM     87  F   UNL     1      -6.160 -16.609   3.747  1.00  0.00    -0.203 F 
ATOM     88  C   UNL     1      -6.755 -18.870   4.014  1.00  0.00     0.198 A 
ATOM     89  C   UNL     1      -6.814 -20.331   2.110  1.00  0.00     0.198 A 
ATOM     90  F   UNL     1      -6.234 -19.516  -0.019  1.00  0.00    -0.203 F 
ATOM     91  F   UNL     1      -6.887 -18.677   5.333  1.00  0.00    -0.200 F 
ATOM     92  C   UNL     1      -6.982 -20.126   3.471  1.00  0.00     0.200 A 
ATOM     93  F   UNL     1      -7.048 -21.540   1.581  1.00  0.00    -0.200 F 
ATOM     94  F   UNL     1      -7.356 -21.141   4.261  1.00  0.00    -0.200 F 
ENDBRANCH  61  84
ENDBRANCH  35  36
ENDBRANCH  27  30
ENDBRANCH  25  26
ENDBRANCH  24  25
ENDBRANCH  23  24
ENDBRANCH   1  23
TORSDOF 15
