REMARK SMILES CC(C)NC(=O)C[N@@H+]1CCC[C@H]1C(=O)NCCCCCCNC(=O)c1ccc(-c2c3nc(c(-c4c(F)c(F)c(F)c(F)c4F)c4ccc([nH]4)c(-c4c(F)c(F)c(F)c(F)c4F)c4nc(c(-c5c(F)c(F)c(F)c(F)c5F)c5ccc2[nH]5)C=C4)C=C3)cc1
REMARK SMILES IDX 18 1 17 2 16 3 15 4 13 5 14 6 12 8 8 9 9 10 10 12 11 13 7 14
REMARK SMILES IDX 5 15 4 16 6 18 2 19 1 20 3 21 19 22 20 23 21 24 22 25 23 26
REMARK SMILES IDX 24 28 25 29 26 30 87 31 27 32 86 33 28 34 29 35 30 36 80 37
REMARK SMILES IDX 31 38 85 39 79 40 81 41 32 42 84 43 78 44 77 45 33 47 65 48
REMARK SMILES IDX 45 49 64 50 46 51 49 52 63 53 82 54 47 55 48 56 62 58 83 59
REMARK SMILES IDX 50 60 34 61 35 62 43 63 36 64 37 65 41 66 44 67 38 68 39 69
REMARK SMILES IDX 42 70 40 71 66 72 67 73 75 74 68 75 69 76 73 77 76 78 70 79
REMARK SMILES IDX 71 80 74 81 72 82 51 83 52 84 60 85 53 86 54 87 58 88 61 89
REMARK SMILES IDX 55 90 56 91 59 92 57 93
REMARK H PARENT 15 7 8 11 4 17 22 27 81 46 49 57
REMARK Flexibility Score: inf
ROOT
ATOM      1  C   UNL     1       2.126   8.827  -0.508  1.00  0.00     0.002 C 
ENDROOT
BRANCH   1   2
ATOM      2  C   UNL     1       0.746   8.164  -0.615  1.00  0.00     0.021 C 
BRANCH   2   3
ATOM      3  C   UNL     1       0.561   7.286  -1.855  1.00  0.00     0.116 C 
BRANCH   3   4
ATOM      4  N   UNL     1       1.445   6.136  -1.822  1.00  0.00    -0.351 N 
ATOM      5  C   UNL     1       1.178   4.808  -1.634  1.00  0.00     0.278 C 
ATOM      6  O   UNL     1       2.149   4.047  -1.617  1.00  0.00    -0.268 OA
ATOM      7  H   UNL     1       2.397   6.348  -1.958  1.00  0.00     0.163 HD
BRANCH   5   8
ATOM      8  C   UNL     1      -0.290   4.322  -1.547  1.00  0.00     0.274 C 
ATOM      9  N   UNL     1      -0.339   2.842  -1.298  1.00  0.00    -0.317 N 
ATOM     10  C   UNL     1      -0.850   2.676   0.067  1.00  0.00     0.263 C 
ATOM     11  H   UNL     1       0.574   2.392  -1.354  1.00  0.00     0.349 HD
ATOM     12  C   UNL     1      -1.813   3.815   0.267  1.00  0.00     0.068 C 
ATOM     13  C   UNL     1      -1.087   4.961  -0.403  1.00  0.00     0.081 C 
BRANCH   9  14
ATOM     14  C   UNL     1      -1.137   2.176  -2.351  1.00  0.00     0.364 C 
BRANCH  14  15
ATOM     15  C   UNL     1      -1.635   0.775  -1.986  1.00  0.00     0.275 C 
ATOM     16  N   UNL     1      -0.771  -0.250  -1.753  1.00  0.00    -0.349 N 
ATOM     17  H   UNL     1      -1.194  -1.123  -1.585  1.00  0.00     0.163 HD
ATOM     18  O   UNL     1      -2.846   0.540  -1.915  1.00  0.00    -0.268 OA
BRANCH  16  19
ATOM     19  C   UNL     1       0.686  -0.249  -1.716  1.00  0.00     0.076 C 
ATOM     20  C   UNL     1       1.171  -0.407  -0.276  1.00  0.00     0.030 C 
ATOM     21  C   UNL     1       1.209  -1.399  -2.574  1.00  0.00     0.030 C 
ENDBRANCH  16  19
ENDBRANCH  14  15
ENDBRANCH   9  14
ENDBRANCH   5   8
ENDBRANCH   3   4
ENDBRANCH   2   3
ENDBRANCH   1   2
BRANCH   1  22
ATOM     22  C   UNL     1       2.508   9.736  -1.681  1.00  0.00     0.002 C 
BRANCH  22  23
ATOM     23  C   UNL     1       1.534  10.882  -1.966  1.00  0.00     0.021 C 
BRANCH  23  24
ATOM     24  C   UNL     1       1.328  11.858  -0.811  1.00  0.00     0.116 C 
BRANCH  24  25
ATOM     25  N   UNL     1       2.548  12.561  -0.453  1.00  0.00    -0.352 N 
ATOM     26  C   UNL     1       2.748  13.889  -0.181  1.00  0.00     0.251 C 
ATOM     27  H   UNL     1       3.353  11.997  -0.398  1.00  0.00     0.163 HD
ATOM     28  O   UNL     1       3.895  14.315  -0.049  1.00  0.00    -0.269 OA
BRANCH  26  29
ATOM     29  C   UNL     1       1.607  14.824  -0.057  1.00  0.00     0.039 A 
ATOM     30  C   UNL     1       1.744  16.114  -0.580  1.00  0.00     0.014 A 
ATOM     31  C   UNL     1       0.437  14.470   0.622  1.00  0.00     0.014 A 
ATOM     32  C   UNL     1       0.705  17.037  -0.446  1.00  0.00     0.010 A 
ATOM     33  C   UNL     1      -0.625  15.371   0.700  1.00  0.00     0.010 A 
ATOM     34  C   UNL     1      -0.493  16.670   0.187  1.00  0.00    -0.014 A 
BRANCH  34  35
ATOM     35  C   UNL     1      -1.588  17.655   0.368  1.00  0.00     0.031 A 
ATOM     36  C   UNL     1      -1.940  18.145   1.746  1.00  0.00     0.074 A 
ATOM     37  C   UNL     1      -2.280  18.095  -0.699  1.00  0.00     0.049 A 
ATOM     38  N   UNL     1      -2.864  18.997   2.114  1.00  0.00    -0.248 NA
ATOM     39  C   UNL     1      -1.164  17.584   2.863  1.00  0.00     0.031 C 
ATOM     40  C   UNL     1      -2.060  17.671  -2.082  1.00  0.00     0.029 A 
ATOM     41  N   UNL     1      -3.308  19.000  -0.786  1.00  0.00    -0.354 N 
ATOM     42  C   UNL     1      -2.788  19.062   3.499  1.00  0.00     0.074 A 
ATOM     43  C   UNL     1      -1.766  18.125   3.911  1.00  0.00     0.031 C 
ATOM     44  C   UNL     1      -2.903  18.341  -2.884  1.00  0.00     0.029 A 
ATOM     45  C   UNL     1      -3.737  19.222  -2.071  1.00  0.00     0.049 A 
ATOM     46  H   UNL     1      -3.700  19.448  -0.002  1.00  0.00     0.167 HD
ATOM     47  C   UNL     1      -3.487  19.851   4.351  1.00  0.00     0.037 A 
ATOM     48  C   UNL     1      -4.686  20.054  -2.538  1.00  0.00     0.037 A 
ATOM     49  C   UNL     1      -4.484  20.804   3.940  1.00  0.00     0.049 A 
ATOM     50  C   UNL     1      -5.440  20.930  -1.575  1.00  0.00     0.074 A 
ATOM     51  C   UNL     1      -5.224  21.674   4.721  1.00  0.00     0.029 A 
ATOM     52  N   UNL     1      -4.876  21.014   2.627  1.00  0.00    -0.354 N 
ATOM     53  N   UNL     1      -5.323  21.021  -0.273  1.00  0.00    -0.248 NA
ATOM     54  C   UNL     1      -6.450  21.828  -2.152  1.00  0.00     0.031 C 
ATOM     55  C   UNL     1      -6.084  22.393   3.882  1.00  0.00     0.029 A 
ATOM     56  C   UNL     1      -5.852  21.996   2.575  1.00  0.00     0.049 A 
ATOM     57  H   UNL     1      -4.515  20.536   1.846  1.00  0.00     0.167 HD
ATOM     58  C   UNL     1      -6.214  22.011   0.121  1.00  0.00     0.074 A 
ATOM     59  C   UNL     1      -6.861  22.493  -1.081  1.00  0.00     0.031 C 
ATOM     60  C   UNL     1      -6.470  22.479   1.367  1.00  0.00     0.037 A 
BRANCH  47  61
ATOM     61  C   UNL     1      -3.186  19.714   5.815  1.00  0.00     0.064 A 
ATOM     62  C   UNL     1      -1.972  20.165   6.359  1.00  0.00     0.173 A 
ATOM     63  C   UNL     1      -4.119  19.132   6.685  1.00  0.00     0.173 A 
ATOM     64  F   UNL     1      -1.041  20.715   5.566  1.00  0.00    -0.203 F 
ATOM     65  C   UNL     1      -1.690  20.005   7.713  1.00  0.00     0.198 A 
ATOM     66  C   UNL     1      -3.845  19.000   8.044  1.00  0.00     0.198 A 
ATOM     67  F   UNL     1      -5.295  18.689   6.218  1.00  0.00    -0.203 F 
ATOM     68  F   UNL     1      -0.502  20.390   8.198  1.00  0.00    -0.200 F 
ATOM     69  C   UNL     1      -2.628  19.427   8.555  1.00  0.00     0.200 A 
ATOM     70  F   UNL     1      -4.755  18.450   8.860  1.00  0.00    -0.200 F 
ATOM     71  F   UNL     1      -2.354  19.270   9.857  1.00  0.00    -0.200 F 
ENDBRANCH  47  61
BRANCH  48  72
ATOM     72  C   UNL     1      -4.933  20.148  -3.999  1.00  0.00     0.064 A 
ATOM     73  C   UNL     1      -4.530  21.282  -4.719  1.00  0.00     0.173 A 
ATOM     74  C   UNL     1      -5.569  19.117  -4.704  1.00  0.00     0.173 A 
ATOM     75  F   UNL     1      -3.936  22.301  -4.082  1.00  0.00    -0.203 F 
ATOM     76  C   UNL     1      -4.770  21.388  -6.087  1.00  0.00     0.198 A 
ATOM     77  C   UNL     1      -5.788  19.215  -6.076  1.00  0.00     0.198 A 
ATOM     78  F   UNL     1      -5.969  18.011  -4.060  1.00  0.00    -0.203 F 
ATOM     79  F   UNL     1      -4.409  22.499  -6.743  1.00  0.00    -0.200 F 
ATOM     80  C   UNL     1      -5.394  20.353  -6.765  1.00  0.00     0.200 A 
ATOM     81  F   UNL     1      -6.382  18.208  -6.731  1.00  0.00    -0.200 F 
ATOM     82  F   UNL     1      -5.623  20.454  -8.082  1.00  0.00    -0.200 F 
ENDBRANCH  48  72
BRANCH  60  83
ATOM     83  C   UNL     1      -7.453  23.605   1.486  1.00  0.00     0.064 A 
ATOM     84  C   UNL     1      -8.830  23.403   1.318  1.00  0.00     0.173 A 
ATOM     85  C   UNL     1      -7.010  24.900   1.798  1.00  0.00     0.173 A 
ATOM     86  F   UNL     1      -9.300  22.186   1.003  1.00  0.00    -0.203 F 
ATOM     87  C   UNL     1      -9.727  24.463   1.430  1.00  0.00     0.198 A 
ATOM     88  C   UNL     1      -7.912  25.951   1.935  1.00  0.00     0.198 A 
ATOM     89  F   UNL     1      -5.703  25.143   1.974  1.00  0.00    -0.203 F 
ATOM     90  F   UNL     1     -11.034  24.257   1.219  1.00  0.00    -0.200 F 
ATOM     91  C   UNL     1      -9.268  25.733   1.744  1.00  0.00     0.200 A 
ATOM     92  F   UNL     1      -7.468  27.176   2.247  1.00  0.00    -0.200 F 
ATOM     93  F   UNL     1     -10.132  26.752   1.853  1.00  0.00    -0.200 F 
ENDBRANCH  60  83
ENDBRANCH  34  35
ENDBRANCH  26  29
ENDBRANCH  24  25
ENDBRANCH  23  24
ENDBRANCH  22  23
ENDBRANCH   1  22
TORSDOF 16
