REMARK SMILES C=CCCCOC(F)(F)C(=O)NCCCCCCNC(=O)c1ccc(-c2c3nc(c(-c4c(F)c(F)c(F)c(F)c4F)c4ccc([nH]4)c(-c4c(F)c(F)c(F)c(F)c4F)c4nc(c(-c5c(F)c(F)c(F)c(F)c5F)c5ccc2[nH]5)C=C4)C=C3)cc1
REMARK SMILES IDX 14 1 13 2 12 3 10 4 11 5 7 7 8 8 9 9 6 10 5 11 4 12 3 13
REMARK SMILES IDX 2 14 1 15 15 16 16 17 17 18 18 19 19 20 20 21 21 23 22 24
REMARK SMILES IDX 23 25 84 26 24 27 83 28 25 29 26 30 27 31 77 32 28 33 82 34
REMARK SMILES IDX 76 35 78 36 29 37 81 38 75 39 74 40 30 42 62 43 42 44 61 45
REMARK SMILES IDX 43 46 46 47 60 48 79 49 44 50 45 51 59 53 80 54 47 55 31 56
REMARK SMILES IDX 32 57 40 58 33 59 34 60 38 61 41 62 35 63 36 64 39 65 37 66
REMARK SMILES IDX 63 67 64 68 72 69 65 70 66 71 70 72 73 73 67 74 68 75 71 76
REMARK SMILES IDX 69 77 48 78 49 79 57 80 50 81 51 82 55 83 58 84 52 85 53 86
REMARK SMILES IDX 56 87 54 88
REMARK H PARENT 12 6 19 22 78 41 46 52
REMARK Flexibility Score: inf
ROOT
ATOM      1  C   UNL     1      -1.475  -0.423   4.837  1.00  0.00     0.021 C 
ENDROOT
BRANCH   1   2
ATOM      2  C   UNL     1      -0.599  -1.576   4.358  1.00  0.00     0.116 C 
BRANCH   2   3
ATOM      3  N   UNL     1      -1.234  -2.876   4.537  1.00  0.00    -0.349 N 
ATOM      4  C   UNL     1      -1.692  -3.720   3.535  1.00  0.00     0.320 C 
ATOM      5  O   UNL     1      -2.183  -4.805   3.850  1.00  0.00    -0.265 OA
ATOM      6  H   UNL     1      -1.351  -3.186   5.463  1.00  0.00     0.163 HD
BRANCH   4   7
ATOM      7  C   UNL     1      -1.543  -3.199   2.063  1.00  0.00     0.436 C 
ATOM      8  F   UNL     1      -0.227  -2.897   1.851  1.00  0.00    -0.165 F 
ATOM      9  F   UNL     1      -2.236  -2.026   1.978  1.00  0.00    -0.165 F 
BRANCH   7  10
ATOM     10  O   UNL     1      -1.969  -3.968   0.967  1.00  0.00    -0.313 OA
BRANCH  10  11
ATOM     11  C   UNL     1      -1.316  -3.630  -0.259  1.00  0.00     0.168 C 
BRANCH  11  12
ATOM     12  C   UNL     1      -1.685  -2.267  -0.873  1.00  0.00     0.033 C 
BRANCH  12  13
ATOM     13  C   UNL     1      -1.024  -0.979  -0.338  1.00  0.00     0.029 C 
BRANCH  13  14
ATOM     14  C   UNL     1       0.474  -0.977  -0.213  1.00  0.00    -0.035 C 
ATOM     15  C   UNL     1       1.222   0.122  -0.377  1.00  0.00     0.004 C 
ENDBRANCH  13  14
ENDBRANCH  12  13
ENDBRANCH  11  12
ENDBRANCH  10  11
ENDBRANCH   7  10
ENDBRANCH   4   7
ENDBRANCH   2   3
ENDBRANCH   1   2
BRANCH   1  16
ATOM     16  C   UNL     1      -1.772  -0.449   6.337  1.00  0.00     0.002 C 
BRANCH  16  17
ATOM     17  C   UNL     1      -0.534  -0.533   7.236  1.00  0.00     0.002 C 
BRANCH  17  18
ATOM     18  C   UNL     1       0.478   0.599   7.050  1.00  0.00     0.021 C 
BRANCH  18  19
ATOM     19  C   UNL     1      -0.076   1.991   7.327  1.00  0.00     0.116 C 
BRANCH  19  20
ATOM     20  N   UNL     1      -0.517   2.143   8.705  1.00  0.00    -0.352 N 
ATOM     21  C   UNL     1      -0.171   3.098   9.630  1.00  0.00     0.251 C 
ATOM     22  H   UNL     1      -1.155   1.463   9.021  1.00  0.00     0.163 HD
ATOM     23  O   UNL     1      -0.490   2.969  10.805  1.00  0.00    -0.269 OA
BRANCH  21  24
ATOM     24  C   UNL     1       0.607   4.278   9.200  1.00  0.00     0.039 A 
ATOM     25  C   UNL     1       1.691   4.696   9.975  1.00  0.00     0.014 A 
ATOM     26  C   UNL     1       0.265   4.968   8.035  1.00  0.00     0.014 A 
ATOM     27  C   UNL     1       2.471   5.774   9.548  1.00  0.00     0.010 A 
ATOM     28  C   UNL     1       1.088   5.987   7.570  1.00  0.00     0.010 A 
ATOM     29  C   UNL     1       2.194   6.407   8.326  1.00  0.00    -0.014 A 
BRANCH  29  30
ATOM     30  C   UNL     1       3.026   7.529   7.823  1.00  0.00     0.031 A 
ATOM     31  C   UNL     1       2.407   8.887   7.635  1.00  0.00     0.074 A 
ATOM     32  C   UNL     1       4.305   7.312   7.462  1.00  0.00     0.049 A 
ATOM     33  N   UNL     1       2.916   9.963   7.092  1.00  0.00    -0.248 NA
ATOM     34  C   UNL     1       1.016   9.045   8.091  1.00  0.00     0.031 C 
ATOM     35  C   UNL     1       5.009   6.034   7.568  1.00  0.00     0.029 A 
ATOM     36  N   UNL     1       5.235   8.160   6.913  1.00  0.00    -0.354 N 
ATOM     37  C   UNL     1       1.905  10.915   7.123  1.00  0.00     0.074 A 
ATOM     38  C   UNL     1       0.736  10.274   7.685  1.00  0.00     0.031 C 
ATOM     39  C   UNL     1       6.264   6.185   7.113  1.00  0.00     0.029 A 
ATOM     40  C   UNL     1       6.438   7.555   6.639  1.00  0.00     0.049 A 
ATOM     41  H   UNL     1       5.057   9.111   6.732  1.00  0.00     0.167 HD
ATOM     42  C   UNL     1       1.954  12.212   6.737  1.00  0.00     0.037 A 
ATOM     43  C   UNL     1       7.548   8.046   6.055  1.00  0.00     0.037 A 
ATOM     44  C   UNL     1       3.127  12.849   6.200  1.00  0.00     0.049 A 
ATOM     45  C   UNL     1       7.569   9.485   5.611  1.00  0.00     0.074 A 
ATOM     46  C   UNL     1       3.295  14.171   5.825  1.00  0.00     0.029 A 
ATOM     47  N   UNL     1       4.333  12.208   5.958  1.00  0.00    -0.354 N 
ATOM     48  N   UNL     1       6.626  10.392   5.695  1.00  0.00    -0.248 NA
ATOM     49  C   UNL     1       8.812   9.972   4.996  1.00  0.00     0.031 C 
ATOM     50  C   UNL     1       4.583  14.316   5.303  1.00  0.00     0.029 A 
ATOM     51  C   UNL     1       5.242  13.102   5.418  1.00  0.00     0.049 A 
ATOM     52  H   UNL     1       4.515  11.258   6.143  1.00  0.00     0.167 HD
ATOM     53  C   UNL     1       7.173  11.562   5.187  1.00  0.00     0.074 A 
ATOM     54  C   UNL     1       8.532  11.252   4.798  1.00  0.00     0.031 C 
ATOM     55  C   UNL     1       6.602  12.785   5.060  1.00  0.00     0.037 A 
BRANCH  42  56
ATOM     56  C   UNL     1       0.701  13.028   6.879  1.00  0.00     0.064 A 
ATOM     57  C   UNL     1       0.180  13.372   8.136  1.00  0.00     0.173 A 
ATOM     58  C   UNL     1       0.030  13.504   5.741  1.00  0.00     0.173 A 
ATOM     59  F   UNL     1       0.776  12.936   9.256  1.00  0.00    -0.203 F 
ATOM     60  C   UNL     1      -0.982  14.131   8.248  1.00  0.00     0.198 A 
ATOM     61  C   UNL     1      -1.112  14.292   5.858  1.00  0.00     0.198 A 
ATOM     62  F   UNL     1       0.487  13.211   4.514  1.00  0.00    -0.203 F 
ATOM     63  F   UNL     1      -1.491  14.398   9.459  1.00  0.00    -0.200 F 
ATOM     64  C   UNL     1      -1.622  14.597   7.110  1.00  0.00     0.200 A 
ATOM     65  F   UNL     1      -1.719  14.756   4.757  1.00  0.00    -0.200 F 
ATOM     66  F   UNL     1      -2.736  15.334   7.220  1.00  0.00    -0.200 F 
ENDBRANCH  42  56
BRANCH  43  67
ATOM     67  C   UNL     1       8.739   7.174   5.868  1.00  0.00     0.064 A 
ATOM     68  C   UNL     1       9.923   7.410   6.582  1.00  0.00     0.173 A 
ATOM     69  C   UNL     1       8.726   6.099   4.967  1.00  0.00     0.173 A 
ATOM     70  F   UNL     1       9.993   8.438   7.441  1.00  0.00    -0.203 F 
ATOM     71  C   UNL     1      11.054   6.622   6.382  1.00  0.00     0.198 A 
ATOM     72  C   UNL     1       9.848   5.291   4.792  1.00  0.00     0.198 A 
ATOM     73  F   UNL     1       7.617   5.826   4.263  1.00  0.00    -0.203 F 
ATOM     74  F   UNL     1      12.188   6.903   7.038  1.00  0.00    -0.200 F 
ATOM     75  C   UNL     1      11.014   5.559   5.492  1.00  0.00     0.200 A 
ATOM     76  F   UNL     1       9.799   4.256   3.943  1.00  0.00    -0.200 F 
ATOM     77  F   UNL     1      12.101   4.800   5.302  1.00  0.00    -0.200 F 
ENDBRANCH  43  67
BRANCH  55  78
ATOM     78  C   UNL     1       7.458  13.905   4.541  1.00  0.00     0.064 A 
ATOM     79  C   UNL     1       7.857  13.976   3.199  1.00  0.00     0.173 A 
ATOM     80  C   UNL     1       7.825  14.959   5.393  1.00  0.00     0.173 A 
ATOM     81  F   UNL     1       7.543  12.988   2.348  1.00  0.00    -0.203 F 
ATOM     82  C   UNL     1       8.608  15.053   2.733  1.00  0.00     0.198 A 
ATOM     83  C   UNL     1       8.547  16.049   4.916  1.00  0.00     0.198 A 
ATOM     84  F   UNL     1       7.462  14.943   6.685  1.00  0.00    -0.203 F 
ATOM     85  F   UNL     1       9.014  15.080   1.456  1.00  0.00    -0.200 F 
ATOM     86  C   UNL     1       8.942  16.093   3.588  1.00  0.00     0.200 A 
ATOM     87  F   UNL     1       8.852  17.061   5.740  1.00  0.00    -0.200 F 
ATOM     88  F   UNL     1       9.650  17.136   3.133  1.00  0.00    -0.200 F 
ENDBRANCH  55  78
ENDBRANCH  29  30
ENDBRANCH  21  24
ENDBRANCH  19  20
ENDBRANCH  18  19
ENDBRANCH  17  18
ENDBRANCH  16  17
ENDBRANCH   1  16
TORSDOF 18
