REMARK SMILES O=C(CCC(=O)N1N=C(c2ccccc2)C[C@@H]1c1ccc2c(c1)OCO2)NCCCCCCNC(=O)c1ccc(-c2c3nc(c(-c4c(F)c(F)c(F)c(F)c4F)c4ccc([nH]4)c(-c4c(F)c(F)c(F)c(F)c4F)c4nc(c(-c5c(F)c(F)c(F)c(F)c5F)c5ccc2[nH]5)C=C4)C=C3)cc1
REMARK SMILES IDX 29 1 28 2 27 3 1 4 2 5 3 7 4 8 5 9 6 10 7 11 8 12 17 13 9 14
REMARK SMILES IDX 16 15 18 16 19 17 23 18 20 19 22 20 21 21 24 22 26 23 25 24
REMARK SMILES IDX 10 25 11 26 15 27 12 28 14 29 13 30 30 31 31 32 32 33 33 34
REMARK SMILES IDX 34 35 35 36 36 38 37 39 38 40 99 41 39 42 98 43 40 44 41 45
REMARK SMILES IDX 42 46 92 47 43 48 97 49 91 50 93 51 44 52 96 53 90 54 89 55
REMARK SMILES IDX 45 57 77 58 57 59 76 60 58 61 61 62 75 63 94 64 59 65 60 66
REMARK SMILES IDX 74 68 95 69 62 70 46 71 47 72 55 73 48 74 49 75 53 76 56 77
REMARK SMILES IDX 50 78 51 79 54 80 52 81 78 82 79 83 87 84 80 85 81 86 85 87
REMARK SMILES IDX 88 88 82 89 83 90 86 91 84 92 63 93 64 94 72 95 65 96 66 97
REMARK SMILES IDX 70 98 73 99 67 100 68 101 71 102 69 103
REMARK H PARENT 27 6 34 37 93 56 61 67
REMARK Flexibility Score: inf
ROOT
ATOM      1  C   UNL     1       1.043   2.695   2.764  1.00  0.00     0.021 C 
ENDROOT
BRANCH   1   2
ATOM      2  C   UNL     1       1.040   2.242   1.286  1.00  0.00     0.116 C 
BRANCH   2   3
ATOM      3  N   UNL     1       1.356   0.856   0.940  1.00  0.00    -0.356 N 
ATOM      4  O   UNL     1       1.037   1.203  -1.307  1.00  0.00    -0.275 OA
ATOM      5  C   UNL     1       1.483   0.498  -0.407  1.00  0.00     0.220 C 
ATOM      6  H   UNL     1       1.477   0.182   1.647  1.00  0.00     0.163 HD
BRANCH   5   7
ATOM      7  C   UNL     1       2.382  -0.721  -0.697  1.00  0.00     0.110 C 
BRANCH   7   8
ATOM      8  C   UNL     1       3.220  -0.566  -1.989  1.00  0.00     0.112 C 
BRANCH   8   9
ATOM      9  C   UNL     1       4.648   0.045  -2.090  1.00  0.00     0.243 C 
ATOM     10  O   UNL     1       5.425  -0.430  -2.928  1.00  0.00    -0.273 OA
BRANCH   9  11
ATOM     11  N   UNL     1       4.942   1.207  -1.403  1.00  0.00    -0.225 N 
ATOM     12  N   UNL     1       5.748   2.229  -1.943  1.00  0.00    -0.174 NA
ATOM     13  C   UNL     1       4.480   1.559  -0.082  1.00  0.00     0.147 C 
ATOM     14  C   UNL     1       5.545   3.258  -1.172  1.00  0.00     0.071 C 
ATOM     15  C   UNL     1       4.518   3.052  -0.119  1.00  0.00     0.091 C 
BRANCH  13  16
ATOM     16  C   UNL     1       5.140   0.756   1.033  1.00  0.00    -0.019 A 
ATOM     17  C   UNL     1       4.343   0.347   2.135  1.00  0.00     0.010 A 
ATOM     18  C   UNL     1       6.424   0.210   0.919  1.00  0.00     0.056 A 
ATOM     19  C   UNL     1       4.729  -0.637   3.040  1.00  0.00     0.051 A 
ATOM     20  C   UNL     1       6.775  -0.798   1.802  1.00  0.00     0.166 A 
ATOM     21  C   UNL     1       5.943  -1.222   2.815  1.00  0.00     0.165 A 
ATOM     22  O   UNL     1       7.905  -1.555   1.734  1.00  0.00    -0.454 OA
ATOM     23  O   UNL     1       6.433  -2.296   3.486  1.00  0.00    -0.454 OA
ATOM     24  C   UNL     1       7.564  -2.615   2.653  1.00  0.00     0.468 C 
ENDBRANCH  13  16
BRANCH  14  25
ATOM     25  C   UNL     1       6.046   4.634  -1.267  1.00  0.00    -0.002 A 
ATOM     26  C   UNL     1       5.541   5.465  -2.268  1.00  0.00     0.010 A 
ATOM     27  C   UNL     1       6.674   5.186  -0.140  1.00  0.00     0.010 A 
ATOM     28  C   UNL     1       5.676   6.851  -2.141  1.00  0.00     0.001 A 
ATOM     29  C   UNL     1       6.802   6.569  -0.017  1.00  0.00     0.001 A 
ATOM     30  C   UNL     1       6.300   7.401  -1.017  1.00  0.00     0.000 A 
ENDBRANCH  14  25
ENDBRANCH   9  11
ENDBRANCH   8   9
ENDBRANCH   7   8
ENDBRANCH   5   7
ENDBRANCH   2   3
ENDBRANCH   1   2
BRANCH   1  31
ATOM     31  C   UNL     1       2.293   2.782   3.672  1.00  0.00     0.002 C 
BRANCH  31  32
ATOM     32  C   UNL     1       3.585   3.471   3.214  1.00  0.00     0.002 C 
BRANCH  32  33
ATOM     33  C   UNL     1       3.518   4.950   2.825  1.00  0.00     0.021 C 
BRANCH  33  34
ATOM     34  C   UNL     1       3.931   5.886   3.955  1.00  0.00     0.116 C 
BRANCH  34  35
ATOM     35  N   UNL     1       5.378   5.969   4.164  1.00  0.00    -0.352 N 
ATOM     36  C   UNL     1       6.086   7.005   4.741  1.00  0.00     0.251 C 
ATOM     37  H   UNL     1       5.908   5.197   3.858  1.00  0.00     0.163 HD
ATOM     38  O   UNL     1       7.314   7.015   4.731  1.00  0.00    -0.269 OA
BRANCH  36  39
ATOM     39  C   UNL     1       5.339   8.142   5.329  1.00  0.00     0.039 A 
ATOM     40  C   UNL     1       5.712   9.453   5.022  1.00  0.00     0.014 A 
ATOM     41  C   UNL     1       4.216   7.900   6.121  1.00  0.00     0.014 A 
ATOM     42  C   UNL     1       4.892  10.512   5.422  1.00  0.00     0.010 A 
ATOM     43  C   UNL     1       3.348   8.939   6.423  1.00  0.00     0.010 A 
ATOM     44  C   UNL     1       3.675  10.257   6.078  1.00  0.00    -0.014 A 
BRANCH  44  45
ATOM     45  C   UNL     1       2.725  11.345   6.418  1.00  0.00     0.031 A 
ATOM     46  C   UNL     1       2.360  11.600   7.854  1.00  0.00     0.074 A 
ATOM     47  C   UNL     1       2.116  12.031   5.431  1.00  0.00     0.049 A 
ATOM     48  N   UNL     1       1.491  12.443   8.352  1.00  0.00    -0.248 NA
ATOM     49  C   UNL     1       3.028  10.763   8.864  1.00  0.00     0.031 C 
ATOM     50  C   UNL     1       2.321  11.816   3.998  1.00  0.00     0.029 A 
ATOM     51  N   UNL     1       1.193  13.045   5.485  1.00  0.00    -0.354 N 
ATOM     52  C   UNL     1       1.488  12.214   9.722  1.00  0.00     0.074 A 
ATOM     53  C   UNL     1       2.392  11.113   9.971  1.00  0.00     0.031 C 
ATOM     54  C   UNL     1       1.579  12.698   3.309  1.00  0.00     0.029 A 
ATOM     55  C   UNL     1       0.824  13.520   4.250  1.00  0.00     0.049 A 
ATOM     56  H   UNL     1       0.830  13.399   6.328  1.00  0.00     0.167 HD
ATOM     57  C   UNL     1       0.818  12.883  10.690  1.00  0.00     0.037 A 
ATOM     58  C   UNL     1      -0.020  14.514   3.918  1.00  0.00     0.037 A 
ATOM     59  C   UNL     1      -0.036  14.013  10.440  1.00  0.00     0.049 A 
ATOM     60  C   UNL     1      -0.709  15.282   5.012  1.00  0.00     0.074 A 
ATOM     61  C   UNL     1      -0.689  14.822  11.352  1.00  0.00     0.029 A 
ATOM     62  N   UNL     1      -0.350  14.496   9.178  1.00  0.00    -0.354 N 
ATOM     63  N   UNL     1      -0.639  15.113   6.310  1.00  0.00    -0.248 NA
ATOM     64  C   UNL     1      -1.588  16.383   4.595  1.00  0.00     0.031 C 
ATOM     65  C   UNL     1      -1.425  15.776  10.639  1.00  0.00     0.029 A 
ATOM     66  C   UNL     1      -1.199  15.584   9.285  1.00  0.00     0.049 A 
ATOM     67  H   UNL     1      -0.017  14.121   8.330  1.00  0.00     0.167 HD
ATOM     68  C   UNL     1      -1.444  16.096   6.867  1.00  0.00     0.074 A 
ATOM     69  C   UNL     1      -1.980  16.869   5.764  1.00  0.00     0.031 C 
ATOM     70  C   UNL     1      -1.719  16.337   8.172  1.00  0.00     0.037 A 
BRANCH  57  71
ATOM     71  C   UNL     1       1.000  12.415  12.104  1.00  0.00     0.064 A 
ATOM     72  C   UNL     1       2.222  12.568  12.779  1.00  0.00     0.173 A 
ATOM     73  C   UNL     1      -0.057  11.803  12.795  1.00  0.00     0.173 A 
ATOM     74  F   UNL     1       3.269  13.132  12.159  1.00  0.00    -0.203 F 
ATOM     75  C   UNL     1       2.391  12.089  14.076  1.00  0.00     0.198 A 
ATOM     76  C   UNL     1       0.106  11.355  14.103  1.00  0.00     0.198 A 
ATOM     77  F   UNL     1      -1.247  11.635  12.199  1.00  0.00    -0.203 F 
ATOM     78  F   UNL     1       3.586  12.189  14.674  1.00  0.00    -0.200 F 
ATOM     79  C   UNL     1       1.332  11.488  14.738  1.00  0.00     0.200 A 
ATOM     80  F   UNL     1      -0.920  10.781  14.746  1.00  0.00    -0.200 F 
ATOM     81  F   UNL     1       1.497  11.024  15.985  1.00  0.00    -0.200 F 
ENDBRANCH  57  71
BRANCH  58  82
ATOM     82  C   UNL     1      -0.208  14.879   2.490  1.00  0.00     0.064 A 
ATOM     83  C   UNL     1       0.342  16.064   1.980  1.00  0.00     0.173 A 
ATOM     84  C   UNL     1      -0.914  14.053   1.606  1.00  0.00     0.173 A 
ATOM     85  F   UNL     1       1.011  16.895   2.792  1.00  0.00    -0.203 F 
ATOM     86  C   UNL     1       0.180  16.415   0.641  1.00  0.00     0.198 A 
ATOM     87  C   UNL     1      -1.056  14.394   0.262  1.00  0.00     0.198 A 
ATOM     88  F   UNL     1      -1.452  12.905   2.043  1.00  0.00    -0.203 F 
ATOM     89  F   UNL     1       0.688  17.569   0.188  1.00  0.00    -0.200 F 
ATOM     90  C   UNL     1      -0.513  15.577  -0.218  1.00  0.00     0.200 A 
ATOM     91  F   UNL     1      -1.714  13.575  -0.570  1.00  0.00    -0.200 F 
ATOM     92  F   UNL     1      -0.661  15.910  -1.508  1.00  0.00    -0.200 F 
ENDBRANCH  58  82
BRANCH  70  93
ATOM     93  C   UNL     1      -2.624  17.493   8.477  1.00  0.00     0.064 A 
ATOM     94  C   UNL     1      -4.003  17.424   8.234  1.00  0.00     0.173 A 
ATOM     95  C   UNL     1      -2.112  18.665   9.052  1.00  0.00     0.173 A 
ATOM     96  F   UNL     1      -4.536  16.329   7.671  1.00  0.00    -0.203 F 
ATOM     97  C   UNL     1      -4.835  18.498   8.536  1.00  0.00     0.198 A 
ATOM     98  C   UNL     1      -2.951  19.727   9.377  1.00  0.00     0.198 A 
ATOM     99  F   UNL     1      -0.800  18.775   9.308  1.00  0.00    -0.203 F 
ATOM    100  F   UNL     1      -6.144  18.429   8.256  1.00  0.00    -0.200 F 
ATOM    101  C   UNL     1      -4.310  19.645   9.112  1.00  0.00     0.200 A 
ATOM    102  F   UNL     1      -2.444  20.830   9.944  1.00  0.00    -0.200 F 
ATOM    103  F   UNL     1      -5.113  20.677   9.407  1.00  0.00    -0.200 F 
ENDBRANCH  70  93
ENDBRANCH  44  45
ENDBRANCH  36  39
ENDBRANCH  34  35
ENDBRANCH  33  34
ENDBRANCH  32  33
ENDBRANCH  31  32
ENDBRANCH   1  31
TORSDOF 18
