REMARK SMILES Cc1cccc(NC(=O)C[C@H]([NH2+]C(C)C)C(=O)NCCCCCCNC(=O)c2ccc(-c3c4nc(c(-c5c(F)c(F)c(F)c(F)c5F)c5ccc([nH]5)c(-c5c(F)c(F)c(F)c(F)c5F)c5nc(c(-c6c(F)c(F)c(F)c(F)c6F)c6ccc3[nH]6)C=C5)C=C4)cc2)c1
REMARK SMILES IDX 21 1 20 2 19 3 18 4 16 5 17 6 11 8 10 9 8 10 7 11 9 13 6 14
REMARK SMILES IDX 1 15 2 16 3 17 91 18 4 19 5 20 12 21 13 24 14 25 15 26 22 27
REMARK SMILES IDX 23 28 24 29 25 30 26 31 27 33 28 34 29 35 90 36 30 37 89 38
REMARK SMILES IDX 31 39 32 40 33 41 83 42 34 43 88 44 82 45 84 46 35 47 87 48
REMARK SMILES IDX 81 49 80 50 36 52 68 53 48 54 67 55 49 56 52 57 66 58 85 59
REMARK SMILES IDX 50 60 51 61 65 63 86 64 53 65 37 66 38 67 46 68 39 69 40 70
REMARK SMILES IDX 44 71 47 72 41 73 42 74 45 75 43 76 69 77 70 78 78 79 71 80
REMARK SMILES IDX 72 81 76 82 79 83 73 84 74 85 77 86 75 87 54 88 55 89 63 90
REMARK SMILES IDX 56 91 57 92 61 93 64 94 58 95 59 96 62 97 60 98
REMARK H PARENT 18 7 7 12 12 22 12 23 25 32 84 51 52 62
REMARK Flexibility Score: inf
ROOT
ATOM      1  C   UNL     1      -4.085  -3.814   3.728  1.00  0.00     0.002 C 
ENDROOT
BRANCH   1   2
ATOM      2  C   UNL     1      -3.606  -2.433   3.275  1.00  0.00     0.021 C 
BRANCH   2   3
ATOM      3  C   UNL     1      -3.216  -2.341   1.591  1.00  0.00     0.116 C 
BRANCH   3   4
ATOM      4  N   UNL     1      -4.328  -1.694  -0.039  1.00  0.00    -0.351 N 
ATOM      5  C   UNL     1      -4.585  -0.931  -1.184  1.00  0.00     0.278 C 
ATOM      6  O   UNL     1      -5.474  -1.439  -1.898  1.00  0.00    -0.268 OA
ATOM      7  H   UNL     1      -5.146  -2.237   0.037  1.00  0.00     0.163 HD
BRANCH   5   8
ATOM      8  C   UNL     1      -4.026   0.435  -1.634  1.00  0.00     0.282 C 
BRANCH   8   9
ATOM      9  C   UNL     1      -2.520   0.521  -1.998  1.00  0.00     0.175 C 
BRANCH   9  10
ATOM     10  C   UNL     1      -1.778  -0.761  -2.391  1.00  0.00     0.230 C 
ATOM     11  N   UNL     1      -1.656  -1.829  -1.545  1.00  0.00    -0.326 N 
ATOM     12  H   UNL     1      -1.022  -2.540  -1.796  1.00  0.00     0.169 HD
ATOM     13  O   UNL     1      -1.245  -0.850  -3.502  1.00  0.00    -0.274 OA
BRANCH  11  14
ATOM     14  C   UNL     1      -2.363  -1.985  -0.352  1.00  0.00     0.041 A 
ATOM     15  C   UNL     1      -5.758  -4.712   0.809  1.00  0.00     0.044 C 
ATOM     16  C   UNL     1      -4.840  -3.527   0.804  1.00  0.00    -0.049 A 
ATOM     17  C   UNL     1      -5.346  -2.016   1.676  1.00  0.00     0.003 A 
ATOM     18  C   UNL     1      -3.376  -3.491  -0.264  1.00  0.00     0.029 A 
ATOM     19  C   UNL     1      -4.288  -0.536   1.634  1.00  0.00     0.002 A 
ATOM     20  C   UNL     1      -2.794  -0.511   0.626  1.00  0.00     0.026 A 
ENDBRANCH  11  14
ENDBRANCH   9  10
ENDBRANCH   8   9
BRANCH   8  21
ATOM     21  N   UNL     1      -4.544   1.576  -0.786  1.00  0.00    -0.334 N 
ATOM     22  H   UNL     1      -4.618   2.400  -1.383  1.00  0.00     0.347 HD
ATOM     23  H   UNL     1      -3.877   1.676  -0.021  1.00  0.00     0.347 HD
BRANCH  21  24
ATOM     24  C   UNL     1      -5.862   1.358  -0.145  1.00  0.00     0.176 C 
ATOM     25  C   UNL     1      -6.015   2.297   1.060  1.00  0.00     0.075 C 
ATOM     26  C   UNL     1      -7.095   1.407  -1.037  1.00  0.00     0.075 C 
ENDBRANCH  21  24
ENDBRANCH   8  21
ENDBRANCH   5   8
ENDBRANCH   3   4
ENDBRANCH   2   3
ENDBRANCH   1   2
BRANCH   1  27
ATOM     27  C   UNL     1      -3.159  -4.966   3.331  1.00  0.00     0.002 C 
BRANCH  27  28
ATOM     28  C   UNL     1      -1.691  -4.825   3.777  1.00  0.00     0.021 C 
BRANCH  28  29
ATOM     29  C   UNL     1      -1.456  -4.831   5.283  1.00  0.00     0.116 C 
BRANCH  29  30
ATOM     30  N   UNL     1      -2.272  -5.838   5.952  1.00  0.00    -0.352 N 
ATOM     31  C   UNL     1      -2.380  -5.987   7.316  1.00  0.00     0.251 C 
ATOM     32  H   UNL     1      -2.784  -6.459   5.385  1.00  0.00     0.163 HD
ATOM     33  O   UNL     1      -1.901  -6.933   7.923  1.00  0.00    -0.269 OA
BRANCH  31  34
ATOM     34  C   UNL     1      -3.381  -5.094   7.946  1.00  0.00     0.039 A 
ATOM     35  C   UNL     1      -4.080  -5.471   9.098  1.00  0.00     0.014 A 
ATOM     36  C   UNL     1      -3.703  -3.907   7.298  1.00  0.00     0.014 A 
ATOM     37  C   UNL     1      -5.176  -4.715   9.507  1.00  0.00     0.010 A 
ATOM     38  C   UNL     1      -4.795  -3.193   7.647  1.00  0.00     0.010 A 
ATOM     39  C   UNL     1      -5.549  -3.630   8.720  1.00  0.00    -0.014 A 
BRANCH  39  40
ATOM     40  C   UNL     1      -6.638  -2.721   8.951  1.00  0.00     0.031 A 
ATOM     41  C   UNL     1      -6.365  -1.687   9.951  1.00  0.00     0.074 A 
ATOM     42  C   UNL     1      -7.605  -2.751   8.009  1.00  0.00     0.049 A 
ATOM     43  N   UNL     1      -7.220  -1.226  10.783  1.00  0.00    -0.248 NA
ATOM     44  C   UNL     1      -5.016  -1.146  10.167  1.00  0.00     0.031 C 
ATOM     45  C   UNL     1      -8.659  -1.808   7.681  1.00  0.00     0.029 A 
ATOM     46  N   UNL     1      -7.858  -3.836   7.147  1.00  0.00    -0.354 N 
ATOM     47  C   UNL     1      -6.671  -0.055  11.262  1.00  0.00     0.074 A 
ATOM     48  C   UNL     1      -5.252  -0.197  11.077  1.00  0.00     0.031 C 
ATOM     49  C   UNL     1      -9.633  -2.473   7.024  1.00  0.00     0.029 A 
ATOM     50  C   UNL     1      -9.255  -3.880   6.984  1.00  0.00     0.049 A 
ATOM     51  H   UNL     1      -7.194  -4.440   6.743  1.00  0.00     0.167 HD
ATOM     52  C   UNL     1      -7.506   1.006  11.461  1.00  0.00     0.037 A 
ATOM     53  C   UNL     1      -9.931  -4.912   7.576  1.00  0.00     0.037 A 
ATOM     54  C   UNL     1      -8.852   0.628  11.015  1.00  0.00     0.049 A 
ATOM     55  C   UNL     1     -10.718  -4.415   8.762  1.00  0.00     0.074 A 
ATOM     56  C   UNL     1      -9.538   0.881   9.837  1.00  0.00     0.029 A 
ATOM     57  N   UNL     1      -9.493  -0.447  11.619  1.00  0.00    -0.354 N 
ATOM     58  N   UNL     1     -10.384  -3.371   9.473  1.00  0.00    -0.248 NA
ATOM     59  C   UNL     1     -11.981  -5.009   9.182  1.00  0.00     0.031 C 
ATOM     60  C   UNL     1     -10.573  -0.086   9.721  1.00  0.00     0.029 A 
ATOM     61  C   UNL     1     -10.508  -0.929  10.818  1.00  0.00     0.049 A 
ATOM     62  H   UNL     1      -9.255  -0.814  12.501  1.00  0.00     0.167 HD
ATOM     63  C   UNL     1     -11.366  -3.120  10.394  1.00  0.00     0.074 A 
ATOM     64  C   UNL     1     -12.339  -4.175  10.173  1.00  0.00     0.031 C 
ATOM     65  C   UNL     1     -11.318  -2.058  11.254  1.00  0.00     0.037 A 
BRANCH  52  66
ATOM     66  C   UNL     1      -7.112   2.446  11.716  1.00  0.00     0.064 A 
ATOM     67  C   UNL     1      -8.072   3.474  11.559  1.00  0.00     0.173 A 
ATOM     68  C   UNL     1      -5.844   2.897  12.133  1.00  0.00     0.173 A 
ATOM     69  F   UNL     1      -9.345   3.202  11.241  1.00  0.00    -0.203 F 
ATOM     70  C   UNL     1      -7.774   4.826  11.739  1.00  0.00     0.198 A 
ATOM     71  C   UNL     1      -5.539   4.255  12.294  1.00  0.00     0.198 A 
ATOM     72  F   UNL     1      -4.862   2.052  12.457  1.00  0.00    -0.203 F 
ATOM     73  F   UNL     1      -8.735   5.744  11.569  1.00  0.00    -0.200 F 
ATOM     74  C   UNL     1      -6.503   5.219  12.095  1.00  0.00     0.200 A 
ATOM     75  F   UNL     1      -4.301   4.617  12.660  1.00  0.00    -0.200 F 
ATOM     76  F   UNL     1      -6.217   6.516  12.272  1.00  0.00    -0.200 F 
ENDBRANCH  52  66
BRANCH  53  77
ATOM     77  C   UNL     1      -9.137  -6.186   7.501  1.00  0.00     0.064 A 
ATOM     78  C   UNL     1      -8.836  -6.657   6.203  1.00  0.00     0.173 A 
ATOM     79  C   UNL     1      -8.292  -6.596   8.541  1.00  0.00     0.173 A 
ATOM     80  F   UNL     1      -9.631  -6.326   5.172  1.00  0.00    -0.203 F 
ATOM     81  C   UNL     1      -7.632  -7.303   5.928  1.00  0.00     0.198 A 
ATOM     82  C   UNL     1      -7.109  -7.292   8.264  1.00  0.00     0.198 A 
ATOM     83  F   UNL     1      -8.530  -6.211   9.803  1.00  0.00    -0.203 F 
ATOM     84  F   UNL     1      -7.284  -7.555   4.657  1.00  0.00    -0.200 F 
ATOM     85  C   UNL     1      -6.748  -7.578   6.955  1.00  0.00     0.200 A 
ATOM     86  F   UNL     1      -6.267  -7.603   9.261  1.00  0.00    -0.200 F 
ATOM     87  F   UNL     1      -5.532  -8.070   6.674  1.00  0.00    -0.200 F 
ENDBRANCH  53  77
BRANCH  65  88
ATOM     88  C   UNL     1     -12.111  -1.930  12.535  1.00  0.00     0.064 A 
ATOM     89  C   UNL     1     -12.712  -3.015  13.192  1.00  0.00     0.173 A 
ATOM     90  C   UNL     1     -12.169  -0.698  13.239  1.00  0.00     0.173 A 
ATOM     91  F   UNL     1     -12.589  -4.269  12.740  1.00  0.00    -0.203 F 
ATOM     92  C   UNL     1     -13.418  -2.860  14.386  1.00  0.00     0.198 A 
ATOM     93  C   UNL     1     -12.788  -0.569  14.478  1.00  0.00     0.198 A 
ATOM     94  F   UNL     1     -11.602   0.422  12.769  1.00  0.00    -0.203 F 
ATOM     95  F   UNL     1     -14.049  -3.914  14.919  1.00  0.00    -0.200 F 
ATOM     96  C   UNL     1     -13.447  -1.641  15.034  1.00  0.00     0.200 A 
ATOM     97  F   UNL     1     -12.726   0.600  15.132  1.00  0.00    -0.200 F 
ATOM     98  F   UNL     1     -14.088  -1.507  16.201  1.00  0.00    -0.200 F 
ENDBRANCH  65  88
ENDBRANCH  39  40
ENDBRANCH  31  34
ENDBRANCH  29  30
ENDBRANCH  28  29
ENDBRANCH  27  28
ENDBRANCH   1  27
TORSDOF 18
