REMARK SMILES COc1ccc(/C=C(\Sc2nc(C)n[nH]2)C(=O)NCCCCCCNC(=O)c2ccc(-c3c4nc(c(-c5c(F)c(F)c(F)c(F)c5F)c5ccc([nH]5)c(-c5c(F)c(F)c(F)c(F)c5F)c5nc(c(-c6c(F)c(F)c(F)c(F)c6F)c6ccc3[nH]6)C=C5)C=C4)cc2)c(OC)c1
REMARK SMILES IDX 21 1 20 2 19 3 18 4 16 5 17 6 8 8 7 9 6 10 3 11 4 12 94 13
REMARK SMILES IDX 5 14 91 15 2 16 1 17 92 18 93 19 9 20 10 21 11 22 15 23
REMARK SMILES IDX 12 24 14 25 13 27 22 28 23 29 24 30 25 31 26 32 27 34 28 35
REMARK SMILES IDX 29 36 90 37 30 38 89 39 31 40 32 41 33 42 83 43 34 44 88 45
REMARK SMILES IDX 82 46 84 47 35 48 87 49 81 50 80 51 36 53 68 54 48 55 67 56
REMARK SMILES IDX 49 57 52 58 66 59 85 60 50 61 51 62 65 64 86 65 53 66 37 67
REMARK SMILES IDX 38 68 46 69 39 70 40 71 44 72 47 73 41 74 42 75 45 76 43 77
REMARK SMILES IDX 69 78 70 79 78 80 71 81 72 82 76 83 79 84 73 85 74 86 77 87
REMARK SMILES IDX 75 88 54 89 55 90 63 91 56 92 57 93 61 94 64 95 58 96 59 97
REMARK SMILES IDX 62 98 60 99
REMARK H PARENT 18 7 15 26 25 33 84 52 52 63
REMARK Flexibility Score: inf
ROOT
ATOM      1  C   UNL     1      -1.544  -0.509  11.974  1.00  0.00     0.002 C 
ENDROOT
BRANCH   1   2
ATOM      2  C   UNL     1      -1.607  -0.333  10.454  1.00  0.00     0.021 C 
BRANCH   2   3
ATOM      3  C   UNL     1      -0.660   0.747   9.927  1.00  0.00     0.116 C 
BRANCH   3   4
ATOM      4  N   UNL     1       0.626   0.194   9.534  1.00  0.00    -0.352 N 
ATOM      5  C   UNL     1       1.338   0.034   8.381  1.00  0.00     0.258 C 
ATOM      6  O   UNL     1       2.450  -0.484   8.556  1.00  0.00    -0.269 OA
ATOM      7  H   UNL     1       1.116  -0.162  10.310  1.00  0.00     0.163 HD
BRANCH   5   8
ATOM      8  C   UNL     1       0.898   0.461   6.975  1.00  0.00     0.081 C 
ATOM      9  C   UNL     1       1.901   0.431   6.059  1.00  0.00     0.033 C 
BRANCH   9  10
ATOM     10  C   UNL     1       1.929   0.780   4.620  1.00  0.00     0.018 A 
ATOM     11  C   UNL     1       1.509   1.080   1.856  1.00  0.00     0.122 A 
ATOM     12  C   UNL     1       1.000   2.016   2.751  1.00  0.00     0.047 A 
ATOM     13  C   UNL     1       2.396   0.117   2.321  1.00  0.00     0.093 A 
ATOM     14  C   UNL     1       1.235   1.884   4.122  1.00  0.00     0.016 A 
ATOM     15  C   UNL     1       2.657   0.012   3.694  1.00  0.00     0.129 A 
BRANCH  11  16
ATOM     16  O   UNL     1       1.107   1.220   0.557  1.00  0.00    -0.497 OA
ATOM     17  C   UNL     1       1.193   0.041  -0.238  1.00  0.00     0.278 C 
ENDBRANCH  11  16
BRANCH  15  18
ATOM     18  O   UNL     1       3.633  -0.848   4.144  1.00  0.00    -0.496 OA
ATOM     19  C   UNL     1       4.874  -0.646   3.452  1.00  0.00     0.278 C 
ENDBRANCH  15  18
ENDBRANCH   9  10
BRANCH   8  20
ATOM     20  S   UNL     1      -0.712   1.046   6.801  1.00  0.00    -0.045 SA
BRANCH  20  21
ATOM     21  C   UNL     1      -1.305   0.695   5.246  1.00  0.00     0.188 A 
ATOM     22  N   UNL     1      -1.190  -0.343   4.459  1.00  0.00    -0.206 NA
ATOM     23  N   UNL     1      -2.104   1.630   4.662  1.00  0.00    -0.254 N 
ATOM     24  C   UNL     1      -1.893   0.058   3.342  1.00  0.00     0.148 A 
ATOM     25  N   UNL     1      -2.496   1.251   3.442  1.00  0.00    -0.158 NA
ATOM     26  H   UNL     1      -2.361   2.481   5.087  1.00  0.00     0.192 HD
ATOM     27  C   UNL     1      -1.949  -0.729   2.096  1.00  0.00     0.092 C 
ENDBRANCH  20  21
ENDBRANCH   8  20
ENDBRANCH   5   8
ENDBRANCH   3   4
ENDBRANCH   2   3
ENDBRANCH   1   2
BRANCH   1  28
ATOM     28  C   UNL     1      -1.766   0.766  12.809  1.00  0.00     0.002 C 
BRANCH  28  29
ATOM     29  C   UNL     1      -2.989   1.626  12.449  1.00  0.00     0.021 C 
BRANCH  29  30
ATOM     30  C   UNL     1      -4.314   0.950  12.753  1.00  0.00     0.116 C 
BRANCH  30  31
ATOM     31  N   UNL     1      -4.509   0.725  14.189  1.00  0.00    -0.352 N 
ATOM     32  C   UNL     1      -5.548   0.078  14.838  1.00  0.00     0.251 C 
ATOM     33  H   UNL     1      -3.803   1.085  14.774  1.00  0.00     0.163 HD
ATOM     34  O   UNL     1      -5.774   0.267  16.019  1.00  0.00    -0.269 OA
BRANCH  32  35
ATOM     35  C   UNL     1      -6.371  -0.864  14.060  1.00  0.00     0.039 A 
ATOM     36  C   UNL     1      -7.750  -0.989  14.251  1.00  0.00     0.014 A 
ATOM     37  C   UNL     1      -5.717  -1.612  13.091  1.00  0.00     0.014 A 
ATOM     38  C   UNL     1      -8.461  -1.835  13.403  1.00  0.00     0.010 A 
ATOM     39  C   UNL     1      -6.441  -2.227  12.115  1.00  0.00     0.010 A 
ATOM     40  C   UNL     1      -7.791  -2.442  12.329  1.00  0.00    -0.014 A 
BRANCH  40  41
ATOM     41  C   UNL     1      -8.478  -3.254  11.339  1.00  0.00     0.031 A 
ATOM     42  C   UNL     1      -9.591  -2.551  10.658  1.00  0.00     0.074 A 
ATOM     43  C   UNL     1      -7.987  -4.441  10.914  1.00  0.00     0.049 A 
ATOM     44  N   UNL     1     -10.853  -2.798  10.765  1.00  0.00    -0.248 NA
ATOM     45  C   UNL     1      -9.284  -1.329   9.895  1.00  0.00     0.031 C 
ATOM     46  C   UNL     1      -6.721  -5.096  11.275  1.00  0.00     0.029 A 
ATOM     47  N   UNL     1      -8.486  -5.283   9.971  1.00  0.00    -0.354 N 
ATOM     48  C   UNL     1     -11.488  -1.905   9.909  1.00  0.00     0.074 A 
ATOM     49  C   UNL     1     -10.508  -0.906   9.572  1.00  0.00     0.031 C 
ATOM     50  C   UNL     1      -6.450  -6.089  10.399  1.00  0.00     0.029 A 
ATOM     51  C   UNL     1      -7.598  -6.261   9.532  1.00  0.00     0.049 A 
ATOM     52  H   UNL     1      -9.404  -5.206   9.625  1.00  0.00     0.167 HD
ATOM     53  C   UNL     1     -12.679  -2.231   9.336  1.00  0.00     0.037 A 
ATOM     54  C   UNL     1      -7.801  -7.132   8.511  1.00  0.00     0.037 A 
ATOM     55  C   UNL     1     -13.293  -3.340  10.028  1.00  0.00     0.049 A 
ATOM     56  C   UNL     1      -9.265  -7.182   8.272  1.00  0.00     0.074 A 
ATOM     57  C   UNL     1     -13.714  -3.563  11.325  1.00  0.00     0.029 A 
ATOM     58  N   UNL     1     -13.180  -4.585   9.459  1.00  0.00    -0.354 N 
ATOM     59  N   UNL     1     -10.118  -7.678   9.126  1.00  0.00    -0.248 NA
ATOM     60  C   UNL     1      -9.816  -6.241   7.309  1.00  0.00     0.031 C 
ATOM     61  C   UNL     1     -13.350  -4.915  11.604  1.00  0.00     0.029 A 
ATOM     62  C   UNL     1     -12.807  -5.464  10.442  1.00  0.00     0.049 A 
ATOM     63  H   UNL     1     -13.339  -4.807   8.513  1.00  0.00     0.167 HD
ATOM     64  C   UNL     1     -11.190  -6.797   9.101  1.00  0.00     0.074 A 
ATOM     65  C   UNL     1     -10.979  -5.975   7.910  1.00  0.00     0.031 C 
ATOM     66  C   UNL     1     -11.976  -6.620  10.203  1.00  0.00     0.037 A 
BRANCH  53  67
ATOM     67  C   UNL     1     -13.081  -1.848   7.931  1.00  0.00     0.064 A 
ATOM     68  C   UNL     1     -14.379  -2.174   7.488  1.00  0.00     0.173 A 
ATOM     69  C   UNL     1     -12.172  -1.474   6.917  1.00  0.00     0.173 A 
ATOM     70  F   UNL     1     -15.324  -2.553   8.362  1.00  0.00    -0.203 F 
ATOM     71  C   UNL     1     -14.706  -2.222   6.131  1.00  0.00     0.198 A 
ATOM     72  C   UNL     1     -12.518  -1.470   5.568  1.00  0.00     0.198 A 
ATOM     73  F   UNL     1     -10.885  -1.210   7.166  1.00  0.00    -0.203 F 
ATOM     74  F   UNL     1     -15.909  -2.676   5.753  1.00  0.00    -0.200 F 
ATOM     75  C   UNL     1     -13.772  -1.880   5.171  1.00  0.00     0.200 A 
ATOM     76  F   UNL     1     -11.592  -1.151   4.652  1.00  0.00    -0.200 F 
ATOM     77  F   UNL     1     -14.060  -1.992   3.868  1.00  0.00    -0.200 F 
ENDBRANCH  53  67
BRANCH  54  78
ATOM     78  C   UNL     1      -6.825  -7.653   7.522  1.00  0.00     0.064 A 
ATOM     79  C   UNL     1      -7.143  -8.751   6.704  1.00  0.00     0.173 A 
ATOM     80  C   UNL     1      -5.694  -6.903   7.147  1.00  0.00     0.173 A 
ATOM     81  F   UNL     1      -8.229  -9.493   6.965  1.00  0.00    -0.203 F 
ATOM     82  C   UNL     1      -6.397  -9.056   5.559  1.00  0.00     0.198 A 
ATOM     83  C   UNL     1      -4.949  -7.210   6.006  1.00  0.00     0.198 A 
ATOM     84  F   UNL     1      -5.350  -5.797   7.823  1.00  0.00    -0.203 F 
ATOM     85  F   UNL     1      -6.774 -10.068   4.765  1.00  0.00    -0.200 F 
ATOM     86  C   UNL     1      -5.310  -8.276   5.203  1.00  0.00     0.200 A 
ATOM     87  F   UNL     1      -3.922  -6.424   5.651  1.00  0.00    -0.200 F 
ATOM     88  F   UNL     1      -4.639  -8.523   4.069  1.00  0.00    -0.200 F 
ENDBRANCH  54  78
BRANCH  66  89
ATOM     89  C   UNL     1     -11.811  -7.588  11.343  1.00  0.00     0.064 A 
ATOM     90  C   UNL     1     -10.637  -7.729  12.105  1.00  0.00     0.173 A 
ATOM     91  C   UNL     1     -12.938  -8.304  11.766  1.00  0.00     0.173 A 
ATOM     92  F   UNL     1      -9.544  -7.009  11.828  1.00  0.00    -0.203 F 
ATOM     93  C   UNL     1     -10.586  -8.580  13.209  1.00  0.00     0.198 A 
ATOM     94  C   UNL     1     -12.896  -9.125  12.889  1.00  0.00     0.198 A 
ATOM     95  F   UNL     1     -14.102  -8.169  11.111  1.00  0.00    -0.203 F 
ATOM     96  F   UNL     1      -9.449  -8.705  13.911  1.00  0.00    -0.200 F 
ATOM     97  C   UNL     1     -11.718  -9.271  13.604  1.00  0.00     0.200 A 
ATOM     98  F   UNL     1     -14.007  -9.754  13.295  1.00  0.00    -0.200 F 
ATOM     99  F   UNL     1     -11.683 -10.059  14.688  1.00  0.00    -0.200 F 
ENDBRANCH  66  89
ENDBRANCH  40  41
ENDBRANCH  32  35
ENDBRANCH  30  31
ENDBRANCH  29  30
ENDBRANCH  28  29
ENDBRANCH   1  28
TORSDOF 18
