REMARK SMILES O=C(CNC(=O)[C@@H](CC1=c2ccccc2=NC1)N1C(=O)N=C2C=CC=C[C@H]2C1=O)NCCCCCCNC(=O)c1ccc(-c2c3nc(c(-c4c(F)c(F)c(F)c(F)c4F)c4ccc([nH]4)c(-c4c(F)c(F)c(F)c(F)c4F)c4nc(c(-c5c(F)c(F)c(F)c(F)c5F)c5ccc2[nH]5)C=C4)C=C3)cc1
REMARK SMILES IDX 32 1 31 2 30 3 1 4 2 5 3 7 4 8 5 9 6 11 7 12 8 13 9 14 10 15
REMARK SMILES IDX 17 16 11 17 15 18 16 19 12 20 14 21 13 22 18 23 19 24 28 25
REMARK SMILES IDX 21 26 20 27 27 28 29 29 22 30 26 31 23 32 25 33 24 34 33 35
REMARK SMILES IDX 34 36 35 37 36 38 37 39 38 40 39 42 40 43 41 44 102 45 42 46
REMARK SMILES IDX 101 47 43 48 44 49 45 50 95 51 46 52 100 53 94 54 96 55
REMARK SMILES IDX 47 56 99 57 93 58 92 59 48 61 80 62 60 63 79 64 61 65 64 66
REMARK SMILES IDX 78 67 97 68 62 69 63 70 77 72 98 73 65 74 49 75 50 76 58 77
REMARK SMILES IDX 51 78 52 79 56 80 59 81 53 82 54 83 57 84 55 85 81 86 82 87
REMARK SMILES IDX 90 88 83 89 84 90 88 91 91 92 85 93 86 94 89 95 87 96 66 97
REMARK SMILES IDX 67 98 75 99 68 100 69 101 73 102 76 103 70 104 71 105 74 106
REMARK SMILES IDX 72 107
REMARK H PARENT 30 6 4 10 37 41 96 60 64 71
REMARK Flexibility Score: inf
ROOT
ATOM      1  C   UNL     1       2.646   1.773  -3.264  1.00  0.00     0.021 C 
ENDROOT
BRANCH   1   2
ATOM      2  C   UNL     1       1.997   0.403  -3.055  1.00  0.00     0.116 C 
BRANCH   2   3
ATOM      3  N   UNL     1       2.507  -0.224  -1.838  1.00  0.00    -0.355 N 
ATOM      4  O   UNL     1       0.686   0.285  -0.905  1.00  0.00    -0.273 OA
ATOM      5  C   UNL     1       1.806  -0.198  -0.536  1.00  0.00     0.239 C 
ATOM      6  H   UNL     1       3.371  -0.694  -1.888  1.00  0.00     0.163 HD
BRANCH   5   7
ATOM      7  C   UNL     1       2.536  -0.579   1.496  1.00  0.00     0.216 C 
BRANCH   7   8
ATOM      8  N   UNL     1       3.828  -1.248   2.190  1.00  0.00    -0.345 N 
ATOM      9  C   UNL     1       5.090  -0.923   2.520  1.00  0.00     0.244 C 
ATOM     10  H   UNL     1       3.633  -2.177   2.452  1.00  0.00     0.164 HD
ATOM     11  O   UNL     1       5.658  -1.814   3.182  1.00  0.00    -0.273 OA
BRANCH   9  12
ATOM     12  C   UNL     1       5.926   0.330   2.146  1.00  0.00     0.188 C 
BRANCH  12  13
ATOM     13  C   UNL     1       5.634   1.500   1.188  1.00  0.00     0.069 C 
BRANCH  13  14
ATOM     14  C   UNL     1       4.256   1.625   0.674  1.00  0.00    -0.037 C 
ATOM     15  C   UNL     1       3.540   0.615   0.209  1.00  0.00     0.001 A 
ATOM     16  C   UNL     1       3.408   2.874   0.959  1.00  0.00     0.174 C 
ATOM     17  C   UNL     1       3.656  -1.233  -0.118  1.00  0.00     0.010 A 
ATOM     18  C   UNL     1       1.863   1.296   0.858  1.00  0.00     0.065 A 
ATOM     19  N   UNL     1       1.951   2.537   1.198  1.00  0.00    -0.280 NA
ATOM     20  C   UNL     1       2.391  -2.168   0.066  1.00  0.00     0.001 A 
ATOM     21  C   UNL     1       0.511  -0.067   1.181  1.00  0.00     0.028 A 
ATOM     22  C   UNL     1       0.751  -1.557   0.718  1.00  0.00     0.002 A 
ENDBRANCH  13  14
ENDBRANCH  12  13
BRANCH  12  23
ATOM     23  N   UNL     1       6.570   0.715   3.422  1.00  0.00    -0.249 N 
ATOM     24  C   UNL     1       7.913   0.400   3.548  1.00  0.00     0.351 C 
ATOM     25  C   UNL     1       5.848   1.365   4.409  1.00  0.00     0.244 C 
ATOM     26  N   UNL     1       8.487   0.375   4.777  1.00  0.00    -0.197 NA
ATOM     27  O   UNL     1       8.611   0.224   2.552  1.00  0.00    -0.246 OA
ATOM     28  C   UNL     1       6.427   1.285   5.821  1.00  0.00     0.151 C 
ATOM     29  O   UNL     1       4.767   1.911   4.179  1.00  0.00    -0.273 OA
ATOM     30  C   UNL     1       7.862   0.813   5.815  1.00  0.00     0.062 C 
ATOM     31  C   UNL     1       6.342   2.554   6.646  1.00  0.00    -0.007 C 
ATOM     32  C   UNL     1       8.663   0.932   7.053  1.00  0.00     0.025 C 
ATOM     33  C   UNL     1       7.273   2.865   7.568  1.00  0.00    -0.003 C 
ATOM     34  C   UNL     1       8.390   1.986   7.831  1.00  0.00     0.002 C 
ENDBRANCH  12  23
ENDBRANCH   9  12
ENDBRANCH   7   8
ENDBRANCH   5   7
ENDBRANCH   2   3
ENDBRANCH   1   2
BRANCH   1  35
ATOM     35  C   UNL     1       4.183   1.765  -3.337  1.00  0.00     0.002 C 
BRANCH  35  36
ATOM     36  C   UNL     1       4.809   0.754  -4.304  1.00  0.00     0.002 C 
BRANCH  36  37
ATOM     37  C   UNL     1       4.245   0.776  -5.720  1.00  0.00     0.021 C 
BRANCH  37  38
ATOM     38  C   UNL     1       4.320   2.130  -6.403  1.00  0.00     0.116 C 
BRANCH  38  39
ATOM     39  N   UNL     1       5.677   2.492  -6.783  1.00  0.00    -0.352 N 
ATOM     40  C   UNL     1       6.154   2.832  -8.028  1.00  0.00     0.251 C 
ATOM     41  H   UNL     1       6.339   2.494  -6.054  1.00  0.00     0.163 HD
ATOM     42  O   UNL     1       7.357   2.955  -8.230  1.00  0.00    -0.269 OA
BRANCH  40  43
ATOM     43  C   UNL     1       5.191   3.000  -9.136  1.00  0.00     0.039 A 
ATOM     44  C   UNL     1       4.024   3.743  -8.943  1.00  0.00     0.014 A 
ATOM     45  C   UNL     1       5.414   2.337 -10.345  1.00  0.00     0.014 A 
ATOM     46  C   UNL     1       2.997   3.655  -9.873  1.00  0.00     0.010 A 
ATOM     47  C   UNL     1       4.419   2.342 -11.326  1.00  0.00     0.010 A 
ATOM     48  C   UNL     1       3.179   2.952 -11.075  1.00  0.00    -0.014 A 
BRANCH  48  49
ATOM     49  C   UNL     1       2.058   2.865 -12.047  1.00  0.00     0.031 A 
ATOM     50  C   UNL     1       1.450   1.535 -12.411  1.00  0.00     0.074 A 
ATOM     51  C   UNL     1       1.548   4.000 -12.563  1.00  0.00     0.049 A 
ATOM     52  N   UNL     1       0.474   1.274 -13.246  1.00  0.00    -0.248 NA
ATOM     53  C   UNL     1       2.009   0.341 -11.757  1.00  0.00     0.031 C 
ATOM     54  C   UNL     1       2.037   5.349 -12.270  1.00  0.00     0.029 A 
ATOM     55  N   UNL     1       0.496   4.208 -13.418  1.00  0.00    -0.354 N 
ATOM     56  C   UNL     1       0.316  -0.106 -13.231  1.00  0.00     0.074 A 
ATOM     57  C   UNL     1       1.317  -0.635 -12.331  1.00  0.00     0.031 C 
ATOM     58  C   UNL     1       1.253   6.244 -12.886  1.00  0.00     0.029 A 
ATOM     59  C   UNL     1       0.257   5.534 -13.681  1.00  0.00     0.049 A 
ATOM     60  H   UNL     1      -0.036   3.476 -13.807  1.00  0.00     0.167 HD
ATOM     61  C   UNL     1      -0.592  -0.859 -13.896  1.00  0.00     0.037 A 
ATOM     62  C   UNL     1      -0.648   6.118 -14.487  1.00  0.00     0.037 A 
ATOM     63  C   UNL     1      -1.603  -0.325 -14.773  1.00  0.00     0.049 A 
ATOM     64  C   UNL     1      -1.602   5.253 -15.261  1.00  0.00     0.074 A 
ATOM     65  C   UNL     1      -2.580  -1.007 -15.477  1.00  0.00     0.029 A 
ATOM     66  N   UNL     1      -1.771   1.022 -15.062  1.00  0.00    -0.354 N 
ATOM     67  N   UNL     1      -1.741   3.951 -15.237  1.00  0.00    -0.248 NA
ATOM     68  C   UNL     1      -2.517   5.939 -16.183  1.00  0.00     0.031 C 
ATOM     69  C   UNL     1      -3.304  -0.080 -16.232  1.00  0.00     0.029 A 
ATOM     70  C   UNL     1      -2.818   1.187 -15.954  1.00  0.00     0.049 A 
ATOM     71  H   UNL     1      -1.226   1.752 -14.688  1.00  0.00     0.167 HD
ATOM     72  C   UNL     1      -2.767   3.661 -16.125  1.00  0.00     0.074 A 
ATOM     73  C   UNL     1      -3.230   4.926 -16.655  1.00  0.00     0.031 C 
ATOM     74  C   UNL     1      -3.272   2.453 -16.473  1.00  0.00     0.037 A 
BRANCH  61  75
ATOM     75  C   UNL     1      -0.545  -2.350 -13.714  1.00  0.00     0.064 A 
ATOM     76  C   UNL     1      -0.946  -2.958 -12.516  1.00  0.00     0.173 A 
ATOM     77  C   UNL     1      -0.174  -3.185 -14.780  1.00  0.00     0.173 A 
ATOM     78  F   UNL     1      -1.300  -2.207 -11.463  1.00  0.00    -0.203 F 
ATOM     79  C   UNL     1      -0.966  -4.345 -12.387  1.00  0.00     0.198 A 
ATOM     80  C   UNL     1      -0.224  -4.572 -14.658  1.00  0.00     0.198 A 
ATOM     81  F   UNL     1       0.210  -2.656 -15.952  1.00  0.00    -0.203 F 
ATOM     82  F   UNL     1      -1.323  -4.903 -11.222  1.00  0.00    -0.200 F 
ATOM     83  C   UNL     1      -0.616  -5.150 -13.461  1.00  0.00     0.200 A 
ATOM     84  F   UNL     1       0.099  -5.347 -15.702  1.00  0.00    -0.200 F 
ATOM     85  F   UNL     1      -0.655  -6.485 -13.341  1.00  0.00    -0.200 F 
ENDBRANCH  61  75
BRANCH  62  86
ATOM     86  C   UNL     1      -0.685   7.599 -14.597  1.00  0.00     0.064 A 
ATOM     87  C   UNL     1      -1.770   8.330 -14.095  1.00  0.00     0.173 A 
ATOM     88  C   UNL     1       0.374   8.316 -15.174  1.00  0.00     0.173 A 
ATOM     89  F   UNL     1      -2.815   7.689 -13.552  1.00  0.00    -0.203 F 
ATOM     90  C   UNL     1      -1.796   9.721 -14.170  1.00  0.00     0.198 A 
ATOM     91  C   UNL     1       0.362   9.708 -15.220  1.00  0.00     0.198 A 
ATOM     92  F   UNL     1       1.438   7.663 -15.667  1.00  0.00    -0.203 F 
ATOM     93  F   UNL     1      -2.860  10.395 -13.713  1.00  0.00    -0.200 F 
ATOM     94  C   UNL     1      -0.726  10.409 -14.723  1.00  0.00     0.200 A 
ATOM     95  F   UNL     1       1.407  10.368 -15.737  1.00  0.00    -0.200 F 
ATOM     96  F   UNL     1      -0.744  11.748 -14.780  1.00  0.00    -0.200 F 
ENDBRANCH  62  86
BRANCH  74  97
ATOM     97  C   UNL     1      -4.400   2.433 -17.463  1.00  0.00     0.064 A 
ATOM     98  C   UNL     1      -4.188   2.719 -18.820  1.00  0.00     0.173 A 
ATOM     99  C   UNL     1      -5.691   2.055 -17.065  1.00  0.00     0.173 A 
ATOM    100  F   UNL     1      -2.974   3.099 -19.248  1.00  0.00    -0.203 F 
ATOM    101  C   UNL     1      -5.231   2.642 -19.738  1.00  0.00     0.198 A 
ATOM    102  C   UNL     1      -6.724   1.948 -17.992  1.00  0.00     0.198 A 
ATOM    103  F   UNL     1      -5.945   1.763 -15.780  1.00  0.00    -0.203 F 
ATOM    104  F   UNL     1      -5.014   2.956 -21.023  1.00  0.00    -0.200 F 
ATOM    105  C   UNL     1      -6.495   2.246 -19.326  1.00  0.00     0.200 A 
ATOM    106  F   UNL     1      -7.940   1.549 -17.594  1.00  0.00    -0.200 F 
ATOM    107  F   UNL     1      -7.493   2.155 -20.215  1.00  0.00    -0.200 F 
ENDBRANCH  74  97
ENDBRANCH  48  49
ENDBRANCH  40  43
ENDBRANCH  38  39
ENDBRANCH  37  38
ENDBRANCH  36  37
ENDBRANCH  35  36
ENDBRANCH   1  35
TORSDOF 18
