REMARK SMILES Cc1cc(N(C)C[C@H]2C[C@@H]2C)cc(C(=O)NCCCCCCNC(=O)c2ccc(-c3c4nc(c(-c5c(F)c(F)c(F)c(F)c5F)c5ccc([nH]5)c(-c5c(F)c(F)c(F)c(F)c5F)c5nc(c(-c6c(F)c(F)c(F)c(F)c6F)c6ccc3[nH]6)C=C5)C=C4)cc2)c1N
REMARK SMILES IDX 19 1 18 2 17 3 16 4 14 5 15 6 13 8 1 9 2 10 3 11 89 12 4 13
REMARK SMILES IDX 12 14 90 15 5 18 6 19 7 20 8 21 9 22 10 23 11 24 20 25 21 26
REMARK SMILES IDX 22 27 23 28 24 29 25 31 26 32 27 33 88 34 28 35 87 36 29 37
REMARK SMILES IDX 30 38 31 39 81 40 32 41 86 42 80 43 82 44 33 45 85 46 79 47
REMARK SMILES IDX 78 48 34 50 66 51 46 52 65 53 47 54 50 55 64 56 83 57 48 58
REMARK SMILES IDX 49 59 63 61 84 62 51 63 35 64 36 65 44 66 37 67 38 68 42 69
REMARK SMILES IDX 45 70 39 71 40 72 43 73 41 74 67 75 68 76 76 77 69 78 70 79
REMARK SMILES IDX 74 80 77 81 71 82 72 83 75 84 73 85 52 86 53 87 61 88 54 89
REMARK SMILES IDX 55 90 59 91 62 92 56 93 57 94 60 95 58 96
REMARK H PARENT 16 7 90 16 90 17 23 30 82 49 50 60
REMARK Flexibility Score: inf
ROOT
ATOM      1  C   UNL     1      -4.245  -5.275   2.099  1.00  0.00     0.002 C 
ENDROOT
BRANCH   1   2
ATOM      2  C   UNL     1      -4.096  -3.748   2.004  1.00  0.00     0.021 C 
BRANCH   2   3
ATOM      3  C   UNL     1      -3.001  -3.311   1.025  1.00  0.00     0.116 C 
BRANCH   3   4
ATOM      4  N   UNL     1      -3.506  -3.378  -0.329  1.00  0.00    -0.352 N 
ATOM      5  C   UNL     1      -4.060  -2.474  -1.199  1.00  0.00     0.253 C 
ATOM      6  O   UNL     1      -4.484  -2.970  -2.250  1.00  0.00    -0.269 OA
ATOM      7  H   UNL     1      -3.435  -4.280  -0.715  1.00  0.00     0.163 HD
BRANCH   5   8
ATOM      8  C   UNL     1      -4.145  -0.984  -0.986  1.00  0.00     0.065 A 
ATOM      9  C   UNL     1      -4.651   2.177  -3.086  1.00  0.00     0.046 C 
ATOM     10  C   UNL     1      -4.445   1.232  -1.932  1.00  0.00    -0.025 A 
ATOM     11  C   UNL     1      -4.310   1.773  -0.642  1.00  0.00     0.031 A 
ATOM     12  C   UNL     1      -4.353  -0.156  -2.118  1.00  0.00     0.047 A 
ATOM     13  C   UNL     1      -3.995   1.007   0.485  1.00  0.00     0.038 A 
ATOM     14  C   UNL     1      -4.053  -0.383   0.286  1.00  0.00     0.042 A 
BRANCH  12  15
ATOM     15  N   UNL     1      -4.320  -0.664  -3.422  1.00  0.00    -0.398 N 
ATOM     16  H   UNL     1      -4.468  -0.064  -4.188  1.00  0.00     0.156 HD
ATOM     17  H   UNL     1      -4.149  -1.622  -3.573  1.00  0.00     0.156 HD
ENDBRANCH  12  15
BRANCH  13  18
ATOM     18  N   UNL     1      -3.613   1.592   1.688  1.00  0.00    -0.374 N 
ATOM     19  C   UNL     1      -3.208   0.816   2.859  1.00  0.00     0.143 C 
BRANCH  18  20
ATOM     20  C   UNL     1      -3.492   3.054   1.859  1.00  0.00     0.120 C 
BRANCH  20  21
ATOM     21  C   UNL     1      -2.386   3.654   1.026  1.00  0.00     0.011 C 
ATOM     22  C   UNL     1      -1.519   4.768   1.565  1.00  0.00     0.009 C 
ATOM     23  C   UNL     1      -0.925   3.406   1.309  1.00  0.00    -0.009 C 
ATOM     24  C   UNL     1      -0.001   3.184   0.158  1.00  0.00     0.008 C 
ENDBRANCH  20  21
ENDBRANCH  18  20
ENDBRANCH  13  18
ENDBRANCH   5   8
ENDBRANCH   3   4
ENDBRANCH   2   3
ENDBRANCH   1   2
BRANCH   1  25
ATOM     25  C   UNL     1      -3.008  -6.011   2.630  1.00  0.00     0.002 C 
BRANCH  25  26
ATOM     26  C   UNL     1      -2.487  -5.505   3.978  1.00  0.00     0.021 C 
BRANCH  26  27
ATOM     27  C   UNL     1      -3.482  -5.648   5.125  1.00  0.00     0.116 C 
BRANCH  27  28
ATOM     28  N   UNL     1      -3.756  -7.045   5.423  1.00  0.00    -0.352 N 
ATOM     29  C   UNL     1      -3.593  -7.731   6.599  1.00  0.00     0.251 C 
ATOM     30  H   UNL     1      -4.109  -7.575   4.672  1.00  0.00     0.163 HD
ATOM     31  O   UNL     1      -3.642  -8.956   6.615  1.00  0.00    -0.269 OA
BRANCH  29  32
ATOM     32  C   UNL     1      -3.351  -6.989   7.854  1.00  0.00     0.039 A 
ATOM     33  C   UNL     1      -2.374  -7.454   8.738  1.00  0.00     0.014 A 
ATOM     34  C   UNL     1      -4.105  -5.854   8.169  1.00  0.00     0.014 A 
ATOM     35  C   UNL     1      -2.120  -6.752   9.918  1.00  0.00     0.010 A 
ATOM     36  C   UNL     1      -3.804  -5.118   9.311  1.00  0.00     0.010 A 
ATOM     37  C   UNL     1      -2.814  -5.564  10.200  1.00  0.00    -0.014 A 
BRANCH  37  38
ATOM     38  C   UNL     1      -2.527  -4.779  11.426  1.00  0.00     0.031 A 
ATOM     39  C   UNL     1      -3.582  -4.626  12.486  1.00  0.00     0.074 A 
ATOM     40  C   UNL     1      -1.341  -4.154  11.553  1.00  0.00     0.049 A 
ATOM     41  N   UNL     1      -3.553  -3.920  13.588  1.00  0.00    -0.248 NA
ATOM     42  C   UNL     1      -4.850  -5.339  12.266  1.00  0.00     0.031 C 
ATOM     43  C   UNL     1      -0.256  -4.192  10.572  1.00  0.00     0.029 A 
ATOM     44  N   UNL     1      -0.854  -3.353  12.556  1.00  0.00    -0.354 N 
ATOM     45  C   UNL     1      -4.797  -4.091  14.181  1.00  0.00     0.074 A 
ATOM     46  C   UNL     1      -5.577  -4.927  13.294  1.00  0.00     0.031 C 
ATOM     47  C   UNL     1       0.775  -3.463  11.028  1.00  0.00     0.029 A 
ATOM     48  C   UNL     1       0.411  -2.877  12.314  1.00  0.00     0.049 A 
ATOM     49  H   UNL     1      -1.363  -3.140  13.371  1.00  0.00     0.167 HD
ATOM     50  C   UNL     1      -5.239  -3.613  15.368  1.00  0.00     0.037 A 
ATOM     51  C   UNL     1       1.186  -2.053  13.045  1.00  0.00     0.037 A 
ATOM     52  C   UNL     1      -4.448  -2.808  16.261  1.00  0.00     0.049 A 
ATOM     53  C   UNL     1       0.668  -1.537  14.361  1.00  0.00     0.074 A 
ATOM     54  C   UNL     1      -4.783  -2.325  17.514  1.00  0.00     0.029 A 
ATOM     55  N   UNL     1      -3.160  -2.366  15.993  1.00  0.00    -0.354 N 
ATOM     56  N   UNL     1      -0.485  -1.761  14.942  1.00  0.00    -0.248 NA
ATOM     57  C   UNL     1       1.564  -0.659  15.126  1.00  0.00     0.031 C 
ATOM     58  C   UNL     1      -3.715  -1.555  17.985  1.00  0.00     0.029 A 
ATOM     59  C   UNL     1      -2.695  -1.600  17.049  1.00  0.00     0.049 A 
ATOM     60  H   UNL     1      -2.652  -2.568  15.174  1.00  0.00     0.167 HD
ATOM     61  C   UNL     1      -0.442  -1.081  16.151  1.00  0.00     0.074 A 
ATOM     62  C   UNL     1       0.858  -0.447  16.227  1.00  0.00     0.031 C 
ATOM     63  C   UNL     1      -1.393  -0.988  17.113  1.00  0.00     0.037 A 
BRANCH  50  64
ATOM     64  C   UNL     1      -6.643  -3.952  15.778  1.00  0.00     0.064 A 
ATOM     65  C   UNL     1      -7.004  -5.254  16.157  1.00  0.00     0.173 A 
ATOM     66  C   UNL     1      -7.626  -2.953  15.844  1.00  0.00     0.173 A 
ATOM     67  F   UNL     1      -6.104  -6.247  16.102  1.00  0.00    -0.203 F 
ATOM     68  C   UNL     1      -8.303  -5.547  16.564  1.00  0.00     0.198 A 
ATOM     69  C   UNL     1      -8.916  -3.244  16.280  1.00  0.00     0.198 A 
ATOM     70  F   UNL     1      -7.333  -1.691  15.498  1.00  0.00    -0.203 F 
ATOM     71  F   UNL     1      -8.635  -6.806  16.881  1.00  0.00    -0.200 F 
ATOM     72  C   UNL     1      -9.255  -4.542  16.634  1.00  0.00     0.200 A 
ATOM     73  F   UNL     1      -9.832  -2.269  16.359  1.00  0.00    -0.200 F 
ATOM     74  F   UNL     1     -10.502  -4.824  17.037  1.00  0.00    -0.200 F 
ENDBRANCH  50  64
BRANCH  51  75
ATOM     75  C   UNL     1       2.540  -1.678  12.561  1.00  0.00     0.064 A 
ATOM     76  C   UNL     1       3.691  -2.136  13.218  1.00  0.00     0.173 A 
ATOM     77  C   UNL     1       2.714  -0.845  11.446  1.00  0.00     0.173 A 
ATOM     78  F   UNL     1       3.577  -2.918  14.301  1.00  0.00    -0.203 F 
ATOM     79  C   UNL     1       4.963  -1.753  12.795  1.00  0.00     0.198 A 
ATOM     80  C   UNL     1       3.986  -0.487  11.006  1.00  0.00     0.198 A 
ATOM     81  F   UNL     1       1.645  -0.385  10.778  1.00  0.00    -0.203 F 
ATOM     82  F   UNL     1       6.043  -2.163  13.473  1.00  0.00    -0.200 F 
ATOM     83  C   UNL     1       5.109  -0.933  11.687  1.00  0.00     0.200 A 
ATOM     84  F   UNL     1       4.124   0.293   9.925  1.00  0.00    -0.200 F 
ATOM     85  F   UNL     1       6.332  -0.565  11.280  1.00  0.00    -0.200 F 
ENDBRANCH  51  75
BRANCH  63  86
ATOM     86  C   UNL     1      -1.049  -0.207  18.348  1.00  0.00     0.064 A 
ATOM     87  C   UNL     1      -0.950   1.191  18.331  1.00  0.00     0.173 A 
ATOM     88  C   UNL     1      -0.858  -0.866  19.572  1.00  0.00     0.173 A 
ATOM     89  F   UNL     1      -1.109   1.866  17.182  1.00  0.00    -0.203 F 
ATOM     90  C   UNL     1      -0.646   1.900  19.490  1.00  0.00     0.198 A 
ATOM     91  C   UNL     1      -0.586  -0.152  20.735  1.00  0.00     0.198 A 
ATOM     92  F   UNL     1      -0.950  -2.203  19.642  1.00  0.00    -0.203 F 
ATOM     93  F   UNL     1      -0.509   3.232  19.442  1.00  0.00    -0.200 F 
ATOM     94  C   UNL     1      -0.472   1.229  20.692  1.00  0.00     0.200 A 
ATOM     95  F   UNL     1      -0.432  -0.801  21.897  1.00  0.00    -0.200 F 
ATOM     96  F   UNL     1      -0.188   1.914  21.808  1.00  0.00    -0.200 F 
ENDBRANCH  63  86
ENDBRANCH  37  38
ENDBRANCH  29  32
ENDBRANCH  27  28
ENDBRANCH  26  27
ENDBRANCH  25  26
ENDBRANCH   1  25
TORSDOF 17
