REMARK SMILES CC(C)C[C@H](NC(=O)[C@@H](NC(=O)[C@H](C)NC(=O)CNC(=O)OCc1ccccc1)C(C)C)C(=O)NCCCCCCNC(=O)c1ccc(-c2c3nc(c(-c4c(F)c(F)c(F)c(F)c4F)c4ccc([nH]4)c(-c4c(F)c(F)c(F)c(F)c4F)c4nc(c(-c5c(F)c(F)c(F)c(F)c5F)c5ccc2[nH]5)C=C4)C=C3)cc1
REMARK SMILES IDX 33 1 34 2 35 3 5 5 4 6 2 7 1 8 3 9 6 10 7 11 8 13 9 14 10 15
REMARK SMILES IDX 11 16 12 18 13 19 14 20 15 21 16 22 17 24 18 25 19 26 20 27
REMARK SMILES IDX 21 29 22 30 23 31 24 32 25 33 29 34 26 35 28 36 27 37 30 38
REMARK SMILES IDX 31 39 32 40 36 41 37 42 38 43 39 44 40 45 41 46 42 47 43 48
REMARK SMILES IDX 44 50 45 51 46 52 107 53 47 54 106 55 48 56 49 57 50 58
REMARK SMILES IDX 100 59 51 60 105 61 99 62 101 63 52 64 104 65 98 66 97 67
REMARK SMILES IDX 53 69 85 70 65 71 84 72 66 73 69 74 83 75 102 76 67 77 68 78
REMARK SMILES IDX 82 80 103 81 70 82 54 83 55 84 63 85 56 86 57 87 61 88 64 89
REMARK SMILES IDX 58 90 59 91 62 92 60 93 86 94 87 95 95 96 88 97 89 98 93 99
REMARK SMILES IDX 96 100 90 101 91 102 94 103 92 104 71 105 72 106 80 107
REMARK SMILES IDX 73 108 74 109 78 110 81 111 75 112 76 113 79 114 77 115
REMARK H PARENT 35 4 6 12 10 17 15 23 19 28 42 49 101 68 69 79
REMARK Flexibility Score: inf
ROOT
ATOM      1  C   UNL     1       3.979   2.526  -2.333  1.00  0.00     0.242 C 
ATOM      2  O   UNL     1       4.773   2.753  -3.245  1.00  0.00    -0.273 OA
ATOM      3  N   UNL     1       3.986   3.356  -1.251  1.00  0.00    -0.354 N 
ATOM      4  H   UNL     1       4.715   4.018  -1.227  1.00  0.00     0.163 HD
ENDROOT
BRANCH   1   5
ATOM      5  C   UNL     1       2.951   1.378  -2.411  1.00  0.00     0.171 C 
BRANCH   5   6
ATOM      6  C   UNL     1       1.522   1.910  -2.517  1.00  0.00     0.038 C 
BRANCH   6   7
ATOM      7  C   UNL     1       1.220   3.204  -3.293  1.00  0.00    -0.015 C 
ATOM      8  C   UNL     1       1.664   3.142  -4.752  1.00  0.00     0.007 C 
ATOM      9  C   UNL     1      -0.299   3.435  -3.254  1.00  0.00     0.007 C 
ENDBRANCH   6   7
ENDBRANCH   5   6
BRANCH   5  10
ATOM     10  N   UNL     1       3.181   0.495  -1.248  1.00  0.00    -0.343 N 
ATOM     11  C   UNL     1       2.663  -0.593  -0.650  1.00  0.00     0.243 C 
ATOM     12  H   UNL     1       3.971   0.804  -0.748  1.00  0.00     0.164 HD
ATOM     13  O   UNL     1       3.268  -0.912   0.389  1.00  0.00    -0.273 OA
BRANCH  11  14
ATOM     14  C   UNL     1       1.503  -1.518  -1.128  1.00  0.00     0.174 C 
BRANCH  14  15
ATOM     15  N   UNL     1       0.298  -0.881  -1.679  1.00  0.00    -0.342 N 
ATOM     16  C   UNL     1      -0.304  -0.659  -2.868  1.00  0.00     0.242 C 
ATOM     17  H   UNL     1      -0.240  -0.494  -0.951  1.00  0.00     0.164 HD
ATOM     18  O   UNL     1      -1.444  -0.177  -2.792  1.00  0.00    -0.273 OA
BRANCH  16  19
ATOM     19  C   UNL     1       0.249  -1.035  -4.263  1.00  0.00     0.168 C 
ATOM     20  C   UNL     1      -0.331  -2.394  -4.641  1.00  0.00     0.041 C 
BRANCH  19  21
ATOM     21  N   UNL     1       1.699  -0.969  -4.423  1.00  0.00    -0.343 N 
ATOM     22  C   UNL     1       2.524  -0.668  -5.459  1.00  0.00     0.240 C 
ATOM     23  H   UNL     1       2.186  -1.192  -3.597  1.00  0.00     0.164 HD
ATOM     24  O   UNL     1       3.735  -0.739  -5.220  1.00  0.00    -0.273 OA
BRANCH  22  25
ATOM     25  C   UNL     1       2.041  -0.127  -6.800  1.00  0.00     0.219 C 
BRANCH  25  26
ATOM     26  N   UNL     1       1.159  -1.036  -7.481  1.00  0.00    -0.312 N 
ATOM     27  C   UNL     1      -0.179  -0.885  -7.647  1.00  0.00     0.407 C 
ATOM     28  H   UNL     1       1.566  -1.847  -7.864  1.00  0.00     0.167 HD
ATOM     29  O   UNL     1      -0.852  -1.817  -8.061  1.00  0.00    -0.225 OA
BRANCH  27  30
ATOM     30  O   UNL     1      -0.635   0.317  -7.216  1.00  0.00    -0.445 OA
BRANCH  30  31
ATOM     31  C   UNL     1      -2.060   0.455  -7.090  1.00  0.00     0.270 C 
BRANCH  31  32
ATOM     32  C   UNL     1      -2.728   0.533  -8.434  1.00  0.00    -0.011 A 
ATOM     33  C   UNL     1      -2.658   1.699  -9.204  1.00  0.00     0.007 A 
ATOM     34  C   UNL     1      -3.338  -0.609  -8.973  1.00  0.00     0.007 A 
ATOM     35  C   UNL     1      -3.162   1.707 -10.505  1.00  0.00     0.000 A 
ATOM     36  C   UNL     1      -3.819  -0.606 -10.278  1.00  0.00     0.000 A 
ATOM     37  C   UNL     1      -3.726   0.551 -11.046  1.00  0.00     0.000 A 
ENDBRANCH  31  32
ENDBRANCH  30  31
ENDBRANCH  27  30
ENDBRANCH  25  26
ENDBRANCH  22  25
ENDBRANCH  19  21
ENDBRANCH  16  19
ENDBRANCH  14  15
BRANCH  14  38
ATOM     38  C   UNL     1       1.932  -2.875  -1.756  1.00  0.00     0.015 C 
ATOM     39  C   UNL     1       3.139  -3.513  -1.057  1.00  0.00     0.010 C 
ATOM     40  C   UNL     1       0.781  -3.891  -1.740  1.00  0.00     0.010 C 
ENDBRANCH  14  38
ENDBRANCH  11  14
ENDBRANCH   5  10
ENDBRANCH   1   5
BRANCH   3  41
ATOM     41  C   UNL     1       3.067   3.394  -0.133  1.00  0.00     0.116 C 
BRANCH  41  42
ATOM     42  C   UNL     1       3.662   4.130   1.054  1.00  0.00     0.021 C 
BRANCH  42  43
ATOM     43  C   UNL     1       3.844   5.632   0.823  1.00  0.00     0.002 C 
BRANCH  43  44
ATOM     44  C   UNL     1       2.577   6.389   0.410  1.00  0.00     0.002 C 
BRANCH  44  45
ATOM     45  C   UNL     1       1.369   6.199   1.329  1.00  0.00     0.021 C 
BRANCH  45  46
ATOM     46  C   UNL     1       1.648   6.407   2.811  1.00  0.00     0.116 C 
BRANCH  46  47
ATOM     47  N   UNL     1       2.244   7.699   3.097  1.00  0.00    -0.352 N 
ATOM     48  C   UNL     1       2.021   8.524   4.169  1.00  0.00     0.251 C 
ATOM     49  H   UNL     1       2.893   8.027   2.433  1.00  0.00     0.163 HD
ATOM     50  O   UNL     1       2.524   9.640   4.217  1.00  0.00    -0.269 OA
BRANCH  48  51
ATOM     51  C   UNL     1       1.135   8.062   5.253  1.00  0.00     0.039 A 
ATOM     52  C   UNL     1       0.101   8.900   5.673  1.00  0.00     0.014 A 
ATOM     53  C   UNL     1       1.309   6.800   5.830  1.00  0.00     0.014 A 
ATOM     54  C   UNL     1      -0.792   8.454   6.645  1.00  0.00     0.010 A 
ATOM     55  C   UNL     1       0.378   6.330   6.749  1.00  0.00     0.010 A 
ATOM     56  C   UNL     1      -0.675   7.157   7.170  1.00  0.00    -0.014 A 
BRANCH  56  57
ATOM     57  C   UNL     1      -1.638   6.655   8.178  1.00  0.00     0.031 A 
ATOM     58  C   UNL     1      -1.173   6.354   9.573  1.00  0.00     0.074 A 
ATOM     59  C   UNL     1      -2.914   6.420   7.818  1.00  0.00     0.049 A 
ATOM     60  N   UNL     1      -1.845   5.861  10.582  1.00  0.00    -0.248 NA
ATOM     61  C   UNL     1       0.246   6.614   9.866  1.00  0.00     0.031 C 
ATOM     62  C   UNL     1      -3.466   6.628   6.479  1.00  0.00     0.029 A 
ATOM     63  N   UNL     1      -3.975   5.946   8.546  1.00  0.00    -0.354 N 
ATOM     64  C   UNL     1      -0.930   5.739  11.619  1.00  0.00     0.074 A 
ATOM     65  C   UNL     1       0.355   6.157  11.104  1.00  0.00     0.031 C 
ATOM     66  C   UNL     1      -4.769   6.304   6.486  1.00  0.00     0.029 A 
ATOM     67  C   UNL     1      -5.134   5.836   7.820  1.00  0.00     0.049 A 
ATOM     68  H   UNL     1      -3.911   5.707   9.499  1.00  0.00     0.167 HD
ATOM     69  C   UNL     1      -1.150   5.339  12.894  1.00  0.00     0.037 A 
ATOM     70  C   UNL     1      -6.354   5.403   8.190  1.00  0.00     0.037 A 
ATOM     71  C   UNL     1      -2.438   4.952  13.406  1.00  0.00     0.049 A 
ATOM     72  C   UNL     1      -6.574   4.971   9.614  1.00  0.00     0.074 A 
ATOM     73  C   UNL     1      -2.782   4.591  14.697  1.00  0.00     0.029 A 
ATOM     74  N   UNL     1      -3.596   4.874  12.646  1.00  0.00    -0.354 N 
ATOM     75  N   UNL     1      -5.720   4.927  10.607  1.00  0.00    -0.248 NA
ATOM     76  C   UNL     1      -7.931   4.535   9.971  1.00  0.00     0.031 C 
ATOM     77  C   UNL     1      -4.139   4.254  14.709  1.00  0.00     0.029 A 
ATOM     78  C   UNL     1      -4.653   4.450  13.436  1.00  0.00     0.049 A 
ATOM     79  H   UNL     1      -3.659   5.088  11.687  1.00  0.00     0.167 HD
ATOM     80  C   UNL     1      -6.437   4.487  11.710  1.00  0.00     0.074 A 
ATOM     81  C   UNL     1      -7.802   4.289  11.267  1.00  0.00     0.031 C 
ATOM     82  C   UNL     1      -6.006   4.265  12.976  1.00  0.00     0.037 A 
BRANCH  69  83
ATOM     83  C   UNL     1       0.030   5.303  13.821  1.00  0.00     0.064 A 
ATOM     84  C   UNL     1       0.655   6.479  14.264  1.00  0.00     0.173 A 
ATOM     85  C   UNL     1       0.531   4.079  14.288  1.00  0.00     0.173 A 
ATOM     86  F   UNL     1       0.223   7.675  13.836  1.00  0.00    -0.203 F 
ATOM     87  C   UNL     1       1.758   6.430  15.112  1.00  0.00     0.198 A 
ATOM     88  C   UNL     1       1.615   4.035  15.162  1.00  0.00     0.198 A 
ATOM     89  F   UNL     1      -0.031   2.925  13.899  1.00  0.00    -0.203 F 
ATOM     90  F   UNL     1       2.371   7.564  15.477  1.00  0.00    -0.200 F 
ATOM     91  C   UNL     1       2.233   5.208  15.566  1.00  0.00     0.200 A 
ATOM     92  F   UNL     1       2.066   2.854  15.608  1.00  0.00    -0.200 F 
ATOM     93  F   UNL     1       3.292   5.162  16.385  1.00  0.00    -0.200 F 
ENDBRANCH  69  83
BRANCH  70  94
ATOM     94  C   UNL     1      -7.465   5.391   7.204  1.00  0.00     0.064 A 
ATOM     95  C   UNL     1      -8.526   6.301   7.306  1.00  0.00     0.173 A 
ATOM     96  C   UNL     1      -7.483   4.482   6.137  1.00  0.00     0.173 A 
ATOM     97  F   UNL     1      -8.561   7.177   8.321  1.00  0.00    -0.203 F 
ATOM     98  C   UNL     1      -9.573   6.291   6.387  1.00  0.00     0.198 A 
ATOM     99  C   UNL     1      -8.518   4.491   5.203  1.00  0.00     0.198 A 
ATOM    100  F   UNL     1      -6.487   3.597   5.991  1.00  0.00    -0.203 F 
ATOM    101  F   UNL     1     -10.595   7.146   6.530  1.00  0.00    -0.200 F 
ATOM    102  C   UNL     1      -9.565   5.391   5.333  1.00  0.00     0.200 A 
ATOM    103  F   UNL     1      -8.498   3.629   4.177  1.00  0.00    -0.200 F 
ATOM    104  F   UNL     1     -10.569   5.386   4.445  1.00  0.00    -0.200 F 
ENDBRANCH  70  94
BRANCH  82 105
ATOM    105  C   UNL     1      -7.026   3.815  13.980  1.00  0.00     0.064 A 
ATOM    106  C   UNL     1      -7.556   2.517  13.957  1.00  0.00     0.173 A 
ATOM    107  C   UNL     1      -7.445   4.680  15.002  1.00  0.00     0.173 A 
ATOM    108  F   UNL     1      -7.198   1.658  12.991  1.00  0.00    -0.203 F 
ATOM    109  C   UNL     1      -8.486   2.108  14.909  1.00  0.00     0.198 A 
ATOM    110  C   UNL     1      -8.353   4.259  15.968  1.00  0.00     0.198 A 
ATOM    111  F   UNL     1      -6.962   5.930  15.070  1.00  0.00    -0.203 F 
ATOM    112  F   UNL     1      -9.014   0.878  14.842  1.00  0.00    -0.200 F 
ATOM    113  C   UNL     1      -8.878   2.977  15.917  1.00  0.00     0.200 A 
ATOM    114  F   UNL     1      -8.721   5.095  16.949  1.00  0.00    -0.200 F 
ATOM    115  F   UNL     1      -9.768   2.579  16.837  1.00  0.00    -0.200 F 
ENDBRANCH  82 105
ENDBRANCH  56  57
ENDBRANCH  48  51
ENDBRANCH  46  47
ENDBRANCH  45  46
ENDBRANCH  44  45
ENDBRANCH  43  44
ENDBRANCH  42  43
ENDBRANCH  41  42
ENDBRANCH   3  41
TORSDOF 26
