REMARK SMILES COC(=O)c1ccc(C)c(NC(=O)[C@H]2CC=CC[C@H]2C(=O)NCCCCCCNC(=O)c2ccc(-c3c4nc(c(-c5c(F)c(F)c(F)c(F)c5F)c5ccc([nH]5)c(-c5c(F)c(F)c(F)c(F)c5F)c5nc(c(-c6c(F)c(F)c(F)c(F)c6F)c6ccc3[nH]6)C=C5)C=C4)cc2)c1
REMARK SMILES IDX 24 1 23 2 22 3 20 4 21 5 19 7 14 8 15 9 16 10 18 11 17 12
REMARK SMILES IDX 12 13 11 14 13 16 10 17 5 18 6 19 95 20 7 21 8 22 9 23 3 24
REMARK SMILES IDX 4 25 2 26 1 27 25 28 26 29 27 30 28 31 29 32 30 33 31 35
REMARK SMILES IDX 32 36 33 37 94 38 34 39 93 40 35 41 36 42 37 43 87 44 38 45
REMARK SMILES IDX 92 46 86 47 88 48 39 49 91 50 85 51 84 52 40 54 72 55 52 56
REMARK SMILES IDX 71 57 53 58 56 59 70 60 89 61 54 62 55 63 69 65 90 66 57 67
REMARK SMILES IDX 41 68 42 69 50 70 43 71 44 72 48 73 51 74 45 75 46 76 49 77
REMARK SMILES IDX 47 78 73 79 74 80 82 81 75 82 76 83 80 84 83 85 77 86 78 87
REMARK SMILES IDX 81 88 79 89 58 90 59 91 67 92 60 93 61 94 65 95 68 96 62 97
REMARK SMILES IDX 63 98 66 99 64 100
REMARK H PARENT 22 6 11 15 29 34 88 53 56 64
REMARK Flexibility Score: inf
ROOT
ATOM      1  C   UNL     1       4.923  -0.294  -0.746  1.00  0.00     0.021 C 
ENDROOT
BRANCH   1   2
ATOM      2  C   UNL     1       5.676   0.215  -1.979  1.00  0.00     0.116 C 
BRANCH   2   3
ATOM      3  N   UNL     1       5.299   1.531  -2.460  1.00  0.00    -0.356 N 
ATOM      4  C   UNL     1       6.044   2.613  -2.814  1.00  0.00     0.224 C 
ATOM      5  O   UNL     1       5.480   3.480  -3.490  1.00  0.00    -0.275 OA
ATOM      6  H   UNL     1       4.328   1.666  -2.546  1.00  0.00     0.163 HD
BRANCH   4   7
ATOM      7  C   UNL     1       7.504   2.806  -2.425  1.00  0.00     0.095 C 
ATOM      8  C   UNL     1       7.780   3.161  -0.942  1.00  0.00     0.095 C 
ATOM      9  C   UNL     1       9.185   2.726  -0.441  1.00  0.00     0.041 C 
ATOM     10  C   UNL     1       9.779   1.515  -1.085  1.00  0.00    -0.030 C 
ATOM     11  C   UNL     1       8.380   1.747  -3.126  1.00  0.00     0.041 C 
ATOM     12  C   UNL     1       9.422   1.081  -2.295  1.00  0.00    -0.030 C 
BRANCH   8  13
ATOM     13  C   UNL     1       6.730   2.787   0.099  1.00  0.00     0.228 C 
ATOM     14  N   UNL     1       5.492   3.331   0.220  1.00  0.00    -0.326 N 
ATOM     15  H   UNL     1       5.038   3.010   1.032  1.00  0.00     0.169 HD
ATOM     16  O   UNL     1       6.965   1.887   0.919  1.00  0.00    -0.274 OA
BRANCH  14  17
ATOM     17  C   UNL     1       4.681   4.227  -0.497  1.00  0.00     0.044 A 
ATOM     18  C   UNL     1       2.404   4.408  -1.413  1.00  0.00     0.062 A 
ATOM     19  C   UNL     1       2.619   5.726  -1.761  1.00  0.00     0.016 A 
ATOM     20  C   UNL     1       3.420   3.697  -0.780  1.00  0.00     0.042 A 
ATOM     21  C   UNL     1       3.857   6.303  -1.438  1.00  0.00     0.006 A 
ATOM     22  C   UNL     1       4.900   5.572  -0.798  1.00  0.00    -0.027 A 
ATOM     23  C   UNL     1       6.119   6.328  -0.370  1.00  0.00     0.046 C 
BRANCH  18  24
ATOM     24  C   UNL     1       1.149   3.672  -1.685  1.00  0.00     0.337 C 
ATOM     25  O   UNL     1       0.666   3.496  -2.778  1.00  0.00    -0.246 OA
BRANCH  24  26
ATOM     26  O   UNL     1       0.766   3.133  -0.496  1.00  0.00    -0.465 OA
ATOM     27  C   UNL     1      -0.198   2.081  -0.533  1.00  0.00     0.282 C 
ENDBRANCH  24  26
ENDBRANCH  18  24
ENDBRANCH  14  17
ENDBRANCH   8  13
ENDBRANCH   4   7
ENDBRANCH   2   3
ENDBRANCH   1   2
BRANCH   1  28
ATOM     28  C   UNL     1       3.401  -0.166  -0.667  1.00  0.00     0.002 C 
BRANCH  28  29
ATOM     29  C   UNL     1       2.566  -0.484  -1.911  1.00  0.00     0.002 C 
BRANCH  29  30
ATOM     30  C   UNL     1       2.437  -1.970  -2.248  1.00  0.00     0.021 C 
BRANCH  30  31
ATOM     31  C   UNL     1       1.701  -2.769  -1.180  1.00  0.00     0.116 C 
BRANCH  31  32
ATOM     32  N   UNL     1       0.251  -2.669  -1.231  1.00  0.00    -0.352 N 
ATOM     33  C   UNL     1      -0.676  -3.230  -0.367  1.00  0.00     0.251 C 
ATOM     34  H   UNL     1      -0.118  -2.137  -1.972  1.00  0.00     0.163 HD
ATOM     35  O   UNL     1      -1.745  -3.638  -0.814  1.00  0.00    -0.269 OA
BRANCH  33  36
ATOM     36  C   UNL     1      -0.500  -3.100   1.103  1.00  0.00     0.039 A 
ATOM     37  C   UNL     1      -1.632  -2.745   1.856  1.00  0.00     0.014 A 
ATOM     38  C   UNL     1       0.754  -3.049   1.691  1.00  0.00     0.014 A 
ATOM     39  C   UNL     1      -1.474  -2.110   3.086  1.00  0.00     0.010 A 
ATOM     40  C   UNL     1       0.925  -2.288   2.824  1.00  0.00     0.010 A 
ATOM     41  C   UNL     1      -0.189  -1.781   3.498  1.00  0.00    -0.014 A 
BRANCH  41  42
ATOM     42  C   UNL     1       0.126  -0.936   4.636  1.00  0.00     0.031 A 
ATOM     43  C   UNL     1       0.638  -1.574   5.868  1.00  0.00     0.074 A 
ATOM     44  C   UNL     1       0.095   0.407   4.495  1.00  0.00     0.049 A 
ATOM     45  N   UNL     1       0.711  -0.983   7.009  1.00  0.00    -0.248 NA
ATOM     46  C   UNL     1       1.050  -2.977   5.931  1.00  0.00     0.031 C 
ATOM     47  C   UNL     1       0.693   1.404   5.381  1.00  0.00     0.029 A 
ATOM     48  N   UNL     1      -0.665   1.166   3.583  1.00  0.00    -0.354 N 
ATOM     49  C   UNL     1       1.419  -1.797   7.862  1.00  0.00     0.074 A 
ATOM     50  C   UNL     1       1.493  -3.066   7.189  1.00  0.00     0.031 C 
ATOM     51  C   UNL     1       0.073   2.580   5.192  1.00  0.00     0.029 A 
ATOM     52  C   UNL     1      -1.043   2.330   4.297  1.00  0.00     0.049 A 
ATOM     53  H   UNL     1      -0.886   0.936   2.652  1.00  0.00     0.167 HD
ATOM     54  C   UNL     1       1.959  -1.241   8.981  1.00  0.00     0.037 A 
ATOM     55  C   UNL     1      -2.348   2.576   4.612  1.00  0.00     0.037 A 
ATOM     56  C   UNL     1       1.392   0.089   9.204  1.00  0.00     0.049 A 
ATOM     57  C   UNL     1      -2.614   2.662   6.096  1.00  0.00     0.074 A 
ATOM     58  C   UNL     1       1.875   1.371   9.014  1.00  0.00     0.029 A 
ATOM     59  N   UNL     1       0.020   0.207   9.414  1.00  0.00    -0.354 N 
ATOM     60  N   UNL     1      -1.831   2.153   7.008  1.00  0.00    -0.248 NA
ATOM     61  C   UNL     1      -3.791   3.310   6.667  1.00  0.00     0.031 C 
ATOM     62  C   UNL     1       0.760   2.254   9.010  1.00  0.00     0.029 A 
ATOM     63  C   UNL     1      -0.388   1.515   9.248  1.00  0.00     0.049 A 
ATOM     64  H   UNL     1      -0.577  -0.540   9.648  1.00  0.00     0.167 HD
ATOM     65  C   UNL     1      -2.378   2.362   8.247  1.00  0.00     0.074 A 
ATOM     66  C   UNL     1      -3.593   3.109   7.981  1.00  0.00     0.031 C 
ATOM     67  C   UNL     1      -1.792   1.884   9.385  1.00  0.00     0.037 A 
BRANCH  54  68
ATOM     68  C   UNL     1       3.129  -1.785   9.781  1.00  0.00     0.064 A 
ATOM     69  C   UNL     1       3.605  -1.067  10.903  1.00  0.00     0.173 A 
ATOM     70  C   UNL     1       3.911  -2.909   9.438  1.00  0.00     0.173 A 
ATOM     71  F   UNL     1       2.964   0.021  11.354  1.00  0.00    -0.203 F 
ATOM     72  C   UNL     1       4.771  -1.424  11.591  1.00  0.00     0.198 A 
ATOM     73  C   UNL     1       5.050  -3.292  10.156  1.00  0.00     0.198 A 
ATOM     74  F   UNL     1       3.655  -3.663   8.367  1.00  0.00    -0.203 F 
ATOM     75  F   UNL     1       5.202  -0.665  12.608  1.00  0.00    -0.200 F 
ATOM     76  C   UNL     1       5.491  -2.540  11.221  1.00  0.00     0.200 A 
ATOM     77  F   UNL     1       5.733  -4.383   9.778  1.00  0.00    -0.200 F 
ATOM     78  F   UNL     1       6.609  -2.882  11.874  1.00  0.00    -0.200 F 
ENDBRANCH  54  68
BRANCH  55  79
ATOM     79  C   UNL     1      -3.301   2.057   3.597  1.00  0.00     0.064 A 
ATOM     80  C   UNL     1      -3.312   2.667   2.329  1.00  0.00     0.173 A 
ATOM     81  C   UNL     1      -3.858   0.777   3.705  1.00  0.00     0.173 A 
ATOM     82  F   UNL     1      -2.787   3.892   2.172  1.00  0.00    -0.203 F 
ATOM     83  C   UNL     1      -3.744   1.977   1.198  1.00  0.00     0.198 A 
ATOM     84  C   UNL     1      -4.292   0.090   2.568  1.00  0.00     0.198 A 
ATOM     85  F   UNL     1      -3.864   0.138   4.883  1.00  0.00    -0.203 F 
ATOM     86  F   UNL     1      -3.628   2.542  -0.013  1.00  0.00    -0.200 F 
ATOM     87  C   UNL     1      -4.198   0.675   1.313  1.00  0.00     0.200 A 
ATOM     88  F   UNL     1      -4.715  -1.178   2.676  1.00  0.00    -0.200 F 
ATOM     89  F   UNL     1      -4.502  -0.029   0.214  1.00  0.00    -0.200 F 
ENDBRANCH  55  79
BRANCH  67  90
ATOM     90  C   UNL     1      -2.447   1.791  10.746  1.00  0.00     0.064 A 
ATOM     91  C   UNL     1      -3.836   1.701  10.948  1.00  0.00     0.173 A 
ATOM     92  C   UNL     1      -1.658   1.632  11.912  1.00  0.00     0.173 A 
ATOM     93  F   UNL     1      -4.694   1.700   9.920  1.00  0.00    -0.203 F 
ATOM     94  C   UNL     1      -4.393   1.542  12.221  1.00  0.00     0.198 A 
ATOM     95  C   UNL     1      -2.216   1.407  13.171  1.00  0.00     0.198 A 
ATOM     96  F   UNL     1      -0.319   1.658  11.863  1.00  0.00    -0.203 F 
ATOM     97  F   UNL     1      -5.726   1.512  12.361  1.00  0.00    -0.200 F 
ATOM     98  C   UNL     1      -3.584   1.382  13.329  1.00  0.00     0.200 A 
ATOM     99  F   UNL     1      -1.415   1.192  14.225  1.00  0.00    -0.200 F 
ATOM    100  F   UNL     1      -4.122   1.179  14.539  1.00  0.00    -0.200 F 
ENDBRANCH  67  90
ENDBRANCH  41  42
ENDBRANCH  33  36
ENDBRANCH  31  32
ENDBRANCH  30  31
ENDBRANCH  29  30
ENDBRANCH  28  29
ENDBRANCH   1  28
TORSDOF 17
