REMARK SMILES CCn1nc(C)c(NS(=O)(=O)c2cc(C(=O)NCCCCCCNC(=O)c3ccc(-c4c5nc(c(-c6c(F)c(F)c(F)c(F)c6F)c6ccc([nH]6)c(-c6c(F)c(F)c(F)c(F)c6F)c6nc(c(-c7c(F)c(F)c(F)c(F)c7F)c7ccc4[nH]7)C=C6)C=C5)cc3)cc(F)c2C)c1C
REMARK SMILES IDX 19 1 18 2 17 3 15 4 16 5 14 7 12 8 13 9 93 10 91 11 94 12
REMARK SMILES IDX 90 13 92 14 9 15 10 16 11 17 8 18 7 20 3 21 4 22 95 23 5 24
REMARK SMILES IDX 96 25 6 26 2 27 1 28 20 29 21 30 22 31 23 32 24 33 25 34
REMARK SMILES IDX 26 36 27 37 28 38 89 39 29 40 88 41 30 42 31 43 32 44 82 45
REMARK SMILES IDX 33 46 87 47 81 48 83 49 34 50 86 51 80 52 79 53 35 55 67 56
REMARK SMILES IDX 47 57 66 58 48 59 51 60 65 61 84 62 49 63 50 64 64 66 85 67
REMARK SMILES IDX 52 68 36 69 37 70 45 71 38 72 39 73 43 74 46 75 40 76 41 77
REMARK SMILES IDX 44 78 42 79 68 80 69 81 77 82 70 83 71 84 75 85 78 86 72 87
REMARK SMILES IDX 73 88 76 89 74 90 53 91 54 92 62 93 55 94 56 95 60 96 63 97
REMARK SMILES IDX 57 98 58 99 61 100 59 101
REMARK H PARENT 17 6 8 19 24 35 83 54 51 65
REMARK Flexibility Score: inf
ROOT
ATOM      1  C   UNL     1       3.541  -8.468  -7.807  1.00  0.00     0.021 C 
ENDROOT
BRANCH   1   2
ATOM      2  C   UNL     1       4.421  -7.397  -7.157  1.00  0.00     0.116 C 
BRANCH   2   3
ATOM      3  N   UNL     1       4.657  -6.313  -8.088  1.00  0.00    -0.352 N 
ATOM      4  C   UNL     1       4.037  -5.119  -8.338  1.00  0.00     0.251 C 
ATOM      5  O   UNL     1       4.476  -4.456  -9.280  1.00  0.00    -0.269 OA
ATOM      6  H   UNL     1       5.435  -6.471  -8.670  1.00  0.00     0.163 HD
BRANCH   4   7
ATOM      7  C   UNL     1       2.917  -4.555  -7.529  1.00  0.00     0.044 A 
ATOM      8  C   UNL     1       1.304  -4.591  -5.681  1.00  0.00     0.094 A 
ATOM      9  C   UNL     1       2.217  -5.236  -6.541  1.00  0.00     0.036 A 
ATOM     10  C   UNL     1       0.886  -3.291  -5.963  1.00  0.00     0.005 A 
ATOM     11  C   UNL     1       1.552  -2.625  -7.004  1.00  0.00     0.128 A 
ATOM     12  C   UNL     1      -0.217  -2.560  -5.268  1.00  0.00     0.049 C 
ATOM     13  C   UNL     1       2.570  -3.222  -7.749  1.00  0.00     0.053 A 
ATOM     14  F   UNL     1       1.227  -1.354  -7.283  1.00  0.00    -0.207 F 
BRANCH   8  15
ATOM     15  S   UNL     1       0.876  -5.550  -4.244  1.00  0.00     0.262 S 
ATOM     16  O   UNL     1       1.975  -6.476  -4.013  1.00  0.00    -0.201 OA
ATOM     17  O   UNL     1      -0.456  -6.053  -4.484  1.00  0.00    -0.201 OA
BRANCH  15  18
ATOM     18  N   UNL     1       0.771  -4.608  -2.875  1.00  0.00    -0.276 N 
ATOM     19  H   UNL     1       0.224  -5.000  -2.155  1.00  0.00     0.180 HD
BRANCH  18  20
ATOM     20  C   UNL     1       1.318  -3.363  -2.566  1.00  0.00     0.093 A 
ATOM     21  N   UNL     1       1.359  -1.313  -1.786  1.00  0.00    -0.268 N 
ATOM     22  N   UNL     1       2.472  -1.398  -2.533  1.00  0.00    -0.176 NA
ATOM     23  C   UNL     1       0.708  -2.510  -1.661  1.00  0.00     0.060 A 
ATOM     24  C   UNL     1       2.483  -2.662  -2.984  1.00  0.00     0.084 A 
ATOM     25  C   UNL     1      -0.437  -2.749  -0.743  1.00  0.00     0.069 C 
ATOM     26  C   UNL     1       3.639  -3.089  -3.809  1.00  0.00     0.071 C 
BRANCH  21  27
ATOM     27  C   UNL     1       0.916  -0.011  -1.319  1.00  0.00     0.141 C 
ATOM     28  C   UNL     1       1.297   0.261   0.123  1.00  0.00     0.029 C 
ENDBRANCH  21  27
ENDBRANCH  18  20
ENDBRANCH  15  18
ENDBRANCH   8  15
ENDBRANCH   4   7
ENDBRANCH   2   3
ENDBRANCH   1   2
BRANCH   1  29
ATOM     29  C   UNL     1       4.335  -9.373  -8.759  1.00  0.00     0.002 C 
BRANCH  29  30
ATOM     30  C   UNL     1       5.598  -9.997  -8.141  1.00  0.00     0.002 C 
BRANCH  30  31
ATOM     31  C   UNL     1       5.394 -10.655  -6.766  1.00  0.00     0.021 C 
BRANCH  31  32
ATOM     32  C   UNL     1       4.559 -11.909  -6.876  1.00  0.00     0.116 C 
BRANCH  32  33
ATOM     33  N   UNL     1       5.316 -12.955  -7.558  1.00  0.00    -0.352 N 
ATOM     34  C   UNL     1       5.100 -14.309  -7.552  1.00  0.00     0.251 C 
ATOM     35  H   UNL     1       6.083 -12.648  -8.094  1.00  0.00     0.163 HD
ATOM     36  O   UNL     1       6.000 -15.094  -7.819  1.00  0.00    -0.269 OA
BRANCH  34  37
ATOM     37  C   UNL     1       3.744 -14.799  -7.285  1.00  0.00     0.039 A 
ATOM     38  C   UNL     1       3.521 -16.074  -6.747  1.00  0.00     0.014 A 
ATOM     39  C   UNL     1       2.685 -13.998  -7.700  1.00  0.00     0.014 A 
ATOM     40  C   UNL     1       2.219 -16.552  -6.662  1.00  0.00     0.010 A 
ATOM     41  C   UNL     1       1.412 -14.382  -7.449  1.00  0.00     0.010 A 
ATOM     42  C   UNL     1       1.192 -15.698  -7.048  1.00  0.00    -0.014 A 
BRANCH  42  43
ATOM     43  C   UNL     1      -0.200 -16.047  -7.168  1.00  0.00     0.031 A 
ATOM     44  C   UNL     1      -1.016 -16.076  -5.960  1.00  0.00     0.074 A 
ATOM     45  C   UNL     1      -0.671 -15.943  -8.431  1.00  0.00     0.049 A 
ATOM     46  N   UNL     1      -2.174 -16.620  -5.901  1.00  0.00    -0.248 NA
ATOM     47  C   UNL     1      -0.581 -15.496  -4.692  1.00  0.00     0.031 C 
ATOM     48  C   UNL     1      -2.013 -15.682  -8.918  1.00  0.00     0.029 A 
ATOM     49  N   UNL     1       0.085 -16.094  -9.608  1.00  0.00    -0.354 N 
ATOM     50  C   UNL     1      -2.773 -16.140  -4.759  1.00  0.00     0.074 A 
ATOM     51  C   UNL     1      -1.696 -15.605  -3.961  1.00  0.00     0.031 C 
ATOM     52  C   UNL     1      -2.063 -16.011 -10.225  1.00  0.00     0.029 A 
ATOM     53  C   UNL     1      -0.794 -16.640 -10.562  1.00  0.00     0.049 A 
ATOM     54  H   UNL     1       1.034 -15.865  -9.737  1.00  0.00     0.167 HD
ATOM     55  C   UNL     1      -4.135 -16.076  -4.736  1.00  0.00     0.037 A 
ATOM     56  C   UNL     1      -0.613 -17.957 -10.896  1.00  0.00     0.037 A 
ATOM     57  C   UNL     1      -4.672 -16.513  -6.030  1.00  0.00     0.049 A 
ATOM     58  C   UNL     1      -1.707 -18.852 -10.350  1.00  0.00     0.074 A 
ATOM     59  C   UNL     1      -5.127 -15.851  -7.159  1.00  0.00     0.029 A 
ATOM     60  N   UNL     1      -4.428 -17.809  -6.432  1.00  0.00    -0.354 N 
ATOM     61  N   UNL     1      -2.619 -18.454  -9.505  1.00  0.00    -0.248 NA
ATOM     62  C   UNL     1      -1.843 -20.267 -10.676  1.00  0.00     0.031 C 
ATOM     63  C   UNL     1      -5.158 -16.789  -8.239  1.00  0.00     0.029 A 
ATOM     64  C   UNL     1      -4.725 -18.013  -7.760  1.00  0.00     0.049 A 
ATOM     65  H   UNL     1      -4.081 -18.511  -5.835  1.00  0.00     0.167 HD
ATOM     66  C   UNL     1      -3.442 -19.490  -9.174  1.00  0.00     0.074 A 
ATOM     67  C   UNL     1      -2.895 -20.617  -9.913  1.00  0.00     0.031 C 
ATOM     68  C   UNL     1      -4.494 -19.339  -8.312  1.00  0.00     0.037 A 
BRANCH  55  69
ATOM     69  C   UNL     1      -4.993 -15.410  -3.687  1.00  0.00     0.064 A 
ATOM     70  C   UNL     1      -6.334 -15.076  -3.983  1.00  0.00     0.173 A 
ATOM     71  C   UNL     1      -4.588 -15.094  -2.375  1.00  0.00     0.173 A 
ATOM     72  F   UNL     1      -6.893 -15.390  -5.159  1.00  0.00    -0.203 F 
ATOM     73  C   UNL     1      -7.168 -14.419  -3.077  1.00  0.00     0.198 A 
ATOM     74  C   UNL     1      -5.413 -14.406  -1.478  1.00  0.00     0.198 A 
ATOM     75  F   UNL     1      -3.408 -15.490  -1.886  1.00  0.00    -0.203 F 
ATOM     76  F   UNL     1      -8.431 -14.136  -3.426  1.00  0.00    -0.200 F 
ATOM     77  C   UNL     1      -6.702 -14.066  -1.830  1.00  0.00     0.200 A 
ATOM     78  F   UNL     1      -4.952 -14.091  -0.259  1.00  0.00    -0.200 F 
ATOM     79  F   UNL     1      -7.500 -13.428  -0.964  1.00  0.00    -0.200 F 
ENDBRANCH  55  69
BRANCH  56  80
ATOM     80  C   UNL     1       0.853 -18.281 -10.977  1.00  0.00     0.064 A 
ATOM     81  C   UNL     1       1.601 -17.568 -11.941  1.00  0.00     0.173 A 
ATOM     82  C   UNL     1       1.548 -18.766  -9.858  1.00  0.00     0.173 A 
ATOM     83  F   UNL     1       0.994 -17.103 -13.045  1.00  0.00    -0.203 F 
ATOM     84  C   UNL     1       2.914 -17.173 -11.691  1.00  0.00     0.198 A 
ATOM     85  C   UNL     1       2.878 -18.396  -9.630  1.00  0.00     0.198 A 
ATOM     86  F   UNL     1       0.906 -19.471  -8.915  1.00  0.00    -0.203 F 
ATOM     87  F   UNL     1       3.535 -16.342 -12.541  1.00  0.00    -0.200 F 
ATOM     88  C   UNL     1       3.537 -17.551 -10.514  1.00  0.00     0.200 A 
ATOM     89  F   UNL     1       3.493 -18.781  -8.502  1.00  0.00    -0.200 F 
ATOM     90  F   UNL     1       4.752 -17.070 -10.216  1.00  0.00    -0.200 F 
ENDBRANCH  56  80
BRANCH  68  91
ATOM     91  C   UNL     1      -5.389 -20.468  -7.878  1.00  0.00     0.064 A 
ATOM     92  C   UNL     1      -5.856 -21.438  -8.772  1.00  0.00     0.173 A 
ATOM     93  C   UNL     1      -5.881 -20.567  -6.553  1.00  0.00     0.173 A 
ATOM     94  F   UNL     1      -5.563 -21.368 -10.079  1.00  0.00    -0.203 F 
ATOM     95  C   UNL     1      -6.659 -22.498  -8.346  1.00  0.00     0.198 A 
ATOM     96  C   UNL     1      -6.738 -21.583  -6.148  1.00  0.00     0.198 A 
ATOM     97  F   UNL     1      -5.529 -19.708  -5.588  1.00  0.00    -0.203 F 
ATOM     98  F   UNL     1      -7.005 -23.456  -9.216  1.00  0.00    -0.200 F 
ATOM     99  C   UNL     1      -7.099 -22.570  -7.036  1.00  0.00     0.200 A 
ATOM    100  F   UNL     1      -7.189 -21.603  -4.886  1.00  0.00    -0.200 F 
ATOM    101  F   UNL     1      -7.869 -23.587  -6.630  1.00  0.00    -0.200 F 
ENDBRANCH  68  91
ENDBRANCH  42  43
ENDBRANCH  34  37
ENDBRANCH  32  33
ENDBRANCH  31  32
ENDBRANCH  30  31
ENDBRANCH  29  30
ENDBRANCH   1  29
TORSDOF 17
