REMARK SMILES C[C@H]1[C@H](C(=O)NCCCCCCNC(=O)c2ccc(-c3c4nc(c(-c5c(F)c(F)c(F)c(F)c5F)c5ccc([nH]5)c(-c5c(F)c(F)c(F)c(F)c5F)c5nc(c(-c6c(F)c(F)c(F)c(F)c6F)c6ccc3[nH]6)C=C5)C=C4)cc2)CCN1C(=O)[C@H]1CC=CCC1
REMARK SMILES IDX 9 1 8 2 7 3 6 4 4 5 5 6 3 8 1 9 2 10 81 11 79 12 80 13 82 14
REMARK SMILES IDX 83 15 84 16 85 17 89 18 86 19 88 20 87 21 10 22 11 23 12 24
REMARK SMILES IDX 13 25 14 26 15 28 16 29 17 30 78 31 18 32 77 33 19 34 20 35
REMARK SMILES IDX 21 36 71 37 22 38 76 39 70 40 72 41 23 42 75 43 69 44 68 45
REMARK SMILES IDX 24 47 56 48 36 49 55 50 37 51 40 52 54 53 73 54 38 55 39 56
REMARK SMILES IDX 53 58 74 59 41 60 25 61 26 62 34 63 27 64 28 65 32 66 35 67
REMARK SMILES IDX 29 68 30 69 33 70 31 71 57 72 58 73 66 74 59 75 60 76 64 77
REMARK SMILES IDX 67 78 61 79 62 80 65 81 63 82 42 83 43 84 51 85 44 86 45 87
REMARK SMILES IDX 49 88 52 89 46 90 47 91 50 92 48 93
REMARK H PARENT 6 7 13 27 72 46 40 57
REMARK Flexibility Score: inf
ROOT
ATOM      1  C   UNL     1      -0.609   1.325   5.443  1.00  0.00     0.002 C 
ENDROOT
BRANCH   1   2
ATOM      2  C   UNL     1      -0.216   0.474   4.237  1.00  0.00     0.021 C 
BRANCH   2   3
ATOM      3  C   UNL     1      -0.977   0.755   2.943  1.00  0.00     0.116 C 
BRANCH   3   4
ATOM      4  N   UNL     1      -0.523   1.982   2.320  1.00  0.00    -0.356 N 
ATOM      5  C   UNL     1      -0.233   2.286   1.030  1.00  0.00     0.225 C 
ATOM      6  O   UNL     1       0.171   3.433   0.810  1.00  0.00    -0.275 OA
ATOM      7  H   UNL     1      -0.403   2.732   2.946  1.00  0.00     0.163 HD
BRANCH   5   8
ATOM      8  C   UNL     1      -0.358   1.303  -0.127  1.00  0.00     0.102 C 
ATOM      9  C   UNL     1       1.481   0.255  -1.459  1.00  0.00     0.032 C 
ATOM     10  C   UNL     1       0.719   0.199  -0.129  1.00  0.00     0.094 C 
ATOM     11  N   UNL     1      -0.022  -1.054   0.019  1.00  0.00    -0.339 N 
ATOM     12  C   UNL     1      -1.708   0.601  -0.256  1.00  0.00     0.037 C 
ATOM     13  C   UNL     1      -1.382  -0.869  -0.463  1.00  0.00     0.120 C 
BRANCH  11  14
ATOM     14  C   UNL     1       0.352  -2.295   0.484  1.00  0.00     0.226 C 
ATOM     15  O   UNL     1      -0.488  -3.209   0.481  1.00  0.00    -0.275 OA
BRANCH  14  16
ATOM     16  C   UNL     1       1.732  -2.637   1.079  1.00  0.00     0.083 C 
ATOM     17  C   UNL     1       2.952  -2.503   0.168  1.00  0.00     0.040 C 
ATOM     18  C   UNL     1       1.963  -2.154   2.514  1.00  0.00     0.018 C 
ATOM     19  C   UNL     1       3.865  -1.357   0.483  1.00  0.00    -0.030 C 
ATOM     20  C   UNL     1       2.735  -0.845   2.646  1.00  0.00     0.028 C 
ATOM     21  C   UNL     1       3.771  -0.618   1.595  1.00  0.00    -0.031 C 
ENDBRANCH  14  16
ENDBRANCH  11  14
ENDBRANCH   5   8
ENDBRANCH   3   4
ENDBRANCH   2   3
ENDBRANCH   1   2
BRANCH   1  22
ATOM     22  C   UNL     1      -2.025   1.106   5.972  1.00  0.00     0.002 C 
BRANCH  22  23
ATOM     23  C   UNL     1      -2.412  -0.350   6.241  1.00  0.00     0.021 C 
BRANCH  23  24
ATOM     24  C   UNL     1      -1.432  -1.142   7.104  1.00  0.00     0.116 C 
BRANCH  24  25
ATOM     25  N   UNL     1      -1.263  -0.570   8.428  1.00  0.00    -0.352 N 
ATOM     26  C   UNL     1      -1.522  -1.119   9.657  1.00  0.00     0.251 C 
ATOM     27  H   UNL     1      -0.909   0.349   8.446  1.00  0.00     0.163 HD
ATOM     28  O   UNL     1      -1.478  -0.421  10.669  1.00  0.00    -0.269 OA
BRANCH  26  29
ATOM     29  C   UNL     1      -1.879  -2.547   9.769  1.00  0.00     0.039 A 
ATOM     30  C   UNL     1      -2.968  -2.908  10.566  1.00  0.00     0.014 A 
ATOM     31  C   UNL     1      -1.143  -3.529   9.098  1.00  0.00     0.014 A 
ATOM     32  C   UNL     1      -3.358  -4.247  10.640  1.00  0.00     0.010 A 
ATOM     33  C   UNL     1      -1.578  -4.852   9.113  1.00  0.00     0.010 A 
ATOM     34  C   UNL     1      -2.688  -5.225   9.887  1.00  0.00    -0.014 A 
BRANCH  34  35
ATOM     35  C   UNL     1      -3.138  -6.640   9.896  1.00  0.00     0.031 A 
ATOM     36  C   UNL     1      -2.246  -7.717  10.445  1.00  0.00     0.074 A 
ATOM     37  C   UNL     1      -4.330  -6.962   9.357  1.00  0.00     0.049 A 
ATOM     38  N   UNL     1      -2.441  -9.011  10.493  1.00  0.00    -0.248 NA
ATOM     39  C   UNL     1      -0.950  -7.286  10.992  1.00  0.00     0.031 C 
ATOM     40  C   UNL     1      -5.267  -6.014   8.752  1.00  0.00     0.029 A 
ATOM     41  N   UNL     1      -4.955  -8.177   9.224  1.00  0.00    -0.354 N 
ATOM     42  C   UNL     1      -1.293  -9.546  11.063  1.00  0.00     0.074 A 
ATOM     43  C   UNL     1      -0.383  -8.445  11.292  1.00  0.00     0.031 C 
ATOM     44  C   UNL     1      -6.356  -6.678   8.334  1.00  0.00     0.029 A 
ATOM     45  C   UNL     1      -6.179  -8.102   8.604  1.00  0.00     0.049 A 
ATOM     46  H   UNL     1      -4.563  -9.022   9.542  1.00  0.00     0.167 HD
ATOM     47  C   UNL     1      -1.032 -10.835  11.389  1.00  0.00     0.037 A 
ATOM     48  C   UNL     1      -7.055  -9.073   8.283  1.00  0.00     0.037 A 
ATOM     49  C   UNL     1      -1.948 -11.925  11.174  1.00  0.00     0.049 A 
ATOM     50  C   UNL     1      -6.731 -10.500   8.636  1.00  0.00     0.074 A 
ATOM     51  C   UNL     1      -1.801 -13.257  11.522  1.00  0.00     0.029 A 
ATOM     52  N   UNL     1      -3.180 -11.810  10.547  1.00  0.00    -0.354 N 
ATOM     53  N   UNL     1      -5.675 -10.984   9.243  1.00  0.00    -0.248 NA
ATOM     54  C   UNL     1      -7.726 -11.515   8.264  1.00  0.00     0.031 C 
ATOM     55  C   UNL     1      -2.919 -13.956  11.057  1.00  0.00     0.029 A 
ATOM     56  C   UNL     1      -3.791 -13.052  10.472  1.00  0.00     0.049 A 
ATOM     57  H   UNL     1      -3.564 -10.970  10.206  1.00  0.00     0.167 HD
ATOM     58  C   UNL     1      -5.889 -12.351   9.350  1.00  0.00     0.074 A 
ATOM     59  C   UNL     1      -7.185 -12.618   8.761  1.00  0.00     0.031 C 
ATOM     60  C   UNL     1      -5.084 -13.301   9.886  1.00  0.00     0.037 A 
BRANCH  47  61
ATOM     61  C   UNL     1       0.301 -11.137  12.013  1.00  0.00     0.064 A 
ATOM     62  C   UNL     1       0.624 -10.701  13.308  1.00  0.00     0.173 A 
ATOM     63  C   UNL     1       1.255 -11.899  11.323  1.00  0.00     0.173 A 
ATOM     64  F   UNL     1      -0.248  -9.960  14.008  1.00  0.00    -0.203 F 
ATOM     65  C   UNL     1       1.864 -10.989  13.873  1.00  0.00     0.198 A 
ATOM     66  C   UNL     1       2.481 -12.213  11.905  1.00  0.00     0.198 A 
ATOM     67  F   UNL     1       0.997 -12.348  10.085  1.00  0.00    -0.203 F 
ATOM     68  F   UNL     1       2.169 -10.515  15.089  1.00  0.00    -0.200 F 
ATOM     69  C   UNL     1       2.788 -11.750  13.175  1.00  0.00     0.200 A 
ATOM     70  F   UNL     1       3.367 -12.963  11.234  1.00  0.00    -0.200 F 
ATOM     71  F   UNL     1       3.978 -12.032  13.723  1.00  0.00    -0.200 F 
ENDBRANCH  47  61
BRANCH  48  72
ATOM     72  C   UNL     1      -8.333  -8.727   7.607  1.00  0.00     0.064 A 
ATOM     73  C   UNL     1      -9.560  -8.865   8.272  1.00  0.00     0.173 A 
ATOM     74  C   UNL     1      -8.358  -8.257   6.286  1.00  0.00     0.173 A 
ATOM     75  F   UNL     1      -9.590  -9.329   9.530  1.00  0.00    -0.203 F 
ATOM     76  C   UNL     1     -10.763  -8.568   7.635  1.00  0.00     0.198 A 
ATOM     77  C   UNL     1      -9.560  -7.932   5.660  1.00  0.00     0.198 A 
ATOM     78  F   UNL     1      -7.213  -8.102   5.606  1.00  0.00    -0.203 F 
ATOM     79  F   UNL     1     -11.923  -8.756   8.279  1.00  0.00    -0.200 F 
ATOM     80  C   UNL     1     -10.761  -8.096   6.332  1.00  0.00     0.200 A 
ATOM     81  F   UNL     1      -9.553  -7.461   4.405  1.00  0.00    -0.200 F 
ATOM     82  F   UNL     1     -11.918  -7.806   5.721  1.00  0.00    -0.200 F 
ENDBRANCH  48  72
BRANCH  60  83
ATOM     83  C   UNL     1      -5.594 -14.714   9.892  1.00  0.00     0.064 A 
ATOM     84  C   UNL     1      -5.702 -15.464   8.711  1.00  0.00     0.173 A 
ATOM     85  C   UNL     1      -5.944 -15.338  11.100  1.00  0.00     0.173 A 
ATOM     86  F   UNL     1      -5.395 -14.910   7.529  1.00  0.00    -0.203 F 
ATOM     87  C   UNL     1      -6.166 -16.777   8.737  1.00  0.00     0.198 A 
ATOM     88  C   UNL     1      -6.376 -16.661  11.125  1.00  0.00     0.198 A 
ATOM     89  F   UNL     1      -5.853 -14.668  12.258  1.00  0.00    -0.203 F 
ATOM     90  F   UNL     1      -6.309 -17.457   7.591  1.00  0.00    -0.200 F 
ATOM     91  C   UNL     1      -6.495 -17.376   9.944  1.00  0.00     0.200 A 
ATOM     92  F   UNL     1      -6.678 -17.243  12.294  1.00  0.00    -0.200 F 
ATOM     93  F   UNL     1      -6.933 -18.642   9.967  1.00  0.00    -0.200 F 
ENDBRANCH  60  83
ENDBRANCH  34  35
ENDBRANCH  26  29
ENDBRANCH  24  25
ENDBRANCH  23  24
ENDBRANCH  22  23
ENDBRANCH   1  22
TORSDOF 15
