REMARK SMILES Cc1cc(C(=O)NCCCCCCNC(=O)c2ccc(-c3c4nc(c(-c5c(F)c(F)c(F)c(F)c5F)c5ccc([nH]5)c(-c5c(F)c(F)c(F)c(F)c5F)c5nc(c(-c6c(F)c(F)c(F)c(F)c6F)c6ccc3[nH]6)C=C5)C=C4)cc2)ccc1NC(=O)N1C[C@@H](C)[C@H](C)C1
REMARK SMILES IDX 11 1 10 2 9 3 8 4 7 5 5 6 6 7 4 9 1 10 2 11 3 12 82 13 81 14
REMARK SMILES IDX 80 15 83 16 84 17 85 19 86 20 87 21 92 22 88 23 90 24 89 25
REMARK SMILES IDX 91 26 12 27 13 28 14 29 15 30 16 32 17 33 18 34 79 35 19 36
REMARK SMILES IDX 78 37 20 38 21 39 22 40 72 41 23 42 77 43 71 44 73 45 24 46
REMARK SMILES IDX 76 47 70 48 69 49 25 51 57 52 37 53 56 54 38 55 41 56 55 57
REMARK SMILES IDX 74 58 39 59 40 60 54 62 75 63 42 64 26 65 27 66 35 67 28 68
REMARK SMILES IDX 29 69 33 70 36 71 30 72 31 73 34 74 32 75 58 76 59 77 67 78
REMARK SMILES IDX 60 79 61 80 65 81 68 82 62 83 63 84 66 85 64 86 43 87 44 88
REMARK SMILES IDX 52 89 45 90 46 91 50 92 53 93 47 94 48 95 51 96 49 97
REMARK H PARENT 7 8 83 18 14 31 73 50 41 61
REMARK Flexibility Score: inf
ROOT
ATOM      1  C   UNL     1      -6.859  -2.906   0.258  1.00  0.00     0.002 C 
ENDROOT
BRANCH   1   2
ATOM      2  C   UNL     1      -5.993  -2.663  -0.990  1.00  0.00     0.002 C 
BRANCH   2   3
ATOM      3  C   UNL     1      -4.944  -1.547  -0.887  1.00  0.00     0.021 C 
BRANCH   3   4
ATOM      4  C   UNL     1      -3.948  -1.703   0.266  1.00  0.00     0.116 C 
BRANCH   4   5
ATOM      5  N   UNL     1      -2.954  -2.724  -0.018  1.00  0.00    -0.352 N 
ATOM      6  C   UNL     1      -1.607  -2.624  -0.280  1.00  0.00     0.251 C 
ATOM      7  O   UNL     1      -0.934  -3.650  -0.343  1.00  0.00    -0.269 OA
ATOM      8  H   UNL     1      -3.304  -3.644  -0.023  1.00  0.00     0.163 HD
BRANCH   6   9
ATOM      9  C   UNL     1      -0.941  -1.305  -0.425  1.00  0.00     0.040 A 
ATOM     10  C   UNL     1       2.423   0.162   0.541  1.00  0.00     0.046 C 
ATOM     11  C   UNL     1       0.990   0.118   0.084  1.00  0.00    -0.027 A 
ATOM     12  C   UNL     1       0.354  -1.143   0.084  1.00  0.00     0.019 A 
ATOM     13  C   UNL     1       0.274   1.234  -0.384  1.00  0.00     0.045 A 
ATOM     14  C   UNL     1      -0.947   1.023  -1.039  1.00  0.00     0.027 A 
ATOM     15  C   UNL     1      -1.540  -0.237  -1.081  1.00  0.00     0.016 A 
BRANCH  13  16
ATOM     16  N   UNL     1       0.791   2.539  -0.245  1.00  0.00    -0.308 N 
ATOM     17  C   UNL     1       0.166   3.741  -0.420  1.00  0.00     0.321 C 
ATOM     18  H   UNL     1       1.739   2.591   0.015  1.00  0.00     0.171 HD
ATOM     19  O   UNL     1       0.823   4.698  -0.831  1.00  0.00    -0.248 OA
ATOM     20  N   UNL     1      -1.165   3.851  -0.105  1.00  0.00    -0.324 N 
ATOM     21  C   UNL     1      -2.000   4.857  -0.735  1.00  0.00     0.125 C 
ATOM     22  C   UNL     1      -1.769   3.358   1.127  1.00  0.00     0.125 C 
ATOM     23  C   UNL     1      -3.145   5.111   0.246  1.00  0.00     0.010 C 
ATOM     24  C   UNL     1      -3.233   3.796   1.042  1.00  0.00     0.010 C 
ATOM     25  C   UNL     1      -4.444   5.482  -0.452  1.00  0.00     0.010 C 
ATOM     26  C   UNL     1      -3.898   3.963   2.404  1.00  0.00     0.010 C 
ENDBRANCH  13  16
ENDBRANCH   6   9
ENDBRANCH   4   5
ENDBRANCH   3   4
ENDBRANCH   2   3
ENDBRANCH   1   2
BRANCH   1  27
ATOM     27  C   UNL     1      -7.479  -1.662   0.901  1.00  0.00     0.021 C 
BRANCH  27  28
ATOM     28  C   UNL     1      -8.548  -0.987   0.050  1.00  0.00     0.116 C 
BRANCH  28  29
ATOM     29  N   UNL     1      -9.914  -1.309   0.443  1.00  0.00    -0.352 N 
ATOM     30  C   UNL     1     -11.107  -0.997  -0.188  1.00  0.00     0.251 C 
ATOM     31  H   UNL     1     -10.002  -1.823   1.278  1.00  0.00     0.163 HD
ATOM     32  O   UNL     1     -12.173  -1.312   0.315  1.00  0.00    -0.269 OA
BRANCH  30  33
ATOM     33  C   UNL     1     -11.075  -0.386  -1.539  1.00  0.00     0.039 A 
ATOM     34  C   UNL     1     -11.878  -0.949  -2.538  1.00  0.00     0.014 A 
ATOM     35  C   UNL     1     -10.145   0.598  -1.862  1.00  0.00     0.014 A 
ATOM     36  C   UNL     1     -11.580  -0.700  -3.877  1.00  0.00     0.010 A 
ATOM     37  C   UNL     1      -9.787   0.773  -3.184  1.00  0.00     0.010 A 
ATOM     38  C   UNL     1     -10.459   0.069  -4.188  1.00  0.00    -0.014 A 
BRANCH  38  39
ATOM     39  C   UNL     1      -9.848   0.101  -5.512  1.00  0.00     0.031 A 
ATOM     40  C   UNL     1      -9.999   1.278  -6.392  1.00  0.00     0.074 A 
ATOM     41  C   UNL     1      -9.056  -0.927  -5.892  1.00  0.00     0.049 A 
ATOM     42  N   UNL     1      -9.794   1.265  -7.666  1.00  0.00    -0.248 NA
ATOM     43  C   UNL     1     -10.431   2.577  -5.892  1.00  0.00     0.031 C 
ATOM     44  C   UNL     1      -8.148  -0.979  -7.035  1.00  0.00     0.029 A 
ATOM     45  N   UNL     1      -9.091  -2.249  -5.418  1.00  0.00    -0.354 N 
ATOM     46  C   UNL     1      -9.838   2.562  -8.119  1.00  0.00     0.074 A 
ATOM     47  C   UNL     1     -10.268   3.340  -6.979  1.00  0.00     0.031 C 
ATOM     48  C   UNL     1      -7.967  -2.263  -7.381  1.00  0.00     0.029 A 
ATOM     49  C   UNL     1      -8.864  -3.057  -6.559  1.00  0.00     0.049 A 
ATOM     50  H   UNL     1      -9.242  -2.550  -4.492  1.00  0.00     0.167 HD
ATOM     51  C   UNL     1      -9.411   2.845  -9.384  1.00  0.00     0.037 A 
ATOM     52  C   UNL     1      -9.838  -3.889  -7.029  1.00  0.00     0.037 A 
ATOM     53  C   UNL     1      -9.065   1.633 -10.120  1.00  0.00     0.049 A 
ATOM     54  C   UNL     1     -10.295  -3.598  -8.443  1.00  0.00     0.074 A 
ATOM     55  C   UNL     1      -7.881   0.960 -10.377  1.00  0.00     0.029 A 
ATOM     56  N   UNL     1     -10.082   0.767 -10.475  1.00  0.00    -0.354 N 
ATOM     57  N   UNL     1      -9.921  -2.560  -9.138  1.00  0.00    -0.248 NA
ATOM     58  C   UNL     1     -11.299  -4.404  -9.140  1.00  0.00     0.031 C 
ATOM     59  C   UNL     1      -8.206  -0.339 -10.862  1.00  0.00     0.029 A 
ATOM     60  C   UNL     1      -9.584  -0.448 -10.902  1.00  0.00     0.049 A 
ATOM     61  H   UNL     1     -11.040   0.988 -10.429  1.00  0.00     0.167 HD
ATOM     62  C   UNL     1     -10.632  -2.523 -10.306  1.00  0.00     0.074 A 
ATOM     63  C   UNL     1     -11.483  -3.696 -10.267  1.00  0.00     0.031 C 
ATOM     64  C   UNL     1     -10.511  -1.517 -11.214  1.00  0.00     0.037 A 
BRANCH  51  65
ATOM     65  C   UNL     1      -9.111   4.236  -9.887  1.00  0.00     0.064 A 
ATOM     66  C   UNL     1      -8.093   4.453 -10.841  1.00  0.00     0.173 A 
ATOM     67  C   UNL     1      -9.761   5.401  -9.441  1.00  0.00     0.173 A 
ATOM     68  F   UNL     1      -7.454   3.432 -11.427  1.00  0.00    -0.203 F 
ATOM     69  C   UNL     1      -7.683   5.733 -11.222  1.00  0.00     0.198 A 
ATOM     70  C   UNL     1      -9.311   6.683  -9.774  1.00  0.00     0.198 A 
ATOM     71  F   UNL     1     -10.884   5.335  -8.715  1.00  0.00    -0.203 F 
ATOM     72  F   UNL     1      -6.708   5.875 -12.131  1.00  0.00    -0.200 F 
ATOM     73  C   UNL     1      -8.264   6.849 -10.657  1.00  0.00     0.200 A 
ATOM     74  F   UNL     1      -9.903   7.756  -9.232  1.00  0.00    -0.200 F 
ATOM     75  F   UNL     1      -7.835   8.076 -10.981  1.00  0.00    -0.200 F 
ENDBRANCH  51  65
BRANCH  52  76
ATOM     76  C   UNL     1     -10.717  -4.418  -5.951  1.00  0.00     0.064 A 
ATOM     77  C   UNL     1     -10.129  -5.155  -4.903  1.00  0.00     0.173 A 
ATOM     78  C   UNL     1     -12.008  -3.921  -5.747  1.00  0.00     0.173 A 
ATOM     79  F   UNL     1      -8.890  -5.654  -5.046  1.00  0.00    -0.203 F 
ATOM     80  C   UNL     1     -10.753  -5.275  -3.664  1.00  0.00     0.198 A 
ATOM     81  C   UNL     1     -12.641  -4.066  -4.513  1.00  0.00     0.198 A 
ATOM     82  F   UNL     1     -12.617  -3.196  -6.696  1.00  0.00    -0.203 F 
ATOM     83  F   UNL     1     -10.113  -5.870  -2.648  1.00  0.00    -0.200 F 
ATOM     84  C   UNL     1     -11.999  -4.707  -3.463  1.00  0.00     0.200 A 
ATOM     85  F   UNL     1     -13.837  -3.495  -4.310  1.00  0.00    -0.200 F 
ATOM     86  F   UNL     1     -12.564  -4.739  -2.248  1.00  0.00    -0.200 F 
ENDBRANCH  52  76
BRANCH  64  87
ATOM     87  C   UNL     1     -11.279  -1.489 -12.494  1.00  0.00     0.064 A 
ATOM     88  C   UNL     1     -11.274  -2.575 -13.381  1.00  0.00     0.173 A 
ATOM     89  C   UNL     1     -11.945  -0.324 -12.919  1.00  0.00     0.173 A 
ATOM     90  F   UNL     1     -10.634  -3.711 -13.065  1.00  0.00    -0.203 F 
ATOM     91  C   UNL     1     -11.919  -2.506 -14.616  1.00  0.00     0.198 A 
ATOM     92  C   UNL     1     -12.550  -0.243 -14.170  1.00  0.00     0.198 A 
ATOM     93  F   UNL     1     -12.037   0.751 -12.121  1.00  0.00    -0.203 F 
ATOM     94  F   UNL     1     -11.930  -3.577 -15.421  1.00  0.00    -0.200 F 
ATOM     95  C   UNL     1     -12.545  -1.337 -15.015  1.00  0.00     0.200 A 
ATOM     96  F   UNL     1     -13.141   0.899 -14.551  1.00  0.00    -0.200 F 
ATOM     97  F   UNL     1     -13.145  -1.266 -16.211  1.00  0.00    -0.200 F 
ENDBRANCH  64  87
ENDBRANCH  38  39
ENDBRANCH  30  33
ENDBRANCH  28  29
ENDBRANCH  27  28
ENDBRANCH   1  27
TORSDOF 14
