REMARK SMILES O=C(CCN1C(=O)S/C(=C\c2ccc(F)cc2)C1=O)Nc1ccc(O)cc1C(=O)NCCCCCCNC(=O)c1ccc(-c2c3nc(c(-c4c(F)c(F)c(F)c(F)c4F)c4ccc([nH]4)c(-c4c(F)c(F)c(F)c(F)c4F)c4nc(c(-c5c(F)c(F)c(F)c(F)c5F)c5ccc2[nH]5)C=C4)C=C3)cc1
REMARK SMILES IDX 32 1 31 2 30 3 28 4 29 5 27 7 21 8 22 9 23 10 26 11 24 12
REMARK SMILES IDX 20 13 1 14 2 15 3 17 4 18 5 19 6 20 18 21 7 22 8 23 9 24
REMARK SMILES IDX 19 25 10 26 11 27 12 28 17 29 13 30 16 31 14 32 15 33 25 34
REMARK SMILES IDX 33 36 34 37 35 38 36 39 37 40 38 41 39 43 40 44 41 45 102 46
REMARK SMILES IDX 42 47 101 48 43 49 44 50 45 51 95 52 46 53 100 54 94 55
REMARK SMILES IDX 96 56 47 57 99 58 93 59 92 60 48 62 80 63 60 64 79 65 61 66
REMARK SMILES IDX 64 67 78 68 97 69 62 70 63 71 77 73 98 74 65 75 49 76 50 77
REMARK SMILES IDX 58 78 51 79 52 80 56 81 59 82 53 83 54 84 57 85 55 86 81 87
REMARK SMILES IDX 82 88 90 89 83 90 84 91 88 92 91 93 85 94 86 95 89 96 87 97
REMARK SMILES IDX 66 98 67 99 75 100 68 101 69 102 73 103 76 104 70 105 71 106
REMARK SMILES IDX 74 107 72 108
REMARK H PARENT 30 6 20 16 25 35 37 42 96 61 64 72
REMARK Flexibility Score: inf
ROOT
ATOM      1  C   UNL     1       2.896   0.489   3.304  1.00  0.00     0.021 C 
ENDROOT
BRANCH   1   2
ATOM      2  C   UNL     1       2.544  -0.692   2.370  1.00  0.00     0.116 C 
BRANCH   2   3
ATOM      3  N   UNL     1       2.978  -2.035   2.728  1.00  0.00    -0.352 N 
ATOM      4  C   UNL     1       2.828  -3.256   2.082  1.00  0.00     0.253 C 
ATOM      5  O   UNL     1       3.469  -4.215   2.520  1.00  0.00    -0.269 OA
ATOM      6  H   UNL     1       3.465  -2.088   3.582  1.00  0.00     0.163 HD
BRANCH   4   7
ATOM      7  C   UNL     1       1.923  -3.508   0.914  1.00  0.00     0.067 A 
ATOM      8  C   UNL     1       1.767  -2.677  -0.211  1.00  0.00     0.054 A 
ATOM      9  C   UNL     1       0.774  -2.978  -1.164  1.00  0.00     0.031 A 
ATOM     10  C   UNL     1       0.047  -4.168  -1.093  1.00  0.00     0.048 A 
ATOM     11  C   UNL     1       1.220  -4.731   0.941  1.00  0.00     0.062 A 
ATOM     12  C   UNL     1       0.314  -5.059  -0.067  1.00  0.00     0.116 A 
BRANCH   8  13
ATOM     13  N   UNL     1       2.725  -1.684  -0.513  1.00  0.00    -0.325 N 
ATOM     14  O   UNL     1       1.365  -0.091  -1.464  1.00  0.00    -0.275 OA
ATOM     15  C   UNL     1       2.489  -0.523  -1.215  1.00  0.00     0.226 C 
ATOM     16  H   UNL     1       3.643  -1.836  -0.193  1.00  0.00     0.169 HD
BRANCH  15  17
ATOM     17  C   UNL     1       3.723   0.222  -1.720  1.00  0.00     0.122 C 
BRANCH  17  18
ATOM     18  C   UNL     1       4.829   0.506  -0.709  1.00  0.00     0.140 C 
BRANCH  18  19
ATOM     19  N   UNL     1       5.853  -0.531  -0.606  1.00  0.00    -0.268 N 
ATOM     20  C   UNL     1       7.021  -0.524  -1.312  1.00  0.00     0.293 C 
ATOM     21  C   UNL     1       5.835  -1.430   0.411  1.00  0.00     0.268 C 
ATOM     22  O   UNL     1       7.412   0.359  -2.061  1.00  0.00    -0.261 OA
ATOM     23  S   UNL     1       7.975  -1.971  -0.927  1.00  0.00    -0.022 SA
ATOM     24  C   UNL     1       6.854  -2.469   0.257  1.00  0.00     0.083 C 
ATOM     25  O   UNL     1       5.073  -1.386   1.356  1.00  0.00    -0.268 OA
ATOM     26  C   UNL     1       6.739  -3.559   1.022  1.00  0.00     0.029 C 
BRANCH  26  27
ATOM     27  C   UNL     1       7.642  -4.690   1.143  1.00  0.00    -0.024 A 
ATOM     28  C   UNL     1       8.354  -4.815   2.344  1.00  0.00     0.011 A 
ATOM     29  C   UNL     1       7.723  -5.687   0.169  1.00  0.00     0.011 A 
ATOM     30  C   UNL     1       9.170  -5.920   2.559  1.00  0.00     0.040 A 
ATOM     31  C   UNL     1       8.540  -6.797   0.390  1.00  0.00     0.040 A 
ATOM     32  C   UNL     1       9.258  -6.899   1.579  1.00  0.00     0.123 A 
ATOM     33  F   UNL     1      10.040  -7.967   1.787  1.00  0.00    -0.207 F 
ENDBRANCH  26  27
ENDBRANCH  18  19
ENDBRANCH  17  18
ENDBRANCH  15  17
ENDBRANCH   8  13
BRANCH  12  34
ATOM     34  O   UNL     1      -0.290  -6.281  -0.018  1.00  0.00    -0.508 OA
ATOM     35  H   UNL     1      -0.902  -6.527  -0.683  1.00  0.00     0.293 HD
ENDBRANCH  12  34
ENDBRANCH   4   7
ENDBRANCH   2   3
ENDBRANCH   1   2
BRANCH   1  36
ATOM     36  C   UNL     1       4.295   0.754   3.913  1.00  0.00     0.002 C 
BRANCH  36  37
ATOM     37  C   UNL     1       5.547   1.242   3.145  1.00  0.00     0.002 C 
BRANCH  37  38
ATOM     38  C   UNL     1       5.481   2.410   2.158  1.00  0.00     0.021 C 
BRANCH  38  39
ATOM     39  C   UNL     1       5.128   3.795   2.687  1.00  0.00     0.116 C 
BRANCH  39  40
ATOM     40  N   UNL     1       6.258   4.522   3.251  1.00  0.00    -0.352 N 
ATOM     41  C   UNL     1       6.881   5.684   2.842  1.00  0.00     0.251 C 
ATOM     42  H   UNL     1       6.642   4.115   4.061  1.00  0.00     0.163 HD
ATOM     43  O   UNL     1       7.905   6.052   3.413  1.00  0.00    -0.269 OA
BRANCH  41  44
ATOM     44  C   UNL     1       6.361   6.495   1.710  1.00  0.00     0.039 A 
ATOM     45  C   UNL     1       7.268   7.085   0.818  1.00  0.00     0.014 A 
ATOM     46  C   UNL     1       4.995   6.724   1.540  1.00  0.00     0.014 A 
ATOM     47  C   UNL     1       6.802   7.825  -0.278  1.00  0.00     0.010 A 
ATOM     48  C   UNL     1       4.529   7.383   0.403  1.00  0.00     0.010 A 
ATOM     49  C   UNL     1       5.425   7.947  -0.518  1.00  0.00    -0.014 A 
BRANCH  49  50
ATOM     50  C   UNL     1       4.886   8.671  -1.702  1.00  0.00     0.031 A 
ATOM     51  C   UNL     1       4.017   9.884  -1.509  1.00  0.00     0.074 A 
ATOM     52  C   UNL     1       5.104   8.197  -2.944  1.00  0.00     0.049 A 
ATOM     53  N   UNL     1       3.337  10.570  -2.393  1.00  0.00    -0.248 NA
ATOM     54  C   UNL     1       3.866  10.371  -0.129  1.00  0.00     0.031 C 
ATOM     55  C   UNL     1       5.910   7.020  -3.268  1.00  0.00     0.029 A 
ATOM     56  N   UNL     1       4.659   8.641  -4.165  1.00  0.00    -0.354 N 
ATOM     57  C   UNL     1       2.668  11.553  -1.675  1.00  0.00     0.074 A 
ATOM     58  C   UNL     1       2.971  11.336  -0.278  1.00  0.00     0.031 C 
ATOM     59  C   UNL     1       5.930   6.854  -4.600  1.00  0.00     0.029 A 
ATOM     60  C   UNL     1       5.099   7.882  -5.222  1.00  0.00     0.049 A 
ATOM     61  H   UNL     1       4.079   9.429  -4.273  1.00  0.00     0.167 HD
ATOM     62  C   UNL     1       1.896  12.564  -2.140  1.00  0.00     0.037 A 
ATOM     63  C   UNL     1       4.857   7.995  -6.543  1.00  0.00     0.037 A 
ATOM     64  C   UNL     1       1.621  12.795  -3.534  1.00  0.00     0.049 A 
ATOM     65  C   UNL     1       3.959   9.095  -7.038  1.00  0.00     0.074 A 
ATOM     66  C   UNL     1       0.892  13.819  -4.111  1.00  0.00     0.029 A 
ATOM     67  N   UNL     1       2.067  11.986  -4.570  1.00  0.00    -0.354 N 
ATOM     68  N   UNL     1       3.356  10.037  -6.353  1.00  0.00    -0.248 NA
ATOM     69  C   UNL     1       3.697   9.144  -8.483  1.00  0.00     0.031 C 
ATOM     70  C   UNL     1       0.860  13.607  -5.492  1.00  0.00     0.029 A 
ATOM     71  C   UNL     1       1.607  12.476  -5.781  1.00  0.00     0.049 A 
ATOM     72  H   UNL     1       2.627  11.184  -4.460  1.00  0.00     0.167 HD
ATOM     73  C   UNL     1       2.657  10.797  -7.280  1.00  0.00     0.074 A 
ATOM     74  C   UNL     1       2.918  10.215  -8.580  1.00  0.00     0.031 C 
ATOM     75  C   UNL     1       1.871  11.881  -7.068  1.00  0.00     0.037 A 
BRANCH  62  76
ATOM     76  C   UNL     1       1.304  13.506  -1.130  1.00  0.00     0.064 A 
ATOM     77  C   UNL     1      -0.081  13.544  -0.910  1.00  0.00     0.173 A 
ATOM     78  C   UNL     1       2.108  14.391  -0.395  1.00  0.00     0.173 A 
ATOM     79  F   UNL     1      -0.898  12.727  -1.591  1.00  0.00    -0.203 F 
ATOM     80  C   UNL     1      -0.637  14.430   0.011  1.00  0.00     0.198 A 
ATOM     81  C   UNL     1       1.552  15.251   0.549  1.00  0.00     0.198 A 
ATOM     82  F   UNL     1       3.439  14.390  -0.560  1.00  0.00    -0.203 F 
ATOM     83  F   UNL     1      -1.965  14.462   0.190  1.00  0.00    -0.200 F 
ATOM     84  C   UNL     1       0.180  15.274   0.747  1.00  0.00     0.200 A 
ATOM     85  F   UNL     1       2.348  16.044   1.280  1.00  0.00    -0.200 F 
ATOM     86  F   UNL     1      -0.353  16.105   1.653  1.00  0.00    -0.200 F 
ENDBRANCH  62  76
BRANCH  63  87
ATOM     87  C   UNL     1       5.520   7.057  -7.485  1.00  0.00     0.064 A 
ATOM     88  C   UNL     1       5.163   5.702  -7.551  1.00  0.00     0.173 A 
ATOM     89  C   UNL     1       6.584   7.492  -8.287  1.00  0.00     0.173 A 
ATOM     90  F   UNL     1       4.153   5.237  -6.801  1.00  0.00    -0.203 F 
ATOM     91  C   UNL     1       5.867   4.811  -8.359  1.00  0.00     0.198 A 
ATOM     92  C   UNL     1       7.274   6.604  -9.111  1.00  0.00     0.198 A 
ATOM     93  F   UNL     1       6.948   8.782  -8.273  1.00  0.00    -0.203 F 
ATOM     94  F   UNL     1       5.534   3.513  -8.371  1.00  0.00    -0.200 F 
ATOM     95  C   UNL     1       6.923   5.263  -9.137  1.00  0.00     0.200 A 
ATOM     96  F   UNL     1       8.281   7.048  -9.874  1.00  0.00    -0.200 F 
ATOM     97  F   UNL     1       7.603   4.405  -9.910  1.00  0.00    -0.200 F 
ENDBRANCH  63  87
BRANCH  75  98
ATOM     98  C   UNL     1       1.226  12.523  -8.260  1.00  0.00     0.064 A 
ATOM     99  C   UNL     1       1.652  13.783  -8.707  1.00  0.00     0.173 A 
ATOM    100  C   UNL     1       0.112  11.944  -8.883  1.00  0.00     0.173 A 
ATOM    101  F   UNL     1       2.709  14.381  -8.137  1.00  0.00    -0.203 F 
ATOM    102  C   UNL     1       0.967  14.453  -9.717  1.00  0.00     0.198 A 
ATOM    103  C   UNL     1      -0.557  12.607  -9.909  1.00  0.00     0.198 A 
ATOM    104  F   UNL     1      -0.325  10.736  -8.498  1.00  0.00    -0.203 F 
ATOM    105  F   UNL     1       1.363  15.676 -10.097  1.00  0.00    -0.200 F 
ATOM    106  C   UNL     1      -0.138  13.866 -10.315  1.00  0.00     0.200 A 
ATOM    107  F   UNL     1      -1.613  12.031 -10.500  1.00  0.00    -0.200 F 
ATOM    108  F   UNL     1      -0.800  14.514 -11.283  1.00  0.00    -0.200 F 
ENDBRANCH  75  98
ENDBRANCH  49  50
ENDBRANCH  41  44
ENDBRANCH  39  40
ENDBRANCH  38  39
ENDBRANCH  37  38
ENDBRANCH  36  37
ENDBRANCH   1  36
TORSDOF 19
