REMARK SMILES O=C(NCCCCCCNC(=O)c1ccc(Cl)nc1NC[C@@H]1C[N@@H+]2CCC[C@@H]2CO1)c1ccc(-c2c3nc(c(-c4c(F)c(F)c(F)c(F)c4F)c4ccc([nH]4)c(-c4c(F)c(F)c(F)c(F)c4F)c4nc(c(-c5c(F)c(F)c(F)c(F)c5F)c5ccc2[nH]5)C=C4)C=C3)cc1
REMARK SMILES IDX 7 1 6 2 5 3 4 4 3 5 1 6 2 7 31 9 32 10 93 11 33 12 92 13
REMARK SMILES IDX 34 14 35 15 36 16 86 17 37 18 91 19 85 20 87 21 38 22 90 23
REMARK SMILES IDX 84 24 83 25 39 27 71 28 51 29 70 30 52 31 55 32 69 33 88 34
REMARK SMILES IDX 53 35 54 36 68 38 89 39 56 40 40 41 41 42 49 43 42 44 43 45
REMARK SMILES IDX 47 46 50 47 44 48 45 49 48 50 46 51 72 52 73 53 81 54 74 55
REMARK SMILES IDX 75 56 79 57 82 58 76 59 77 60 80 61 78 62 57 63 58 64 66 65
REMARK SMILES IDX 59 66 60 67 64 68 67 69 61 70 62 71 65 72 63 73 8 74 9 75
REMARK SMILES IDX 10 76 11 77 12 79 13 80 14 81 19 82 15 83 18 84 16 85 17 86
REMARK SMILES IDX 20 87 21 89 22 90 23 91 30 92 24 93 29 94 25 95 28 96 26 98
REMARK SMILES IDX 27 99
REMARK H PARENT 3 8 87 26 55 37 10 78 20 88 24 97
REMARK Flexibility Score: inf
ROOT
ATOM      1  C   UNL     1      13.472   6.609  17.571  1.00  0.00     0.002 C 
ENDROOT
BRANCH   1   2
ATOM      2  C   UNL     1      13.400   7.894  18.402  1.00  0.00     0.002 C 
BRANCH   2   3
ATOM      3  C   UNL     1      12.744   7.757  19.776  1.00  0.00     0.021 C 
BRANCH   3   4
ATOM      4  C   UNL     1      13.348   6.687  20.674  1.00  0.00     0.116 C 
BRANCH   4   5
ATOM      5  N   UNL     1      14.705   7.006  21.078  1.00  0.00    -0.352 N 
ATOM      6  O   UNL     1      16.367   7.483  22.528  1.00  0.00    -0.269 OA
ATOM      7  C   UNL     1      15.239   7.030  22.339  1.00  0.00     0.251 C 
ATOM      8  H   UNL     1      15.324   7.236  20.348  1.00  0.00     0.163 HD
BRANCH   7   9
ATOM      9  C   UNL     1      14.452   6.523  23.483  1.00  0.00     0.039 A 
ATOM     10  C   UNL     1      13.775   5.301  23.403  1.00  0.00     0.014 A 
ATOM     11  C   UNL     1      14.425   7.266  24.667  1.00  0.00     0.014 A 
ATOM     12  C   UNL     1      13.004   4.864  24.476  1.00  0.00     0.010 A 
ATOM     13  C   UNL     1      13.704   6.794  25.765  1.00  0.00     0.010 A 
ATOM     14  C   UNL     1      12.985   5.592  25.676  1.00  0.00    -0.014 A 
BRANCH  14  15
ATOM     15  C   UNL     1      12.311   5.026  26.869  1.00  0.00     0.031 A 
ATOM     16  C   UNL     1      11.090   5.670  27.455  1.00  0.00     0.074 A 
ATOM     17  C   UNL     1      12.845   3.929  27.439  1.00  0.00     0.049 A 
ATOM     18  N   UNL     1      10.413   5.329  28.522  1.00  0.00    -0.248 NA
ATOM     19  C   UNL     1      10.562   6.855  26.762  1.00  0.00     0.031 C 
ATOM     20  C   UNL     1      14.047   3.237  26.966  1.00  0.00     0.029 A 
ATOM     21  N   UNL     1      12.460   3.208  28.540  1.00  0.00    -0.354 N 
ATOM     22  C   UNL     1       9.396   6.265  28.643  1.00  0.00     0.074 A 
ATOM     23  C   UNL     1       9.547   7.198  27.546  1.00  0.00     0.031 C 
ATOM     24  C   UNL     1      14.295   2.189  27.764  1.00  0.00     0.029 A 
ATOM     25  C   UNL     1      13.304   2.166  28.833  1.00  0.00     0.049 A 
ATOM     26  H   UNL     1      11.656   3.418  29.069  1.00  0.00     0.167 HD
ATOM     27  C   UNL     1       8.425   6.329  29.585  1.00  0.00     0.037 A 
ATOM     28  C   UNL     1      13.303   1.307  29.869  1.00  0.00     0.037 A 
ATOM     29  C   UNL     1       8.268   5.377  30.655  1.00  0.00     0.049 A 
ATOM     30  C   UNL     1      12.229   1.423  30.910  1.00  0.00     0.074 A 
ATOM     31  C   UNL     1       7.255   5.298  31.596  1.00  0.00     0.029 A 
ATOM     32  N   UNL     1       9.154   4.348  30.934  1.00  0.00    -0.354 N 
ATOM     33  N   UNL     1      11.226   2.265  30.969  1.00  0.00    -0.248 NA
ATOM     34  C   UNL     1      12.289   0.478  32.032  1.00  0.00     0.031 C 
ATOM     35  C   UNL     1       7.557   4.254  32.476  1.00  0.00     0.029 A 
ATOM     36  C   UNL     1       8.736   3.657  32.059  1.00  0.00     0.049 A 
ATOM     37  H   UNL     1       9.962   4.140  30.411  1.00  0.00     0.167 HD
ATOM     38  C   UNL     1      10.535   1.951  32.129  1.00  0.00     0.074 A 
ATOM     39  C   UNL     1      11.218   0.824  32.732  1.00  0.00     0.031 C 
ATOM     40  C   UNL     1       9.437   2.548  32.652  1.00  0.00     0.037 A 
BRANCH  27  41
ATOM     41  C   UNL     1       7.454   7.469  29.523  1.00  0.00     0.064 A 
ATOM     42  C   UNL     1       6.421   7.508  28.576  1.00  0.00     0.173 A 
ATOM     43  C   UNL     1       7.503   8.491  30.484  1.00  0.00     0.173 A 
ATOM     44  F   UNL     1       6.335   6.558  27.633  1.00  0.00    -0.203 F 
ATOM     45  C   UNL     1       5.478   8.532  28.588  1.00  0.00     0.198 A 
ATOM     46  C   UNL     1       6.547   9.503  30.506  1.00  0.00     0.198 A 
ATOM     47  F   UNL     1       8.468   8.496  31.416  1.00  0.00    -0.203 F 
ATOM     48  F   UNL     1       4.510   8.561  27.660  1.00  0.00    -0.200 F 
ATOM     49  C   UNL     1       5.536   9.523  29.557  1.00  0.00     0.200 A 
ATOM     50  F   UNL     1       6.599  10.453  31.449  1.00  0.00    -0.200 F 
ATOM     51  F   UNL     1       4.617  10.499  29.576  1.00  0.00    -0.200 F 
ENDBRANCH  27  41
BRANCH  28  52
ATOM     52  C   UNL     1      14.378   0.289  29.982  1.00  0.00     0.064 A 
ATOM     53  C   UNL     1      14.107  -1.072  29.799  1.00  0.00     0.173 A 
ATOM     54  C   UNL     1      15.701   0.662  30.263  1.00  0.00     0.173 A 
ATOM     55  F   UNL     1      12.854  -1.478  29.548  1.00  0.00    -0.203 F 
ATOM     56  C   UNL     1      15.118  -2.025  29.907  1.00  0.00     0.198 A 
ATOM     57  C   UNL     1      16.715  -0.288  30.342  1.00  0.00     0.198 A 
ATOM     58  F   UNL     1      16.011   1.955  30.441  1.00  0.00    -0.203 F 
ATOM     59  F   UNL     1      14.826  -3.326  29.767  1.00  0.00    -0.200 F 
ATOM     60  C   UNL     1      16.422  -1.632  30.172  1.00  0.00     0.200 A 
ATOM     61  F   UNL     1      17.975   0.098  30.583  1.00  0.00    -0.200 F 
ATOM     62  F   UNL     1      17.393  -2.549  30.268  1.00  0.00    -0.200 F 
ENDBRANCH  28  52
BRANCH  40  63
ATOM     63  C   UNL     1       8.912   1.995  33.941  1.00  0.00     0.064 A 
ATOM     64  C   UNL     1       9.566   2.241  35.157  1.00  0.00     0.173 A 
ATOM     65  C   UNL     1       7.728   1.244  33.968  1.00  0.00     0.173 A 
ATOM     66  F   UNL     1      10.713   2.937  35.176  1.00  0.00    -0.203 F 
ATOM     67  C   UNL     1       9.061   1.742  36.353  1.00  0.00     0.198 A 
ATOM     68  C   UNL     1       7.212   0.767  35.170  1.00  0.00     0.198 A 
ATOM     69  F   UNL     1       7.065   0.985  32.831  1.00  0.00    -0.203 F 
ATOM     70  F   UNL     1       9.722   1.956  37.499  1.00  0.00    -0.200 F 
ATOM     71  C   UNL     1       7.881   1.012  36.360  1.00  0.00     0.200 A 
ATOM     72  F   UNL     1       6.067   0.071  35.176  1.00  0.00    -0.200 F 
ATOM     73  F   UNL     1       7.392   0.538  37.514  1.00  0.00    -0.200 F 
ENDBRANCH  40  63
ENDBRANCH  14  15
ENDBRANCH   7   9
ENDBRANCH   4   5
ENDBRANCH   3   4
ENDBRANCH   2   3
ENDBRANCH   1   2
BRANCH   1  74
ATOM     74  C   UNL     1      12.155   5.840  17.412  1.00  0.00     0.021 C 
BRANCH  74  75
ATOM     75  C   UNL     1      10.974   6.667  16.911  1.00  0.00     0.116 C 
BRANCH  75  76
ATOM     76  N   UNL     1      11.237   7.238  15.605  1.00  0.00    -0.352 N 
ATOM     77  C   UNL     1      10.594   7.003  14.421  1.00  0.00     0.255 C 
ATOM     78  H   UNL     1      11.980   7.883  15.565  1.00  0.00     0.163 HD
ATOM     79  O   UNL     1      11.094   7.399  13.369  1.00  0.00    -0.269 OA
BRANCH  77  80
ATOM     80  C   UNL     1       9.303   6.295  14.399  1.00  0.00     0.082 A 
ATOM     81  C   UNL     1       8.247   6.776  15.183  1.00  0.00     0.021 A 
ATOM     82  C   UNL     1       9.092   5.219  13.524  1.00  0.00     0.140 A 
ATOM     83  C   UNL     1       7.023   6.125  15.139  1.00  0.00     0.042 A 
ATOM     84  N   UNL     1       7.907   4.569  13.514  1.00  0.00    -0.219 NA
ATOM     85  C   UNL     1       6.916   5.030  14.305  1.00  0.00     0.131 A 
ATOM     86  Cl  UNL     1       5.451   4.146  14.206  1.00  0.00    -0.062 Cl
BRANCH  82  87
ATOM     87  N   UNL     1      10.105   4.783  12.675  1.00  0.00    -0.367 N 
ATOM     88  H   UNL     1      11.012   5.152  12.776  1.00  0.00     0.162 HD
BRANCH  87  89
ATOM     89  C   UNL     1       9.845   3.790  11.637  1.00  0.00     0.152 C 
BRANCH  89  90
ATOM     90  C   UNL     1       9.914   4.342  10.188  1.00  0.00     0.192 C 
ATOM     91  C   UNL     1      11.274   4.995   9.818  1.00  0.00     0.296 C 
ATOM     92  O   UNL     1       8.762   5.115   9.818  1.00  0.00    -0.364 OA
ATOM     93  N   UNL     1      11.323   6.428   9.563  1.00  0.00    -0.328 N 
ATOM     94  C   UNL     1       8.861   6.479  10.215  1.00  0.00     0.225 C 
ATOM     95  C   UNL     1      12.350   7.181  10.265  1.00  0.00     0.262 C 
ATOM     96  C   UNL     1      10.059   7.167   9.563  1.00  0.00     0.210 C 
ATOM     97  H   UNL     1      11.607   6.371   8.585  1.00  0.00     0.348 HD
ATOM     98  C   UNL     1      11.889   8.621  10.122  1.00  0.00     0.068 C 
ATOM     99  C   UNL     1      10.377   8.513  10.218  1.00  0.00     0.073 C 
ENDBRANCH  89  90
ENDBRANCH  87  89
ENDBRANCH  82  87
ENDBRANCH  77  80
ENDBRANCH  75  76
ENDBRANCH  74  75
ENDBRANCH   1  74
TORSDOF 16
