REMARK SMILES CCC[N@@H+]1CCO[C@H](c2nc(CC(=O)NCCCCCCNC(=O)c3ccc(-c4c5nc(c(-c6c(F)c(F)c(F)c(F)c6F)c6ccc([nH]6)c(-c6c(F)c(F)c(F)c(F)c6F)c6nc(c(-c7c(F)c(F)c(F)c(F)c7F)c7ccc4[nH]7)C=C6)C=C5)cc3)cs2)C1
REMARK SMILES IDX 17 1 16 2 15 3 13 4 14 5 12 7 11 8 9 9 10 10 89 11 88 12
REMARK SMILES IDX 8 13 4 14 5 15 90 16 6 18 7 19 3 20 2 21 1 22 18 23 19 24
REMARK SMILES IDX 20 25 21 26 22 27 23 28 24 30 25 31 26 32 87 33 27 34 86 35
REMARK SMILES IDX 28 36 29 37 30 38 80 39 31 40 85 41 79 42 81 43 32 44 84 45
REMARK SMILES IDX 78 46 77 47 33 49 65 50 45 51 64 52 46 53 49 54 63 55 82 56
REMARK SMILES IDX 47 57 48 58 62 60 83 61 50 62 34 63 35 64 43 65 36 66 37 67
REMARK SMILES IDX 41 68 44 69 38 70 39 71 42 72 40 73 66 74 67 75 75 76 68 77
REMARK SMILES IDX 69 78 73 79 76 80 70 81 71 82 74 83 72 84 51 85 52 86 60 87
REMARK SMILES IDX 53 88 54 89 58 90 61 91 55 92 56 93 59 94 57 95
REMARK H PARENT 15 6 4 17 22 29 81 48 49 59
REMARK Flexibility Score: inf
ROOT
ATOM      1  C   UNL     1      -3.292   1.009  -3.022  1.00  0.00     0.021 C 
ENDROOT
BRANCH   1   2
ATOM      2  C   UNL     1      -4.004   0.094  -4.019  1.00  0.00     0.116 C 
BRANCH   2   3
ATOM      3  N   UNL     1      -3.317   0.104  -5.295  1.00  0.00    -0.356 N 
ATOM      4  C   UNL     1      -2.596  -0.904  -5.866  1.00  0.00     0.226 C 
ATOM      5  O   UNL     1      -1.910  -0.654  -6.859  1.00  0.00    -0.275 OA
ATOM      6  H   UNL     1      -3.378   0.939  -5.813  1.00  0.00     0.163 HD
BRANCH   4   7
ATOM      7  C   UNL     1      -2.696  -2.302  -5.300  1.00  0.00     0.157 C 
BRANCH   7   8
ATOM      8  C   UNL     1      -1.825  -2.505  -4.109  1.00  0.00     0.061 A 
ATOM      9  C   UNL     1      -1.495  -2.860  -1.923  1.00  0.00     0.128 A 
ATOM     10  N   UNL     1      -2.397  -2.557  -2.841  1.00  0.00    -0.243 NA
ATOM     11  S   UNL     1       0.069  -3.150  -2.580  1.00  0.00    -0.124 S 
ATOM     12  C   UNL     1      -0.463  -2.708  -4.130  1.00  0.00     0.091 A 
BRANCH   9  13
ATOM     13  C   UNL     1      -1.825  -2.979  -0.443  1.00  0.00     0.232 C 
ATOM     14  N   UNL     1       0.232  -2.484   1.058  1.00  0.00    -0.331 N 
ATOM     15  C   UNL     1       0.185  -3.923   1.395  1.00  0.00     0.291 C 
ATOM     16  C   UNL     1      -1.079  -2.054   0.543  1.00  0.00     0.302 C 
ATOM     17  H   UNL     1       0.366  -1.919   1.896  1.00  0.00     0.348 HD
ATOM     18  C   UNL     1      -0.549  -4.833   0.389  1.00  0.00     0.222 C 
ATOM     19  O   UNL     1      -1.831  -4.351  -0.015  1.00  0.00    -0.359 OA
BRANCH  14  20
ATOM     20  C   UNL     1       1.433  -2.117   0.301  1.00  0.00     0.262 C 
BRANCH  20  21
ATOM     21  C   UNL     1       1.437  -0.754  -0.417  1.00  0.00     0.058 C 
ATOM     22  C   UNL     1       1.528   0.436   0.522  1.00  0.00     0.010 C 
ENDBRANCH  20  21
ENDBRANCH  14  20
ENDBRANCH   9  13
ENDBRANCH   7   8
ENDBRANCH   4   7
ENDBRANCH   2   3
ENDBRANCH   1   2
BRANCH   1  23
ATOM     23  C   UNL     1      -3.410   2.499  -3.371  1.00  0.00     0.002 C 
BRANCH  23  24
ATOM     24  C   UNL     1      -4.847   3.006  -3.536  1.00  0.00     0.002 C 
BRANCH  24  25
ATOM     25  C   UNL     1      -5.755   2.756  -2.329  1.00  0.00     0.021 C 
BRANCH  25  26
ATOM     26  C   UNL     1      -5.297   3.453  -1.054  1.00  0.00     0.116 C 
BRANCH  26  27
ATOM     27  N   UNL     1      -5.333   4.902  -1.191  1.00  0.00    -0.352 N 
ATOM     28  C   UNL     1      -5.981   5.827  -0.419  1.00  0.00     0.251 C 
ATOM     29  H   UNL     1      -4.819   5.268  -1.947  1.00  0.00     0.163 HD
ATOM     30  O   UNL     1      -6.097   6.991  -0.809  1.00  0.00    -0.269 OA
BRANCH  28  31
ATOM     31  C   UNL     1      -6.554   5.429   0.881  1.00  0.00     0.039 A 
ATOM     32  C   UNL     1      -7.833   5.873   1.224  1.00  0.00     0.014 A 
ATOM     33  C   UNL     1      -5.823   4.628   1.764  1.00  0.00     0.014 A 
ATOM     34  C   UNL     1      -8.401   5.471   2.434  1.00  0.00     0.010 A 
ATOM     35  C   UNL     1      -6.418   4.170   2.935  1.00  0.00     0.010 A 
ATOM     36  C   UNL     1      -7.709   4.592   3.284  1.00  0.00    -0.014 A 
BRANCH  36  37
ATOM     37  C   UNL     1      -8.318   4.109   4.548  1.00  0.00     0.031 A 
ATOM     38  C   UNL     1      -7.705   4.478   5.869  1.00  0.00     0.074 A 
ATOM     39  C   UNL     1      -9.385   3.289   4.500  1.00  0.00     0.049 A 
ATOM     40  N   UNL     1      -8.047   4.101   7.076  1.00  0.00    -0.248 NA
ATOM     41  C   UNL     1      -6.534   5.368   5.829  1.00  0.00     0.031 C 
ATOM     42  C   UNL     1     -10.041   2.826   3.277  1.00  0.00     0.029 A 
ATOM     43  N   UNL     1     -10.100   2.691   5.508  1.00  0.00    -0.354 N 
ATOM     44  C   UNL     1      -7.130   4.696   7.931  1.00  0.00     0.074 A 
ATOM     45  C   UNL     1      -6.183   5.413   7.105  1.00  0.00     0.031 C 
ATOM     46  C   UNL     1     -11.075   2.036   3.605  1.00  0.00     0.029 A 
ATOM     47  C   UNL     1     -11.132   1.905   5.057  1.00  0.00     0.049 A 
ATOM     48  H   UNL     1      -9.893   2.814   6.462  1.00  0.00     0.167 HD
ATOM     49  C   UNL     1      -7.096   4.667   9.285  1.00  0.00     0.037 A 
ATOM     50  C   UNL     1     -12.018   1.157   5.741  1.00  0.00     0.037 A 
ATOM     51  C   UNL     1      -8.054   3.970  10.103  1.00  0.00     0.049 A 
ATOM     52  C   UNL     1     -11.950   1.131   7.244  1.00  0.00     0.074 A 
ATOM     53  C   UNL     1      -8.139   3.922  11.483  1.00  0.00     0.029 A 
ATOM     54  N   UNL     1      -9.094   3.194   9.611  1.00  0.00    -0.354 N 
ATOM     55  N   UNL     1     -11.118   1.750   8.046  1.00  0.00    -0.248 NA
ATOM     56  C   UNL     1     -12.949   0.306   7.937  1.00  0.00     0.031 C 
ATOM     57  C   UNL     1      -9.201   3.080  11.827  1.00  0.00     0.029 A 
ATOM     58  C   UNL     1      -9.812   2.645  10.662  1.00  0.00     0.049 A 
ATOM     59  H   UNL     1      -9.292   3.053   8.657  1.00  0.00     0.167 HD
ATOM     60  C   UNL     1     -11.511   1.417   9.335  1.00  0.00     0.074 A 
ATOM     61  C   UNL     1     -12.665   0.551   9.208  1.00  0.00     0.031 C 
ATOM     62  C   UNL     1     -10.965   1.793  10.518  1.00  0.00     0.037 A 
BRANCH  49  63
ATOM     63  C   UNL     1      -5.988   5.416   9.968  1.00  0.00     0.064 A 
ATOM     64  C   UNL     1      -5.937   6.819   9.965  1.00  0.00     0.173 A 
ATOM     65  C   UNL     1      -4.984   4.726  10.664  1.00  0.00     0.173 A 
ATOM     66  F   UNL     1      -6.865   7.527   9.304  1.00  0.00    -0.203 F 
ATOM     67  C   UNL     1      -4.906   7.500  10.606  1.00  0.00     0.198 A 
ATOM     68  C   UNL     1      -3.973   5.412  11.332  1.00  0.00     0.198 A 
ATOM     69  F   UNL     1      -4.988   3.385  10.705  1.00  0.00    -0.203 F 
ATOM     70  F   UNL     1      -4.851   8.838  10.546  1.00  0.00    -0.200 F 
ATOM     71  C   UNL     1      -3.930   6.798  11.296  1.00  0.00     0.200 A 
ATOM     72  F   UNL     1      -3.038   4.732  12.009  1.00  0.00    -0.200 F 
ATOM     73  F   UNL     1      -2.943   7.455  11.919  1.00  0.00    -0.200 F 
ENDBRANCH  49  63
BRANCH  50  74
ATOM     74  C   UNL     1     -13.063   0.391   5.012  1.00  0.00     0.064 A 
ATOM     75  C   UNL     1     -14.413   0.759   5.097  1.00  0.00     0.173 A 
ATOM     76  C   UNL     1     -12.738  -0.721   4.223  1.00  0.00     0.173 A 
ATOM     77  F   UNL     1     -14.775   1.804   5.856  1.00  0.00    -0.203 F 
ATOM     78  C   UNL     1     -15.401   0.030   4.438  1.00  0.00     0.198 A 
ATOM     79  C   UNL     1     -13.723  -1.432   3.541  1.00  0.00     0.198 A 
ATOM     80  F   UNL     1     -11.460  -1.111   4.104  1.00  0.00    -0.203 F 
ATOM     81  F   UNL     1     -16.688   0.375   4.575  1.00  0.00    -0.200 F 
ATOM     82  C   UNL     1     -15.055  -1.061   3.656  1.00  0.00     0.200 A 
ATOM     83  F   UNL     1     -13.383  -2.477   2.773  1.00  0.00    -0.200 F 
ATOM     84  F   UNL     1     -16.005  -1.760   3.020  1.00  0.00    -0.200 F 
ENDBRANCH  50  74
BRANCH  62  85
ATOM     85  C   UNL     1     -11.632   1.303  11.770  1.00  0.00     0.064 A 
ATOM     86  C   UNL     1     -11.556  -0.039  12.170  1.00  0.00     0.173 A 
ATOM     87  C   UNL     1     -12.323   2.199  12.601  1.00  0.00     0.173 A 
ATOM     88  F   UNL     1     -10.920  -0.937  11.402  1.00  0.00    -0.203 F 
ATOM     89  C   UNL     1     -12.170  -0.472  13.342  1.00  0.00     0.198 A 
ATOM     90  C   UNL     1     -12.908   1.768  13.788  1.00  0.00     0.198 A 
ATOM     91  F   UNL     1     -12.419   3.494  12.268  1.00  0.00    -0.203 F 
ATOM     92  F   UNL     1     -12.127  -1.768  13.679  1.00  0.00    -0.200 F 
ATOM     93  C   UNL     1     -12.838   0.433  14.154  1.00  0.00     0.200 A 
ATOM     94  F   UNL     1     -13.541   2.647  14.578  1.00  0.00    -0.200 F 
ATOM     95  F   UNL     1     -13.422   0.015  15.286  1.00  0.00    -0.200 F 
ENDBRANCH  62  85
ENDBRANCH  36  37
ENDBRANCH  28  31
ENDBRANCH  26  27
ENDBRANCH  25  26
ENDBRANCH  24  25
ENDBRANCH  23  24
ENDBRANCH   1  23
TORSDOF 17
