REMARK SMILES CC[C@@H]1CCCN(S(=O)(=O)c2cc(C(=O)NCCCCCCNC(=O)c3ccc(-c4c5nc(c(-c6c(F)c(F)c(F)c(F)c6F)c6ccc([nH]6)c(-c6c(F)c(F)c(F)c(F)c6F)c6nc(c(-c7c(F)c(F)c(F)c(F)c7F)c7ccc4[nH]7)C=C6)C=C5)cc3)ccc2F)C1
REMARK SMILES IDX 19 1 18 2 17 3 16 4 14 5 15 6 13 8 11 9 12 10 91 11 90 12
REMARK SMILES IDX 92 13 89 14 8 15 9 16 10 17 7 18 3 19 4 20 93 21 5 22 6 23
REMARK SMILES IDX 2 24 1 25 20 26 21 27 22 28 23 29 24 30 25 32 26 33 27 34
REMARK SMILES IDX 88 35 28 36 87 37 29 38 30 39 31 40 81 41 32 42 86 43 80 44
REMARK SMILES IDX 82 45 33 46 85 47 79 48 78 49 34 51 66 52 46 53 65 54 47 55
REMARK SMILES IDX 50 56 64 57 83 58 48 59 49 60 63 62 84 63 51 64 35 65 36 66
REMARK SMILES IDX 44 67 37 68 38 69 42 70 45 71 39 72 40 73 43 74 41 75 67 76
REMARK SMILES IDX 68 77 76 78 69 79 70 80 74 81 77 82 71 83 72 84 75 85 73 86
REMARK SMILES IDX 52 87 53 88 61 89 54 90 55 91 59 92 62 93 56 94 57 95 60 96
REMARK SMILES IDX 58 97
REMARK H PARENT 16 7 23 31 82 50 50 61
REMARK Flexibility Score: inf
ROOT
ATOM      1  C   UNL     1      -1.009   5.310   8.572  1.00  0.00     0.002 C 
ENDROOT
BRANCH   1   2
ATOM      2  C   UNL     1      -0.239   4.154   7.914  1.00  0.00     0.021 C 
BRANCH   2   3
ATOM      3  C   UNL     1      -1.089   3.335   6.940  1.00  0.00     0.116 C 
BRANCH   3   4
ATOM      4  N   UNL     1      -0.982   3.837   5.586  1.00  0.00    -0.352 N 
ATOM      5  C   UNL     1      -0.288   3.474   4.464  1.00  0.00     0.251 C 
ATOM      6  O   UNL     1      -0.529   4.134   3.451  1.00  0.00    -0.269 OA
ATOM      7  H   UNL     1      -1.544   4.632   5.437  1.00  0.00     0.163 HD
BRANCH   5   8
ATOM      8  C   UNL     1       0.721   2.370   4.370  1.00  0.00     0.041 A 
ATOM      9  C   UNL     1       2.243   1.133   2.900  1.00  0.00     0.119 A 
ATOM     10  C   UNL     1       1.264   2.121   3.089  1.00  0.00     0.038 A 
ATOM     11  C   UNL     1       2.705   0.403   3.982  1.00  0.00     0.143 A 
ATOM     12  C   UNL     1       2.163   0.608   5.240  1.00  0.00     0.041 A 
ATOM     13  F   UNL     1       3.636  -0.550   3.847  1.00  0.00    -0.206 F 
ATOM     14  C   UNL     1       1.192   1.598   5.436  1.00  0.00     0.017 A 
BRANCH   9  15
ATOM     15  S   UNL     1       2.943   0.850   1.306  1.00  0.00     0.246 S 
ATOM     16  O   UNL     1       4.332   0.462   1.461  1.00  0.00    -0.207 OA
ATOM     17  O   UNL     1       2.598   1.983   0.477  1.00  0.00    -0.207 OA
BRANCH  15  18
ATOM     18  N   UNL     1       2.079  -0.502   0.708  1.00  0.00    -0.197 NA
ATOM     19  C   UNL     1       1.290  -1.712  -1.310  1.00  0.00     0.004 C 
ATOM     20  C   UNL     1       1.236  -3.009  -0.483  1.00  0.00     0.006 C 
ATOM     21  C   UNL     1       2.355  -0.766  -0.737  1.00  0.00     0.106 C 
ATOM     22  C   UNL     1       1.104  -2.743   1.008  1.00  0.00     0.017 C 
ATOM     23  C   UNL     1       2.159  -1.757   1.500  1.00  0.00     0.102 C 
BRANCH  19  24
ATOM     24  C   UNL     1      -0.105  -1.073  -1.525  1.00  0.00     0.001 C 
ATOM     25  C   UNL     1      -0.517   0.074  -0.611  1.00  0.00     0.004 C 
ENDBRANCH  19  24
ENDBRANCH  15  18
ENDBRANCH   9  15
ENDBRANCH   5   8
ENDBRANCH   3   4
ENDBRANCH   2   3
ENDBRANCH   1   2
BRANCH   1  26
ATOM     26  C   UNL     1      -2.253   4.893   9.368  1.00  0.00     0.002 C 
BRANCH  26  27
ATOM     27  C   UNL     1      -2.015   3.819  10.434  1.00  0.00     0.021 C 
BRANCH  27  28
ATOM     28  C   UNL     1      -1.054   4.234  11.544  1.00  0.00     0.116 C 
BRANCH  28  29
ATOM     29  N   UNL     1      -1.542   5.394  12.269  1.00  0.00    -0.352 N 
ATOM     30  C   UNL     1      -1.798   5.563  13.603  1.00  0.00     0.251 C 
ATOM     31  H   UNL     1      -1.718   6.186  11.711  1.00  0.00     0.163 HD
ATOM     32  O   UNL     1      -2.449   6.535  13.976  1.00  0.00    -0.269 OA
BRANCH  30  33
ATOM     33  C   UNL     1      -1.301   4.590  14.600  1.00  0.00     0.039 A 
ATOM     34  C   UNL     1      -2.106   4.303  15.705  1.00  0.00     0.014 A 
ATOM     35  C   UNL     1      -0.033   4.011  14.492  1.00  0.00     0.014 A 
ATOM     36  C   UNL     1      -1.654   3.416  16.681  1.00  0.00     0.010 A 
ATOM     37  C   UNL     1       0.386   3.064  15.427  1.00  0.00     0.010 A 
ATOM     38  C   UNL     1      -0.415   2.768  16.538  1.00  0.00    -0.014 A 
BRANCH  38  39
ATOM     39  C   UNL     1       0.025   1.773  17.548  1.00  0.00     0.031 A 
ATOM     40  C   UNL     1       1.233   2.024  18.407  1.00  0.00     0.074 A 
ATOM     41  C   UNL     1      -0.677   0.632  17.687  1.00  0.00     0.049 A 
ATOM     42  N   UNL     1       1.715   1.295  19.383  1.00  0.00    -0.248 NA
ATOM     43  C   UNL     1       2.017   3.235  18.123  1.00  0.00     0.031 C 
ATOM     44  C   UNL     1      -1.829   0.250  16.868  1.00  0.00     0.029 A 
ATOM     45  N   UNL     1      -0.540  -0.406  18.573  1.00  0.00    -0.354 N 
ATOM     46  C   UNL     1       2.851   1.959  19.827  1.00  0.00     0.074 A 
ATOM     47  C   UNL     1       3.024   3.115  18.976  1.00  0.00     0.031 C 
ATOM     48  C   UNL     1      -2.325  -0.910  17.323  1.00  0.00     0.029 A 
ATOM     49  C   UNL     1      -1.509  -1.370  18.442  1.00  0.00     0.049 A 
ATOM     50  H   UNL     1       0.184  -0.456  19.239  1.00  0.00     0.167 HD
ATOM     51  C   UNL     1       3.658   1.645  20.869  1.00  0.00     0.037 A 
ATOM     52  C   UNL     1      -1.726  -2.493  19.153  1.00  0.00     0.037 A 
ATOM     53  C   UNL     1       3.467   0.502  21.724  1.00  0.00     0.049 A 
ATOM     54  C   UNL     1      -0.826  -2.809  20.314  1.00  0.00     0.074 A 
ATOM     55  C   UNL     1       4.195   0.131  22.841  1.00  0.00     0.029 A 
ATOM     56  N   UNL     1       2.479  -0.458  21.556  1.00  0.00    -0.354 N 
ATOM     57  N   UNL     1       0.201  -2.135  20.771  1.00  0.00    -0.248 NA
ATOM     58  C   UNL     1      -1.122  -4.036  21.066  1.00  0.00     0.031 C 
ATOM     59  C   UNL     1       3.685  -1.081  23.315  1.00  0.00     0.029 A 
ATOM     60  C   UNL     1       2.597  -1.435  22.532  1.00  0.00     0.049 A 
ATOM     61  H   UNL     1       1.796  -0.447  20.847  1.00  0.00     0.167 HD
ATOM     62  C   UNL     1       0.666  -2.844  21.869  1.00  0.00     0.074 A 
ATOM     63  C   UNL     1      -0.211  -3.986  22.028  1.00  0.00     0.031 C 
ATOM     64  C   UNL     1       1.728  -2.577  22.669  1.00  0.00     0.037 A 
BRANCH  51  65
ATOM     65  C   UNL     1       4.818   2.555  21.160  1.00  0.00     0.064 A 
ATOM     66  C   UNL     1       6.136   2.103  20.997  1.00  0.00     0.173 A 
ATOM     67  C   UNL     1       4.627   3.846  21.675  1.00  0.00     0.173 A 
ATOM     68  F   UNL     1       6.376   0.875  20.512  1.00  0.00    -0.203 F 
ATOM     69  C   UNL     1       7.219   2.904  21.354  1.00  0.00     0.198 A 
ATOM     70  C   UNL     1       5.713   4.656  22.002  1.00  0.00     0.198 A 
ATOM     71  F   UNL     1       3.388   4.332  21.840  1.00  0.00    -0.203 F 
ATOM     72  F   UNL     1       8.468   2.436  21.223  1.00  0.00    -0.200 F 
ATOM     73  C   UNL     1       7.006   4.180  21.852  1.00  0.00     0.200 A 
ATOM     74  F   UNL     1       5.505   5.898  22.459  1.00  0.00    -0.200 F 
ATOM     75  F   UNL     1       8.049   4.952  22.187  1.00  0.00    -0.200 F 
ENDBRANCH  51  65
BRANCH  52  76
ATOM     76  C   UNL     1      -2.878  -3.366  18.806  1.00  0.00     0.064 A 
ATOM     77  C   UNL     1      -2.907  -4.091  17.606  1.00  0.00     0.173 A 
ATOM     78  C   UNL     1      -3.993  -3.457  19.650  1.00  0.00     0.173 A 
ATOM     79  F   UNL     1      -1.868  -4.031  16.759  1.00  0.00    -0.203 F 
ATOM     80  C   UNL     1      -4.017  -4.856  17.253  1.00  0.00     0.198 A 
ATOM     81  C   UNL     1      -5.090  -4.246  19.311  1.00  0.00     0.198 A 
ATOM     82  F   UNL     1      -4.006  -2.796  20.817  1.00  0.00    -0.203 F 
ATOM     83  F   UNL     1      -4.036  -5.504  16.081  1.00  0.00    -0.200 F 
ATOM     84  C   UNL     1      -5.106  -4.936  18.108  1.00  0.00     0.200 A 
ATOM     85  F   UNL     1      -6.131  -4.340  20.150  1.00  0.00    -0.200 F 
ATOM     86  F   UNL     1      -6.169  -5.679  17.772  1.00  0.00    -0.200 F 
ENDBRANCH  52  76
BRANCH  64  87
ATOM     87  C   UNL     1       2.002  -3.537  23.792  1.00  0.00     0.064 A 
ATOM     88  C   UNL     1       1.833  -3.141  25.128  1.00  0.00     0.173 A 
ATOM     89  C   UNL     1       2.471  -4.837  23.548  1.00  0.00     0.173 A 
ATOM     90  F   UNL     1       1.397  -1.906  25.419  1.00  0.00    -0.203 F 
ATOM     91  C   UNL     1       2.126  -4.009  26.176  1.00  0.00     0.198 A 
ATOM     92  C   UNL     1       2.729  -5.714  24.598  1.00  0.00     0.198 A 
ATOM     93  F   UNL     1       2.640  -5.268  22.289  1.00  0.00    -0.203 F 
ATOM     94  F   UNL     1       1.984  -3.599  27.444  1.00  0.00    -0.200 F 
ATOM     95  C   UNL     1       2.564  -5.298  25.910  1.00  0.00     0.200 A 
ATOM     96  F   UNL     1       3.123  -6.968  24.338  1.00  0.00    -0.200 F 
ATOM     97  F   UNL     1       2.821  -6.141  26.919  1.00  0.00    -0.200 F 
ENDBRANCH  64  87
ENDBRANCH  38  39
ENDBRANCH  30  33
ENDBRANCH  28  29
ENDBRANCH  27  28
ENDBRANCH  26  27
ENDBRANCH   1  26
TORSDOF 16
