REMARK SMILES NC(=O)[C@@H]1CCC[N@@H+]1[C@@H](C(=O)NCCCCCCNC(=O)c1ccc(-c2c3nc(c(-c4c(F)c(F)c(F)c(F)c4F)c4ccc([nH]4)c(-c4c(F)c(F)c(F)c(F)c4F)c4nc(c(-c5c(F)c(F)c(F)c(F)c5F)c5ccc2[nH]5)C=C4)C=C3)cc1)c1c[nH]c2cc(OCc3ccccc3)ccc12
REMARK SMILES IDX 14 1 13 2 12 3 10 4 11 5 9 7 8 8 4 9 5 10 6 11 7 12 2 14
REMARK SMILES IDX 1 15 3 18 85 19 86 20 101 21 87 22 88 23 100 24 89 26 99 27
REMARK SMILES IDX 90 28 91 29 92 30 93 31 94 32 98 33 95 34 97 35 96 36 15 37
REMARK SMILES IDX 16 38 17 39 18 40 19 41 20 42 21 44 22 45 23 46 84 47 24 48
REMARK SMILES IDX 83 49 25 50 26 51 27 52 77 53 28 54 82 55 76 56 78 57 29 58
REMARK SMILES IDX 81 59 75 60 74 61 30 63 62 64 42 65 61 66 43 67 46 68 60 69
REMARK SMILES IDX 79 70 44 71 45 72 59 74 80 75 47 76 31 77 32 78 40 79 33 80
REMARK SMILES IDX 34 81 38 82 41 83 35 84 36 85 39 86 37 87 63 88 64 89 72 90
REMARK SMILES IDX 65 91 66 92 70 93 73 94 67 95 68 96 71 97 69 98 48 99 49 100
REMARK SMILES IDX 57 101 50 102 51 103 55 104 58 105 52 106 53 107 56 108
REMARK SMILES IDX 54 109
REMARK H PARENT 12 6 8 13 1 16 1 17 87 25 19 43 78 62 46 73
REMARK Flexibility Score: inf
ROOT
ATOM      1  C   UNL     1      -1.074  -2.344   0.882  1.00  0.00     0.021 C 
ENDROOT
BRANCH   1   2
ATOM      2  C   UNL     1      -1.919  -1.477   1.841  1.00  0.00     0.116 C 
BRANCH   2   3
ATOM      3  N   UNL     1      -1.783  -1.875   3.228  1.00  0.00    -0.351 N 
ATOM      4  C   UNL     1      -1.230  -1.345   4.354  1.00  0.00     0.283 C 
ATOM      5  O   UNL     1      -1.193  -2.176   5.270  1.00  0.00    -0.268 OA
ATOM      6  H   UNL     1      -2.197  -2.751   3.401  1.00  0.00     0.163 HD
BRANCH   4   7
ATOM      7  C   UNL     1      -0.681   0.110   4.476  1.00  0.00     0.308 C 
BRANCH   7   8
ATOM      8  N   UNL     1       0.812   0.248   4.232  1.00  0.00    -0.311 N 
ATOM      9  C   UNL     1       1.409  -0.140   2.945  1.00  0.00     0.275 C 
ATOM     10  C   UNL     1       1.677  -1.636   3.081  1.00  0.00     0.081 C 
ATOM     11  C   UNL     1       1.970  -1.827   4.561  1.00  0.00     0.068 C 
ATOM     12  C   UNL     1       1.686  -0.471   5.175  1.00  0.00     0.264 C 
ATOM     13  H   UNL     1       0.792   1.264   4.320  1.00  0.00     0.349 HD
BRANCH   9  14
ATOM     14  C   UNL     1       0.783   0.432   1.677  1.00  0.00     0.275 C 
ATOM     15  N   UNL     1       1.363   0.007   0.510  1.00  0.00    -0.365 N 
ATOM     16  H   UNL     1       1.020   0.327  -0.355  1.00  0.00     0.159 HD
ATOM     17  H   UNL     1       2.121  -0.620   0.537  1.00  0.00     0.159 HD
ATOM     18  O   UNL     1      -0.098   1.284   1.630  1.00  0.00    -0.268 OA
ENDBRANCH   9  14
ENDBRANCH   7   8
BRANCH   7  19
ATOM     19  C   UNL     1      -0.890   0.768   5.891  1.00  0.00     0.044 A 
ATOM     20  C   UNL     1      -0.499   2.077   6.176  1.00  0.00     0.094 A 
ATOM     21  C   UNL     1      -0.963   0.139   7.194  1.00  0.00     0.009 A 
ATOM     22  N   UNL     1       0.251   1.986   7.331  1.00  0.00    -0.361 N 
ATOM     23  C   UNL     1       0.095   0.737   7.881  1.00  0.00     0.050 A 
ATOM     24  C   UNL     1      -1.495  -1.051   7.734  1.00  0.00     0.015 A 
ATOM     25  H   UNL     1       0.810   2.705   7.704  1.00  0.00     0.166 HD
ATOM     26  C   UNL     1       0.878   0.016   8.791  1.00  0.00     0.073 A 
ATOM     27  C   UNL     1      -0.785  -1.747   8.725  1.00  0.00     0.047 A 
ATOM     28  C   UNL     1       0.447  -1.267   9.152  1.00  0.00     0.121 A 
BRANCH  28  29
ATOM     29  O   UNL     1       1.383  -2.064   9.760  1.00  0.00    -0.489 OA
BRANCH  29  30
ATOM     30  C   UNL     1       0.981  -2.707  10.972  1.00  0.00     0.265 C 
BRANCH  30  31
ATOM     31  C   UNL     1       1.243  -1.843  12.187  1.00  0.00    -0.011 A 
ATOM     32  C   UNL     1       0.812  -2.272  13.448  1.00  0.00     0.007 A 
ATOM     33  C   UNL     1       1.915  -0.615  12.095  1.00  0.00     0.007 A 
ATOM     34  C   UNL     1       1.001  -1.464  14.571  1.00  0.00     0.000 A 
ATOM     35  C   UNL     1       2.077   0.206  13.207  1.00  0.00     0.000 A 
ATOM     36  C   UNL     1       1.614  -0.218  14.446  1.00  0.00     0.000 A 
ENDBRANCH  30  31
ENDBRANCH  29  30
ENDBRANCH  28  29
ENDBRANCH   7  19
ENDBRANCH   4   7
ENDBRANCH   2   3
ENDBRANCH   1   2
BRANCH   1  37
ATOM     37  C   UNL     1      -1.247  -3.863   1.062  1.00  0.00     0.002 C 
BRANCH  37  38
ATOM     38  C   UNL     1      -1.674  -4.585  -0.218  1.00  0.00     0.002 C 
BRANCH  38  39
ATOM     39  C   UNL     1      -0.652  -4.566  -1.357  1.00  0.00     0.021 C 
BRANCH  39  40
ATOM     40  C   UNL     1       0.651  -5.303  -1.061  1.00  0.00     0.116 C 
BRANCH  40  41
ATOM     41  N   UNL     1       0.447  -6.739  -0.940  1.00  0.00    -0.352 N 
ATOM     42  C   UNL     1       0.890  -7.747  -1.764  1.00  0.00     0.251 C 
ATOM     43  H   UNL     1      -0.080  -7.029  -0.161  1.00  0.00     0.163 HD
ATOM     44  O   UNL     1       0.436  -8.879  -1.672  1.00  0.00    -0.269 OA
BRANCH  42  45
ATOM     45  C   UNL     1       1.928  -7.449  -2.771  1.00  0.00     0.039 A 
ATOM     46  C   UNL     1       1.737  -7.855  -4.094  1.00  0.00     0.014 A 
ATOM     47  C   UNL     1       3.096  -6.779  -2.396  1.00  0.00     0.014 A 
ATOM     48  C   UNL     1       2.700  -7.542  -5.056  1.00  0.00     0.010 A 
ATOM     49  C   UNL     1       4.024  -6.415  -3.365  1.00  0.00     0.010 A 
ATOM     50  C   UNL     1       3.840  -6.801  -4.702  1.00  0.00    -0.014 A 
BRANCH  50  51
ATOM     51  C   UNL     1       4.870  -6.440  -5.708  1.00  0.00     0.031 A 
ATOM     52  C   UNL     1       6.249  -7.027  -5.607  1.00  0.00     0.074 A 
ATOM     53  C   UNL     1       4.584  -5.541  -6.668  1.00  0.00     0.049 A 
ATOM     54  N   UNL     1       7.311  -6.781  -6.333  1.00  0.00    -0.248 NA
ATOM     55  C   UNL     1       6.472  -8.000  -4.527  1.00  0.00     0.031 C 
ATOM     56  C   UNL     1       3.292  -4.878  -6.849  1.00  0.00     0.029 A 
ATOM     57  N   UNL     1       5.368  -5.023  -7.669  1.00  0.00    -0.354 N 
ATOM     58  C   UNL     1       8.326  -7.558  -5.789  1.00  0.00     0.074 A 
ATOM     59  C   UNL     1       7.770  -8.237  -4.639  1.00  0.00     0.031 C 
ATOM     60  C   UNL     1       3.365  -4.059  -7.910  1.00  0.00     0.029 A 
ATOM     61  C   UNL     1       4.715  -4.113  -8.463  1.00  0.00     0.049 A 
ATOM     62  H   UNL     1       6.308  -5.280  -7.804  1.00  0.00     0.167 HD
ATOM     63  C   UNL     1       9.599  -7.710  -6.225  1.00  0.00     0.037 A 
ATOM     64  C   UNL     1       5.160  -3.401  -9.516  1.00  0.00     0.037 A 
ATOM     65  C   UNL     1      10.142  -7.049  -7.382  1.00  0.00     0.049 A 
ATOM     66  C   UNL     1       6.585  -3.571  -9.968  1.00  0.00     0.074 A 
ATOM     67  C   UNL     1      11.404  -7.171  -7.936  1.00  0.00     0.029 A 
ATOM     68  N   UNL     1       9.448  -6.137  -8.165  1.00  0.00    -0.354 N 
ATOM     69  N   UNL     1       7.521  -4.349  -9.481  1.00  0.00    -0.248 NA
ATOM     70  C   UNL     1       7.014  -2.766 -11.121  1.00  0.00     0.031 C 
ATOM     71  C   UNL     1      11.488  -6.303  -9.030  1.00  0.00     0.029 A 
ATOM     72  C   UNL     1      10.262  -5.674  -9.186  1.00  0.00     0.049 A 
ATOM     73  H   UNL     1       8.515  -5.860  -8.018  1.00  0.00     0.167 HD
ATOM     74  C   UNL     1       8.637  -4.152 -10.283  1.00  0.00     0.074 A 
ATOM     75  C   UNL     1       8.259  -3.187 -11.295  1.00  0.00     0.031 C 
ATOM     76  C   UNL     1       9.864  -4.721 -10.191  1.00  0.00     0.037 A 
BRANCH  63  77
ATOM     77  C   UNL     1      10.489  -8.632  -5.442  1.00  0.00     0.064 A 
ATOM     78  C   UNL     1      10.284 -10.021  -5.436  1.00  0.00     0.173 A 
ATOM     79  C   UNL     1      11.565  -8.125  -4.699  1.00  0.00     0.173 A 
ATOM     80  F   UNL     1       9.261 -10.555  -6.120  1.00  0.00    -0.203 F 
ATOM     81  C   UNL     1      11.100 -10.863  -4.685  1.00  0.00     0.198 A 
ATOM     82  C   UNL     1      12.398  -8.974  -3.974  1.00  0.00     0.198 A 
ATOM     83  F   UNL     1      11.810  -6.807  -4.673  1.00  0.00    -0.203 F 
ATOM     84  F   UNL     1      10.847 -12.179  -4.648  1.00  0.00    -0.200 F 
ATOM     85  C   UNL     1      12.159 -10.340  -3.959  1.00  0.00     0.200 A 
ATOM     86  F   UNL     1      13.429  -8.469  -3.282  1.00  0.00    -0.200 F 
ATOM     87  F   UNL     1      12.943 -11.152  -3.237  1.00  0.00    -0.200 F 
ENDBRANCH  63  77
BRANCH  64  88
ATOM     88  C   UNL     1       4.235  -2.491 -10.239  1.00  0.00     0.064 A 
ATOM     89  C   UNL     1       3.789  -2.805 -11.530  1.00  0.00     0.173 A 
ATOM     90  C   UNL     1       3.775  -1.300  -9.660  1.00  0.00     0.173 A 
ATOM     91  F   UNL     1       4.218  -3.923 -12.133  1.00  0.00    -0.203 F 
ATOM     92  C   UNL     1       2.928  -1.955 -12.221  1.00  0.00     0.198 A 
ATOM     93  C   UNL     1       2.894  -0.463 -10.342  1.00  0.00     0.198 A 
ATOM     94  F   UNL     1       4.169  -0.957  -8.424  1.00  0.00    -0.203 F 
ATOM     95  F   UNL     1       2.547  -2.260 -13.469  1.00  0.00    -0.200 F 
ATOM     96  C   UNL     1       2.476  -0.787 -11.624  1.00  0.00     0.200 A 
ATOM     97  F   UNL     1       2.449   0.657  -9.756  1.00  0.00    -0.200 F 
ATOM     98  F   UNL     1       1.643   0.027 -12.286  1.00  0.00    -0.200 F 
ENDBRANCH  64  88
BRANCH  76  99
ATOM     99  C   UNL     1      10.876  -4.345 -11.233  1.00  0.00     0.064 A 
ATOM    100  C   UNL     1      11.496  -3.087 -11.237  1.00  0.00     0.173 A 
ATOM    101  C   UNL     1      11.263  -5.273 -12.212  1.00  0.00     0.173 A 
ATOM    102  F   UNL     1      11.148  -2.160 -10.332  1.00  0.00    -0.203 F 
ATOM    103  C   UNL     1      12.451  -2.765 -12.197  1.00  0.00     0.198 A 
ATOM    104  C   UNL     1      12.239  -4.957 -13.153  1.00  0.00     0.198 A 
ATOM    105  F   UNL     1      10.704  -6.492 -12.246  1.00  0.00    -0.203 F 
ATOM    106  F   UNL     1      12.999  -1.542 -12.209  1.00  0.00    -0.200 F 
ATOM    107  C   UNL     1      12.827  -3.701 -13.149  1.00  0.00     0.200 A 
ATOM    108  F   UNL     1      12.610  -5.868 -14.063  1.00  0.00    -0.200 F 
ATOM    109  F   UNL     1      13.753  -3.392 -14.066  1.00  0.00    -0.200 F 
ENDBRANCH  76  99
ENDBRANCH  50  51
ENDBRANCH  42  45
ENDBRANCH  40  41
ENDBRANCH  39  40
ENDBRANCH  38  39
ENDBRANCH  37  38
ENDBRANCH   1  37
TORSDOF 19
