REMARK SMILES O=C(NCCCCCCNC(=O)c1cccc2cccc(C(=O)NC3COC3)c12)c1ccc(-c2c3nc(c(-c4c(F)c(F)c(F)c(F)c4F)c4ccc([nH]4)c(-c4c(F)c(F)c(F)c(F)c4F)c4nc(c(-c5c(F)c(F)c(F)c(F)c5F)c5ccc2[nH]5)C=C4)C=C3)cc1
REMARK SMILES IDX 6 1 5 2 4 3 3 4 1 5 2 6 30 8 31 9 92 10 32 11 91 12 33 13
REMARK SMILES IDX 34 14 35 15 85 16 36 17 90 18 84 19 86 20 37 21 89 22 83 23
REMARK SMILES IDX 82 24 38 26 70 27 50 28 69 29 51 30 54 31 68 32 87 33 52 34
REMARK SMILES IDX 53 35 67 37 88 38 55 39 39 40 40 41 48 42 41 43 42 44 46 45
REMARK SMILES IDX 49 46 43 47 44 48 47 49 45 50 71 51 72 52 80 53 73 54 74 55
REMARK SMILES IDX 78 56 81 57 75 58 76 59 79 60 77 61 56 62 57 63 65 64 58 65
REMARK SMILES IDX 59 66 63 67 66 68 60 69 61 70 64 71 62 72 7 73 8 74 9 75
REMARK SMILES IDX 10 76 11 77 12 79 13 80 14 81 29 82 15 83 17 84 21 85 16 86
REMARK SMILES IDX 18 87 20 88 19 89 22 90 23 91 24 92 25 94 26 95 28 96 27 97
REMARK H PARENT 3 7 86 25 54 36 10 78 24 93
REMARK Flexibility Score: inf
ROOT
ATOM      1  C   UNL     1       4.475  -1.546   3.294  1.00  0.00     0.002 C 
ENDROOT
BRANCH   1   2
ATOM      2  C   UNL     1       4.757  -0.294   2.470  1.00  0.00     0.021 C 
BRANCH   2   3
ATOM      3  C   UNL     1       4.355  -0.364   1.006  1.00  0.00     0.116 C 
BRANCH   3   4
ATOM      4  N   UNL     1       2.927  -0.529   0.802  1.00  0.00    -0.352 N 
ATOM      5  O   UNL     1       0.921  -0.122  -0.162  1.00  0.00    -0.269 OA
ATOM      6  C   UNL     1       2.136   0.055  -0.157  1.00  0.00     0.251 C 
ATOM      7  H   UNL     1       2.469  -1.135   1.428  1.00  0.00     0.163 HD
BRANCH   6   8
ATOM      8  C   UNL     1       2.755   0.943  -1.165  1.00  0.00     0.039 A 
ATOM      9  C   UNL     1       3.885   0.539  -1.883  1.00  0.00     0.014 A 
ATOM     10  C   UNL     1       2.201   2.208  -1.371  1.00  0.00     0.014 A 
ATOM     11  C   UNL     1       4.529   1.443  -2.724  1.00  0.00     0.010 A 
ATOM     12  C   UNL     1       2.813   3.092  -2.260  1.00  0.00     0.010 A 
ATOM     13  C   UNL     1       3.994   2.725  -2.924  1.00  0.00    -0.014 A 
BRANCH  13  14
ATOM     14  C   UNL     1       4.636   3.668  -3.870  1.00  0.00     0.031 A 
ATOM     15  C   UNL     1       5.268   4.937  -3.377  1.00  0.00     0.074 A 
ATOM     16  C   UNL     1       4.599   3.396  -5.186  1.00  0.00     0.049 A 
ATOM     17  N   UNL     1       5.763   5.935  -4.065  1.00  0.00    -0.248 NA
ATOM     18  C   UNL     1       5.344   5.114  -1.920  1.00  0.00     0.031 C 
ATOM     19  C   UNL     1       4.008   2.195  -5.778  1.00  0.00     0.029 A 
ATOM     20  N   UNL     1       5.045   4.117  -6.263  1.00  0.00    -0.354 N 
ATOM     21  C   UNL     1       6.183   6.870  -3.129  1.00  0.00     0.074 A 
ATOM     22  C   UNL     1       5.875   6.325  -1.823  1.00  0.00     0.031 C 
ATOM     23  C   UNL     1       4.122   2.264  -7.112  1.00  0.00     0.029 A 
ATOM     24  C   UNL     1       4.742   3.536  -7.469  1.00  0.00     0.049 A 
ATOM     25  H   UNL     1       5.533   4.968  -6.180  1.00  0.00     0.167 HD
ATOM     26  C   UNL     1       6.770   8.071  -3.345  1.00  0.00     0.037 A 
ATOM     27  C   UNL     1       4.907   3.992  -8.724  1.00  0.00     0.037 A 
ATOM     28  C   UNL     1       7.088   8.596  -4.648  1.00  0.00     0.049 A 
ATOM     29  C   UNL     1       5.538   5.336  -8.940  1.00  0.00     0.074 A 
ATOM     30  C   UNL     1       7.732   9.777  -4.971  1.00  0.00     0.029 A 
ATOM     31  N   UNL     1       6.775   7.972  -5.848  1.00  0.00    -0.354 N 
ATOM     32  N   UNL     1       5.962   6.198  -8.049  1.00  0.00    -0.248 NA
ATOM     33  C   UNL     1       5.713   5.771 -10.331  1.00  0.00     0.031 C 
ATOM     34  C   UNL     1       7.772   9.888  -6.365  1.00  0.00     0.029 A 
ATOM     35  C   UNL     1       7.191   8.755  -6.912  1.00  0.00     0.049 A 
ATOM     36  H   UNL     1       6.324   7.101  -5.930  1.00  0.00     0.167 HD
ATOM     37  C   UNL     1       6.469   7.270  -8.767  1.00  0.00     0.074 A 
ATOM     38  C   UNL     1       6.305   6.947 -10.171  1.00  0.00     0.031 C 
ATOM     39  C   UNL     1       7.022   8.417  -8.303  1.00  0.00     0.037 A 
BRANCH  26  40
ATOM     40  C   UNL     1       7.083   8.916  -2.145  1.00  0.00     0.064 A 
ATOM     41  C   UNL     1       8.126   8.594  -1.265  1.00  0.00     0.173 A 
ATOM     42  C   UNL     1       6.345  10.082  -1.889  1.00  0.00     0.173 A 
ATOM     43  F   UNL     1       8.855   7.484  -1.460  1.00  0.00    -0.203 F 
ATOM     44  C   UNL     1       8.401   9.392  -0.157  1.00  0.00     0.198 A 
ATOM     45  C   UNL     1       6.639  10.892  -0.794  1.00  0.00     0.198 A 
ATOM     46  F   UNL     1       5.341  10.440  -2.704  1.00  0.00    -0.203 F 
ATOM     47  F   UNL     1       9.373   9.040   0.696  1.00  0.00    -0.200 F 
ATOM     48  C   UNL     1       7.661  10.542   0.075  1.00  0.00     0.200 A 
ATOM     49  F   UNL     1       5.929  12.008  -0.578  1.00  0.00    -0.200 F 
ATOM     50  F   UNL     1       7.927  11.309   1.141  1.00  0.00    -0.200 F 
ENDBRANCH  26  40
BRANCH  27  51
ATOM     51  C   UNL     1       4.442   3.157  -9.857  1.00  0.00     0.064 A 
ATOM     52  C   UNL     1       5.355   2.471 -10.667  1.00  0.00     0.173 A 
ATOM     53  C   UNL     1       3.074   2.971 -10.105  1.00  0.00     0.173 A 
ATOM     54  F   UNL     1       6.673   2.631 -10.475  1.00  0.00    -0.203 F 
ATOM     55  C   UNL     1       4.916   1.625 -11.683  1.00  0.00     0.198 A 
ATOM     56  C   UNL     1       2.636   2.108 -11.106  1.00  0.00     0.198 A 
ATOM     57  F   UNL     1       2.163   3.601  -9.349  1.00  0.00    -0.203 F 
ATOM     58  F   UNL     1       5.809   0.990 -12.455  1.00  0.00    -0.200 F 
ATOM     59  C   UNL     1       3.558   1.436 -11.895  1.00  0.00     0.200 A 
ATOM     60  F   UNL     1       1.324   1.914 -11.295  1.00  0.00    -0.200 F 
ATOM     61  F   UNL     1       3.138   0.605 -12.858  1.00  0.00    -0.200 F 
ENDBRANCH  27  51
BRANCH  39  62
ATOM     62  C   UNL     1       7.521   9.398  -9.320  1.00  0.00     0.064 A 
ATOM     63  C   UNL     1       6.641  10.220 -10.038  1.00  0.00     0.173 A 
ATOM     64  C   UNL     1       8.898   9.559  -9.532  1.00  0.00     0.173 A 
ATOM     65  F   UNL     1       5.315  10.089  -9.879  1.00  0.00    -0.203 F 
ATOM     66  C   UNL     1       7.123  11.163 -10.941  1.00  0.00     0.198 A 
ATOM     67  C   UNL     1       9.377  10.518 -10.420  1.00  0.00     0.198 A 
ATOM     68  F   UNL     1       9.778   8.797  -8.866  1.00  0.00    -0.203 F 
ATOM     69  F   UNL     1       6.264  11.920 -11.638  1.00  0.00    -0.200 F 
ATOM     70  C   UNL     1       8.489  11.317 -11.125  1.00  0.00     0.200 A 
ATOM     71  F   UNL     1      10.697  10.671 -10.591  1.00  0.00    -0.200 F 
ATOM     72  F   UNL     1       8.951  12.234 -11.986  1.00  0.00    -0.200 F 
ENDBRANCH  39  62
ENDBRANCH  13  14
ENDBRANCH   6   8
ENDBRANCH   3   4
ENDBRANCH   2   3
ENDBRANCH   1   2
BRANCH   1  73
ATOM     73  C   UNL     1       4.993  -2.877   2.741  1.00  0.00     0.002 C 
BRANCH  73  74
ATOM     74  C   UNL     1       6.462  -2.978   2.306  1.00  0.00     0.021 C 
BRANCH  74  75
ATOM     75  C   UNL     1       7.536  -2.470   3.263  1.00  0.00     0.116 C 
BRANCH  75  76
ATOM     76  N   UNL     1       7.269  -2.731   4.654  1.00  0.00    -0.352 N 
ATOM     77  C   UNL     1       8.175  -2.744   5.671  1.00  0.00     0.251 C 
ATOM     78  H   UNL     1       6.333  -2.920   4.895  1.00  0.00     0.163 HD
ATOM     79  O   UNL     1       7.840  -2.371   6.790  1.00  0.00    -0.269 OA
BRANCH  77  80
ATOM     80  C   UNL     1       9.558  -3.183   5.456  1.00  0.00     0.048 A 
ATOM     81  C   UNL     1      10.451  -2.173   5.069  1.00  0.00     0.014 A 
ATOM     82  C   UNL     1       9.994  -4.482   5.870  1.00  0.00     0.007 A 
ATOM     83  C   UNL     1      11.812  -2.430   5.050  1.00  0.00     0.001 A 
ATOM     84  C   UNL     1      11.400  -4.692   5.874  1.00  0.00    -0.017 A 
ATOM     85  C   UNL     1       9.177  -5.593   6.273  1.00  0.00     0.048 A 
ATOM     86  C   UNL     1      12.279  -3.678   5.454  1.00  0.00     0.009 A 
ATOM     87  C   UNL     1      11.939  -5.923   6.287  1.00  0.00     0.009 A 
ATOM     88  C   UNL     1       9.742  -6.812   6.686  1.00  0.00     0.014 A 
ATOM     89  C   UNL     1      11.122  -6.970   6.703  1.00  0.00     0.001 A 
BRANCH  85  90
ATOM     90  C   UNL     1       7.769  -5.687   5.857  1.00  0.00     0.252 C 
ATOM     91  O   UNL     1       7.551  -5.982   4.681  1.00  0.00    -0.269 OA
ATOM     92  N   UNL     1       6.703  -5.541   6.701  1.00  0.00    -0.345 N 
ATOM     93  H   UNL     1       5.845  -5.710   6.248  1.00  0.00     0.164 HD
BRANCH  92  94
ATOM     94  C   UNL     1       6.524  -5.195   8.120  1.00  0.00     0.134 C 
ATOM     95  C   UNL     1       5.638  -3.944   8.313  1.00  0.00     0.187 C 
ATOM     96  C   UNL     1       7.532  -4.410   8.959  1.00  0.00     0.187 C 
ATOM     97  O   UNL     1       6.506  -3.458   9.365  1.00  0.00    -0.377 OA
ENDBRANCH  92  94
ENDBRANCH  85  90
ENDBRANCH  77  80
ENDBRANCH  75  76
ENDBRANCH  74  75
ENDBRANCH  73  74
ENDBRANCH   1  73
TORSDOF 15
