REMARK SMILES Cc1ccc(N2CC[C@H]([NH+]3CCOCC3)[C@H](CCC(=O)NCCCCCCNC(=O)c3ccc(-c4c5nc(c(-c6c(F)c(F)c(F)c(F)c6F)c6ccc([nH]6)c(-c6c(F)c(F)c(F)c(F)c6F)c6nc(c(-c7c(F)c(F)c(F)c(F)c7F)c7ccc4[nH]7)C=C6)C=C5)cc3)C2)nc1
REMARK SMILES IDX 24 1 23 2 22 3 21 4 19 5 20 6 18 8 17 9 16 10 6 11 7 12
REMARK SMILES IDX 94 13 8 14 9 15 5 16 1 17 2 18 3 19 96 20 4 21 95 22 10 23
REMARK SMILES IDX 11 24 15 25 12 27 14 28 13 29 25 30 26 31 27 32 28 33 29 34
REMARK SMILES IDX 30 36 31 37 32 38 93 39 33 40 92 41 34 42 35 43 36 44 86 45
REMARK SMILES IDX 37 46 91 47 85 48 87 49 38 50 90 51 84 52 83 53 39 55 71 56
REMARK SMILES IDX 51 57 70 58 52 59 55 60 69 61 88 62 53 63 54 64 68 66 89 67
REMARK SMILES IDX 56 68 40 69 41 70 49 71 42 72 43 73 47 74 50 75 44 76 45 77
REMARK SMILES IDX 48 78 46 79 72 80 73 81 81 82 74 83 75 84 79 85 82 86 76 87
REMARK SMILES IDX 77 88 80 89 78 90 57 91 58 92 66 93 59 94 60 95 64 96 67 97
REMARK SMILES IDX 61 98 62 99 65 100 63 101
REMARK H PARENT 21 7 10 26 28 35 87 54 55 65
REMARK Flexibility Score: inf
ROOT
ATOM      1  C   UNL     1      -8.113   2.269  -3.724  1.00  0.00     0.002 C 
ENDROOT
BRANCH   1   2
ATOM      2  C   UNL     1      -7.057   1.291  -3.220  1.00  0.00     0.021 C 
BRANCH   2   3
ATOM      3  C   UNL     1      -7.165  -0.095  -3.870  1.00  0.00     0.116 C 
BRANCH   3   4
ATOM      4  N   UNL     1      -6.182  -0.199  -4.933  1.00  0.00    -0.356 N 
ATOM      5  C   UNL     1      -4.940  -0.764  -4.911  1.00  0.00     0.220 C 
ATOM      6  O   UNL     1      -4.162  -0.505  -5.831  1.00  0.00    -0.275 OA
ATOM      7  H   UNL     1      -6.450   0.195  -5.794  1.00  0.00     0.163 HD
BRANCH   5   8
ATOM      8  C   UNL     1      -4.566  -1.745  -3.814  1.00  0.00     0.100 C 
BRANCH   8   9
ATOM      9  C   UNL     1      -3.746  -1.180  -2.636  1.00  0.00     0.021 C 
BRANCH   9  10
ATOM     10  C   UNL     1      -4.572  -0.522  -1.508  1.00  0.00     0.067 C 
ATOM     11  N   UNL     1      -2.979   0.248   0.259  1.00  0.00    -0.356 N 
ATOM     12  C   UNL     1      -3.591  -0.564   1.291  1.00  0.00     0.124 C 
ATOM     13  C   UNL     1      -3.800   0.665  -0.864  1.00  0.00     0.127 C 
ATOM     14  C   UNL     1      -4.199  -1.818   0.683  1.00  0.00     0.087 C 
ATOM     15  C   UNL     1      -5.222  -1.421  -0.386  1.00  0.00     0.190 C 
BRANCH  11  16
ATOM     16  C   UNL     1      -1.610   0.141   0.112  1.00  0.00     0.128 A 
ATOM     17  C   UNL     1       2.632  -0.222  -0.039  1.00  0.00     0.046 C 
ATOM     18  C   UNL     1       1.149  -0.051   0.009  1.00  0.00    -0.033 A 
ATOM     19  C   UNL     1       0.542   1.187  -0.177  1.00  0.00     0.009 A 
ATOM     20  C   UNL     1       0.317  -1.138   0.227  1.00  0.00     0.117 A 
ATOM     21  C   UNL     1      -0.848   1.279  -0.137  1.00  0.00     0.047 A 
ATOM     22  N   UNL     1      -1.030  -1.063   0.299  1.00  0.00    -0.239 NA
ENDBRANCH  11  16
BRANCH  15  23
ATOM     23  N   UNL     1      -6.139  -2.497  -0.821  1.00  0.00    -0.328 N 
ATOM     24  C   UNL     1      -7.157  -2.870   0.196  1.00  0.00     0.291 C 
ATOM     25  C   UNL     1      -5.562  -3.724  -1.399  1.00  0.00     0.291 C 
ATOM     26  H   UNL     1      -6.576  -2.018  -1.609  1.00  0.00     0.348 HD
ATOM     27  C   UNL     1      -6.820  -4.072   1.104  1.00  0.00     0.221 C 
ATOM     28  C   UNL     1      -5.268  -4.883  -0.441  1.00  0.00     0.221 C 
ATOM     29  O   UNL     1      -6.415  -5.210   0.343  1.00  0.00    -0.370 OA
ENDBRANCH  15  23
ENDBRANCH   9  10
ENDBRANCH   8   9
ENDBRANCH   5   8
ENDBRANCH   3   4
ENDBRANCH   2   3
ENDBRANCH   1   2
BRANCH   1  30
ATOM     30  C   UNL     1      -9.479   2.065  -3.063  1.00  0.00     0.002 C 
BRANCH  30  31
ATOM     31  C   UNL     1      -9.514   2.291  -1.545  1.00  0.00     0.021 C 
BRANCH  31  32
ATOM     32  C   UNL     1      -8.924   3.617  -1.069  1.00  0.00     0.116 C 
BRANCH  32  33
ATOM     33  N   UNL     1      -9.561   4.755  -1.709  1.00  0.00    -0.352 N 
ATOM     34  C   UNL     1     -10.266   5.795  -1.163  1.00  0.00     0.251 C 
ATOM     35  H   UNL     1      -9.471   4.784  -2.689  1.00  0.00     0.163 HD
ATOM     36  O   UNL     1     -10.919   6.540  -1.885  1.00  0.00    -0.269 OA
BRANCH  34  37
ATOM     37  C   UNL     1     -10.249   6.023   0.297  1.00  0.00     0.039 A 
ATOM     38  C   UNL     1     -11.446   6.352   0.938  1.00  0.00     0.014 A 
ATOM     39  C   UNL     1      -9.055   5.964   1.022  1.00  0.00     0.014 A 
ATOM     40  C   UNL     1     -11.454   6.578   2.316  1.00  0.00     0.010 A 
ATOM     41  C   UNL     1      -9.076   6.127   2.405  1.00  0.00     0.010 A 
ATOM     42  C   UNL     1     -10.273   6.445   3.063  1.00  0.00    -0.014 A 
BRANCH  42  43
ATOM     43  C   UNL     1     -10.274   6.648   4.533  1.00  0.00     0.031 A 
ATOM     44  C   UNL     1      -9.525   7.801   5.138  1.00  0.00     0.074 A 
ATOM     45  C   UNL     1     -10.908   5.762   5.325  1.00  0.00     0.049 A 
ATOM     46  N   UNL     1      -9.366   8.116   6.399  1.00  0.00    -0.248 NA
ATOM     47  C   UNL     1      -8.841   8.708   4.203  1.00  0.00     0.031 C 
ATOM     48  C   UNL     1     -11.630   4.578   4.858  1.00  0.00     0.029 A 
ATOM     49  N   UNL     1     -11.038   5.714   6.690  1.00  0.00    -0.354 N 
ATOM     50  C   UNL     1      -8.555   9.243   6.408  1.00  0.00     0.074 A 
ATOM     51  C   UNL     1      -8.213   9.529   5.032  1.00  0.00     0.031 C 
ATOM     52  C   UNL     1     -12.145   3.932   5.916  1.00  0.00     0.029 A 
ATOM     53  C   UNL     1     -11.762   4.636   7.136  1.00  0.00     0.049 A 
ATOM     54  H   UNL     1     -10.649   6.389   7.293  1.00  0.00     0.167 HD
ATOM     55  C   UNL     1      -8.152   9.985   7.467  1.00  0.00     0.037 A 
ATOM     56  C   UNL     1     -12.078   4.258   8.389  1.00  0.00     0.037 A 
ATOM     57  C   UNL     1      -8.519   9.713   8.832  1.00  0.00     0.049 A 
ATOM     58  C   UNL     1     -11.623   5.104   9.547  1.00  0.00     0.074 A 
ATOM     59  C   UNL     1      -8.215  10.441   9.970  1.00  0.00     0.029 A 
ATOM     60  N   UNL     1      -9.272   8.623   9.244  1.00  0.00    -0.354 N 
ATOM     61  N   UNL     1     -10.916   6.207   9.539  1.00  0.00    -0.248 NA
ATOM     62  C   UNL     1     -12.019   4.655  10.890  1.00  0.00     0.031 C 
ATOM     63  C   UNL     1      -8.749   9.769  11.074  1.00  0.00     0.029 A 
ATOM     64  C   UNL     1      -9.426   8.648  10.621  1.00  0.00     0.049 A 
ATOM     65  H   UNL     1      -9.643   7.934   8.646  1.00  0.00     0.167 HD
ATOM     66  C   UNL     1     -10.803   6.599  10.865  1.00  0.00     0.074 A 
ATOM     67  C   UNL     1     -11.529   5.623  11.652  1.00  0.00     0.031 C 
ATOM     68  C   UNL     1     -10.157   7.671  11.386  1.00  0.00     0.037 A 
BRANCH  55  69
ATOM     69  C   UNL     1      -7.270  11.168   7.191  1.00  0.00     0.064 A 
ATOM     70  C   UNL     1      -7.760  12.317   6.551  1.00  0.00     0.173 A 
ATOM     71  C   UNL     1      -5.929  11.168   7.602  1.00  0.00     0.173 A 
ATOM     72  F   UNL     1      -9.032  12.364   6.129  1.00  0.00    -0.203 F 
ATOM     73  C   UNL     1      -6.932  13.411   6.308  1.00  0.00     0.198 A 
ATOM     74  C   UNL     1      -5.112  12.275   7.383  1.00  0.00     0.198 A 
ATOM     75  F   UNL     1      -5.411  10.098   8.223  1.00  0.00    -0.203 F 
ATOM     76  F   UNL     1      -7.410  14.477   5.652  1.00  0.00    -0.200 F 
ATOM     77  C   UNL     1      -5.612  13.391   6.730  1.00  0.00     0.200 A 
ATOM     78  F   UNL     1      -3.839  12.260   7.803  1.00  0.00    -0.200 F 
ATOM     79  F   UNL     1      -4.818  14.447   6.500  1.00  0.00    -0.200 F 
ENDBRANCH  55  69
BRANCH  56  80
ATOM     80  C   UNL     1     -12.893   3.036   8.611  1.00  0.00     0.064 A 
ATOM     81  C   UNL     1     -14.216   3.126   9.065  1.00  0.00     0.173 A 
ATOM     82  C   UNL     1     -12.369   1.757   8.373  1.00  0.00     0.173 A 
ATOM     83  F   UNL     1     -14.753   4.327   9.324  1.00  0.00    -0.203 F 
ATOM     84  C   UNL     1     -14.978   1.983   9.292  1.00  0.00     0.198 A 
ATOM     85  C   UNL     1     -13.142   0.615   8.575  1.00  0.00     0.198 A 
ATOM     86  F   UNL     1     -11.111   1.617   7.932  1.00  0.00    -0.203 F 
ATOM     87  F   UNL     1     -16.226   2.096   9.767  1.00  0.00    -0.200 F 
ATOM     88  C   UNL     1     -14.443   0.728   9.041  1.00  0.00     0.200 A 
ATOM     89  F   UNL     1     -12.626  -0.595   8.317  1.00  0.00    -0.200 F 
ATOM     90  F   UNL     1     -15.178  -0.371   9.255  1.00  0.00    -0.200 F 
ENDBRANCH  56  80
BRANCH  68  91
ATOM     91  C   UNL     1     -10.230   7.861  12.873  1.00  0.00     0.064 A 
ATOM     92  C   UNL     1      -9.523   7.031  13.755  1.00  0.00     0.173 A 
ATOM     93  C   UNL     1     -10.986   8.910  13.418  1.00  0.00     0.173 A 
ATOM     94  F   UNL     1      -8.799   6.005  13.283  1.00  0.00    -0.203 F 
ATOM     95  C   UNL     1      -9.589   7.231  15.132  1.00  0.00     0.198 A 
ATOM     96  C   UNL     1     -11.027   9.124  14.792  1.00  0.00     0.198 A 
ATOM     97  F   UNL     1     -11.675   9.735  12.615  1.00  0.00    -0.203 F 
ATOM     98  F   UNL     1      -8.943   6.399  15.959  1.00  0.00    -0.200 F 
ATOM     99  C   UNL     1     -10.335   8.281  15.648  1.00  0.00     0.200 A 
ATOM    100  F   UNL     1     -11.737  10.146  15.289  1.00  0.00    -0.200 F 
ATOM    101  F   UNL     1     -10.391   8.475  16.973  1.00  0.00    -0.200 F 
ENDBRANCH  68  91
ENDBRANCH  42  43
ENDBRANCH  34  37
ENDBRANCH  32  33
ENDBRANCH  31  32
ENDBRANCH  30  31
ENDBRANCH   1  30
TORSDOF 17
