REMARK SMILES CC(=O)N/C(=C\c1ccccc1)C(=O)N[C@H](C(=O)NCCCCCCNC(=O)c1ccc(-c2c3nc(c(-c4c(F)c(F)c(F)c(F)c4F)c4ccc([nH]4)c(-c4c(F)c(F)c(F)c(F)c4F)c4nc(c(-c5c(F)c(F)c(F)c(F)c5F)c5ccc2[nH]5)C=C4)C=C3)cc1)C(C)C
REMARK SMILES IDX 22 1 21 2 20 3 19 4 17 5 18 6 16 8 15 9 13 10 14 11 5 13
REMARK SMILES IDX 6 14 4 15 1 16 2 17 3 18 7 20 8 21 12 22 9 23 11 24 10 25
REMARK SMILES IDX 92 26 93 27 94 28 23 29 24 30 25 31 26 32 27 33 28 35 29 36
REMARK SMILES IDX 30 37 91 38 31 39 90 40 32 41 33 42 34 43 84 44 35 45 89 46
REMARK SMILES IDX 83 47 85 48 36 49 88 50 82 51 81 52 37 54 69 55 49 56 68 57
REMARK SMILES IDX 50 58 53 59 67 60 86 61 51 62 52 63 66 65 87 66 54 67 38 68
REMARK SMILES IDX 39 69 47 70 40 71 41 72 45 73 48 74 42 75 43 76 46 77 44 78
REMARK SMILES IDX 70 79 71 80 79 81 72 82 73 83 77 84 80 85 74 86 75 87 78 88
REMARK SMILES IDX 76 89 55 90 56 91 64 92 57 93 58 94 62 95 65 96 59 97 60 98
REMARK SMILES IDX 63 99 61 100
REMARK H PARENT 19 7 15 12 4 19 26 34 85 53 53 64
REMARK Flexibility Score: inf
ROOT
ATOM      1  C   UNL     1       4.308   3.537  -3.934  1.00  0.00     0.002 C 
ENDROOT
BRANCH   1   2
ATOM      2  C   UNL     1       4.442   2.387  -4.936  1.00  0.00     0.021 C 
BRANCH   2   3
ATOM      3  C   UNL     1       4.819   1.029  -4.349  1.00  0.00     0.116 C 
BRANCH   3   4
ATOM      4  N   UNL     1       3.850   0.532  -3.393  1.00  0.00    -0.354 N 
ATOM      5  C   UNL     1       3.404  -0.736  -3.154  1.00  0.00     0.242 C 
ATOM      6  O   UNL     1       2.593  -0.890  -2.236  1.00  0.00    -0.273 OA
ATOM      7  H   UNL     1       3.447   1.224  -2.821  1.00  0.00     0.163 HD
BRANCH   5   8
ATOM      8  C   UNL     1       3.805  -1.934  -4.050  1.00  0.00     0.174 C 
BRANCH   8   9
ATOM      9  N   UNL     1       3.083  -1.744  -5.321  1.00  0.00    -0.339 N 
ATOM     10  C   UNL     1       1.918  -2.243  -5.841  1.00  0.00     0.268 C 
ATOM     11  O   UNL     1       1.403  -1.542  -6.713  1.00  0.00    -0.268 OA
ATOM     12  H   UNL     1       3.538  -1.119  -5.930  1.00  0.00     0.164 HD
BRANCH  10  13
ATOM     13  C   UNL     1       1.333  -3.595  -5.471  1.00  0.00     0.107 C 
ATOM     14  C   UNL     1       1.387  -3.983  -4.180  1.00  0.00     0.040 C 
BRANCH  13  15
ATOM     15  N   UNL     1       0.632  -4.394  -6.362  1.00  0.00    -0.322 N 
ATOM     16  C   UNL     1       0.513  -3.246  -8.606  1.00  0.00     0.114 C 
ATOM     17  C   UNL     1       0.220  -4.359  -7.654  1.00  0.00     0.221 C 
ATOM     18  O   UNL     1      -0.457  -5.322  -8.039  1.00  0.00    -0.275 OA
ATOM     19  H   UNL     1       0.351  -5.233  -5.929  1.00  0.00     0.170 HD
ENDBRANCH  13  15
BRANCH  14  20
ATOM     20  C   UNL     1       1.122  -5.294  -3.548  1.00  0.00    -0.023 A 
ATOM     21  C   UNL     1       0.762  -5.307  -2.192  1.00  0.00     0.008 A 
ATOM     22  C   UNL     1       1.368  -6.524  -4.178  1.00  0.00     0.008 A 
ATOM     23  C   UNL     1       0.601  -6.510  -1.501  1.00  0.00     0.001 A 
ATOM     24  C   UNL     1       1.181  -7.730  -3.494  1.00  0.00     0.001 A 
ATOM     25  C   UNL     1       0.797  -7.722  -2.156  1.00  0.00     0.000 A 
ENDBRANCH  14  20
ENDBRANCH  10  13
ENDBRANCH   8   9
BRANCH   8  26
ATOM     26  C   UNL     1       5.321  -2.196  -4.171  1.00  0.00     0.015 C 
ATOM     27  C   UNL     1       5.924  -2.448  -2.779  1.00  0.00     0.010 C 
ATOM     28  C   UNL     1       5.584  -3.411  -5.065  1.00  0.00     0.010 C 
ENDBRANCH   8  26
ENDBRANCH   5   8
ENDBRANCH   3   4
ENDBRANCH   2   3
ENDBRANCH   1   2
BRANCH   1  29
ATOM     29  C   UNL     1       5.511   3.774  -3.019  1.00  0.00     0.002 C 
BRANCH  29  30
ATOM     30  C   UNL     1       6.857   3.956  -3.721  1.00  0.00     0.021 C 
BRANCH  30  31
ATOM     31  C   UNL     1       6.888   5.023  -4.809  1.00  0.00     0.116 C 
BRANCH  31  32
ATOM     32  N   UNL     1       6.573   6.349  -4.306  1.00  0.00    -0.352 N 
ATOM     33  C   UNL     1       7.248   7.529  -4.489  1.00  0.00     0.251 C 
ATOM     34  H   UNL     1       5.758   6.409  -3.757  1.00  0.00     0.163 HD
ATOM     35  O   UNL     1       6.918   8.534  -3.862  1.00  0.00    -0.269 OA
BRANCH  33  36
ATOM     36  C   UNL     1       8.394   7.588  -5.420  1.00  0.00     0.039 A 
ATOM     37  C   UNL     1       9.561   8.239  -5.010  1.00  0.00     0.014 A 
ATOM     38  C   UNL     1       8.323   7.006  -6.689  1.00  0.00     0.014 A 
ATOM     39  C   UNL     1      10.676   8.254  -5.850  1.00  0.00     0.010 A 
ATOM     40  C   UNL     1       9.459   6.956  -7.493  1.00  0.00     0.010 A 
ATOM     41  C   UNL     1      10.645   7.583  -7.084  1.00  0.00    -0.014 A 
BRANCH  41  42
ATOM     42  C   UNL     1      11.845   7.532  -7.957  1.00  0.00     0.031 A 
ATOM     43  C   UNL     1      11.821   8.175  -9.316  1.00  0.00     0.074 A 
ATOM     44  C   UNL     1      12.938   6.857  -7.549  1.00  0.00     0.049 A 
ATOM     45  N   UNL     1      12.745   8.188 -10.243  1.00  0.00    -0.248 NA
ATOM     46  C   UNL     1      10.584   8.876  -9.694  1.00  0.00     0.031 C 
ATOM     47  C   UNL     1      13.067   6.151  -6.273  1.00  0.00     0.029 A 
ATOM     48  N   UNL     1      14.145   6.646  -8.168  1.00  0.00    -0.354 N 
ATOM     49  C   UNL     1      12.198   8.885 -11.312  1.00  0.00     0.074 A 
ATOM     50  C   UNL     1      10.842   9.229 -10.944  1.00  0.00     0.031 C 
ATOM     51  C   UNL     1      14.291   5.605  -6.195  1.00  0.00     0.029 A 
ATOM     52  C   UNL     1      15.018   5.886  -7.429  1.00  0.00     0.049 A 
ATOM     53  H   UNL     1      14.364   7.005  -9.059  1.00  0.00     0.167 HD
ATOM     54  C   UNL     1      12.783   9.228 -12.485  1.00  0.00     0.037 A 
ATOM     55  C   UNL     1      16.262   5.458  -7.717  1.00  0.00     0.037 A 
ATOM     56  C   UNL     1      14.139   8.901 -12.839  1.00  0.00     0.049 A 
ATOM     57  C   UNL     1      16.884   5.844  -9.032  1.00  0.00     0.074 A 
ATOM     58  C   UNL     1      14.841   9.250 -13.979  1.00  0.00     0.029 A 
ATOM     59  N   UNL     1      14.999   8.142 -12.057  1.00  0.00    -0.354 N 
ATOM     60  N   UNL     1      16.381   6.562 -10.007  1.00  0.00    -0.248 NA
ATOM     61  C   UNL     1      18.251   5.368  -9.283  1.00  0.00     0.031 C 
ATOM     62  C   UNL     1      16.107   8.658 -13.912  1.00  0.00     0.029 A 
ATOM     63  C   UNL     1      16.216   7.992 -12.703  1.00  0.00     0.049 A 
ATOM     64  H   UNL     1      14.777   7.766 -11.175  1.00  0.00     0.167 HD
ATOM     65  C   UNL     1      17.377   6.648 -10.971  1.00  0.00     0.074 A 
ATOM     66  C   UNL     1      18.519   5.923 -10.456  1.00  0.00     0.031 C 
ATOM     67  C   UNL     1      17.347   7.272 -12.174  1.00  0.00     0.037 A 
BRANCH  54  68
ATOM     68  C   UNL     1      11.958  10.002 -13.474  1.00  0.00     0.064 A 
ATOM     69  C   UNL     1      11.576  11.332 -13.235  1.00  0.00     0.173 A 
ATOM     70  C   UNL     1      11.581   9.423 -14.695  1.00  0.00     0.173 A 
ATOM     71  F   UNL     1      11.902  11.930 -12.079  1.00  0.00    -0.203 F 
ATOM     72  C   UNL     1      10.824  12.041 -14.168  1.00  0.00     0.198 A 
ATOM     73  C   UNL     1      10.857  10.146 -15.639  1.00  0.00     0.198 A 
ATOM     74  F   UNL     1      11.924   8.157 -14.978  1.00  0.00    -0.203 F 
ATOM     75  F   UNL     1      10.429  13.293 -13.894  1.00  0.00    -0.200 F 
ATOM     76  C   UNL     1      10.472  11.451 -15.372  1.00  0.00     0.200 A 
ATOM     77  F   UNL     1      10.531   9.580 -16.809  1.00  0.00    -0.200 F 
ATOM     78  F   UNL     1       9.757  12.139 -16.273  1.00  0.00    -0.200 F 
ENDBRANCH  54  68
BRANCH  55  79
ATOM     79  C   UNL     1      17.009   4.629  -6.734  1.00  0.00     0.064 A 
ATOM     80  C   UNL     1      18.140   5.133  -6.076  1.00  0.00     0.173 A 
ATOM     81  C   UNL     1      16.613   3.317  -6.436  1.00  0.00     0.173 A 
ATOM     82  F   UNL     1      18.570   6.376  -6.341  1.00  0.00    -0.203 F 
ATOM     83  C   UNL     1      18.860   4.349  -5.177  1.00  0.00     0.198 A 
ATOM     84  C   UNL     1      17.315   2.545  -5.513  1.00  0.00     0.198 A 
ATOM     85  F   UNL     1      15.534   2.788  -7.032  1.00  0.00    -0.203 F 
ATOM     86  F   UNL     1      19.965   4.839  -4.601  1.00  0.00    -0.200 F 
ATOM     87  C   UNL     1      18.443   3.058  -4.891  1.00  0.00     0.200 A 
ATOM     88  F   UNL     1      16.899   1.303  -5.227  1.00  0.00    -0.200 F 
ATOM     89  F   UNL     1      19.133   2.305  -4.023  1.00  0.00    -0.200 F 
ENDBRANCH  55  79
BRANCH  67  90
ATOM     90  C   UNL     1      18.599   7.231 -13.003  1.00  0.00     0.064 A 
ATOM     91  C   UNL     1      19.041   6.051 -13.618  1.00  0.00     0.173 A 
ATOM     92  C   UNL     1      19.345   8.401 -13.216  1.00  0.00     0.173 A 
ATOM     93  F   UNL     1      18.371   4.902 -13.434  1.00  0.00    -0.203 F 
ATOM     94  C   UNL     1      20.198   6.036 -14.392  1.00  0.00     0.198 A 
ATOM     95  C   UNL     1      20.483   8.390 -14.018  1.00  0.00     0.198 A 
ATOM     96  F   UNL     1      18.963   9.559 -12.658  1.00  0.00    -0.203 F 
ATOM     97  F   UNL     1      20.630   4.885 -14.926  1.00  0.00    -0.200 F 
ATOM     98  C   UNL     1      20.913   7.207 -14.598  1.00  0.00     0.200 A 
ATOM     99  F   UNL     1      21.163   9.525 -14.229  1.00  0.00    -0.200 F 
ATOM    100  F   UNL     1      22.022   7.192 -15.350  1.00  0.00    -0.200 F 
ENDBRANCH  67  90
ENDBRANCH  41  42
ENDBRANCH  33  36
ENDBRANCH  31  32
ENDBRANCH  30  31
ENDBRANCH  29  30
ENDBRANCH   1  29
TORSDOF 18
