REMARK SMILES C[C@H]1CN(S(=O)(=O)N2CCO[C@H](CC(=O)NCCCCCCNC(=O)c3ccc(-c4c5nc(c(-c6c(F)c(F)c(F)c(F)c6F)c6ccc([nH]6)c(-c6c(F)c(F)c(F)c(F)c6F)c6nc(c(-c7c(F)c(F)c(F)c(F)c7F)c7ccc4[nH]7)C=C6)C=C5)cc3)C2)C[C@H](C)O1
REMARK SMILES IDX 19 1 18 2 17 3 16 4 14 5 15 6 13 8 12 9 8 10 9 11 89 12
REMARK SMILES IDX 10 13 11 14 5 15 6 16 7 17 4 18 1 19 2 20 3 21 93 22 91 23
REMARK SMILES IDX 90 24 92 25 20 26 21 27 22 28 23 29 24 30 25 32 26 33 27 34
REMARK SMILES IDX 88 35 28 36 87 37 29 38 30 39 31 40 81 41 32 42 86 43 80 44
REMARK SMILES IDX 82 45 33 46 85 47 79 48 78 49 34 51 66 52 46 53 65 54 47 55
REMARK SMILES IDX 50 56 64 57 83 58 48 59 49 60 63 62 84 63 51 64 35 65 36 66
REMARK SMILES IDX 44 67 37 68 38 69 42 70 45 71 39 72 40 73 43 74 41 75 67 76
REMARK SMILES IDX 68 77 76 78 69 79 70 80 74 81 77 82 71 83 72 84 75 85 73 86
REMARK SMILES IDX 52 87 53 88 61 89 54 90 55 91 59 92 62 93 56 94 57 95 60 96
REMARK SMILES IDX 58 97
REMARK H PARENT 16 7 23 31 82 50 50 61
REMARK Flexibility Score: inf
ROOT
ATOM      1  C   UNL     1       1.367  -0.392   5.018  1.00  0.00     0.002 C 
ENDROOT
BRANCH   1   2
ATOM      2  C   UNL     1       1.446  -1.260   3.759  1.00  0.00     0.021 C 
BRANCH   2   3
ATOM      3  C   UNL     1       2.832  -1.680   3.231  1.00  0.00     0.116 C 
BRANCH   3   4
ATOM      4  N   UNL     1       3.090  -3.094   3.478  1.00  0.00    -0.356 N 
ATOM      5  C   UNL     1       3.417  -4.138   2.666  1.00  0.00     0.222 C 
ATOM      6  O   UNL     1       3.566  -5.240   3.201  1.00  0.00    -0.275 OA
ATOM      7  H   UNL     1       3.012  -3.346   4.426  1.00  0.00     0.163 HD
BRANCH   5   8
ATOM      8  C   UNL     1       3.610  -4.005   1.166  1.00  0.00     0.133 C 
BRANCH   8   9
ATOM      9  C   UNL     1       2.336  -3.809   0.348  1.00  0.00     0.142 C 
ATOM     10  N   UNL     1      -0.031  -4.468  -0.102  1.00  0.00    -0.184 NA
ATOM     11  C   UNL     1       0.267  -4.518  -1.546  1.00  0.00     0.132 C 
ATOM     12  C   UNL     1       1.152  -4.716   0.765  1.00  0.00     0.136 C 
ATOM     13  C   UNL     1       1.474  -3.627  -1.857  1.00  0.00     0.177 C 
ATOM     14  O   UNL     1       2.623  -3.985  -1.060  1.00  0.00    -0.375 OA
BRANCH  10  15
ATOM     15  S   UNL     1      -1.471  -3.838   0.455  1.00  0.00     0.282 S 
ATOM     16  O   UNL     1      -1.544  -3.992   1.885  1.00  0.00    -0.195 OA
ATOM     17  O   UNL     1      -2.530  -4.298  -0.416  1.00  0.00    -0.195 OA
BRANCH  15  18
ATOM     18  N   UNL     1      -1.259  -2.195   0.132  1.00  0.00    -0.184 NA
ATOM     19  C   UNL     1       1.513   0.306   0.442  1.00  0.00     0.040 C 
ATOM     20  C   UNL     1       0.143  -0.278   0.159  1.00  0.00     0.130 C 
ATOM     21  C   UNL     1      -0.241  -1.519   0.955  1.00  0.00     0.135 C 
ATOM     22  O   UNL     1      -0.905   0.663   0.436  1.00  0.00    -0.373 OA
ATOM     23  C   UNL     1      -2.169   0.177  -0.094  1.00  0.00     0.130 C 
ATOM     24  C   UNL     1      -2.495  -1.337   0.199  1.00  0.00     0.135 C 
ATOM     25  C   UNL     1      -2.207   0.514  -1.580  1.00  0.00     0.040 C 
ENDBRANCH  15  18
ENDBRANCH  10  15
ENDBRANCH   8   9
ENDBRANCH   5   8
ENDBRANCH   3   4
ENDBRANCH   2   3
ENDBRANCH   1   2
BRANCH   1  26
ATOM     26  C   UNL     1       1.894   1.049   4.917  1.00  0.00     0.002 C 
BRANCH  26  27
ATOM     27  C   UNL     1       1.277   2.012   3.889  1.00  0.00     0.021 C 
BRANCH  27  28
ATOM     28  C   UNL     1      -0.247   2.119   3.831  1.00  0.00     0.116 C 
BRANCH  28  29
ATOM     29  N   UNL     1      -0.783   2.862   4.961  1.00  0.00    -0.352 N 
ATOM     30  C   UNL     1      -1.264   4.149   5.031  1.00  0.00     0.251 C 
ATOM     31  H   UNL     1      -0.805   2.365   5.811  1.00  0.00     0.163 HD
ATOM     32  O   UNL     1      -1.432   4.676   6.128  1.00  0.00    -0.269 OA
BRANCH  30  33
ATOM     33  C   UNL     1      -1.580   4.922   3.804  1.00  0.00     0.039 A 
ATOM     34  C   UNL     1      -1.223   6.275   3.740  1.00  0.00     0.014 A 
ATOM     35  C   UNL     1      -2.288   4.348   2.747  1.00  0.00     0.014 A 
ATOM     36  C   UNL     1      -1.513   7.028   2.595  1.00  0.00     0.010 A 
ATOM     37  C   UNL     1      -2.521   5.080   1.581  1.00  0.00     0.010 A 
ATOM     38  C   UNL     1      -2.135   6.428   1.489  1.00  0.00    -0.014 A 
BRANCH  38  39
ATOM     39  C   UNL     1      -2.401   7.178   0.230  1.00  0.00     0.031 A 
ATOM     40  C   UNL     1      -3.816   7.384  -0.242  1.00  0.00     0.074 A 
ATOM     41  C   UNL     1      -1.376   7.597  -0.538  1.00  0.00     0.049 A 
ATOM     42  N   UNL     1      -4.253   7.863  -1.381  1.00  0.00    -0.248 NA
ATOM     43  C   UNL     1      -4.882   6.971   0.683  1.00  0.00     0.031 C 
ATOM     44  C   UNL     1       0.041   7.454  -0.207  1.00  0.00     0.029 A 
ATOM     45  N   UNL     1      -1.367   8.208  -1.770  1.00  0.00    -0.354 N 
ATOM     46  C   UNL     1      -5.638   7.790  -1.316  1.00  0.00     0.074 A 
ATOM     47  C   UNL     1      -5.969   7.177  -0.047  1.00  0.00     0.031 C 
ATOM     48  C   UNL     1       0.781   7.965  -1.204  1.00  0.00     0.029 A 
ATOM     49  C   UNL     1      -0.105   8.422  -2.271  1.00  0.00     0.049 A 
ATOM     50  H   UNL     1      -2.188   8.467  -2.249  1.00  0.00     0.167 HD
ATOM     51  C   UNL     1      -6.552   8.209  -2.225  1.00  0.00     0.037 A 
ATOM     52  C   UNL     1       0.295   8.905  -3.464  1.00  0.00     0.037 A 
ATOM     53  C   UNL     1      -6.220   8.833  -3.480  1.00  0.00     0.049 A 
ATOM     54  C   UNL     1      -0.739   9.316  -4.480  1.00  0.00     0.074 A 
ATOM     55  C   UNL     1      -7.076   9.332  -4.447  1.00  0.00     0.029 A 
ATOM     56  N   UNL     1      -4.929   9.038  -3.945  1.00  0.00    -0.354 N 
ATOM     57  N   UNL     1      -2.046   9.283  -4.390  1.00  0.00    -0.248 NA
ATOM     58  C   UNL     1      -0.243   9.831  -5.766  1.00  0.00     0.031 C 
ATOM     59  C   UNL     1      -6.305   9.781  -5.524  1.00  0.00     0.029 A 
ATOM     60  C   UNL     1      -4.967   9.628  -5.198  1.00  0.00     0.049 A 
ATOM     61  H   UNL     1      -4.108   8.799  -3.457  1.00  0.00     0.167 HD
ATOM     62  C   UNL     1      -2.526   9.809  -5.583  1.00  0.00     0.074 A 
ATOM     63  C   UNL     1      -1.371  10.155  -6.383  1.00  0.00     0.031 C 
ATOM     64  C   UNL     1      -3.810   9.992  -5.976  1.00  0.00     0.037 A 
BRANCH  51  65
ATOM     65  C   UNL     1      -8.005   7.995  -1.905  1.00  0.00     0.064 A 
ATOM     66  C   UNL     1      -8.647   8.700  -0.875  1.00  0.00     0.173 A 
ATOM     67  C   UNL     1      -8.779   7.106  -2.669  1.00  0.00     0.173 A 
ATOM     68  F   UNL     1      -7.955   9.557  -0.110  1.00  0.00    -0.203 F 
ATOM     69  C   UNL     1      -9.997   8.495  -0.598  1.00  0.00     0.198 A 
ATOM     70  C   UNL     1     -10.136   6.932  -2.413  1.00  0.00     0.198 A 
ATOM     71  F   UNL     1      -8.221   6.415  -3.674  1.00  0.00    -0.203 F 
ATOM     72  F   UNL     1     -10.573   9.137   0.428  1.00  0.00    -0.200 F 
ATOM     73  C   UNL     1     -10.742   7.618  -1.371  1.00  0.00     0.200 A 
ATOM     74  F   UNL     1     -10.858   6.098  -3.174  1.00  0.00    -0.200 F 
ATOM     75  F   UNL     1     -12.042   7.429  -1.109  1.00  0.00    -0.200 F 
ENDBRANCH  51  65
BRANCH  52  76
ATOM     76  C   UNL     1       1.747   9.029  -3.770  1.00  0.00     0.064 A 
ATOM     77  C   UNL     1       2.345  10.287  -3.925  1.00  0.00     0.173 A 
ATOM     78  C   UNL     1       2.561   7.898  -3.928  1.00  0.00     0.173 A 
ATOM     79  F   UNL     1       1.605  11.400  -3.807  1.00  0.00    -0.203 F 
ATOM     80  C   UNL     1       3.695  10.409  -4.251  1.00  0.00     0.198 A 
ATOM     81  C   UNL     1       3.918   8.021  -4.220  1.00  0.00     0.198 A 
ATOM     82  F   UNL     1       2.041   6.669  -3.788  1.00  0.00    -0.203 F 
ATOM     83  F   UNL     1       4.228  11.623  -4.448  1.00  0.00    -0.200 F 
ATOM     84  C   UNL     1       4.482   9.276  -4.392  1.00  0.00     0.200 A 
ATOM     85  F   UNL     1       4.678   6.924  -4.339  1.00  0.00    -0.200 F 
ATOM     86  F   UNL     1       5.780   9.393  -4.702  1.00  0.00    -0.200 F 
ENDBRANCH  52  76
BRANCH  64  87
ATOM     87  C   UNL     1      -4.052  10.652  -7.304  1.00  0.00     0.064 A 
ATOM     88  C   UNL     1      -3.811   9.990  -8.517  1.00  0.00     0.173 A 
ATOM     89  C   UNL     1      -4.613  11.938  -7.359  1.00  0.00     0.173 A 
ATOM     90  F   UNL     1      -3.261   8.766  -8.521  1.00  0.00    -0.203 F 
ATOM     91  C   UNL     1      -4.113  10.595  -9.734  1.00  0.00     0.198 A 
ATOM     92  C   UNL     1      -4.945  12.526  -8.576  1.00  0.00     0.198 A 
ATOM     93  F   UNL     1      -4.869  12.612  -6.228  1.00  0.00    -0.203 F 
ATOM     94  F   UNL     1      -3.844   9.958 -10.882  1.00  0.00    -0.200 F 
ATOM     95  C   UNL     1      -4.691  11.856  -9.762  1.00  0.00     0.200 A 
ATOM     96  F   UNL     1      -5.519  13.736  -8.599  1.00  0.00    -0.200 F 
ATOM     97  F   UNL     1      -5.003  12.426 -10.934  1.00  0.00    -0.200 F 
ENDBRANCH  64  87
ENDBRANCH  38  39
ENDBRANCH  30  33
ENDBRANCH  28  29
ENDBRANCH  27  28
ENDBRANCH  26  27
ENDBRANCH   1  26
TORSDOF 16
