REMARK SMILES CC[NH+]1CCC(CC(=O)N[C@H](C(=O)NCCCCCCNC(=O)c2ccc(-c3c4nc(c(-c5c(F)c(F)c(F)c(F)c5F)c5ccc([nH]5)c(-c5c(F)c(F)c(F)c(F)c5F)c5nc(c(-c6c(F)c(F)c(F)c(F)c6F)c6ccc3[nH]6)C=C5)C=C4)cc2)c2ccc(F)cc2F)CC1
REMARK SMILES IDX 16 1 15 2 14 3 12 4 13 5 11 7 10 8 8 9 9 10 7 12 6 13 3 14
REMARK SMILES IDX 4 15 96 16 5 18 95 19 2 20 1 21 87 22 88 23 93 24 89 25
REMARK SMILES IDX 92 26 94 27 90 28 91 29 17 30 18 31 19 32 20 33 21 34 22 35
REMARK SMILES IDX 23 37 24 38 25 39 86 40 26 41 85 42 27 43 28 44 29 45 79 46
REMARK SMILES IDX 30 47 84 48 78 49 80 50 31 51 83 52 77 53 76 54 32 56 64 57
REMARK SMILES IDX 44 58 63 59 45 60 48 61 62 62 81 63 46 64 47 65 61 67 82 68
REMARK SMILES IDX 49 69 33 70 34 71 42 72 35 73 36 74 40 75 43 76 37 77 38 78
REMARK SMILES IDX 41 79 39 80 65 81 66 82 74 83 67 84 68 85 72 86 75 87 69 88
REMARK SMILES IDX 70 89 73 90 71 91 50 92 51 93 59 94 52 95 53 96 57 97 60 98
REMARK SMILES IDX 54 99 55 100 58 101 56 102
REMARK H PARENT 14 6 10 11 3 17 21 36 80 55 48 66
REMARK Flexibility Score: inf
ROOT
ATOM      1  C   UNL     1       1.909   7.308  -2.888  1.00  0.00     0.021 C 
ENDROOT
BRANCH   1   2
ATOM      2  C   UNL     1       0.813   6.245  -2.849  1.00  0.00     0.116 C 
BRANCH   2   3
ATOM      3  N   UNL     1       0.164   6.022  -4.135  1.00  0.00    -0.354 N 
ATOM      4  C   UNL     1       0.222   4.940  -4.985  1.00  0.00     0.247 C 
ATOM      5  O   UNL     1      -0.507   4.928  -5.980  1.00  0.00    -0.272 OA
ATOM      6  H   UNL     1      -0.406   6.763  -4.446  1.00  0.00     0.163 HD
BRANCH   4   7
ATOM      7  C   UNL     1       1.137   3.754  -4.630  1.00  0.00     0.205 C 
BRANCH   7   8
ATOM      8  N   UNL     1       0.364   2.553  -4.312  1.00  0.00    -0.340 N 
ATOM      9  C   UNL     1       0.324   1.826  -3.157  1.00  0.00     0.221 C 
ATOM     10  O   UNL     1      -0.228   0.725  -3.175  1.00  0.00    -0.275 OA
ATOM     11  H   UNL     1      -0.211   2.219  -5.039  1.00  0.00     0.164 HD
BRANCH   9  12
ATOM     12  C   UNL     1       0.897   2.385  -1.859  1.00  0.00     0.104 C 
BRANCH  12  13
ATOM     13  C   UNL     1       2.365   2.049  -1.508  1.00  0.00     0.009 C 
ATOM     14  N   UNL     1       4.986   3.297  -1.098  1.00  0.00    -0.335 N 
ATOM     15  C   UNL     1       4.814   2.353  -2.208  1.00  0.00     0.262 C 
ATOM     16  C   UNL     1       4.271   2.776   0.075  1.00  0.00     0.262 C 
ATOM     17  H   UNL     1       4.583   4.200  -1.347  1.00  0.00     0.348 HD
ATOM     18  C   UNL     1       3.354   2.410  -2.617  1.00  0.00     0.066 C 
ATOM     19  C   UNL     1       2.759   2.769  -0.199  1.00  0.00     0.066 C 
BRANCH  14  20
ATOM     20  C   UNL     1       6.400   3.570  -0.831  1.00  0.00     0.258 C 
ATOM     21  C   UNL     1       6.959   4.564  -1.850  1.00  0.00     0.071 C 
ENDBRANCH  14  20
ENDBRANCH  12  13
ENDBRANCH   9  12
ENDBRANCH   7   8
BRANCH   7  22
ATOM     22  C   UNL     1       2.266   3.490  -5.625  1.00  0.00     0.020 A 
ATOM     23  C   UNL     1       2.604   2.195  -6.067  1.00  0.00     0.012 A 
ATOM     24  C   UNL     1       3.149   4.533  -5.944  1.00  0.00     0.131 A 
ATOM     25  C   UNL     1       3.811   1.961  -6.732  1.00  0.00     0.040 A 
ATOM     26  C   UNL     1       4.348   4.309  -6.612  1.00  0.00     0.078 A 
ATOM     27  F   UNL     1       2.883   5.779  -5.536  1.00  0.00    -0.206 F 
ATOM     28  C   UNL     1       4.678   3.017  -6.983  1.00  0.00     0.126 A 
ATOM     29  F   UNL     1       5.860   2.778  -7.566  1.00  0.00    -0.207 F 
ENDBRANCH   7  22
ENDBRANCH   4   7
ENDBRANCH   2   3
ENDBRANCH   1   2
BRANCH   1  30
ATOM     30  C   UNL     1       1.393   8.734  -3.079  1.00  0.00     0.002 C 
BRANCH  30  31
ATOM     31  C   UNL     1       0.372   9.194  -2.034  1.00  0.00     0.002 C 
BRANCH  31  32
ATOM     32  C   UNL     1       0.834   9.094  -0.576  1.00  0.00     0.021 C 
BRANCH  32  33
ATOM     33  C   UNL     1       2.076   9.913  -0.238  1.00  0.00     0.116 C 
BRANCH  33  34
ATOM     34  N   UNL     1       1.873  11.334  -0.466  1.00  0.00    -0.352 N 
ATOM     35  C   UNL     1       2.102  12.401   0.364  1.00  0.00     0.251 C 
ATOM     36  H   UNL     1       1.516  11.566  -1.353  1.00  0.00     0.163 HD
ATOM     37  O   UNL     1       1.690  13.515   0.056  1.00  0.00    -0.269 OA
BRANCH  35  38
ATOM     38  C   UNL     1       2.831  12.218   1.638  1.00  0.00     0.039 A 
ATOM     39  C   UNL     1       2.369  12.889   2.774  1.00  0.00     0.014 A 
ATOM     40  C   UNL     1       3.982  11.429   1.712  1.00  0.00     0.014 A 
ATOM     41  C   UNL     1       3.034  12.732   3.992  1.00  0.00     0.010 A 
ATOM     42  C   UNL     1       4.606  11.220   2.941  1.00  0.00     0.010 A 
ATOM     43  C   UNL     1       4.142  11.875   4.091  1.00  0.00    -0.014 A 
BRANCH  43  44
ATOM     44  C   UNL     1       4.822  11.663   5.394  1.00  0.00     0.031 A 
ATOM     45  C   UNL     1       6.238  12.126   5.598  1.00  0.00     0.074 A 
ATOM     46  C   UNL     1       4.175  11.015   6.381  1.00  0.00     0.049 A 
ATOM     47  N   UNL     1       7.003  12.009   6.655  1.00  0.00    -0.248 NA
ATOM     48  C   UNL     1       6.891  12.786   4.457  1.00  0.00     0.031 C 
ATOM     49  C   UNL     1       2.818  10.473   6.288  1.00  0.00     0.029 A 
ATOM     50  N   UNL     1       4.571  10.701   7.657  1.00  0.00    -0.354 N 
ATOM     51  C   UNL     1       8.223  12.571   6.304  1.00  0.00     0.074 A 
ATOM     52  C   UNL     1       8.117  12.980   4.920  1.00  0.00     0.031 C 
ATOM     53  C   UNL     1       2.485   9.918   7.464  1.00  0.00     0.029 A 
ATOM     54  C   UNL     1       3.612  10.039   8.384  1.00  0.00     0.049 A 
ATOM     55  H   UNL     1       5.458  10.929   8.017  1.00  0.00     0.167 HD
ATOM     56  C   UNL     1       9.324  12.753   7.073  1.00  0.00     0.037 A 
ATOM     57  C   UNL     1       3.639   9.586   9.652  1.00  0.00     0.037 A 
ATOM     58  C   UNL     1       9.420  12.367   8.457  1.00  0.00     0.049 A 
ATOM     59  C   UNL     1       4.868   9.818  10.488  1.00  0.00     0.074 A 
ATOM     60  C   UNL     1      10.477  12.544   9.333  1.00  0.00     0.029 A 
ATOM     61  N   UNL     1       8.415  11.728   9.168  1.00  0.00    -0.354 N 
ATOM     62  N   UNL     1       5.993  10.407  10.162  1.00  0.00    -0.248 NA
ATOM     63  C   UNL     1       4.823   9.335  11.875  1.00  0.00     0.031 C 
ATOM     64  C   UNL     1      10.125  11.981  10.565  1.00  0.00     0.029 A 
ATOM     65  C   UNL     1       8.831  11.496  10.470  1.00  0.00     0.049 A 
ATOM     66  H   UNL     1       7.536  11.477   8.803  1.00  0.00     0.167 HD
ATOM     67  C   UNL     1       6.774  10.396  11.310  1.00  0.00     0.074 A 
ATOM     68  C   UNL     1       5.988   9.756  12.344  1.00  0.00     0.031 C 
ATOM     69  C   UNL     1       8.030  10.873  11.491  1.00  0.00     0.037 A 
BRANCH  56  70
ATOM     70  C   UNL     1      10.514  13.412   6.437  1.00  0.00     0.064 A 
ATOM     71  C   UNL     1      10.505  14.775   6.103  1.00  0.00     0.173 A 
ATOM     72  C   UNL     1      11.691  12.686   6.198  1.00  0.00     0.173 A 
ATOM     73  F   UNL     1       9.401  15.511   6.299  1.00  0.00    -0.203 F 
ATOM     74  C   UNL     1      11.621  15.380   5.530  1.00  0.00     0.198 A 
ATOM     75  C   UNL     1      12.815  13.302   5.653  1.00  0.00     0.198 A 
ATOM     76  F   UNL     1      11.755  11.382   6.504  1.00  0.00    -0.203 F 
ATOM     77  F   UNL     1      11.573  16.673   5.178  1.00  0.00    -0.200 F 
ATOM     78  C   UNL     1      12.777  14.646   5.314  1.00  0.00     0.200 A 
ATOM     79  F   UNL     1      13.935  12.594   5.455  1.00  0.00    -0.200 F 
ATOM     80  F   UNL     1      13.853  15.232   4.771  1.00  0.00    -0.200 F 
ENDBRANCH  56  70
BRANCH  57  81
ATOM     81  C   UNL     1       2.449   8.905  10.224  1.00  0.00     0.064 A 
ATOM     82  C   UNL     1       1.682   9.518  11.225  1.00  0.00     0.173 A 
ATOM     83  C   UNL     1       2.065   7.625   9.799  1.00  0.00     0.173 A 
ATOM     84  F   UNL     1       2.022  10.734  11.678  1.00  0.00    -0.203 F 
ATOM     85  C   UNL     1       0.593   8.865  11.799  1.00  0.00     0.198 A 
ATOM     86  C   UNL     1       0.959   6.985  10.354  1.00  0.00     0.198 A 
ATOM     87  F   UNL     1       2.762   6.998   8.840  1.00  0.00    -0.203 F 
ATOM     88  F   UNL     1      -0.090   9.453  12.791  1.00  0.00    -0.200 F 
ATOM     89  C   UNL     1       0.230   7.601  11.360  1.00  0.00     0.200 A 
ATOM     90  F   UNL     1       0.602   5.769   9.918  1.00  0.00    -0.200 F 
ATOM     91  F   UNL     1      -0.817   6.973  11.913  1.00  0.00    -0.200 F 
ENDBRANCH  57  81
BRANCH  69  92
ATOM     92  C   UNL     1       8.610  10.763  12.871  1.00  0.00     0.064 A 
ATOM     93  C   UNL     1       8.999   9.529  13.414  1.00  0.00     0.173 A 
ATOM     94  C   UNL     1       8.792  11.913  13.655  1.00  0.00     0.173 A 
ATOM     95  F   UNL     1       8.831   8.400  12.710  1.00  0.00    -0.203 F 
ATOM     96  C   UNL     1       9.515   9.446  14.704  1.00  0.00     0.198 A 
ATOM     97  C   UNL     1       9.337  11.830  14.933  1.00  0.00     0.198 A 
ATOM     98  F   UNL     1       8.444  13.118  13.180  1.00  0.00    -0.203 F 
ATOM     99  F   UNL     1       9.825   8.251  15.223  1.00  0.00    -0.200 F 
ATOM    100  C   UNL     1       9.688  10.596  15.460  1.00  0.00     0.200 A 
ATOM    101  F   UNL     1       9.516  12.943  15.657  1.00  0.00    -0.200 F 
ATOM    102  F   UNL     1      10.185  10.514  16.702  1.00  0.00    -0.200 F 
ENDBRANCH  69  92
ENDBRANCH  43  44
ENDBRANCH  35  38
ENDBRANCH  33  34
ENDBRANCH  32  33
ENDBRANCH  31  32
ENDBRANCH  30  31
ENDBRANCH   1  30
TORSDOF 18
