REMARK SMILES O=C(NCCCCCCNC(=O)[C@@H]1[C@H](C(=O)Nc2ccccc2OC(F)F)[C@@H]2C=C[C@H]1C2)c1ccc(-c2c3nc(c(-c4c(F)c(F)c(F)c(F)c4F)c4ccc([nH]4)c(-c4c(F)c(F)c(F)c(F)c4F)c4nc(c(-c5c(F)c(F)c(F)c(F)c5F)c5ccc2[nH]5)C=C4)C=C3)cc1
REMARK SMILES IDX 7 1 6 2 5 3 4 4 3 5 1 6 2 7 33 9 34 10 95 11 35 12 94 13
REMARK SMILES IDX 36 14 37 15 38 16 88 17 39 18 93 19 87 20 89 21 40 22 92 23
REMARK SMILES IDX 86 24 85 25 41 27 73 28 53 29 72 30 54 31 57 32 71 33 90 34
REMARK SMILES IDX 55 35 56 36 70 38 91 39 58 40 42 41 43 42 51 43 44 44 45 45
REMARK SMILES IDX 49 46 52 47 46 48 47 49 50 50 48 51 74 52 75 53 83 54 76 55
REMARK SMILES IDX 77 56 81 57 84 58 78 59 79 60 82 61 80 62 59 63 60 64 68 65
REMARK SMILES IDX 61 66 62 67 66 68 69 69 63 70 64 71 67 72 65 73 8 74 9 75
REMARK SMILES IDX 10 76 11 77 12 79 13 80 14 81 31 82 28 83 30 84 32 85 29 86
REMARK SMILES IDX 15 87 16 88 17 89 18 91 19 92 23 93 20 94 22 95 21 96 24 97
REMARK SMILES IDX 25 98 26 99 27 100
REMARK H PARENT 3 8 89 26 57 37 10 78 17 90
REMARK Flexibility Score: inf
ROOT
ATOM      1  C   UNL     1       4.866   3.831  -1.926  1.00  0.00     0.002 C 
ENDROOT
BRANCH   1   2
ATOM      2  C   UNL     1       4.218   2.701  -2.732  1.00  0.00     0.002 C 
BRANCH   2   3
ATOM      3  C   UNL     1       4.637   1.273  -2.390  1.00  0.00     0.021 C 
BRANCH   3   4
ATOM      4  C   UNL     1       4.349   0.853  -0.957  1.00  0.00     0.116 C 
BRANCH   4   5
ATOM      5  N   UNL     1       2.932   0.770  -0.644  1.00  0.00    -0.352 N 
ATOM      6  O   UNL     1       1.063  -0.135   0.258  1.00  0.00    -0.269 OA
ATOM      7  C   UNL     1       2.287  -0.144   0.158  1.00  0.00     0.251 C 
ATOM      8  H   UNL     1       2.360   1.455  -1.058  1.00  0.00     0.163 HD
BRANCH   7   9
ATOM      9  C   UNL     1       3.080  -1.167   0.876  1.00  0.00     0.039 A 
ATOM     10  C   UNL     1       4.258  -0.812   1.532  1.00  0.00     0.014 A 
ATOM     11  C   UNL     1       2.655  -2.500   0.871  1.00  0.00     0.014 A 
ATOM     12  C   UNL     1       5.089  -1.801   2.039  1.00  0.00     0.010 A 
ATOM     13  C   UNL     1       3.441  -3.484   1.480  1.00  0.00     0.010 A 
ATOM     14  C   UNL     1       4.678  -3.145   2.046  1.00  0.00    -0.014 A 
BRANCH  14  15
ATOM     15  C   UNL     1       5.534  -4.139   2.743  1.00  0.00     0.031 A 
ATOM     16  C   UNL     1       6.194  -5.270   2.008  1.00  0.00     0.074 A 
ATOM     17  C   UNL     1       5.760  -3.959   4.060  1.00  0.00     0.049 A 
ATOM     18  N   UNL     1       7.021  -6.177   2.468  1.00  0.00    -0.248 NA
ATOM     19  C   UNL     1       5.888  -5.412   0.577  1.00  0.00     0.031 C 
ATOM     20  C   UNL     1       5.149  -2.907   4.878  1.00  0.00     0.029 A 
ATOM     21  N   UNL     1       6.579  -4.623   4.935  1.00  0.00    -0.354 N 
ATOM     22  C   UNL     1       7.326  -6.999   1.391  1.00  0.00     0.074 A 
ATOM     23  C   UNL     1       6.573  -6.503   0.258  1.00  0.00     0.031 C 
ATOM     24  C   UNL     1       5.663  -2.954   6.114  1.00  0.00     0.029 A 
ATOM     25  C   UNL     1       6.578  -4.084   6.199  1.00  0.00     0.049 A 
ATOM     26  H   UNL     1       7.116  -5.408   4.683  1.00  0.00     0.167 HD
ATOM     27  C   UNL     1       8.167  -8.062   1.355  1.00  0.00     0.037 A 
ATOM     28  C   UNL     1       7.227  -4.468   7.312  1.00  0.00     0.037 A 
ATOM     29  C   UNL     1       8.914  -8.545   2.491  1.00  0.00     0.049 A 
ATOM     30  C   UNL     1       8.139  -5.657   7.240  1.00  0.00     0.074 A 
ATOM     31  C   UNL     1       9.797  -9.609   2.555  1.00  0.00     0.029 A 
ATOM     32  N   UNL     1       8.865  -7.994   3.764  1.00  0.00    -0.354 N 
ATOM     33  N   UNL     1       8.436  -6.410   6.208  1.00  0.00    -0.248 NA
ATOM     34  C   UNL     1       8.806  -6.053   8.486  1.00  0.00     0.031 C 
ATOM     35  C   UNL     1      10.249  -9.728   3.874  1.00  0.00     0.029 A 
ATOM     36  C   UNL     1       9.689  -8.706   4.622  1.00  0.00     0.049 A 
ATOM     37  H   UNL     1       8.324  -7.212   4.020  1.00  0.00     0.167 HD
ATOM     38  C   UNL     1       9.325  -7.364   6.678  1.00  0.00     0.074 A 
ATOM     39  C   UNL     1       9.552  -7.067   8.078  1.00  0.00     0.031 C 
ATOM     40  C   UNL     1       9.894  -8.401   6.015  1.00  0.00     0.037 A 
BRANCH  27  41
ATOM     41  C   UNL     1       8.328  -8.788   0.050  1.00  0.00     0.064 A 
ATOM     42  C   UNL     1       9.032  -8.222  -1.024  1.00  0.00     0.173 A 
ATOM     43  C   UNL     1       7.839 -10.095  -0.105  1.00  0.00     0.173 A 
ATOM     44  F   UNL     1       9.511  -6.972  -0.933  1.00  0.00    -0.203 F 
ATOM     45  C   UNL     1       9.230  -8.932  -2.206  1.00  0.00     0.198 A 
ATOM     46  C   UNL     1       8.061 -10.811  -1.279  1.00  0.00     0.198 A 
ATOM     47  F   UNL     1       7.164 -10.687   0.891  1.00  0.00    -0.203 F 
ATOM     48  F   UNL     1       9.879  -8.358  -3.229  1.00  0.00    -0.200 F 
ATOM     49  C   UNL     1       8.753 -10.228  -2.330  1.00  0.00     0.200 A 
ATOM     50  F   UNL     1       7.612 -12.069  -1.391  1.00  0.00    -0.200 F 
ATOM     51  F   UNL     1       8.959 -10.915  -3.462  1.00  0.00    -0.200 F 
ENDBRANCH  27  41
BRANCH  28  52
ATOM     52  C   UNL     1       7.014  -3.734   8.586  1.00  0.00     0.064 A 
ATOM     53  C   UNL     1       8.049  -3.010   9.192  1.00  0.00     0.173 A 
ATOM     54  C   UNL     1       5.764  -3.745   9.227  1.00  0.00     0.173 A 
ATOM     55  F   UNL     1       9.265  -2.980   8.629  1.00  0.00    -0.203 F 
ATOM     56  C   UNL     1       7.850  -2.348  10.402  1.00  0.00     0.198 A 
ATOM     57  C   UNL     1       5.557  -3.052  10.415  1.00  0.00     0.198 A 
ATOM     58  F   UNL     1       4.737  -4.416   8.684  1.00  0.00    -0.203 F 
ATOM     59  F   UNL     1       8.871  -1.708  10.988  1.00  0.00    -0.200 F 
ATOM     60  C   UNL     1       6.603  -2.364  11.009  1.00  0.00     0.200 A 
ATOM     61  F   UNL     1       4.344  -3.052  10.985  1.00  0.00    -0.200 F 
ATOM     62  F   UNL     1       6.411  -1.722  12.169  1.00  0.00    -0.200 F 
ENDBRANCH  28  52
BRANCH  40  63
ATOM     63  C   UNL     1      10.824  -9.274   6.805  1.00  0.00     0.064 A 
ATOM     64  C   UNL     1      10.348 -10.131   7.810  1.00  0.00     0.173 A 
ATOM     65  C   UNL     1      12.205  -9.248   6.562  1.00  0.00     0.173 A 
ATOM     66  F   UNL     1       9.037 -10.178   8.093  1.00  0.00    -0.203 F 
ATOM     67  C   UNL     1      11.226 -10.898   8.570  1.00  0.00     0.198 A 
ATOM     68  C   UNL     1      13.076 -10.042   7.302  1.00  0.00     0.198 A 
ATOM     69  F   UNL     1      12.709  -8.450   5.609  1.00  0.00    -0.203 F 
ATOM     70  F   UNL     1      10.756 -11.657   9.570  1.00  0.00    -0.200 F 
ATOM     71  C   UNL     1      12.588 -10.856   8.313  1.00  0.00     0.200 A 
ATOM     72  F   UNL     1      14.391 -10.009   7.045  1.00  0.00    -0.200 F 
ATOM     73  F   UNL     1      13.433 -11.591   9.049  1.00  0.00    -0.200 F 
ENDBRANCH  40  63
ENDBRANCH  14  15
ENDBRANCH   7   9
ENDBRANCH   4   5
ENDBRANCH   3   4
ENDBRANCH   2   3
ENDBRANCH   1   2
BRANCH   1  74
ATOM     74  C   UNL     1       6.360   3.722  -1.582  1.00  0.00     0.021 C 
BRANCH  74  75
ATOM     75  C   UNL     1       7.356   3.730  -2.747  1.00  0.00     0.116 C 
BRANCH  75  76
ATOM     76  N   UNL     1       7.483   5.031  -3.367  1.00  0.00    -0.356 N 
ATOM     77  C   UNL     1       8.285   5.485  -4.367  1.00  0.00     0.224 C 
ATOM     78  H   UNL     1       6.878   5.714  -2.996  1.00  0.00     0.163 HD
ATOM     79  O   UNL     1       7.997   6.606  -4.805  1.00  0.00    -0.275 OA
BRANCH  77  80
ATOM     80  C   UNL     1       9.558   4.808  -4.842  1.00  0.00     0.098 C 
ATOM     81  C   UNL     1       9.975   4.790  -6.355  1.00  0.00     0.099 C 
ATOM     82  C   UNL     1      10.123   3.469  -4.318  1.00  0.00     0.025 C 
ATOM     83  C   UNL     1      10.832   3.490  -6.452  1.00  0.00     0.025 C 
ATOM     84  C   UNL     1       9.510   2.281  -5.012  1.00  0.00    -0.027 C 
ATOM     85  C   UNL     1      11.479   3.458  -5.061  1.00  0.00     0.017 C 
ATOM     86  C   UNL     1       9.965   2.273  -6.273  1.00  0.00    -0.027 C 
BRANCH  81  87
ATOM     87  C   UNL     1       9.190   5.082  -7.650  1.00  0.00     0.229 C 
ATOM     88  O   UNL     1       9.588   6.028  -8.354  1.00  0.00    -0.274 OA
ATOM     89  N   UNL     1       8.281   4.275  -8.265  1.00  0.00    -0.323 N 
ATOM     90  H   UNL     1       8.204   4.449  -9.231  1.00  0.00     0.170 HD
BRANCH  89  91
ATOM     91  C   UNL     1       7.435   3.255  -7.827  1.00  0.00     0.084 A 
ATOM     92  C   UNL     1       7.318   2.118  -8.641  1.00  0.00     0.030 A 
ATOM     93  C   UNL     1       6.679   3.316  -6.665  1.00  0.00     0.149 A 
ATOM     94  C   UNL     1       6.635   0.983  -8.190  1.00  0.00     0.002 A 
ATOM     95  C   UNL     1       6.060   2.159  -6.185  1.00  0.00     0.049 A 
ATOM     96  C   UNL     1       6.050   0.986  -6.931  1.00  0.00     0.004 A 
BRANCH  93  97
ATOM     97  O   UNL     1       6.434   4.451  -5.957  1.00  0.00    -0.433 OA
BRANCH  97  98
ATOM     98  C   UNL     1       5.874   5.545  -6.698  1.00  0.00     0.542 C 
ATOM     99  F   UNL     1       6.848   6.292  -7.258  1.00  0.00    -0.167 F 
ATOM    100  F   UNL     1       5.071   5.093  -7.691  1.00  0.00    -0.167 F 
ENDBRANCH  97  98
ENDBRANCH  93  97
ENDBRANCH  89  91
ENDBRANCH  81  87
ENDBRANCH  77  80
ENDBRANCH  75  76
ENDBRANCH  74  75
ENDBRANCH   1  74
TORSDOF 17
