REMARK SMILES O=C(CC1(NC(=O)c2ccncc2Cl)CCCCC1)NCCCCCCNC(=O)c1ccc(-c2c3nc(c(-c4c(F)c(F)c(F)c(F)c4F)c4ccc([nH]4)c(-c4c(F)c(F)c(F)c(F)c4F)c4nc(c(-c5c(F)c(F)c(F)c(F)c5F)c5ccc2[nH]5)C=C4)C=C3)cc1
REMARK SMILES IDX 23 1 22 2 21 3 20 4 1 5 2 6 3 8 4 9 15 10 19 11 16 12 18 13
REMARK SMILES IDX 17 14 5 15 6 16 7 18 8 19 9 20 13 21 10 22 12 23 14 24 11 25
REMARK SMILES IDX 24 26 25 27 26 28 27 29 28 30 29 32 30 33 31 34 92 35 32 36
REMARK SMILES IDX 91 37 33 38 34 39 35 40 85 41 36 42 90 43 84 44 86 45 37 46
REMARK SMILES IDX 89 47 83 48 82 49 38 51 70 52 50 53 69 54 51 55 54 56 68 57
REMARK SMILES IDX 87 58 52 59 53 60 67 62 88 63 55 64 39 65 40 66 48 67 41 68
REMARK SMILES IDX 42 69 46 70 49 71 43 72 44 73 47 74 45 75 71 76 72 77 80 78
REMARK SMILES IDX 73 79 74 80 78 81 81 82 75 83 76 84 79 85 77 86 56 87 57 88
REMARK SMILES IDX 65 89 58 90 59 91 63 92 66 93 60 94 61 95 64 96 62 97
REMARK H PARENT 20 7 5 17 27 31 86 50 54 61
REMARK Flexibility Score: inf
ROOT
ATOM      1  C   UNL     1       4.136   2.072   3.295  1.00  0.00     0.002 C 
ENDROOT
BRANCH   1   2
ATOM      2  C   UNL     1       2.625   1.806   3.188  1.00  0.00     0.021 C 
BRANCH   2   3
ATOM      3  C   UNL     1       2.081   1.886   1.764  1.00  0.00     0.116 C 
BRANCH   3   4
ATOM      4  N   UNL     1       2.861   1.047   0.884  1.00  0.00    -0.356 N 
ATOM      5  O   UNL     1       1.429  -0.709   0.866  1.00  0.00    -0.275 OA
ATOM      6  C   UNL     1       2.456  -0.183   0.449  1.00  0.00     0.222 C 
ATOM      7  H   UNL     1       3.736   1.382   0.581  1.00  0.00     0.163 HD
BRANCH   6   8
ATOM      8  C   UNL     1       3.447  -0.922  -0.442  1.00  0.00     0.128 C 
BRANCH   8   9
ATOM      9  C   UNL     1       3.909  -0.326  -1.815  1.00  0.00     0.049 C 
ATOM     10  C   UNL     1       3.964   1.227  -1.832  1.00  0.00     0.029 C 
ATOM     11  C   UNL     1       5.363  -0.876  -2.018  1.00  0.00     0.029 C 
ATOM     12  C   UNL     1       4.749   1.840  -2.992  1.00  0.00     0.002 C 
ATOM     13  C   UNL     1       6.170  -0.210  -3.135  1.00  0.00     0.002 C 
ATOM     14  C   UNL     1       6.173   1.305  -2.999  1.00  0.00     0.000 C 
BRANCH   9  15
ATOM     15  N   UNL     1       3.130  -0.743  -3.023  1.00  0.00    -0.346 N 
ATOM     16  C   UNL     1       2.020  -1.470  -3.338  1.00  0.00     0.253 C 
ATOM     17  H   UNL     1       3.546  -0.383  -3.840  1.00  0.00     0.164 HD
ATOM     18  O   UNL     1       1.734  -1.640  -4.522  1.00  0.00    -0.269 OA
BRANCH  16  19
ATOM     19  C   UNL     1       1.178  -2.118  -2.340  1.00  0.00     0.061 A 
ATOM     20  C   UNL     1       1.319  -3.500  -2.185  1.00  0.00     0.035 A 
ATOM     21  C   UNL     1       0.187  -1.427  -1.655  1.00  0.00     0.072 A 
ATOM     22  C   UNL     1       0.502  -4.134  -1.270  1.00  0.00     0.112 A 
ATOM     23  C   UNL     1      -0.561  -2.155  -0.741  1.00  0.00     0.132 A 
ATOM     24  Cl  UNL     1      -0.124   0.252  -1.885  1.00  0.00    -0.082 Cl
ATOM     25  N   UNL     1      -0.426  -3.491  -0.531  1.00  0.00    -0.263 NA
ENDBRANCH  16  19
ENDBRANCH   9  15
ENDBRANCH   8   9
ENDBRANCH   6   8
ENDBRANCH   3   4
ENDBRANCH   2   3
ENDBRANCH   1   2
BRANCH   1  26
ATOM     26  C   UNL     1       4.607   3.401   2.696  1.00  0.00     0.002 C 
BRANCH  26  27
ATOM     27  C   UNL     1       3.940   4.641   3.290  1.00  0.00     0.021 C 
BRANCH  27  28
ATOM     28  C   UNL     1       4.048   4.745   4.806  1.00  0.00     0.116 C 
BRANCH  28  29
ATOM     29  N   UNL     1       5.430   4.800   5.256  1.00  0.00    -0.352 N 
ATOM     30  C   UNL     1       6.018   5.662   6.147  1.00  0.00     0.251 C 
ATOM     31  H   UNL     1       6.029   4.123   4.865  1.00  0.00     0.163 HD
ATOM     32  O   UNL     1       7.236   5.688   6.270  1.00  0.00    -0.269 OA
BRANCH  30  33
ATOM     33  C   UNL     1       5.172   6.579   6.939  1.00  0.00     0.039 A 
ATOM     34  C   UNL     1       5.571   7.909   7.072  1.00  0.00     0.014 A 
ATOM     35  C   UNL     1       3.992   6.131   7.541  1.00  0.00     0.014 A 
ATOM     36  C   UNL     1       4.755   8.805   7.763  1.00  0.00     0.010 A 
ATOM     37  C   UNL     1       3.140   7.043   8.157  1.00  0.00     0.010 A 
ATOM     38  C   UNL     1       3.516   8.388   8.279  1.00  0.00    -0.014 A 
BRANCH  38  39
ATOM     39  C   UNL     1       2.603   9.364   8.924  1.00  0.00     0.031 A 
ATOM     40  C   UNL     1       2.247   9.239  10.378  1.00  0.00     0.074 A 
ATOM     41  C   UNL     1       2.067  10.350   8.178  1.00  0.00     0.049 A 
ATOM     42  N   UNL     1       1.496  10.020  11.115  1.00  0.00    -0.248 NA
ATOM     43  C   UNL     1       2.782   8.072  11.094  1.00  0.00     0.031 C 
ATOM     44  C   UNL     1       2.287  10.537   6.743  1.00  0.00     0.029 A 
ATOM     45  N   UNL     1       1.234  11.384   8.524  1.00  0.00    -0.354 N 
ATOM     46  C   UNL     1       1.464   9.435  12.374  1.00  0.00     0.074 A 
ATOM     47  C   UNL     1       2.219   8.204  12.286  1.00  0.00     0.031 C 
ATOM     48  C   UNL     1       1.650  11.646   6.342  1.00  0.00     0.029 A 
ATOM     49  C   UNL     1       0.944  12.227   7.479  1.00  0.00     0.049 A 
ATOM     50  H   UNL     1       0.879  11.510   9.433  1.00  0.00     0.167 HD
ATOM     51  C   UNL     1       0.878   9.896  13.505  1.00  0.00     0.037 A 
ATOM     52  C   UNL     1       0.198  13.347   7.446  1.00  0.00     0.037 A 
ATOM     53  C   UNL     1       0.137  11.129  13.586  1.00  0.00     0.049 A 
ATOM     54  C   UNL     1      -0.448  13.832   8.714  1.00  0.00     0.074 A 
ATOM     55  C   UNL     1      -0.432  11.723  14.698  1.00  0.00     0.029 A 
ATOM     56  N   UNL     1      -0.151  11.950  12.505  1.00  0.00    -0.354 N 
ATOM     57  N   UNL     1      -0.391  13.325   9.921  1.00  0.00    -0.248 NA
ATOM     58  C   UNL     1      -1.258  15.053   8.612  1.00  0.00     0.031 C 
ATOM     59  C   UNL     1      -1.121  12.867  14.280  1.00  0.00     0.029 A 
ATOM     60  C   UNL     1      -0.925  13.025  12.917  1.00  0.00     0.049 A 
ATOM     61  H   UNL     1       0.149  11.793  11.580  1.00  0.00     0.167 HD
ATOM     62  C   UNL     1      -1.135  14.175  10.728  1.00  0.00     0.074 A 
ATOM     63  C   UNL     1      -1.609  15.245   9.875  1.00  0.00     0.031 C 
ATOM     64  C   UNL     1      -1.403  14.077  12.054  1.00  0.00     0.037 A 
BRANCH  51  65
ATOM     65  C   UNL     1       1.004   9.054  14.745  1.00  0.00     0.064 A 
ATOM     66  C   UNL     1       2.237   8.859  15.388  1.00  0.00     0.173 A 
ATOM     67  C   UNL     1      -0.129   8.449  15.311  1.00  0.00     0.173 A 
ATOM     68  F   UNL     1       3.355   9.405  14.886  1.00  0.00    -0.203 F 
ATOM     69  C   UNL     1       2.337   8.059  16.524  1.00  0.00     0.198 A 
ATOM     70  C   UNL     1      -0.032   7.680  16.468  1.00  0.00     0.198 A 
ATOM     71  F   UNL     1      -1.335   8.606  14.744  1.00  0.00    -0.203 F 
ATOM     72  F   UNL     1       3.535   7.837  17.083  1.00  0.00    -0.200 F 
ATOM     73  C   UNL     1       1.202   7.476  17.067  1.00  0.00     0.200 A 
ATOM     74  F   UNL     1      -1.132   7.130  17.000  1.00  0.00    -0.200 F 
ATOM     75  F   UNL     1       1.298   6.710  18.162  1.00  0.00    -0.200 F 
ENDBRANCH  51  65
BRANCH  52  76
ATOM     76  C   UNL     1       0.059  14.107   6.176  1.00  0.00     0.064 A 
ATOM     77  C   UNL     1       0.640  15.375   6.031  1.00  0.00     0.173 A 
ATOM     78  C   UNL     1      -0.650  13.586   5.084  1.00  0.00     0.173 A 
ATOM     79  F   UNL     1       1.312  15.924   7.053  1.00  0.00    -0.203 F 
ATOM     80  C   UNL     1       0.500  16.100   4.850  1.00  0.00     0.198 A 
ATOM     81  C   UNL     1      -0.762  14.299   3.892  1.00  0.00     0.198 A 
ATOM     82  F   UNL     1      -1.219  12.374   5.168  1.00  0.00    -0.203 F 
ATOM     83  F   UNL     1       1.026  17.329   4.755  1.00  0.00    -0.200 F 
ATOM     84  C   UNL     1      -0.194  15.559   3.779  1.00  0.00     0.200 A 
ATOM     85  F   UNL     1      -1.418  13.764   2.853  1.00  0.00    -0.200 F 
ATOM     86  F   UNL     1      -0.322  16.253   2.640  1.00  0.00    -0.200 F 
ENDBRANCH  52  76
BRANCH  64  87
ATOM     87  C   UNL     1      -2.235  15.172  12.663  1.00  0.00     0.064 A 
ATOM     88  C   UNL     1      -3.592  15.334  12.342  1.00  0.00     0.173 A 
ATOM     89  C   UNL     1      -1.669  16.069  13.582  1.00  0.00     0.173 A 
ATOM     90  F   UNL     1      -4.180  14.513  11.458  1.00  0.00    -0.203 F 
ATOM     91  C   UNL     1      -4.337  16.379  12.882  1.00  0.00     0.198 A 
ATOM     92  C   UNL     1      -2.427  17.089  14.150  1.00  0.00     0.198 A 
ATOM     93  F   UNL     1      -0.379  15.956  13.933  1.00  0.00    -0.203 F 
ATOM     94  F   UNL     1      -5.610  16.557  12.504  1.00  0.00    -0.200 F 
ATOM     95  C   UNL     1      -3.756  17.252  13.790  1.00  0.00     0.200 A 
ATOM     96  F   UNL     1      -1.869  17.921  15.040  1.00  0.00    -0.200 F 
ATOM     97  F   UNL     1      -4.474  18.258  14.307  1.00  0.00    -0.200 F 
ENDBRANCH  64  87
ENDBRANCH  38  39
ENDBRANCH  30  33
ENDBRANCH  28  29
ENDBRANCH  27  28
ENDBRANCH  26  27
ENDBRANCH   1  26
TORSDOF 16
