REMARK SMILES O=C(CSc1nc(-c2cccc(F)c2)n[nH]1)NCCCCCCNC(=O)c1ccc(-c2c3nc(c(-c4c(F)c(F)c(F)c(F)c4F)c4ccc([nH]4)c(-c4c(F)c(F)c(F)c(F)c4F)c4nc(c(-c5c(F)c(F)c(F)c(F)c5F)c5ccc2[nH]5)C=C4)C=C3)cc1
REMARK SMILES IDX 20 1 19 2 18 3 17 4 1 5 2 6 3 8 4 9 5 10 6 11 16 12 7 13
REMARK SMILES IDX 15 14 8 16 9 17 14 18 10 19 12 20 11 21 13 22 21 23 22 24
REMARK SMILES IDX 23 25 24 26 25 27 26 29 27 30 28 31 89 32 29 33 88 34 30 35
REMARK SMILES IDX 31 36 32 37 82 38 33 39 87 40 81 41 83 42 34 43 86 44 80 45
REMARK SMILES IDX 79 46 35 48 67 49 47 50 66 51 48 52 51 53 65 54 84 55 49 56
REMARK SMILES IDX 50 57 64 59 85 60 52 61 36 62 37 63 45 64 38 65 39 66 43 67
REMARK SMILES IDX 46 68 40 69 41 70 44 71 42 72 68 73 69 74 77 75 70 76 71 77
REMARK SMILES IDX 75 78 78 79 72 80 73 81 76 82 74 83 53 84 54 85 62 86 55 87
REMARK SMILES IDX 56 88 60 89 63 90 57 91 58 92 61 93 59 94
REMARK H PARENT 17 7 16 15 24 28 83 47 51 58
REMARK Flexibility Score: inf
ROOT
ATOM      1  C   UNL     1       4.119   3.194  -1.677  1.00  0.00     0.002 C 
ENDROOT
BRANCH   1   2
ATOM      2  C   UNL     1       2.618   3.013  -1.417  1.00  0.00     0.021 C 
BRANCH   2   3
ATOM      3  C   UNL     1       2.075   1.623  -1.748  1.00  0.00     0.116 C 
BRANCH   3   4
ATOM      4  N   UNL     1       2.720   0.594  -0.962  1.00  0.00    -0.355 N 
ATOM      5  O   UNL     1       0.859  -0.018   0.232  1.00  0.00    -0.274 OA
ATOM      6  C   UNL     1       2.046  -0.180  -0.044  1.00  0.00     0.230 C 
ATOM      7  H   UNL     1       3.684   0.441  -1.089  1.00  0.00     0.163 HD
BRANCH   6   8
ATOM      8  C   UNL     1       2.906  -1.162   0.734  1.00  0.00     0.178 C 
BRANCH   8   9
ATOM      9  S   UNL     1       4.123  -2.051  -0.283  1.00  0.00    -0.077 SA
BRANCH   9  10
ATOM     10  C   UNL     1       3.078  -3.000  -1.261  1.00  0.00     0.184 A 
ATOM     11  N   UNL     1       2.262  -2.587  -2.194  1.00  0.00    -0.201 NA
ATOM     12  N   UNL     1       3.023  -4.351  -1.155  1.00  0.00    -0.254 N 
ATOM     13  C   UNL     1       1.655  -3.755  -2.610  1.00  0.00     0.182 A 
ATOM     14  N   UNL     1       2.090  -4.859  -1.978  1.00  0.00    -0.153 NA
ATOM     15  H   UNL     1       3.590  -4.888  -0.555  1.00  0.00     0.192 HD
BRANCH  13  16
ATOM     16  C   UNL     1       0.646  -3.773  -3.655  1.00  0.00     0.024 A 
ATOM     17  C   UNL     1       0.808  -2.982  -4.803  1.00  0.00     0.012 A 
ATOM     18  C   UNL     1      -0.490  -4.580  -3.533  1.00  0.00     0.051 A 
ATOM     19  C   UNL     1      -0.147  -3.007  -5.823  1.00  0.00     0.004 A 
ATOM     20  C   UNL     1      -1.443  -4.582  -4.545  1.00  0.00     0.123 A 
ATOM     21  C   UNL     1      -1.280  -3.809  -5.690  1.00  0.00     0.039 A 
ATOM     22  F   UNL     1      -2.538  -5.343  -4.417  1.00  0.00    -0.207 F 
ENDBRANCH  13  16
ENDBRANCH   9  10
ENDBRANCH   8   9
ENDBRANCH   6   8
ENDBRANCH   3   4
ENDBRANCH   2   3
ENDBRANCH   1   2
BRANCH   1  23
ATOM     23  C   UNL     1       4.577   2.925  -3.114  1.00  0.00     0.002 C 
BRANCH  23  24
ATOM     24  C   UNL     1       3.886   3.766  -4.189  1.00  0.00     0.021 C 
BRANCH  24  25
ATOM     25  C   UNL     1       4.028   5.276  -4.020  1.00  0.00     0.116 C 
BRANCH  25  26
ATOM     26  N   UNL     1       5.409   5.723  -4.132  1.00  0.00    -0.352 N 
ATOM     27  C   UNL     1       5.960   6.669  -4.961  1.00  0.00     0.251 C 
ATOM     28  H   UNL     1       6.043   5.281  -3.523  1.00  0.00     0.163 HD
ATOM     29  O   UNL     1       7.180   6.793  -5.032  1.00  0.00    -0.269 OA
BRANCH  27  30
ATOM     30  C   UNL     1       5.088   7.522  -5.797  1.00  0.00     0.039 A 
ATOM     31  C   UNL     1       5.419   7.712  -7.141  1.00  0.00     0.014 A 
ATOM     32  C   UNL     1       3.947   8.127  -5.263  1.00  0.00     0.014 A 
ATOM     33  C   UNL     1       4.560   8.437  -7.970  1.00  0.00     0.010 A 
ATOM     34  C   UNL     1       3.056   8.788  -6.105  1.00  0.00     0.010 A 
ATOM     35  C   UNL     1       3.346   8.938  -7.470  1.00  0.00    -0.014 A 
BRANCH  35  36
ATOM     36  C   UNL     1       2.346   9.570  -8.368  1.00  0.00     0.031 A 
ATOM     37  C   UNL     1       1.959  11.009  -8.193  1.00  0.00     0.074 A 
ATOM     38  C   UNL     1       1.727   8.816  -9.297  1.00  0.00     0.049 A 
ATOM     39  N   UNL     1       1.054  11.705  -8.835  1.00  0.00    -0.248 NA
ATOM     40  C   UNL     1       2.662  11.761  -7.143  1.00  0.00     0.031 C 
ATOM     41  C   UNL     1       1.985   7.395  -9.535  1.00  0.00     0.029 A 
ATOM     42  N   UNL     1       0.747   9.132 -10.206  1.00  0.00    -0.354 N 
ATOM     43  C   UNL     1       1.073  12.969  -8.262  1.00  0.00     0.074 A 
ATOM     44  C   UNL     1       2.042  12.932  -7.188  1.00  0.00     0.031 C 
ATOM     45  C   UNL     1       1.206   6.970 -10.541  1.00  0.00     0.029 A 
ATOM     46  C   UNL     1       0.358   8.071 -10.987  1.00  0.00     0.049 A 
ATOM     47  H   UNL     1       0.361  10.034 -10.290  1.00  0.00     0.167 HD
ATOM     48  C   UNL     1       0.358  14.064  -8.615  1.00  0.00     0.037 A 
ATOM     49  C   UNL     1      -0.584   7.987 -11.946  1.00  0.00     0.037 A 
ATOM     50  C   UNL     1      -0.591  14.097  -9.698  1.00  0.00     0.049 A 
ATOM     51  C   UNL     1      -1.386   9.207 -12.302  1.00  0.00     0.074 A 
ATOM     52  C   UNL     1      -1.305  15.179 -10.182  1.00  0.00     0.029 A 
ATOM     53  N   UNL     1      -0.970  12.998 -10.457  1.00  0.00    -0.354 N 
ATOM     54  N   UNL     1      -1.310  10.416 -11.803  1.00  0.00    -0.248 NA
ATOM     55  C   UNL     1      -2.405   9.053 -13.349  1.00  0.00     0.031 C 
ATOM     56  C   UNL     1      -2.164  14.723 -11.185  1.00  0.00     0.029 A 
ATOM     57  C   UNL     1      -1.939  13.369 -11.375  1.00  0.00     0.049 A 
ATOM     58  H   UNL     1      -0.603  12.089 -10.357  1.00  0.00     0.167 HD
ATOM     59  C   UNL     1      -2.256  11.171 -12.481  1.00  0.00     0.074 A 
ATOM     60  C   UNL     1      -2.886  10.287 -13.440  1.00  0.00     0.031 C 
ATOM     61  C   UNL     1      -2.570  12.480 -12.320  1.00  0.00     0.037 A 
BRANCH  48  62
ATOM     62  C   UNL     1       0.567  15.324  -7.825  1.00  0.00     0.064 A 
ATOM     63  C   UNL     1      -0.469  15.847  -7.035  1.00  0.00     0.173 A 
ATOM     64  C   UNL     1       1.766  16.049  -7.896  1.00  0.00     0.173 A 
ATOM     65  F   UNL     1      -1.639  15.199  -6.938  1.00  0.00    -0.203 F 
ATOM     66  C   UNL     1      -0.314  17.052  -6.355  1.00  0.00     0.198 A 
ATOM     67  C   UNL     1       1.929  17.237  -7.188  1.00  0.00     0.198 A 
ATOM     68  F   UNL     1       2.791  15.591  -8.631  1.00  0.00    -0.203 F 
ATOM     69  F   UNL     1      -1.329  17.547  -5.633  1.00  0.00    -0.200 F 
ATOM     70  C   UNL     1       0.886  17.742  -6.426  1.00  0.00     0.200 A 
ATOM     71  F   UNL     1       3.098  17.890  -7.237  1.00  0.00    -0.200 F 
ATOM     72  F   UNL     1       1.039  18.894  -5.757  1.00  0.00    -0.200 F 
ENDBRANCH  48  62
BRANCH  49  73
ATOM     73  C   UNL     1      -0.785   6.693 -12.649  1.00  0.00     0.064 A 
ATOM     74  C   UNL     1      -1.329   5.581 -11.990  1.00  0.00     0.173 A 
ATOM     75  C   UNL     1      -0.362   6.525 -13.974  1.00  0.00     0.173 A 
ATOM     76  F   UNL     1      -1.743   5.689 -10.718  1.00  0.00    -0.203 F 
ATOM     77  C   UNL     1      -1.410   4.340 -12.619  1.00  0.00     0.198 A 
ATOM     78  C   UNL     1      -0.468   5.290 -14.611  1.00  0.00     0.198 A 
ATOM     79  F   UNL     1       0.147   7.565 -14.651  1.00  0.00    -0.203 F 
ATOM     80  F   UNL     1      -1.886   3.281 -11.950  1.00  0.00    -0.200 F 
ATOM     81  C   UNL     1      -0.979   4.196 -13.929  1.00  0.00     0.200 A 
ATOM     82  F   UNL     1      -0.069   5.159 -15.883  1.00  0.00    -0.200 F 
ATOM     83  F   UNL     1      -1.053   3.002 -14.532  1.00  0.00    -0.200 F 
ENDBRANCH  49  73
BRANCH  61  84
ATOM     84  C   UNL     1      -3.644  13.057 -13.196  1.00  0.00     0.064 A 
ATOM     85  C   UNL     1      -3.328  14.010 -14.177  1.00  0.00     0.173 A 
ATOM     86  C   UNL     1      -4.997  12.745 -12.995  1.00  0.00     0.173 A 
ATOM     87  F   UNL     1      -2.050  14.348 -14.404  1.00  0.00    -0.203 F 
ATOM     88  C   UNL     1      -4.328  14.648 -14.905  1.00  0.00     0.198 A 
ATOM     89  C   UNL     1      -5.993  13.364 -13.747  1.00  0.00     0.198 A 
ATOM     90  F   UNL     1      -5.351  11.832 -12.079  1.00  0.00    -0.203 F 
ATOM     91  F   UNL     1      -4.004  15.589 -15.803  1.00  0.00    -0.200 F 
ATOM     92  C   UNL     1      -5.659  14.325 -14.691  1.00  0.00     0.200 A 
ATOM     93  F   UNL     1      -7.277  13.034 -13.555  1.00  0.00    -0.200 F 
ATOM     94  F   UNL     1      -6.620  14.939 -15.393  1.00  0.00    -0.200 F 
ENDBRANCH  61  84
ENDBRANCH  35  36
ENDBRANCH  27  30
ENDBRANCH  25  26
ENDBRANCH  24  25
ENDBRANCH  23  24
ENDBRANCH   1  23
TORSDOF 16
