REMARK SMILES COC(=O)[C@H]1CCN(S(=O)(=O)N2CCC[C@H](C(=O)NCCCCCCNC(=O)c3ccc(-c4c5nc(c(-c6c(F)c(F)c(F)c(F)c6F)c6ccc([nH]6)c(-c6c(F)c(F)c(F)c(F)c6F)c6nc(c(-c7c(F)c(F)c(F)c(F)c7F)c7ccc4[nH]7)C=C6)C=C5)cc3)C2)C1
REMARK SMILES IDX 21 1 20 2 19 3 17 4 18 5 16 7 12 8 13 9 92 10 14 11 15 12
REMARK SMILES IDX 9 13 10 14 11 15 8 16 5 17 6 18 93 19 7 20 3 21 4 22 2 23
REMARK SMILES IDX 1 24 22 25 23 26 24 27 25 28 26 29 27 30 28 32 29 33 30 34
REMARK SMILES IDX 91 35 31 36 90 37 32 38 33 39 34 40 84 41 35 42 89 43 83 44
REMARK SMILES IDX 85 45 36 46 88 47 82 48 81 49 37 51 69 52 49 53 68 54 50 55
REMARK SMILES IDX 53 56 67 57 86 58 51 59 52 60 66 62 87 63 54 64 38 65 39 66
REMARK SMILES IDX 47 67 40 68 41 69 45 70 48 71 42 72 43 73 46 74 44 75 70 76
REMARK SMILES IDX 71 77 79 78 72 79 73 80 77 81 80 82 74 83 75 84 78 85 76 86
REMARK SMILES IDX 55 87 56 88 64 89 57 90 58 91 62 92 65 93 59 94 60 95 63 96
REMARK SMILES IDX 61 97
REMARK H PARENT 19 6 26 31 85 50 53 61
REMARK Flexibility Score: inf
ROOT
ATOM      1  C   UNL     1      -5.772   5.849   6.509  1.00  0.00     0.021 C 
ENDROOT
BRANCH   1   2
ATOM      2  C   UNL     1      -5.137   4.465   6.592  1.00  0.00     0.116 C 
BRANCH   2   3
ATOM      3  N   UNL     1      -6.126   3.441   6.823  1.00  0.00    -0.356 N 
ATOM      4  C   UNL     1      -6.544   2.410   6.054  1.00  0.00     0.224 C 
ATOM      5  O   UNL     1      -7.416   1.681   6.543  1.00  0.00    -0.275 OA
ATOM      6  H   UNL     1      -6.577   3.504   7.696  1.00  0.00     0.163 HD
BRANCH   4   7
ATOM      7  C   UNL     1      -6.011   2.099   4.655  1.00  0.00     0.094 C 
ATOM      8  N   UNL     1      -3.623   2.751   4.337  1.00  0.00    -0.188 NA
ATOM      9  C   UNL     1      -3.902   3.560   3.140  1.00  0.00     0.103 C 
ATOM     10  C   UNL     1      -4.561   1.647   4.610  1.00  0.00     0.117 C 
ATOM     11  C   UNL     1      -5.335   4.096   3.162  1.00  0.00     0.018 C 
ATOM     12  C   UNL     1      -6.392   3.060   3.531  1.00  0.00     0.016 C 
BRANCH   8  13
ATOM     13  S   UNL     1      -2.045   2.647   4.889  1.00  0.00     0.282 S 
ATOM     14  O   UNL     1      -1.997   1.761   6.025  1.00  0.00    -0.195 OA
ATOM     15  O   UNL     1      -1.527   3.995   4.986  1.00  0.00    -0.195 OA
BRANCH  13  16
ATOM     16  N   UNL     1      -1.221   1.898   3.610  1.00  0.00    -0.188 NA
ATOM     17  C   UNL     1       0.608   0.294   3.798  1.00  0.00     0.116 C 
ATOM     18  C   UNL     1      -0.735  -0.408   3.893  1.00  0.00     0.033 C 
ATOM     19  C   UNL     1       0.263   1.783   3.873  1.00  0.00     0.118 C 
ATOM     20  C   UNL     1      -1.655   0.551   3.181  1.00  0.00     0.104 C 
BRANCH  17  21
ATOM     21  C   UNL     1       1.541  -0.134   4.903  1.00  0.00     0.310 C 
ATOM     22  O   UNL     1       1.294  -0.998   5.733  1.00  0.00    -0.252 OA
BRANCH  21  23
ATOM     23  O   UNL     1       2.731   0.519   4.793  1.00  0.00    -0.469 OA
ATOM     24  C   UNL     1       3.700   0.099   5.756  1.00  0.00     0.282 C 
ENDBRANCH  21  23
ENDBRANCH  17  21
ENDBRANCH  13  16
ENDBRANCH   8  13
ENDBRANCH   4   7
ENDBRANCH   2   3
ENDBRANCH   1   2
BRANCH   1  25
ATOM     25  C   UNL     1      -5.891   6.542   7.866  1.00  0.00     0.002 C 
BRANCH  25  26
ATOM     26  C   UNL     1      -4.556   6.759   8.591  1.00  0.00     0.002 C 
BRANCH  26  27
ATOM     27  C   UNL     1      -3.477   7.464   7.764  1.00  0.00     0.021 C 
BRANCH  27  28
ATOM     28  C   UNL     1      -3.897   8.825   7.221  1.00  0.00     0.116 C 
BRANCH  28  29
ATOM     29  N   UNL     1      -4.292   9.732   8.289  1.00  0.00    -0.352 N 
ATOM     30  C   UNL     1      -3.761  10.948   8.633  1.00  0.00     0.251 C 
ATOM     31  H   UNL     1      -5.047   9.429   8.843  1.00  0.00     0.163 HD
ATOM     32  O   UNL     1      -4.042  11.476   9.703  1.00  0.00    -0.269 OA
BRANCH  30  33
ATOM     33  C   UNL     1      -2.840  11.617   7.696  1.00  0.00     0.039 A 
ATOM     34  C   UNL     1      -1.652  12.167   8.181  1.00  0.00     0.014 A 
ATOM     35  C   UNL     1      -3.157  11.693   6.337  1.00  0.00     0.014 A 
ATOM     36  C   UNL     1      -0.750  12.746   7.288  1.00  0.00     0.010 A 
ATOM     37  C   UNL     1      -2.225  12.199   5.442  1.00  0.00     0.010 A 
ATOM     38  C   UNL     1      -1.016  12.737   5.909  1.00  0.00    -0.014 A 
BRANCH  38  39
ATOM     39  C   UNL     1      -0.056  13.299   4.928  1.00  0.00     0.031 A 
ATOM     40  C   UNL     1      -0.457  14.476   4.085  1.00  0.00     0.074 A 
ATOM     41  C   UNL     1       1.137  12.702   4.742  1.00  0.00     0.049 A 
ATOM     42  N   UNL     1       0.181  15.041   3.092  1.00  0.00    -0.248 NA
ATOM     43  C   UNL     1      -1.767  15.080   4.378  1.00  0.00     0.031 C 
ATOM     44  C   UNL     1       1.622  11.533   5.477  1.00  0.00     0.029 A 
ATOM     45  N   UNL     1       2.152  12.986   3.863  1.00  0.00    -0.354 N 
ATOM     46  C   UNL     1      -0.653  16.053   2.636  1.00  0.00     0.074 A 
ATOM     47  C   UNL     1      -1.868  15.986   3.418  1.00  0.00     0.031 C 
ATOM     48  C   UNL     1       2.848  11.212   5.032  1.00  0.00     0.029 A 
ATOM     49  C   UNL     1       3.213  12.119   3.949  1.00  0.00     0.049 A 
ATOM     50  H   UNL     1       2.122  13.741   3.231  1.00  0.00     0.167 HD
ATOM     51  C   UNL     1      -0.416  16.969   1.668  1.00  0.00     0.037 A 
ATOM     52  C   UNL     1       4.345  12.054   3.221  1.00  0.00     0.037 A 
ATOM     53  C   UNL     1       0.803  17.038   0.907  1.00  0.00     0.049 A 
ATOM     54  C   UNL     1       4.567  13.062   2.124  1.00  0.00     0.074 A 
ATOM     55  C   UNL     1       1.162  17.954  -0.065  1.00  0.00     0.029 A 
ATOM     56  N   UNL     1       1.861  16.148   1.030  1.00  0.00    -0.354 N 
ATOM     57  N   UNL     1       3.798  14.051   1.739  1.00  0.00    -0.248 NA
ATOM     58  C   UNL     1       5.818  12.946   1.362  1.00  0.00     0.031 C 
ATOM     59  C   UNL     1       2.412  17.586  -0.571  1.00  0.00     0.029 A 
ATOM     60  C   UNL     1       2.863  16.480   0.133  1.00  0.00     0.049 A 
ATOM     61  H   UNL     1       1.894  15.393   1.662  1.00  0.00     0.167 HD
ATOM     62  C   UNL     1       4.486  14.698   0.721  1.00  0.00     0.074 A 
ATOM     63  C   UNL     1       5.739  13.992   0.552  1.00  0.00     0.031 C 
ATOM     64  C   UNL     1       4.114  15.780  -0.006  1.00  0.00     0.037 A 
BRANCH  51  65
ATOM     65  C   UNL     1      -1.498  17.971   1.377  1.00  0.00     0.064 A 
ATOM     66  C   UNL     1      -1.851  18.965   2.303  1.00  0.00     0.173 A 
ATOM     67  C   UNL     1      -2.166  17.959   0.144  1.00  0.00     0.173 A 
ATOM     68  F   UNL     1      -1.250  19.015   3.502  1.00  0.00    -0.203 F 
ATOM     69  C   UNL     1      -2.854  19.887   2.018  1.00  0.00     0.198 A 
ATOM     70  C   UNL     1      -3.144  18.906  -0.152  1.00  0.00     0.198 A 
ATOM     71  F   UNL     1      -1.865  17.035  -0.781  1.00  0.00    -0.203 F 
ATOM     72  F   UNL     1      -3.211  20.792   2.941  1.00  0.00    -0.200 F 
ATOM     73  C   UNL     1      -3.493  19.863   0.789  1.00  0.00     0.200 A 
ATOM     74  F   UNL     1      -3.749  18.890  -1.347  1.00  0.00    -0.200 F 
ATOM     75  F   UNL     1      -4.452  20.757   0.512  1.00  0.00    -0.200 F 
ENDBRANCH  51  65
BRANCH  52  76
ATOM     76  C   UNL     1       5.361  11.008   3.512  1.00  0.00     0.064 A 
ATOM     77  C   UNL     1       6.619  11.352   4.028  1.00  0.00     0.173 A 
ATOM     78  C   UNL     1       5.107   9.650   3.268  1.00  0.00     0.173 A 
ATOM     79  F   UNL     1       6.918  12.639   4.260  1.00  0.00    -0.203 F 
ATOM     80  C   UNL     1       7.592  10.383   4.261  1.00  0.00     0.198 A 
ATOM     81  C   UNL     1       6.070   8.678   3.533  1.00  0.00     0.198 A 
ATOM     82  F   UNL     1       3.920   9.266   2.778  1.00  0.00    -0.203 F 
ATOM     83  F   UNL     1       8.805  10.746   4.700  1.00  0.00    -0.200 F 
ATOM     84  C   UNL     1       7.315   9.046   4.019  1.00  0.00     0.200 A 
ATOM     85  F   UNL     1       5.793   7.386   3.310  1.00  0.00    -0.200 F 
ATOM     86  F   UNL     1       8.252   8.114   4.242  1.00  0.00    -0.200 F 
ENDBRANCH  52  76
BRANCH  64  87
ATOM     87  C   UNL     1       5.094  16.310  -1.014  1.00  0.00     0.064 A 
ATOM     88  C   UNL     1       5.377  15.625  -2.204  1.00  0.00     0.173 A 
ATOM     89  C   UNL     1       5.707  17.556  -0.811  1.00  0.00     0.173 A 
ATOM     90  F   UNL     1       4.828  14.424  -2.439  1.00  0.00    -0.203 F 
ATOM     91  C   UNL     1       6.253  16.160  -3.145  1.00  0.00     0.198 A 
ATOM     92  C   UNL     1       6.555  18.104  -1.769  1.00  0.00     0.198 A 
ATOM     93  F   UNL     1       5.465  18.255   0.308  1.00  0.00    -0.203 F 
ATOM     94  F   UNL     1       6.542  15.469  -4.257  1.00  0.00    -0.200 F 
ATOM     95  C   UNL     1       6.832  17.403  -2.932  1.00  0.00     0.200 A 
ATOM     96  F   UNL     1       7.098  19.312  -1.569  1.00  0.00    -0.200 F 
ATOM     97  F   UNL     1       7.660  17.923  -3.848  1.00  0.00    -0.200 F 
ENDBRANCH  64  87
ENDBRANCH  38  39
ENDBRANCH  30  33
ENDBRANCH  28  29
ENDBRANCH  27  28
ENDBRANCH  26  27
ENDBRANCH  25  26
ENDBRANCH   1  25
TORSDOF 17
