REMARK SMILES C[NH+]1CC[NH+](CC[C@H]2CCC[C@@]2([NH3+])C(=O)NCCCCCCNC(=O)c2ccc(-c3c4nc(c(-c5c(F)c(F)c(F)c(F)c5F)c5ccc([nH]5)c(-c5c(F)c(F)c(F)c(F)c5F)c5nc(c(-c6c(F)c(F)c(F)c(F)c6F)c6ccc3[nH]6)C=C5)C=C4)cc2)CC1
REMARK SMILES IDX 19 1 18 2 17 3 16 4 14 5 15 6 12 8 8 9 9 10 10 11 11 12 7 13
REMARK SMILES IDX 6 14 5 15 1 16 2 17 3 18 90 19 4 21 89 22 13 24 20 28 21 29
REMARK SMILES IDX 22 30 23 31 24 32 25 34 26 35 27 36 88 37 28 38 87 39 29 40
REMARK SMILES IDX 30 41 31 42 81 43 32 44 86 45 80 46 82 47 33 48 85 49 79 50
REMARK SMILES IDX 78 51 34 53 66 54 46 55 65 56 47 57 50 58 64 59 83 60 48 61
REMARK SMILES IDX 49 62 63 64 84 65 51 66 35 67 36 68 44 69 37 70 38 71 42 72
REMARK SMILES IDX 45 73 39 74 40 75 43 76 41 77 67 78 68 79 76 80 69 81 70 82
REMARK SMILES IDX 74 83 77 84 71 85 72 86 75 87 73 88 52 89 53 90 61 91 54 92
REMARK SMILES IDX 55 93 59 94 62 95 56 96 57 97 60 98 58 99
REMARK H PARENT 16 7 2 20 5 23 13 25 13 26 13 27 23 33 82 52 50 63
REMARK Flexibility Score: inf
ROOT
ATOM      1  C   UNL     1      -0.737   2.915  -2.979  1.00  0.00     0.002 C 
ENDROOT
BRANCH   1   2
ATOM      2  C   UNL     1       0.214   2.314  -1.944  1.00  0.00     0.021 C 
BRANCH   2   3
ATOM      3  C   UNL     1       0.853   3.288  -0.940  1.00  0.00     0.116 C 
BRANCH   3   4
ATOM      4  N   UNL     1      -0.104   3.990  -0.110  1.00  0.00    -0.351 N 
ATOM      5  C   UNL     1      -0.348   4.025   1.228  1.00  0.00     0.281 C 
ATOM      6  O   UNL     1      -1.226   4.839   1.554  1.00  0.00    -0.268 OA
ATOM      7  H   UNL     1      -0.711   4.568  -0.627  1.00  0.00     0.163 HD
BRANCH   5   8
ATOM      8  C   UNL     1       0.377   3.144   2.328  1.00  0.00     0.177 C 
ATOM      9  C   UNL     1       0.377   1.566   2.275  1.00  0.00     0.066 C 
ATOM     10  C   UNL     1       1.829   1.168   2.660  1.00  0.00     0.011 C 
ATOM     11  C   UNL     1       2.492   2.419   3.226  1.00  0.00     0.008 C 
ATOM     12  C   UNL     1       1.853   3.548   2.438  1.00  0.00     0.079 C 
BRANCH   9  13
ATOM     13  C   UNL     1      -0.058   0.944   0.948  1.00  0.00     0.072 C 
BRANCH  13  14
ATOM     14  C   UNL     1      -0.891  -0.343   0.895  1.00  0.00     0.263 C 
BRANCH  14  15
ATOM     15  N   UNL     1      -2.353  -0.263   0.900  1.00  0.00    -0.326 N 
ATOM     16  C   UNL     1      -4.132   3.375   2.438  1.00  0.00     0.333 C 
ATOM     17  N   UNL     1      -4.013   2.029   1.873  1.00  0.00    -0.328 N 
ATOM     18  C   UNL     1      -3.258   1.159   2.788  1.00  0.00     0.324 C 
ATOM     19  C   UNL     1      -3.364   2.074   0.551  1.00  0.00     0.324 C 
ATOM     20  H   UNL     1      -4.950   1.644   1.755  1.00  0.00     0.348 HD
ATOM     21  C   UNL     1      -2.993  -0.244   2.213  1.00  0.00     0.324 C 
ATOM     22  C   UNL     1      -3.014   0.675  -0.024  1.00  0.00     0.324 C 
ATOM     23  H   UNL     1      -2.525  -1.179   0.486  1.00  0.00     0.348 HD
ENDBRANCH  14  15
ENDBRANCH  13  14
ENDBRANCH   9  13
BRANCH   8  24
ATOM     24  N   UNL     1      -0.216   3.519   3.653  1.00  0.00    -0.345 N 
ATOM     25  H   UNL     1       0.227   2.972   4.391  1.00  0.00     0.345 HD
ATOM     26  H   UNL     1      -1.218   3.330   3.643  1.00  0.00     0.345 HD
ATOM     27  H   UNL     1      -0.059   4.512   3.826  1.00  0.00     0.345 HD
ENDBRANCH   8  24
ENDBRANCH   5   8
ENDBRANCH   3   4
ENDBRANCH   2   3
ENDBRANCH   1   2
BRANCH   1  28
ATOM     28  C   UNL     1      -0.098   3.920  -3.932  1.00  0.00     0.002 C 
BRANCH  28  29
ATOM     29  C   UNL     1       1.250   3.483  -4.502  1.00  0.00     0.021 C 
BRANCH  29  30
ATOM     30  C   UNL     1       1.240   2.111  -5.167  1.00  0.00     0.116 C 
BRANCH  30  31
ATOM     31  N   UNL     1       0.510   2.121  -6.422  1.00  0.00    -0.352 N 
ATOM     32  C   UNL     1       1.008   1.952  -7.689  1.00  0.00     0.251 C 
ATOM     33  H   UNL     1      -0.461   2.267  -6.355  1.00  0.00     0.163 HD
ATOM     34  O   UNL     1       0.325   2.200  -8.678  1.00  0.00    -0.269 OA
BRANCH  32  35
ATOM     35  C   UNL     1       2.399   1.487  -7.842  1.00  0.00     0.039 A 
ATOM     36  C   UNL     1       3.283   2.222  -8.631  1.00  0.00     0.014 A 
ATOM     37  C   UNL     1       2.836   0.357  -7.143  1.00  0.00     0.014 A 
ATOM     38  C   UNL     1       4.630   1.858  -8.671  1.00  0.00     0.010 A 
ATOM     39  C   UNL     1       4.190   0.050  -7.116  1.00  0.00     0.010 A 
ATOM     40  C   UNL     1       5.100   0.793  -7.885  1.00  0.00    -0.014 A 
BRANCH  40  41
ATOM     41  C   UNL     1       6.537   0.421  -7.857  1.00  0.00     0.031 A 
ATOM     42  C   UNL     1       6.964  -0.936  -8.341  1.00  0.00     0.074 A 
ATOM     43  C   UNL     1       7.441   1.268  -7.331  1.00  0.00     0.049 A 
ATOM     44  N   UNL     1       8.147  -1.495  -8.311  1.00  0.00    -0.248 NA
ATOM     45  C   UNL     1       5.909  -1.793  -8.905  1.00  0.00     0.031 C 
ATOM     46  C   UNL     1       7.147   2.600  -6.801  1.00  0.00     0.029 A 
ATOM     47  N   UNL     1       8.794   1.129  -7.145  1.00  0.00    -0.354 N 
ATOM     48  C   UNL     1       7.974  -2.769  -8.836  1.00  0.00     0.074 A 
ATOM     49  C   UNL     1       6.563  -2.925  -9.113  1.00  0.00     0.031 C 
ATOM     50  C   UNL     1       8.288   3.167  -6.378  1.00  0.00     0.029 A 
ATOM     51  C   UNL     1       9.386   2.223  -6.561  1.00  0.00     0.049 A 
ATOM     52  H   UNL     1       9.293   0.322  -7.405  1.00  0.00     0.167 HD
ATOM     53  C   UNL     1       8.911  -3.713  -9.090  1.00  0.00     0.037 A 
ATOM     54  C   UNL     1      10.668   2.433  -6.206  1.00  0.00     0.037 A 
ATOM     55  C   UNL     1      10.316  -3.546  -8.822  1.00  0.00     0.049 A 
ATOM     56  C   UNL     1      11.683   1.349  -6.454  1.00  0.00     0.074 A 
ATOM     57  C   UNL     1      11.355  -4.421  -9.082  1.00  0.00     0.029 A 
ATOM     58  N   UNL     1      10.876  -2.426  -8.224  1.00  0.00    -0.354 N 
ATOM     59  N   UNL     1      11.522   0.171  -7.007  1.00  0.00    -0.248 NA
ATOM     60  C   UNL     1      13.062   1.627  -6.028  1.00  0.00     0.031 C 
ATOM     61  C   UNL     1      12.535  -3.857  -8.588  1.00  0.00     0.029 A 
ATOM     62  C   UNL     1      12.243  -2.600  -8.081  1.00  0.00     0.049 A 
ATOM     63  H   UNL     1      10.376  -1.625  -7.944  1.00  0.00     0.167 HD
ATOM     64  C   UNL     1      12.780  -0.415  -7.034  1.00  0.00     0.074 A 
ATOM     65  C   UNL     1      13.697   0.541  -6.446  1.00  0.00     0.031 C 
ATOM     66  C   UNL     1      13.145  -1.632  -7.507  1.00  0.00     0.037 A 
BRANCH  53  67
ATOM     67  C   UNL     1       8.438  -5.014  -9.677  1.00  0.00     0.064 A 
ATOM     68  C   UNL     1       7.901  -5.088 -10.973  1.00  0.00     0.173 A 
ATOM     69  C   UNL     1       8.524  -6.203  -8.938  1.00  0.00     0.173 A 
ATOM     70  F   UNL     1       7.785  -3.980 -11.720  1.00  0.00    -0.203 F 
ATOM     71  C   UNL     1       7.426  -6.292 -11.486  1.00  0.00     0.198 A 
ATOM     72  C   UNL     1       8.083  -7.413  -9.469  1.00  0.00     0.198 A 
ATOM     73  F   UNL     1       9.034  -6.194  -7.697  1.00  0.00    -0.203 F 
ATOM     74  F   UNL     1       6.852  -6.322 -12.697  1.00  0.00    -0.200 F 
ATOM     75  C   UNL     1       7.523  -7.454 -10.736  1.00  0.00     0.200 A 
ATOM     76  F   UNL     1       8.192  -8.538  -8.749  1.00  0.00    -0.200 F 
ATOM     77  F   UNL     1       7.065  -8.612 -11.231  1.00  0.00    -0.200 F 
ENDBRANCH  53  67
BRANCH  54  78
ATOM     78  C   UNL     1      11.073   3.733  -5.610  1.00  0.00     0.064 A 
ATOM     79  C   UNL     1      11.902   4.616  -6.317  1.00  0.00     0.173 A 
ATOM     80  C   UNL     1      10.652   4.120  -4.329  1.00  0.00     0.173 A 
ATOM     81  F   UNL     1      12.348   4.283  -7.537  1.00  0.00    -0.203 F 
ATOM     82  C   UNL     1      12.312   5.825  -5.758  1.00  0.00     0.198 A 
ATOM     83  C   UNL     1      11.037   5.343  -3.784  1.00  0.00     0.198 A 
ATOM     84  F   UNL     1       9.854   3.315  -3.612  1.00  0.00    -0.203 F 
ATOM     85  F   UNL     1      13.143   6.627  -6.438  1.00  0.00    -0.200 F 
ATOM     86  C   UNL     1      11.874   6.190  -4.494  1.00  0.00     0.200 A 
ATOM     87  F   UNL     1      10.600   5.699  -2.568  1.00  0.00    -0.200 F 
ATOM     88  F   UNL     1      12.264   7.355  -3.959  1.00  0.00    -0.200 F 
ENDBRANCH  54  78
BRANCH  66  89
ATOM     89  C   UNL     1      14.605  -1.983  -7.461  1.00  0.00     0.064 A 
ATOM     90  C   UNL     1      15.268  -2.252  -6.255  1.00  0.00     0.173 A 
ATOM     91  C   UNL     1      15.340  -2.096  -8.652  1.00  0.00     0.173 A 
ATOM     92  F   UNL     1      14.615  -2.142  -5.087  1.00  0.00    -0.203 F 
ATOM     93  C   UNL     1      16.617  -2.595  -6.240  1.00  0.00     0.198 A 
ATOM     94  C   UNL     1      16.680  -2.474  -8.636  1.00  0.00     0.198 A 
ATOM     95  F   UNL     1      14.754  -1.857  -9.835  1.00  0.00    -0.203 F 
ATOM     96  F   UNL     1      17.242  -2.798  -5.072  1.00  0.00    -0.200 F 
ATOM     97  C   UNL     1      17.319  -2.715  -7.431  1.00  0.00     0.200 A 
ATOM     98  F   UNL     1      17.351  -2.606  -9.789  1.00  0.00    -0.200 F 
ATOM     99  F   UNL     1      18.614  -3.058  -7.415  1.00  0.00    -0.200 F 
ENDBRANCH  66  89
ENDBRANCH  40  41
ENDBRANCH  32  35
ENDBRANCH  30  31
ENDBRANCH  29  30
ENDBRANCH  28  29
ENDBRANCH   1  28
TORSDOF 17
