REMARK SMILES CC(C)Oc1ccc([C@@H]2CC(=O)Nc3c(C(=O)NCCCCCCNC(=O)c4ccc(-c5c6nc(c(-c7c(F)c(F)c(F)c(F)c7F)c7ccc([nH]7)c(-c7c(F)c(F)c(F)c(F)c7F)c7nc(c(-c8c(F)c(F)c(F)c(F)c8F)c8ccc5[nH]8)C=C7)C=C6)cc4)nsc32)cc1
REMARK SMILES IDX 21 1 20 2 19 3 18 4 16 5 17 6 15 8 9 9 10 10 93 11 11 12
REMARK SMILES IDX 14 13 92 14 12 15 13 16 91 17 8 19 5 20 6 21 95 22 7 23
REMARK SMILES IDX 94 24 4 25 2 26 1 27 3 28 22 29 23 30 24 31 25 32 26 33
REMARK SMILES IDX 27 35 28 36 29 37 90 38 30 39 89 40 31 41 32 42 33 43 83 44
REMARK SMILES IDX 34 45 88 46 82 47 84 48 35 49 87 50 81 51 80 52 36 54 68 55
REMARK SMILES IDX 48 56 67 57 49 58 52 59 66 60 85 61 50 62 51 63 65 65 86 66
REMARK SMILES IDX 53 67 37 68 38 69 46 70 39 71 40 72 44 73 47 74 41 75 42 76
REMARK SMILES IDX 45 77 43 78 69 79 70 80 78 81 71 82 72 83 76 84 79 85 73 86
REMARK SMILES IDX 74 87 77 88 75 89 54 90 55 91 63 92 56 93 57 94 61 95 64 96
REMARK SMILES IDX 58 97 59 98 62 99 60 100
REMARK H PARENT 18 7 13 18 25 34 84 53 52 64
REMARK Flexibility Score: inf
ROOT
ATOM      1  C   UNL     1      -4.715   2.403  10.826  1.00  0.00     0.002 C 
ENDROOT
BRANCH   1   2
ATOM      2  C   UNL     1      -4.963   1.191   9.928  1.00  0.00     0.021 C 
BRANCH   2   3
ATOM      3  C   UNL     1      -3.906   0.884   8.884  1.00  0.00     0.116 C 
BRANCH   3   4
ATOM      4  N   UNL     1      -2.623   0.397   9.334  1.00  0.00    -0.351 N 
ATOM      5  C   UNL     1      -1.692  -0.372   8.645  1.00  0.00     0.273 C 
ATOM      6  O   UNL     1      -0.621  -0.583   9.216  1.00  0.00    -0.267 OA
ATOM      7  H   UNL     1      -2.373   0.643  10.254  1.00  0.00     0.163 HD
BRANCH   5   8
ATOM      8  C   UNL     1      -2.011  -0.963   7.319  1.00  0.00     0.165 A 
ATOM      9  C   UNL     1      -3.905  -1.163   4.060  1.00  0.00     0.073 C 
ATOM     10  C   UNL     1      -4.711   0.152   4.143  1.00  0.00     0.114 C 
ATOM     11  C   UNL     1      -3.057  -1.362   5.273  1.00  0.00     0.058 A 
ATOM     12  C   UNL     1      -4.353   1.117   5.258  1.00  0.00     0.225 C 
ATOM     13  C   UNL     1      -2.760  -0.406   6.211  1.00  0.00     0.089 A 
ATOM     14  S   UNL     1      -2.249  -2.794   5.679  1.00  0.00    -0.038 S 
ATOM     15  O   UNL     1      -5.034   2.119   5.484  1.00  0.00    -0.275 OA
ATOM     16  N   UNL     1      -3.263   0.865   6.039  1.00  0.00    -0.323 N 
ATOM     17  N   UNL     1      -1.610  -2.227   7.096  1.00  0.00    -0.185 NA
ATOM     18  H   UNL     1      -2.820   1.617   6.495  1.00  0.00     0.170 HD
BRANCH   9  19
ATOM     19  C   UNL     1      -3.083  -1.171   2.783  1.00  0.00    -0.039 A 
ATOM     20  C   UNL     1      -1.568  -1.143   0.426  1.00  0.00     0.119 A 
ATOM     21  C   UNL     1      -2.613  -2.055   0.574  1.00  0.00     0.047 A 
ATOM     22  C   UNL     1      -1.326  -0.203   1.420  1.00  0.00     0.047 A 
ATOM     23  C   UNL     1      -3.368  -2.074   1.749  1.00  0.00     0.008 A 
ATOM     24  C   UNL     1      -2.056  -0.233   2.601  1.00  0.00     0.008 A 
BRANCH  20  25
ATOM     25  O   UNL     1      -0.878  -1.159  -0.750  1.00  0.00    -0.491 OA
BRANCH  25  26
ATOM     26  C   UNL     1       0.546  -1.367  -0.676  1.00  0.00     0.167 C 
ATOM     27  C   UNL     1       1.329  -0.120  -0.265  1.00  0.00     0.052 C 
ATOM     28  C   UNL     1       0.950  -2.601   0.132  1.00  0.00     0.052 C 
ENDBRANCH  25  26
ENDBRANCH  20  25
ENDBRANCH   9  19
ENDBRANCH   5   8
ENDBRANCH   3   4
ENDBRANCH   2   3
ENDBRANCH   1   2
BRANCH   1  29
ATOM     29  C   UNL     1      -4.231   3.715  10.186  1.00  0.00     0.002 C 
BRANCH  29  30
ATOM     30  C   UNL     1      -5.002   4.300   8.994  1.00  0.00     0.021 C 
BRANCH  30  31
ATOM     31  C   UNL     1      -6.500   4.466   9.185  1.00  0.00     0.116 C 
BRANCH  31  32
ATOM     32  N   UNL     1      -6.861   5.359  10.279  1.00  0.00    -0.352 N 
ATOM     33  C   UNL     1      -8.129   5.695  10.723  1.00  0.00     0.251 C 
ATOM     34  H   UNL     1      -6.110   5.775  10.762  1.00  0.00     0.163 HD
ATOM     35  O   UNL     1      -8.315   6.703  11.382  1.00  0.00    -0.269 OA
BRANCH  33  36
ATOM     36  C   UNL     1      -9.265   4.816  10.373  1.00  0.00     0.039 A 
ATOM     37  C   UNL     1     -10.508   5.354  10.037  1.00  0.00     0.014 A 
ATOM     38  C   UNL     1      -9.072   3.436  10.370  1.00  0.00     0.014 A 
ATOM     39  C   UNL     1     -11.519   4.494   9.611  1.00  0.00     0.010 A 
ATOM     40  C   UNL     1     -10.013   2.607   9.805  1.00  0.00     0.010 A 
ATOM     41  C   UNL     1     -11.256   3.119   9.461  1.00  0.00    -0.014 A 
BRANCH  41  42
ATOM     42  C   UNL     1     -12.239   2.252   8.810  1.00  0.00     0.031 A 
ATOM     43  C   UNL     1     -12.766   2.799   7.527  1.00  0.00     0.074 A 
ATOM     44  C   UNL     1     -12.544   0.994   9.201  1.00  0.00     0.049 A 
ATOM     45  N   UNL     1     -13.975   3.176   7.276  1.00  0.00    -0.248 NA
ATOM     46  C   UNL     1     -11.813   3.087   6.442  1.00  0.00     0.031 C 
ATOM     47  C   UNL     1     -11.915   0.175  10.242  1.00  0.00     0.029 A 
ATOM     48  N   UNL     1     -13.460   0.134   8.669  1.00  0.00    -0.354 N 
ATOM     49  C   UNL     1     -13.985   3.581   5.946  1.00  0.00     0.074 A 
ATOM     50  C   UNL     1     -12.608   3.652   5.530  1.00  0.00     0.031 C 
ATOM     51  C   UNL     1     -12.304  -1.114  10.109  1.00  0.00     0.029 A 
ATOM     52  C   UNL     1     -13.339  -1.185   9.095  1.00  0.00     0.049 A 
ATOM     53  H   UNL     1     -14.154   0.425   8.034  1.00  0.00     0.167 HD
ATOM     54  C   UNL     1     -15.145   3.594   5.233  1.00  0.00     0.037 A 
ATOM     55  C   UNL     1     -14.033  -2.258   8.635  1.00  0.00     0.037 A 
ATOM     56  C   UNL     1     -16.292   3.614   6.106  1.00  0.00     0.049 A 
ATOM     57  C   UNL     1     -15.256  -1.739   7.977  1.00  0.00     0.074 A 
ATOM     58  C   UNL     1     -16.730   4.467   7.103  1.00  0.00     0.029 A 
ATOM     59  N   UNL     1     -16.984   2.445   6.300  1.00  0.00    -0.354 N 
ATOM     60  N   UNL     1     -16.239  -1.170   8.615  1.00  0.00    -0.248 NA
ATOM     61  C   UNL     1     -15.176  -1.450   6.555  1.00  0.00     0.031 C 
ATOM     62  C   UNL     1     -17.239   3.608   8.123  1.00  0.00     0.029 A 
ATOM     63  C   UNL     1     -17.160   2.298   7.653  1.00  0.00     0.049 A 
ATOM     64  H   UNL     1     -17.295   1.827   5.600  1.00  0.00     0.167 HD
ATOM     65  C   UNL     1     -16.614  -0.116   7.798  1.00  0.00     0.074 A 
ATOM     66  C   UNL     1     -15.980  -0.386   6.510  1.00  0.00     0.031 C 
ATOM     67  C   UNL     1     -17.163   1.019   8.321  1.00  0.00     0.037 A 
BRANCH  54  68
ATOM     68  C   UNL     1     -15.237   3.204   3.778  1.00  0.00     0.064 A 
ATOM     69  C   UNL     1     -16.460   3.362   3.097  1.00  0.00     0.173 A 
ATOM     70  C   UNL     1     -14.275   2.405   3.120  1.00  0.00     0.173 A 
ATOM     71  F   UNL     1     -17.459   4.073   3.642  1.00  0.00    -0.203 F 
ATOM     72  C   UNL     1     -16.722   2.711   1.887  1.00  0.00     0.198 A 
ATOM     73  C   UNL     1     -14.520   1.802   1.889  1.00  0.00     0.198 A 
ATOM     74  F   UNL     1     -13.110   2.077   3.689  1.00  0.00    -0.203 F 
ATOM     75  F   UNL     1     -17.944   2.786   1.343  1.00  0.00    -0.200 F 
ATOM     76  C   UNL     1     -15.753   1.929   1.287  1.00  0.00     0.200 A 
ATOM     77  F   UNL     1     -13.576   1.026   1.337  1.00  0.00    -0.200 F 
ATOM     78  F   UNL     1     -16.021   1.254   0.161  1.00  0.00    -0.200 F 
ENDBRANCH  54  68
BRANCH  55  79
ATOM     79  C   UNL     1     -13.591  -3.663   8.443  1.00  0.00     0.064 A 
ATOM     80  C   UNL     1     -14.526  -4.677   8.164  1.00  0.00     0.173 A 
ATOM     81  C   UNL     1     -12.240  -3.980   8.209  1.00  0.00     0.173 A 
ATOM     82  F   UNL     1     -15.838  -4.449   8.324  1.00  0.00    -0.203 F 
ATOM     83  C   UNL     1     -14.137  -5.912   7.634  1.00  0.00     0.198 A 
ATOM     84  C   UNL     1     -11.853  -5.216   7.685  1.00  0.00     0.198 A 
ATOM     85  F   UNL     1     -11.278  -3.062   8.383  1.00  0.00    -0.203 F 
ATOM     86  F   UNL     1     -15.066  -6.821   7.305  1.00  0.00    -0.200 F 
ATOM     87  C   UNL     1     -12.802  -6.174   7.380  1.00  0.00     0.200 A 
ATOM     88  F   UNL     1     -10.561  -5.444   7.408  1.00  0.00    -0.200 F 
ATOM     89  F   UNL     1     -12.435  -7.326   6.800  1.00  0.00    -0.200 F 
ENDBRANCH  55  79
BRANCH  67  90
ATOM     90  C   UNL     1     -17.605   0.997   9.759  1.00  0.00     0.064 A 
ATOM     91  C   UNL     1     -16.755   0.759  10.855  1.00  0.00     0.173 A 
ATOM     92  C   UNL     1     -18.928   1.363  10.043  1.00  0.00     0.173 A 
ATOM     93  F   UNL     1     -15.454   0.496  10.680  1.00  0.00    -0.203 F 
ATOM     94  C   UNL     1     -17.224   0.843  12.167  1.00  0.00     0.198 A 
ATOM     95  C   UNL     1     -19.383   1.486  11.353  1.00  0.00     0.198 A 
ATOM     96  F   UNL     1     -19.776   1.648   9.042  1.00  0.00    -0.203 F 
ATOM     97  F   UNL     1     -16.398   0.595  13.194  1.00  0.00    -0.200 F 
ATOM     98  C   UNL     1     -18.535   1.215  12.414  1.00  0.00     0.200 A 
ATOM     99  F   UNL     1     -20.639   1.891  11.585  1.00  0.00    -0.200 F 
ATOM    100  F   UNL     1     -18.976   1.335  13.674  1.00  0.00    -0.200 F 
ENDBRANCH  67  90
ENDBRANCH  41  42
ENDBRANCH  33  36
ENDBRANCH  31  32
ENDBRANCH  30  31
ENDBRANCH  29  30
ENDBRANCH   1  29
TORSDOF 16
