REMARK SMILES CS(=O)(=O)N1C[C@@H]2CN(C(=O)C3CCOCC3)C[C@]2(C(=O)NCCCCCCNC(=O)c2ccc(-c3c4nc(c(-c5c(F)c(F)c(F)c(F)c5F)c5ccc([nH]5)c(-c5c(F)c(F)c(F)c(F)c5F)c5nc(c(-c6c(F)c(F)c(F)c(F)c6F)c6ccc3[nH]6)C=C5)C=C4)cc2)C1
REMARK SMILES IDX 25 1 24 2 23 3 22 4 20 5 21 6 19 8 5 9 6 10 95 11 7 12 8 13
REMARK SMILES IDX 18 14 9 15 2 16 1 17 3 18 4 19 10 20 11 21 12 22 13 23 17 24
REMARK SMILES IDX 14 25 16 26 15 27 26 28 27 29 28 30 29 31 30 32 31 34 32 35
REMARK SMILES IDX 33 36 94 37 34 38 93 39 35 40 36 41 37 42 87 43 38 44 92 45
REMARK SMILES IDX 86 46 88 47 39 48 91 49 85 50 84 51 40 53 72 54 52 55 71 56
REMARK SMILES IDX 53 57 56 58 70 59 89 60 54 61 55 62 69 64 90 65 57 66 41 67
REMARK SMILES IDX 42 68 50 69 43 70 44 71 48 72 51 73 45 74 46 75 49 76 47 77
REMARK SMILES IDX 73 78 74 79 82 80 75 81 76 82 80 83 83 84 77 85 78 86 81 87
REMARK SMILES IDX 79 88 58 89 59 90 67 91 60 92 61 93 65 94 68 95 62 96 63 97
REMARK SMILES IDX 66 98 64 99
REMARK H PARENT 22 7 29 33 88 52 56 63
REMARK Flexibility Score: inf
ROOT
ATOM      1  C   UNL     1       1.757   6.474   7.807  1.00  0.00     0.002 C 
ENDROOT
BRANCH   1   2
ATOM      2  C   UNL     1       2.347   5.478   6.809  1.00  0.00     0.021 C 
BRANCH   2   3
ATOM      3  C   UNL     1       1.369   4.617   5.992  1.00  0.00     0.116 C 
BRANCH   3   4
ATOM      4  N   UNL     1       1.411   5.038   4.603  1.00  0.00    -0.356 N 
ATOM      5  C   UNL     1       2.251   4.565   3.623  1.00  0.00     0.229 C 
ATOM      6  O   UNL     1       2.662   5.373   2.787  1.00  0.00    -0.274 OA
ATOM      7  H   UNL     1       0.770   5.736   4.334  1.00  0.00     0.163 HD
BRANCH   5   8
ATOM      8  C   UNL     1       2.572   3.022   3.609  1.00  0.00     0.086 C 
ATOM      9  N   UNL     1       1.237   1.651   1.942  1.00  0.00    -0.201 NA
ATOM     10  C   UNL     1       2.354   0.833   2.353  1.00  0.00     0.108 C 
ATOM     11  C   UNL     1       1.620   3.061   2.289  1.00  0.00     0.121 C 
ATOM     12  C   UNL     1       3.350   1.853   2.857  1.00  0.00     0.042 C 
ATOM     13  C   UNL     1       4.290   1.189   3.832  1.00  0.00     0.125 C 
ATOM     14  C   UNL     1       4.017   3.485   4.181  1.00  0.00     0.138 C 
ATOM     15  N   UNL     1       4.770   2.297   4.584  1.00  0.00    -0.341 N 
BRANCH   9  16
ATOM     16  S   UNL     1       0.497   1.476   0.432  1.00  0.00     0.211 S 
ATOM     17  C   UNL     1       0.742  -0.234  -0.011  1.00  0.00     0.176 C 
ATOM     18  O   UNL     1       1.248   2.267  -0.525  1.00  0.00    -0.213 OA
ATOM     19  O   UNL     1      -0.914   1.701   0.636  1.00  0.00    -0.213 OA
ENDBRANCH   9  16
BRANCH  15  20
ATOM     20  C   UNL     1       5.809   2.099   5.464  1.00  0.00     0.225 C 
ATOM     21  O   UNL     1       6.329   0.980   5.563  1.00  0.00    -0.275 OA
BRANCH  20  22
ATOM     22  C   UNL     1       6.244   3.171   6.458  1.00  0.00     0.083 C 
ATOM     23  C   UNL     1       5.234   3.176   7.602  1.00  0.00     0.042 C 
ATOM     24  C   UNL     1       6.585   4.548   5.889  1.00  0.00     0.042 C 
ATOM     25  C   UNL     1       5.420   4.359   8.524  1.00  0.00     0.161 C 
ATOM     26  C   UNL     1       6.668   5.609   6.979  1.00  0.00     0.161 C 
ATOM     27  O   UNL     1       5.497   5.575   7.793  1.00  0.00    -0.381 OA
ENDBRANCH  20  22
ENDBRANCH  15  20
ENDBRANCH   5   8
ENDBRANCH   3   4
ENDBRANCH   2   3
ENDBRANCH   1   2
BRANCH   1  28
ATOM     28  C   UNL     1       0.842   5.888   8.884  1.00  0.00     0.002 C 
BRANCH  28  29
ATOM     29  C   UNL     1       1.454   4.834   9.811  1.00  0.00     0.021 C 
BRANCH  29  30
ATOM     30  C   UNL     1       2.542   5.298  10.779  1.00  0.00     0.116 C 
BRANCH  30  31
ATOM     31  N   UNL     1       2.214   6.440  11.600  1.00  0.00    -0.352 N 
ATOM     32  C   UNL     1       2.622   6.744  12.875  1.00  0.00     0.251 C 
ATOM     33  H   UNL     1       1.610   7.097  11.184  1.00  0.00     0.163 HD
ATOM     34  O   UNL     1       2.348   7.845  13.348  1.00  0.00    -0.269 OA
BRANCH  32  35
ATOM     35  C   UNL     1       3.314   5.747  13.728  1.00  0.00     0.039 A 
ATOM     36  C   UNL     1       2.825   5.588  15.027  1.00  0.00     0.014 A 
ATOM     37  C   UNL     1       4.419   4.996  13.311  1.00  0.00     0.014 A 
ATOM     38  C   UNL     1       3.398   4.648  15.884  1.00  0.00     0.010 A 
ATOM     39  C   UNL     1       4.955   4.009  14.152  1.00  0.00     0.010 A 
ATOM     40  C   UNL     1       4.447   3.821  15.447  1.00  0.00    -0.014 A 
BRANCH  40  41
ATOM     41  C   UNL     1       4.947   2.753  16.358  1.00  0.00     0.031 A 
ATOM     42  C   UNL     1       6.326   2.807  16.953  1.00  0.00     0.074 A 
ATOM     43  C   UNL     1       4.118   1.745  16.696  1.00  0.00     0.049 A 
ATOM     44  N   UNL     1       6.853   2.053  17.887  1.00  0.00    -0.248 NA
ATOM     45  C   UNL     1       7.241   3.827  16.422  1.00  0.00     0.031 C 
ATOM     46  C   UNL     1       2.775   1.543  16.149  1.00  0.00     0.029 A 
ATOM     47  N   UNL     1       4.265   0.721  17.600  1.00  0.00    -0.354 N 
ATOM     48  C   UNL     1       8.150   2.515  18.067  1.00  0.00     0.074 A 
ATOM     49  C   UNL     1       8.352   3.574  17.100  1.00  0.00     0.031 C 
ATOM     50  C   UNL     1       2.201   0.499  16.766  1.00  0.00     0.029 A 
ATOM     51  C   UNL     1       3.142  -0.061  17.732  1.00  0.00     0.049 A 
ATOM     52  H   UNL     1       5.095   0.561  18.104  1.00  0.00     0.167 HD
ATOM     53  C   UNL     1       9.077   2.112  18.971  1.00  0.00     0.037 A 
ATOM     54  C   UNL     1       2.889  -1.101  18.549  1.00  0.00     0.037 A 
ATOM     55  C   UNL     1       8.876   1.054  19.930  1.00  0.00     0.049 A 
ATOM     56  C   UNL     1       3.936  -1.528  19.542  1.00  0.00     0.074 A 
ATOM     57  C   UNL     1       9.740   0.603  20.914  1.00  0.00     0.029 A 
ATOM     58  N   UNL     1       7.734   0.271  20.019  1.00  0.00    -0.354 N 
ATOM     59  N   UNL     1       5.125  -1.022  19.763  1.00  0.00    -0.248 NA
ATOM     60  C   UNL     1       3.595  -2.661  20.413  1.00  0.00     0.031 C 
ATOM     61  C   UNL     1       9.147  -0.490  21.556  1.00  0.00     0.029 A 
ATOM     62  C   UNL     1       7.883  -0.677  21.021  1.00  0.00     0.049 A 
ATOM     63  H   UNL     1       6.934   0.372  19.453  1.00  0.00     0.167 HD
ATOM     64  C   UNL     1       5.662  -1.755  20.814  1.00  0.00     0.074 A 
ATOM     65  C   UNL     1       4.655  -2.720  21.204  1.00  0.00     0.031 C 
ATOM     66  C   UNL     1       6.880  -1.641  21.400  1.00  0.00     0.037 A 
BRANCH  53  67
ATOM     67  C   UNL     1      10.406   2.818  18.967  1.00  0.00     0.064 A 
ATOM     68  C   UNL     1      10.531   4.157  19.370  1.00  0.00     0.173 A 
ATOM     69  C   UNL     1      11.577   2.135  18.602  1.00  0.00     0.173 A 
ATOM     70  F   UNL     1       9.444   4.860  19.723  1.00  0.00    -0.203 F 
ATOM     71  C   UNL     1      11.770   4.793  19.379  1.00  0.00     0.198 A 
ATOM     72  C   UNL     1      12.819   2.765  18.644  1.00  0.00     0.198 A 
ATOM     73  F   UNL     1      11.520   0.852  18.216  1.00  0.00    -0.203 F 
ATOM     74  F   UNL     1      11.855   6.087  19.719  1.00  0.00    -0.200 F 
ATOM     75  C   UNL     1      12.914   4.095  19.023  1.00  0.00     0.200 A 
ATOM     76  F   UNL     1      13.925   2.083  18.317  1.00  0.00    -0.200 F 
ATOM     77  F   UNL     1      14.107   4.705  19.041  1.00  0.00    -0.200 F 
ENDBRANCH  53  67
BRANCH  54  78
ATOM     78  C   UNL     1       1.571  -1.791  18.490  1.00  0.00     0.064 A 
ATOM     79  C   UNL     1       0.666  -1.725  19.559  1.00  0.00     0.173 A 
ATOM     80  C   UNL     1       1.198  -2.545  17.368  1.00  0.00     0.173 A 
ATOM     81  F   UNL     1       0.984  -1.034  20.664  1.00  0.00    -0.203 F 
ATOM     82  C   UNL     1      -0.547  -2.409  19.520  1.00  0.00     0.198 A 
ATOM     83  C   UNL     1      -0.030  -3.199  17.314  1.00  0.00     0.198 A 
ATOM     84  F   UNL     1       2.024  -2.637  16.315  1.00  0.00    -0.203 F 
ATOM     85  F   UNL     1      -1.368  -2.375  20.578  1.00  0.00    -0.200 F 
ATOM     86  C   UNL     1      -0.897  -3.140  18.395  1.00  0.00     0.200 A 
ATOM     87  F   UNL     1      -0.372  -3.890  16.218  1.00  0.00    -0.200 F 
ATOM     88  F   UNL     1      -2.066  -3.795  18.355  1.00  0.00    -0.200 F 
ENDBRANCH  54  78
BRANCH  66  89
ATOM     89  C   UNL     1       7.173  -2.566  22.551  1.00  0.00     0.064 A 
ATOM     90  C   UNL     1       7.311  -3.951  22.374  1.00  0.00     0.173 A 
ATOM     91  C   UNL     1       7.307  -2.059  23.853  1.00  0.00     0.173 A 
ATOM     92  F   UNL     1       7.181  -4.492  21.152  1.00  0.00    -0.203 F 
ATOM     93  C   UNL     1       7.515  -4.798  23.461  1.00  0.00     0.198 A 
ATOM     94  C   UNL     1       7.551  -2.904  24.933  1.00  0.00     0.198 A 
ATOM     95  F   UNL     1       7.196  -0.742  24.082  1.00  0.00    -0.203 F 
ATOM     96  F   UNL     1       7.562  -6.125  23.275  1.00  0.00    -0.200 F 
ATOM     97  C   UNL     1       7.639  -4.274  24.738  1.00  0.00     0.200 A 
ATOM     98  F   UNL     1       7.688  -2.393  26.164  1.00  0.00    -0.200 F 
ATOM     99  F   UNL     1       7.828  -5.090  25.784  1.00  0.00    -0.200 F 
ENDBRANCH  66  89
ENDBRANCH  40  41
ENDBRANCH  32  35
ENDBRANCH  30  31
ENDBRANCH  29  30
ENDBRANCH  28  29
ENDBRANCH   1  28
TORSDOF 16
