REMARK SMILES O=C1NC(=O)/C(=C/c2ccc(OCc3cn(-c4ccc(C(=O)NCCCCCCNC(=O)c5ccc(-c6c7nc(c(-c8c(F)c(F)c(F)c(F)c8F)c8ccc([nH]8)c(-c8c(F)c(F)c(F)c(F)c8F)c8nc(c(-c9c(F)c(F)c(F)c(F)c9F)c9ccc6[nH]9)C=C8)C=C7)cc5)cc4)nn3)cc2)S1
REMARK SMILES IDX 25 1 24 2 23 3 21 4 22 5 20 7 17 8 18 9 97 10 19 11 96 12
REMARK SMILES IDX 16 13 14 14 15 15 99 16 98 17 13 18 12 19 11 20 8 21 9 22
REMARK SMILES IDX 101 23 10 24 100 25 7 26 1 27 2 28 3 29 102 30 4 31 6 33
REMARK SMILES IDX 5 34 26 35 27 36 28 37 29 38 30 39 31 40 32 42 33 43 34 44
REMARK SMILES IDX 95 45 35 46 94 47 36 48 37 49 38 50 88 51 39 52 93 53 87 54
REMARK SMILES IDX 89 55 40 56 92 57 86 58 85 59 41 61 73 62 53 63 72 64 54 65
REMARK SMILES IDX 57 66 71 67 90 68 55 69 56 70 70 72 91 73 58 74 42 75 43 76
REMARK SMILES IDX 51 77 44 78 45 79 49 80 52 81 46 82 47 83 50 84 48 85 74 86
REMARK SMILES IDX 75 87 83 88 76 89 77 90 81 91 84 92 78 93 79 94 82 95 80 96
REMARK SMILES IDX 59 97 60 98 68 99 61 100 62 101 66 102 69 103 63 104 64 105
REMARK SMILES IDX 67 106 65 107
REMARK H PARENT 23 6 3 32 30 41 89 60 57 71
REMARK Flexibility Score: inf
ROOT
ATOM      1  C   UNL     1      -8.103  10.046  -2.422  1.00  0.00     0.021 C 
ENDROOT
BRANCH   1   2
ATOM      2  C   UNL     1      -7.678  10.489  -1.020  1.00  0.00     0.116 C 
BRANCH   2   3
ATOM      3  N   UNL     1      -8.298   9.630  -0.034  1.00  0.00    -0.352 N 
ATOM      4  C   UNL     1      -7.837   8.574   0.706  1.00  0.00     0.251 C 
ATOM      5  O   UNL     1      -8.647   7.991   1.426  1.00  0.00    -0.269 OA
ATOM      6  H   UNL     1      -9.242   9.849   0.141  1.00  0.00     0.163 HD
BRANCH   4   7
ATOM      7  C   UNL     1      -6.404   8.171   0.745  1.00  0.00     0.039 A 
ATOM      8  C   UNL     1      -3.691   7.597   1.121  1.00  0.00     0.066 A 
ATOM      9  C   UNL     1      -4.626   7.190   2.079  1.00  0.00     0.029 A 
ATOM     10  C   UNL     1      -4.110   8.210  -0.059  1.00  0.00     0.029 A 
ATOM     11  C   UNL     1      -5.970   7.514   1.906  1.00  0.00     0.016 A 
ATOM     12  C   UNL     1      -5.474   8.418  -0.270  1.00  0.00     0.016 A 
BRANCH   8  13
ATOM     13  N   UNL     1      -2.326   7.348   1.343  1.00  0.00    -0.220 N 
ATOM     14  C   UNL     1      -0.147   7.368   1.378  1.00  0.00     0.120 A 
ATOM     15  C   UNL     1      -1.238   8.079   0.923  1.00  0.00     0.144 A 
ATOM     16  N   UNL     1      -0.603   6.279   2.075  1.00  0.00    -0.131 NA
ATOM     17  N   UNL     1      -1.921   6.297   2.081  1.00  0.00    -0.062 NA
BRANCH  14  18
ATOM     18  C   UNL     1       1.316   7.665   1.324  1.00  0.00     0.289 C 
BRANCH  18  19
ATOM     19  O   UNL     1       2.051   6.990   0.287  1.00  0.00    -0.487 OA
BRANCH  19  20
ATOM     20  C   UNL     1       2.178   5.629   0.354  1.00  0.00     0.119 A 
ATOM     21  C   UNL     1       2.209   2.827   0.122  1.00  0.00    -0.024 A 
ATOM     22  C   UNL     1       2.688   3.623  -0.921  1.00  0.00     0.012 A 
ATOM     23  C   UNL     1       1.814   3.437   1.314  1.00  0.00     0.012 A 
ATOM     24  C   UNL     1       2.662   5.019  -0.805  1.00  0.00     0.047 A 
ATOM     25  C   UNL     1       1.835   4.827   1.439  1.00  0.00     0.047 A 
BRANCH  21  26
ATOM     26  C   UNL     1       2.140   1.370  -0.012  1.00  0.00     0.029 C 
ATOM     27  O   UNL     1      -2.450  -0.717   0.024  1.00  0.00    -0.261 OA
ATOM     28  C   UNL     1      -1.253  -0.436  -0.001  1.00  0.00     0.290 C 
ATOM     29  N   UNL     1      -0.237  -1.325  -0.045  1.00  0.00    -0.282 N 
ATOM     30  S   UNL     1      -0.623   1.196   0.010  1.00  0.00    -0.022 SA
ATOM     31  C   UNL     1       1.039  -0.841  -0.076  1.00  0.00     0.265 C 
ATOM     32  H   UNL     1      -0.412  -2.294  -0.053  1.00  0.00     0.174 HD
ATOM     33  C   UNL     1       1.012   0.645  -0.032  1.00  0.00     0.083 C 
ATOM     34  O   UNL     1       2.042  -1.529  -0.119  1.00  0.00    -0.268 OA
ENDBRANCH  21  26
ENDBRANCH  19  20
ENDBRANCH  18  19
ENDBRANCH  14  18
ENDBRANCH   8  13
ENDBRANCH   4   7
ENDBRANCH   2   3
ENDBRANCH   1   2
BRANCH   1  35
ATOM     35  C   UNL     1      -9.511  10.531  -2.789  1.00  0.00     0.002 C 
BRANCH  35  36
ATOM     36  C   UNL     1      -9.723  12.052  -2.679  1.00  0.00     0.002 C 
BRANCH  36  37
ATOM     37  C   UNL     1      -8.678  12.931  -3.386  1.00  0.00     0.021 C 
BRANCH  37  38
ATOM     38  C   UNL     1      -8.758  12.850  -4.900  1.00  0.00     0.116 C 
BRANCH  38  39
ATOM     39  N   UNL     1     -10.014  13.414  -5.414  1.00  0.00    -0.352 N 
ATOM     40  C   UNL     1     -10.518  13.429  -6.702  1.00  0.00     0.251 C 
ATOM     41  H   UNL     1     -10.585  13.846  -4.738  1.00  0.00     0.163 HD
ATOM     42  O   UNL     1     -11.369  14.243  -7.040  1.00  0.00    -0.269 OA
BRANCH  40  43
ATOM     43  C   UNL     1     -10.030  12.425  -7.659  1.00  0.00     0.039 A 
ATOM     44  C   UNL     1      -9.882  12.666  -9.029  1.00  0.00     0.014 A 
ATOM     45  C   UNL     1      -9.678  11.200  -7.120  1.00  0.00     0.014 A 
ATOM     46  C   UNL     1      -9.378  11.640  -9.827  1.00  0.00     0.010 A 
ATOM     47  C   UNL     1      -8.847  10.391  -7.821  1.00  0.00     0.010 A 
ATOM     48  C   UNL     1      -8.886  10.492  -9.196  1.00  0.00    -0.014 A 
BRANCH  48  49
ATOM     49  C   UNL     1      -8.331   9.348  -9.889  1.00  0.00     0.031 A 
ATOM     50  C   UNL     1      -7.032   9.632 -10.529  1.00  0.00     0.074 A 
ATOM     51  C   UNL     1      -8.793   8.096  -9.663  1.00  0.00     0.049 A 
ATOM     52  N   UNL     1      -6.793   9.735 -11.791  1.00  0.00    -0.248 NA
ATOM     53  C   UNL     1      -5.910  10.049  -9.671  1.00  0.00     0.031 C 
ATOM     54  C   UNL     1      -9.843   7.653  -8.733  1.00  0.00     0.029 A 
ATOM     55  N   UNL     1      -8.312   6.917 -10.142  1.00  0.00    -0.354 N 
ATOM     56  C   UNL     1      -5.432   9.997 -11.889  1.00  0.00     0.074 A 
ATOM     57  C   UNL     1      -5.019  10.438 -10.585  1.00  0.00     0.031 C 
ATOM     58  C   UNL     1      -9.757   6.315  -8.551  1.00  0.00     0.029 A 
ATOM     59  C   UNL     1      -8.749   5.787  -9.449  1.00  0.00     0.049 A 
ATOM     60  H   UNL     1      -7.703   6.865 -10.915  1.00  0.00     0.167 HD
ATOM     61  C   UNL     1      -4.712   9.533 -12.948  1.00  0.00     0.037 A 
ATOM     62  C   UNL     1      -8.231   4.538  -9.586  1.00  0.00     0.037 A 
ATOM     63  C   UNL     1      -5.596   9.083 -14.001  1.00  0.00     0.049 A 
ATOM     64  C   UNL     1      -7.487   4.521 -10.881  1.00  0.00     0.074 A 
ATOM     65  C   UNL     1      -6.617   9.680 -14.719  1.00  0.00     0.029 A 
ATOM     66  N   UNL     1      -5.792   7.728 -14.139  1.00  0.00    -0.354 N 
ATOM     67  N   UNL     1      -8.070   4.629 -12.046  1.00  0.00    -0.248 NA
ATOM     68  C   UNL     1      -6.087   4.927 -10.845  1.00  0.00     0.031 C 
ATOM     69  C   UNL     1      -7.641   8.687 -14.789  1.00  0.00     0.029 A 
ATOM     70  C   UNL     1      -7.146   7.516 -14.216  1.00  0.00     0.049 A 
ATOM     71  H   UNL     1      -5.091   7.038 -14.175  1.00  0.00     0.167 HD
ATOM     72  C   UNL     1      -7.268   5.508 -12.762  1.00  0.00     0.074 A 
ATOM     73  C   UNL     1      -6.033   5.618 -11.988  1.00  0.00     0.031 C 
ATOM     74  C   UNL     1      -7.787   6.313 -13.738  1.00  0.00     0.037 A 
BRANCH  61  75
ATOM     75  C   UNL     1      -3.264   9.102 -12.886  1.00  0.00     0.064 A 
ATOM     76  C   UNL     1      -2.630   8.720 -14.085  1.00  0.00     0.173 A 
ATOM     77  C   UNL     1      -2.567   8.768 -11.703  1.00  0.00     0.173 A 
ATOM     78  F   UNL     1      -3.195   8.988 -15.272  1.00  0.00    -0.203 F 
ATOM     79  C   UNL     1      -1.453   7.968 -14.094  1.00  0.00     0.198 A 
ATOM     80  C   UNL     1      -1.364   8.066 -11.718  1.00  0.00     0.198 A 
ATOM     81  F   UNL     1      -3.058   8.999 -10.482  1.00  0.00    -0.203 F 
ATOM     82  F   UNL     1      -0.968   7.509 -15.255  1.00  0.00    -0.200 F 
ATOM     83  C   UNL     1      -0.827   7.632 -12.909  1.00  0.00     0.200 A 
ATOM     84  F   UNL     1      -0.779   7.743 -10.556  1.00  0.00    -0.200 F 
ATOM     85  F   UNL     1       0.263   6.855 -12.909  1.00  0.00    -0.200 F 
ENDBRANCH  61  75
BRANCH  62  86
ATOM     86  C   UNL     1      -8.046   3.501  -8.537  1.00  0.00     0.064 A 
ATOM     87  C   UNL     1      -7.754   2.166  -8.866  1.00  0.00     0.173 A 
ATOM     88  C   UNL     1      -7.887   3.852  -7.181  1.00  0.00     0.173 A 
ATOM     89  F   UNL     1      -7.827   1.755 -10.141  1.00  0.00    -0.203 F 
ATOM     90  C   UNL     1      -7.316   1.247  -7.902  1.00  0.00     0.198 A 
ATOM     91  C   UNL     1      -7.457   2.934  -6.220  1.00  0.00     0.198 A 
ATOM     92  F   UNL     1      -8.052   5.119  -6.775  1.00  0.00    -0.203 F 
ATOM     93  F   UNL     1      -6.993  -0.003  -8.266  1.00  0.00    -0.200 F 
ATOM     94  C   UNL     1      -7.160   1.635  -6.582  1.00  0.00     0.200 A 
ATOM     95  F   UNL     1      -7.271   3.338  -4.955  1.00  0.00    -0.200 F 
ATOM     96  F   UNL     1      -6.685   0.774  -5.671  1.00  0.00    -0.200 F 
ENDBRANCH  62  86
BRANCH  74  97
ATOM     97  C   UNL     1      -9.201   6.078 -14.195  1.00  0.00     0.064 A 
ATOM     98  C   UNL     1     -10.331   6.162 -13.362  1.00  0.00     0.173 A 
ATOM     99  C   UNL     1      -9.431   5.934 -15.570  1.00  0.00     0.173 A 
ATOM    100  F   UNL     1     -10.207   6.410 -12.053  1.00  0.00    -0.203 F 
ATOM    101  C   UNL     1     -11.623   6.059 -13.878  1.00  0.00     0.198 A 
ATOM    102  C   UNL     1     -10.722   5.872 -16.088  1.00  0.00     0.198 A 
ATOM    103  F   UNL     1      -8.396   5.908 -16.424  1.00  0.00    -0.203 F 
ATOM    104  F   UNL     1     -12.682   6.133 -13.058  1.00  0.00    -0.200 F 
ATOM    105  C   UNL     1     -11.817   5.923 -15.242  1.00  0.00     0.200 A 
ATOM    106  F   UNL     1     -10.902   5.796 -17.414  1.00  0.00    -0.200 F 
ATOM    107  F   UNL     1     -13.058   5.868 -15.745  1.00  0.00    -0.200 F 
ENDBRANCH  74  97
ENDBRANCH  48  49
ENDBRANCH  40  43
ENDBRANCH  38  39
ENDBRANCH  37  38
ENDBRANCH  36  37
ENDBRANCH  35  36
ENDBRANCH   1  35
TORSDOF 18
