REMARK SMILES CC1=C(C)C[C@@H](C(=O)N[C@@H](C)CCc2ccccc2)[C@H](C(=O)NCCCCCCNC(=O)c2ccc(-c3c4nc(c(-c5c(F)c(F)c(F)c(F)c5F)c5ccc([nH]5)c(-c5c(F)c(F)c(F)c(F)c5F)c5nc(c(-c6c(F)c(F)c(F)c(F)c6F)c6ccc3[nH]6)C=C5)C=C4)cc2)C1
REMARK SMILES IDX 25 1 24 2 23 3 21 4 22 5 20 7 1 8 2 9 3 10 96 11 4 12 5 13
REMARK SMILES IDX 6 14 7 15 8 16 9 17 10 19 11 20 12 21 13 22 14 23 15 24
REMARK SMILES IDX 19 25 16 26 18 27 17 28 26 29 27 30 28 31 29 32 30 33 31 34
REMARK SMILES IDX 32 36 33 37 34 38 95 39 35 40 94 41 36 42 37 43 38 44 88 45
REMARK SMILES IDX 39 46 93 47 87 48 89 49 40 50 92 51 86 52 85 53 41 55 73 56
REMARK SMILES IDX 53 57 72 58 54 59 57 60 71 61 90 62 55 63 56 64 70 66 91 67
REMARK SMILES IDX 58 68 42 69 43 70 51 71 44 72 45 73 49 74 52 75 46 76 47 77
REMARK SMILES IDX 50 78 48 79 74 80 75 81 83 82 76 83 77 84 81 85 84 86 78 87
REMARK SMILES IDX 79 88 82 89 80 90 59 91 60 92 68 93 61 94 62 95 66 96 69 97
REMARK SMILES IDX 63 98 64 99 67 100 65 101
REMARK H PARENT 23 6 9 18 30 35 89 54 57 65
REMARK Flexibility Score: inf
ROOT
ATOM      1  C   UNL     1       3.731  -2.665  -3.808  1.00  0.00     0.021 C 
ENDROOT
BRANCH   1   2
ATOM      2  C   UNL     1       2.784  -1.516  -3.517  1.00  0.00     0.116 C 
BRANCH   2   3
ATOM      3  N   UNL     1       1.925  -1.224  -4.635  1.00  0.00    -0.356 N 
ATOM      4  C   UNL     1       0.567  -1.183  -4.683  1.00  0.00     0.224 C 
ATOM      5  O   UNL     1       0.046  -0.892  -5.763  1.00  0.00    -0.275 OA
ATOM      6  H   UNL     1       2.385  -1.025  -5.482  1.00  0.00     0.163 HD
BRANCH   4   7
ATOM      7  C   UNL     1      -0.299  -1.465  -3.451  1.00  0.00     0.095 C 
ATOM      8  C   UNL     1       0.775   0.392  -0.259  1.00  0.00     0.039 C 
ATOM      9  C   UNL     1       0.661  -1.030  -0.932  1.00  0.00    -0.074 C 
ATOM     10  C   UNL     1       0.981  -2.402  -0.459  1.00  0.00    -0.074 C 
ATOM     11  C   UNL     1       0.050  -0.573  -2.293  1.00  0.00     0.045 C 
ATOM     12  C   UNL     1       1.723  -3.290   1.373  1.00  0.00     0.039 C 
ATOM     13  C   UNL     1       0.464  -3.355  -1.880  1.00  0.00     0.045 C 
ATOM     14  C   UNL     1      -0.382  -2.904  -3.074  1.00  0.00     0.095 C 
BRANCH  14  15
ATOM     15  C   UNL     1      -1.824  -3.445  -2.999  1.00  0.00     0.224 C 
ATOM     16  O   UNL     1      -2.248  -4.183  -3.895  1.00  0.00    -0.275 OA
ATOM     17  N   UNL     1      -2.671  -3.188  -1.963  1.00  0.00    -0.353 N 
ATOM     18  H   UNL     1      -3.516  -3.693  -1.988  1.00  0.00     0.163 HD
BRANCH  17  19
ATOM     19  C   UNL     1      -2.531  -2.292  -0.828  1.00  0.00     0.079 C 
ATOM     20  C   UNL     1      -3.466  -1.095  -0.992  1.00  0.00     0.031 C 
BRANCH  19  21
ATOM     21  C   UNL     1      -2.735  -2.980   0.536  1.00  0.00     0.029 C 
BRANCH  21  22
ATOM     22  C   UNL     1      -1.685  -4.040   0.906  1.00  0.00     0.037 C 
BRANCH  22  23
ATOM     23  C   UNL     1      -0.262  -3.551   0.864  1.00  0.00    -0.048 A 
ATOM     24  C   UNL     1       0.986  -4.592   0.019  1.00  0.00     0.004 A 
ATOM     25  C   UNL     1       0.219  -1.921   1.499  1.00  0.00     0.004 A 
ATOM     26  C   UNL     1       2.609  -3.902  -0.394  1.00  0.00     0.000 A 
ATOM     27  C   UNL     1       1.927  -1.294   1.192  1.00  0.00     0.000 A 
ATOM     28  C   UNL     1       3.072  -2.254   0.180  1.00  0.00     0.000 A 
ENDBRANCH  22  23
ENDBRANCH  21  22
ENDBRANCH  19  21
ENDBRANCH  17  19
ENDBRANCH  14  15
ENDBRANCH   4   7
ENDBRANCH   2   3
ENDBRANCH   1   2
BRANCH   1  29
ATOM     29  C   UNL     1       4.962  -2.226  -4.592  1.00  0.00     0.002 C 
BRANCH  29  30
ATOM     30  C   UNL     1       5.775  -1.120  -3.907  1.00  0.00     0.002 C 
BRANCH  30  31
ATOM     31  C   UNL     1       6.191  -1.427  -2.465  1.00  0.00     0.021 C 
BRANCH  31  32
ATOM     32  C   UNL     1       6.957  -2.734  -2.301  1.00  0.00     0.116 C 
BRANCH  32  33
ATOM     33  N   UNL     1       8.139  -2.752  -3.143  1.00  0.00    -0.352 N 
ATOM     34  C   UNL     1       9.456  -2.875  -2.796  1.00  0.00     0.251 C 
ATOM     35  H   UNL     1       7.968  -2.662  -4.108  1.00  0.00     0.163 HD
ATOM     36  O   UNL     1      10.332  -2.561  -3.596  1.00  0.00    -0.269 OA
BRANCH  34  37
ATOM     37  C   UNL     1       9.823  -3.386  -1.461  1.00  0.00     0.039 A 
ATOM     38  C   UNL     1      10.934  -2.837  -0.822  1.00  0.00     0.014 A 
ATOM     39  C   UNL     1       9.113  -4.432  -0.863  1.00  0.00     0.014 A 
ATOM     40  C   UNL     1      11.317  -3.320   0.428  1.00  0.00     0.010 A 
ATOM     41  C   UNL     1       9.438  -4.848   0.424  1.00  0.00     0.010 A 
ATOM     42  C   UNL     1      10.557  -4.311   1.075  1.00  0.00    -0.014 A 
BRANCH  42  43
ATOM     43  C   UNL     1      10.945  -4.783   2.428  1.00  0.00     0.031 A 
ATOM     44  C   UNL     1      11.344  -6.215   2.657  1.00  0.00     0.074 A 
ATOM     45  C   UNL     1      10.940  -3.909   3.453  1.00  0.00     0.049 A 
ATOM     46  N   UNL     1      11.746  -6.793   3.761  1.00  0.00    -0.248 NA
ATOM     47  C   UNL     1      11.262  -7.125   1.503  1.00  0.00     0.031 C 
ATOM     48  C   UNL     1      10.522  -2.509   3.365  1.00  0.00     0.029 A 
ATOM     49  N   UNL     1      11.306  -4.064   4.766  1.00  0.00    -0.354 N 
ATOM     50  C   UNL     1      11.977  -8.122   3.431  1.00  0.00     0.074 A 
ATOM     51  C   UNL     1      11.592  -8.287   2.047  1.00  0.00     0.031 C 
ATOM     52  C   UNL     1      10.696  -1.921   4.559  1.00  0.00     0.029 A 
ATOM     53  C   UNL     1      11.189  -2.914   5.508  1.00  0.00     0.049 A 
ATOM     54  H   UNL     1      11.622  -4.917   5.141  1.00  0.00     0.167 HD
ATOM     55  C   UNL     1      12.500  -9.107   4.200  1.00  0.00     0.037 A 
ATOM     56  C   UNL     1      11.444  -2.687   6.810  1.00  0.00     0.037 A 
ATOM     57  C   UNL     1      12.875  -8.941   5.581  1.00  0.00     0.049 A 
ATOM     58  C   UNL     1      11.979  -3.815   7.653  1.00  0.00     0.074 A 
ATOM     59  C   UNL     1      13.427  -9.871   6.444  1.00  0.00     0.029 A 
ATOM     60  N   UNL     1      12.728  -7.766   6.304  1.00  0.00    -0.354 N 
ATOM     61  N   UNL     1      12.258  -5.049   7.310  1.00  0.00    -0.248 NA
ATOM     62  C   UNL     1      12.248  -3.511   9.064  1.00  0.00     0.031 C 
ATOM     63  C   UNL     1      13.555  -9.279   7.704  1.00  0.00     0.029 A 
ATOM     64  C   UNL     1      13.158  -7.956   7.609  1.00  0.00     0.049 A 
ATOM     65  H   UNL     1      12.372  -6.922   5.944  1.00  0.00     0.167 HD
ATOM     66  C   UNL     1      12.766  -5.657   8.451  1.00  0.00     0.074 A 
ATOM     67  C   UNL     1      12.785  -4.645   9.486  1.00  0.00     0.031 C 
ATOM     68  C   UNL     1      13.176  -6.938   8.629  1.00  0.00     0.037 A 
BRANCH  55  69
ATOM     69  C   UNL     1      12.706 -10.454   3.563  1.00  0.00     0.064 A 
ATOM     70  C   UNL     1      13.657 -10.648   2.548  1.00  0.00     0.173 A 
ATOM     71  C   UNL     1      11.981 -11.573   3.999  1.00  0.00     0.173 A 
ATOM     72  F   UNL     1      14.372  -9.611   2.085  1.00  0.00    -0.203 F 
ATOM     73  C   UNL     1      13.853 -11.902   1.976  1.00  0.00     0.198 A 
ATOM     74  C   UNL     1      12.207 -12.834   3.451  1.00  0.00     0.198 A 
ATOM     75  F   UNL     1      11.063 -11.450   4.970  1.00  0.00    -0.203 F 
ATOM     76  F   UNL     1      14.729 -12.049   0.972  1.00  0.00    -0.200 F 
ATOM     77  C   UNL     1      13.135 -12.995   2.434  1.00  0.00     0.200 A 
ATOM     78  F   UNL     1      11.525 -13.893   3.908  1.00  0.00    -0.200 F 
ATOM     79  F   UNL     1      13.334 -14.204   1.891  1.00  0.00    -0.200 F 
ENDBRANCH  55  69
BRANCH  56  80
ATOM     80  C   UNL     1      11.194  -1.345   7.403  1.00  0.00     0.064 A 
ATOM     81  C   UNL     1      12.240  -0.570   7.925  1.00  0.00     0.173 A 
ATOM     82  C   UNL     1       9.893  -0.828   7.501  1.00  0.00     0.173 A 
ATOM     83  F   UNL     1      13.501  -1.023   7.870  1.00  0.00    -0.203 F 
ATOM     84  C   UNL     1      11.989   0.642   8.564  1.00  0.00     0.198 A 
ATOM     85  C   UNL     1       9.649   0.405   8.101  1.00  0.00     0.198 A 
ATOM     86  F   UNL     1       8.854  -1.520   7.009  1.00  0.00    -0.203 F 
ATOM     87  F   UNL     1      12.999   1.322   9.125  1.00  0.00    -0.200 F 
ATOM     88  C   UNL     1      10.695   1.131   8.648  1.00  0.00     0.200 A 
ATOM     89  F   UNL     1       8.398   0.883   8.158  1.00  0.00    -0.200 F 
ATOM     90  F   UNL     1      10.453   2.294   9.268  1.00  0.00    -0.200 F 
ENDBRANCH  56  80
BRANCH  68  91
ATOM     91  C   UNL     1      13.727  -7.299   9.982  1.00  0.00     0.064 A 
ATOM     92  C   UNL     1      12.926  -7.311  11.134  1.00  0.00     0.173 A 
ATOM     93  C   UNL     1      15.083  -7.636  10.126  1.00  0.00     0.173 A 
ATOM     94  F   UNL     1      11.626  -6.988  11.057  1.00  0.00    -0.203 F 
ATOM     95  C   UNL     1      13.472  -7.591  12.384  1.00  0.00     0.198 A 
ATOM     96  C   UNL     1      15.615  -7.962  11.370  1.00  0.00     0.198 A 
ATOM     97  F   UNL     1      15.894  -7.654   9.058  1.00  0.00    -0.203 F 
ATOM     98  F   UNL     1      12.705  -7.513  13.480  1.00  0.00    -0.200 F 
ATOM     99  C   UNL     1      14.814  -7.921  12.501  1.00  0.00     0.200 A 
ATOM    100  F   UNL     1      16.906  -8.303  11.476  1.00  0.00    -0.200 F 
ATOM    101  F   UNL     1      15.338  -8.189  13.705  1.00  0.00    -0.200 F 
ENDBRANCH  68  91
ENDBRANCH  42  43
ENDBRANCH  34  37
ENDBRANCH  32  33
ENDBRANCH  31  32
ENDBRANCH  30  31
ENDBRANCH  29  30
ENDBRANCH   1  29
TORSDOF 18
