REMARK SMILES Cc1nc(N2CCN(c3ccccc3)CC2)nc(OCC(=O)NCCCCCCNC(=O)c2ccc(-c3c4nc(c(-c5c(F)c(F)c(F)c(F)c5F)c5ccc([nH]5)c(-c5c(F)c(F)c(F)c(F)c5F)c5nc(c(-c6c(F)c(F)c(F)c(F)c6F)c6ccc3[nH]6)C=C5)C=C4)cc2)c1C
REMARK SMILES IDX 25 1 24 2 23 3 21 4 22 5 20 7 19 8 18 9 1 10 2 11 3 12 96 13
REMARK SMILES IDX 4 14 97 15 17 16 5 17 6 18 16 19 7 20 15 21 8 22 9 23 10 24
REMARK SMILES IDX 14 25 11 26 13 27 12 28 26 29 27 30 28 31 29 32 30 33 31 34
REMARK SMILES IDX 32 36 33 37 34 38 95 39 35 40 94 41 36 42 37 43 38 44 88 45
REMARK SMILES IDX 39 46 93 47 87 48 89 49 40 50 92 51 86 52 85 53 41 55 73 56
REMARK SMILES IDX 53 57 72 58 54 59 57 60 71 61 90 62 55 63 56 64 70 66 91 67
REMARK SMILES IDX 58 68 42 69 43 70 51 71 44 72 45 73 49 74 52 75 46 76 47 77
REMARK SMILES IDX 50 78 48 79 74 80 75 81 83 82 76 83 77 84 81 85 84 86 78 87
REMARK SMILES IDX 79 88 82 89 80 90 59 91 60 92 68 93 61 94 62 95 66 96 69 97
REMARK SMILES IDX 63 98 64 99 67 100 65 101
REMARK H PARENT 23 6 30 35 89 54 57 65
REMARK Flexibility Score: inf
ROOT
ATOM      1  C   UNL     1       2.391   1.978   5.977  1.00  0.00     0.021 C 
ENDROOT
BRANCH   1   2
ATOM      2  C   UNL     1       1.469   3.189   5.853  1.00  0.00     0.116 C 
BRANCH   2   3
ATOM      3  N   UNL     1       1.603   3.860   4.576  1.00  0.00    -0.353 N 
ATOM      4  C   UNL     1       0.673   4.028   3.596  1.00  0.00     0.258 C 
ATOM      5  O   UNL     1       0.954   4.756   2.641  1.00  0.00    -0.271 OA
ATOM      6  H   UNL     1       2.489   4.248   4.392  1.00  0.00     0.163 HD
BRANCH   4   7
ATOM      7  C   UNL     1      -0.708   3.378   3.719  1.00  0.00     0.331 C 
BRANCH   7   8
ATOM      8  O   UNL     1      -0.811   2.014   4.024  1.00  0.00    -0.467 OA
BRANCH   8   9
ATOM      9  C   UNL     1      -0.413   0.989   3.241  1.00  0.00     0.221 A 
ATOM     10  C   UNL     1       0.991  -0.517   0.093  1.00  0.00     0.067 C 
ATOM     11  C   UNL     1       0.452  -0.289   1.479  1.00  0.00     0.050 A 
ATOM     12  N   UNL     1       0.395  -1.404   2.236  1.00  0.00    -0.218 NA
ATOM     13  C   UNL     1       0.068   0.975   1.941  1.00  0.00     0.033 A 
ATOM     14  C   UNL     1      -0.121  -1.298   3.458  1.00  0.00     0.229 A 
ATOM     15  C   UNL     1       0.266   2.170   1.065  1.00  0.00     0.052 C 
ATOM     16  N   UNL     1      -0.550  -0.142   3.961  1.00  0.00    -0.177 NA
BRANCH  14  17
ATOM     17  N   UNL     1      -0.160  -2.393   4.285  1.00  0.00    -0.337 N 
ATOM     18  C   UNL     1       0.860  -3.425   4.118  1.00  0.00     0.141 C 
ATOM     19  C   UNL     1      -1.499  -2.872   4.642  1.00  0.00     0.141 C 
ATOM     20  C   UNL     1       0.953  -4.262   5.415  1.00  0.00     0.138 C 
ATOM     21  C   UNL     1      -1.441  -3.782   5.891  1.00  0.00     0.138 C 
ATOM     22  N   UNL     1      -0.375  -4.795   5.758  1.00  0.00    -0.368 N 
BRANCH  22  23
ATOM     23  C   UNL     1      -0.483  -5.941   6.526  1.00  0.00     0.037 A 
ATOM     24  C   UNL     1       0.320  -6.186   7.645  1.00  0.00     0.026 A 
ATOM     25  C   UNL     1      -1.418  -6.918   6.160  1.00  0.00     0.026 A 
ATOM     26  C   UNL     1       0.200  -7.377   8.369  1.00  0.00     0.002 A 
ATOM     27  C   UNL     1      -1.532  -8.116   6.867  1.00  0.00     0.002 A 
ATOM     28  C   UNL     1      -0.720  -8.346   7.974  1.00  0.00     0.000 A 
ENDBRANCH  22  23
ENDBRANCH  14  17
ENDBRANCH   8   9
ENDBRANCH   7   8
ENDBRANCH   4   7
ENDBRANCH   2   3
ENDBRANCH   1   2
BRANCH   1  29
ATOM     29  C   UNL     1       3.889   2.265   5.797  1.00  0.00     0.002 C 
BRANCH  29  30
ATOM     30  C   UNL     1       4.475   3.385   6.664  1.00  0.00     0.002 C 
BRANCH  30  31
ATOM     31  C   UNL     1       4.216   3.270   8.166  1.00  0.00     0.021 C 
BRANCH  31  32
ATOM     32  C   UNL     1       4.698   1.975   8.808  1.00  0.00     0.116 C 
BRANCH  32  33
ATOM     33  N   UNL     1       6.146   1.850   8.798  1.00  0.00    -0.352 N 
ATOM     34  C   UNL     1       7.016   1.675   9.849  1.00  0.00     0.251 C 
ATOM     35  H   UNL     1       6.566   1.897   7.908  1.00  0.00     0.163 HD
ATOM     36  O   UNL     1       8.224   1.744   9.673  1.00  0.00    -0.269 OA
BRANCH  34  37
ATOM     37  C   UNL     1       6.484   1.429  11.208  1.00  0.00     0.039 A 
ATOM     38  C   UNL     1       7.013   2.154  12.279  1.00  0.00     0.014 A 
ATOM     39  C   UNL     1       5.471   0.491  11.427  1.00  0.00     0.014 A 
ATOM     40  C   UNL     1       6.481   1.986  13.559  1.00  0.00     0.010 A 
ATOM     41  C   UNL     1       4.893   0.377  12.688  1.00  0.00     0.010 A 
ATOM     42  C   UNL     1       5.394   1.120  13.767  1.00  0.00    -0.014 A 
BRANCH  42  43
ATOM     43  C   UNL     1       4.780   0.975  15.111  1.00  0.00     0.031 A 
ATOM     44  C   UNL     1       4.873  -0.333  15.844  1.00  0.00     0.074 A 
ATOM     45  C   UNL     1       4.108   2.008  15.654  1.00  0.00     0.049 A 
ATOM     46  N   UNL     1       4.377  -0.665  17.009  1.00  0.00    -0.248 NA
ATOM     47  C   UNL     1       5.605  -1.419  15.172  1.00  0.00     0.031 C 
ATOM     48  C   UNL     1       3.918   3.316  15.025  1.00  0.00     0.029 A 
ATOM     49  N   UNL     1       3.459   2.122  16.859  1.00  0.00    -0.354 N 
ATOM     50  C   UNL     1       4.734  -1.992  17.206  1.00  0.00     0.074 A 
ATOM     51  C   UNL     1       5.435  -2.425  16.018  1.00  0.00     0.031 C 
ATOM     52  C   UNL     1       3.232   4.110  15.861  1.00  0.00     0.029 A 
ATOM     53  C   UNL     1       2.902   3.360  17.070  1.00  0.00     0.049 A 
ATOM     54  H   UNL     1       3.398   1.386  17.510  1.00  0.00     0.167 HD
ATOM     55  C   UNL     1       4.523  -2.769  18.294  1.00  0.00     0.037 A 
ATOM     56  C   UNL     1       2.205   3.835  18.120  1.00  0.00     0.037 A 
ATOM     57  C   UNL     1       3.844  -2.330  19.484  1.00  0.00     0.049 A 
ATOM     58  C   UNL     1       1.957   2.940  19.304  1.00  0.00     0.074 A 
ATOM     59  C   UNL     1       3.621  -3.031  20.656  1.00  0.00     0.029 A 
ATOM     60  N   UNL     1       3.280  -1.075  19.653  1.00  0.00    -0.354 N 
ATOM     61  N   UNL     1       2.347   1.705  19.502  1.00  0.00    -0.248 NA
ATOM     62  C   UNL     1       1.171   3.504  20.411  1.00  0.00     0.031 C 
ATOM     63  C   UNL     1       2.884  -2.214  21.519  1.00  0.00     0.029 A 
ATOM     64  C   UNL     1       2.688  -0.989  20.903  1.00  0.00     0.049 A 
ATOM     65  H   UNL     1       3.297  -0.352  18.985  1.00  0.00     0.167 HD
ATOM     66  C   UNL     1       1.877   1.351  20.759  1.00  0.00     0.074 A 
ATOM     67  C   UNL     1       1.183   2.508  21.286  1.00  0.00     0.031 C 
ATOM     68  C   UNL     1       2.006   0.172  21.415  1.00  0.00     0.037 A 
BRANCH  55  69
ATOM     69  C   UNL     1       5.051  -4.173  18.260  1.00  0.00     0.064 A 
ATOM     70  C   UNL     1       6.427  -4.437  18.331  1.00  0.00     0.173 A 
ATOM     71  C   UNL     1       4.174  -5.267  18.218  1.00  0.00     0.173 A 
ATOM     72  F   UNL     1       7.308  -3.425  18.362  1.00  0.00    -0.203 F 
ATOM     73  C   UNL     1       6.907  -5.744  18.341  1.00  0.00     0.198 A 
ATOM     74  C   UNL     1       4.656  -6.573  18.256  1.00  0.00     0.198 A 
ATOM     75  F   UNL     1       2.849  -5.070  18.155  1.00  0.00    -0.203 F 
ATOM     76  F   UNL     1       8.228  -5.970  18.371  1.00  0.00    -0.200 F 
ATOM     77  C   UNL     1       6.021  -6.810  18.313  1.00  0.00     0.200 A 
ATOM     78  F   UNL     1       3.799  -7.603  18.243  1.00  0.00    -0.200 F 
ATOM     79  F   UNL     1       6.484  -8.067  18.337  1.00  0.00    -0.200 F 
ENDBRANCH  55  69
BRANCH  56  80
ATOM     80  C   UNL     1       1.729   5.243  18.114  1.00  0.00     0.064 A 
ATOM     81  C   UNL     1       2.307   6.197  18.962  1.00  0.00     0.173 A 
ATOM     82  C   UNL     1       0.707   5.668  17.253  1.00  0.00     0.173 A 
ATOM     83  F   UNL     1       3.274   5.834  19.818  1.00  0.00    -0.203 F 
ATOM     84  C   UNL     1       1.875   7.522  18.956  1.00  0.00     0.198 A 
ATOM     85  C   UNL     1       0.293   6.998  17.230  1.00  0.00     0.198 A 
ATOM     86  F   UNL     1       0.123   4.794  16.420  1.00  0.00    -0.203 F 
ATOM     87  F   UNL     1       2.422   8.407  19.801  1.00  0.00    -0.200 F 
ATOM     88  C   UNL     1       0.874   7.923  18.085  1.00  0.00     0.200 A 
ATOM     89  F   UNL     1      -0.665   7.385  16.377  1.00  0.00    -0.200 F 
ATOM     90  F   UNL     1       0.466   9.200  18.072  1.00  0.00    -0.200 F 
ENDBRANCH  56  80
BRANCH  68  91
ATOM     91  C   UNL     1       1.399   0.066  22.783  1.00  0.00     0.064 A 
ATOM     92  C   UNL     1       0.012  -0.037  22.961  1.00  0.00     0.173 A 
ATOM     93  C   UNL     1       2.218  -0.021  23.920  1.00  0.00     0.173 A 
ATOM     94  F   UNL     1      -0.812   0.053  21.907  1.00  0.00    -0.203 F 
ATOM     95  C   UNL     1      -0.534  -0.215  24.229  1.00  0.00     0.198 A 
ATOM     96  C   UNL     1       1.670  -0.227  25.182  1.00  0.00     0.198 A 
ATOM     97  F   UNL     1       3.551   0.064  23.801  1.00  0.00    -0.203 F 
ATOM     98  F   UNL     1      -1.864  -0.283  24.380  1.00  0.00    -0.200 F 
ATOM     99  C   UNL     1       0.295  -0.321  25.336  1.00  0.00     0.200 A 
ATOM    100  F   UNL     1       2.473  -0.345  26.249  1.00  0.00    -0.200 F 
ATOM    101  F   UNL     1      -0.232  -0.513  26.553  1.00  0.00    -0.200 F 
ENDBRANCH  68  91
ENDBRANCH  42  43
ENDBRANCH  34  37
ENDBRANCH  32  33
ENDBRANCH  31  32
ENDBRANCH  30  31
ENDBRANCH  29  30
ENDBRANCH   1  29
TORSDOF 17
