REMARK SMILES O=C(Cc1ccccc1C(=O)NCCCCCCNC(=O)c1ccc(-c2c3nc(c(-c4c(F)c(F)c(F)c(F)c4F)c4ccc([nH]4)c(-c4c(F)c(F)c(F)c(F)c4F)c4nc(c(-c5c(F)c(F)c(F)c(F)c5F)c5ccc2[nH]5)C=C4)C=C3)cc1)Nc1ccc(S(=O)(=O)N2CCCC2)cc1
REMARK SMILES IDX 14 1 13 2 12 3 10 4 11 5 9 7 4 8 5 9 6 10 8 11 7 12 3 13
REMARK SMILES IDX 2 14 1 15 85 16 86 18 87 19 99 20 88 21 98 22 89 23 90 24
REMARK SMILES IDX 91 25 92 26 93 27 94 28 97 29 95 30 96 31 15 32 16 33 17 34
REMARK SMILES IDX 18 35 19 36 20 37 21 39 22 40 23 41 84 42 24 43 83 44 25 45
REMARK SMILES IDX 26 46 27 47 77 48 28 49 82 50 76 51 78 52 29 53 81 54 75 55
REMARK SMILES IDX 74 56 30 58 62 59 42 60 61 61 43 62 46 63 60 64 79 65 44 66
REMARK SMILES IDX 45 67 59 69 80 70 47 71 31 72 32 73 40 74 33 75 34 76 38 77
REMARK SMILES IDX 41 78 35 79 36 80 39 81 37 82 63 83 64 84 72 85 65 86 66 87
REMARK SMILES IDX 70 88 73 89 67 90 68 91 71 92 69 93 48 94 49 95 57 96 50 97
REMARK SMILES IDX 51 98 55 99 58 100 52 101 53 102 56 103 54 104
REMARK H PARENT 12 6 85 17 19 38 78 57 46 68
REMARK Flexibility Score: inf
ROOT
ATOM      1  C   UNL     1       1.626   3.030  -1.556  1.00  0.00     0.021 C 
ENDROOT
BRANCH   1   2
ATOM      2  C   UNL     1       3.099   3.437  -1.357  1.00  0.00     0.116 C 
BRANCH   2   3
ATOM      3  N   UNL     1       3.247   4.204  -0.135  1.00  0.00    -0.352 N 
ATOM      4  C   UNL     1       3.684   4.027   1.148  1.00  0.00     0.251 C 
ATOM      5  O   UNL     1       3.585   5.053   1.835  1.00  0.00    -0.269 OA
ATOM      6  H   UNL     1       2.941   5.130  -0.270  1.00  0.00     0.163 HD
BRANCH   4   7
ATOM      7  C   UNL     1       4.286   2.811   1.814  1.00  0.00     0.043 A 
ATOM      8  C   UNL     1       4.059   1.431   1.595  1.00  0.00    -0.026 A 
ATOM      9  C   UNL     1       4.664   0.487   2.464  1.00  0.00     0.005 A 
ATOM     10  C   UNL     1       5.455   0.870   3.541  1.00  0.00     0.000 A 
ATOM     11  C   UNL     1       5.108   3.159   2.917  1.00  0.00     0.014 A 
ATOM     12  C   UNL     1       5.680   2.213   3.768  1.00  0.00     0.001 A 
BRANCH   8  13
ATOM     13  C   UNL     1       3.228   0.909   0.465  1.00  0.00     0.136 C 
BRANCH  13  14
ATOM     14  C   UNL     1       2.392  -0.321   0.691  1.00  0.00     0.228 C 
ATOM     15  O   UNL     1       1.212  -0.209   1.023  1.00  0.00    -0.274 OA
ATOM     16  N   UNL     1       3.041  -1.522   0.432  1.00  0.00    -0.326 N 
ATOM     17  H   UNL     1       4.019  -1.521   0.324  1.00  0.00     0.169 HD
BRANCH  16  18
ATOM     18  C   UNL     1       2.347  -2.738   0.321  1.00  0.00     0.041 A 
ATOM     19  C   UNL     1       2.950  -3.940   0.701  1.00  0.00     0.027 A 
ATOM     20  C   UNL     1       1.041  -2.745  -0.160  1.00  0.00     0.027 A 
ATOM     21  C   UNL     1       2.204  -5.129   0.678  1.00  0.00     0.024 A 
ATOM     22  C   UNL     1       0.301  -3.914  -0.170  1.00  0.00     0.024 A 
ATOM     23  C   UNL     1       0.869  -5.108   0.253  1.00  0.00     0.082 A 
BRANCH  23  24
ATOM     24  S   UNL     1      -0.090  -6.611   0.273  1.00  0.00     0.243 S 
ATOM     25  O   UNL     1       0.823  -7.679  -0.076  1.00  0.00    -0.207 OA
ATOM     26  O   UNL     1      -0.815  -6.614   1.526  1.00  0.00    -0.207 OA
BRANCH  24  27
ATOM     27  N   UNL     1      -1.208  -6.483  -0.981  1.00  0.00    -0.198 NA
ATOM     28  C   UNL     1      -0.770  -6.510  -2.383  1.00  0.00     0.102 C 
ATOM     29  C   UNL     1      -2.420  -5.656  -0.850  1.00  0.00     0.102 C 
ATOM     30  C   UNL     1      -1.274  -5.199  -2.960  1.00  0.00     0.018 C 
ATOM     31  C   UNL     1      -2.534  -4.881  -2.166  1.00  0.00     0.018 C 
ENDBRANCH  24  27
ENDBRANCH  23  24
ENDBRANCH  16  18
ENDBRANCH  13  14
ENDBRANCH   8  13
ENDBRANCH   4   7
ENDBRANCH   2   3
ENDBRANCH   1   2
BRANCH   1  32
ATOM     32  C   UNL     1       0.890   3.839  -2.625  1.00  0.00     0.002 C 
BRANCH  32  33
ATOM     33  C   UNL     1       1.350   3.548  -4.056  1.00  0.00     0.002 C 
BRANCH  33  34
ATOM     34  C   UNL     1       1.162   2.099  -4.519  1.00  0.00     0.021 C 
BRANCH  34  35
ATOM     35  C   UNL     1      -0.278   1.595  -4.467  1.00  0.00     0.116 C 
BRANCH  35  36
ATOM     36  N   UNL     1      -1.153   2.373  -5.331  1.00  0.00    -0.352 N 
ATOM     37  C   UNL     1      -1.847   1.984  -6.448  1.00  0.00     0.251 C 
ATOM     38  H   UNL     1      -1.263   3.318  -5.075  1.00  0.00     0.163 HD
ATOM     39  O   UNL     1      -2.324   2.821  -7.207  1.00  0.00    -0.269 OA
BRANCH  37  40
ATOM     40  C   UNL     1      -2.020   0.546  -6.737  1.00  0.00     0.039 A 
ATOM     41  C   UNL     1      -1.848   0.086  -8.046  1.00  0.00     0.014 A 
ATOM     42  C   UNL     1      -2.382  -0.340  -5.719  1.00  0.00     0.014 A 
ATOM     43  C   UNL     1      -1.986  -1.275  -8.322  1.00  0.00     0.010 A 
ATOM     44  C   UNL     1      -2.447  -1.704  -5.981  1.00  0.00     0.010 A 
ATOM     45  C   UNL     1      -2.260  -2.183  -7.287  1.00  0.00    -0.014 A 
BRANCH  45  46
ATOM     46  C   UNL     1      -2.379  -3.640  -7.542  1.00  0.00     0.031 A 
ATOM     47  C   UNL     1      -3.690  -4.334  -7.303  1.00  0.00     0.074 A 
ATOM     48  C   UNL     1      -1.294  -4.346  -7.911  1.00  0.00     0.049 A 
ATOM     49  N   UNL     1      -3.972  -5.611  -7.346  1.00  0.00    -0.248 NA
ATOM     50  C   UNL     1      -4.830  -3.480  -6.931  1.00  0.00     0.031 C 
ATOM     51  C   UNL     1       0.039  -3.788  -8.141  1.00  0.00     0.029 A 
ATOM     52  N   UNL     1      -1.137  -5.689  -8.144  1.00  0.00    -0.354 N 
ATOM     53  C   UNL     1      -5.312  -5.713  -6.995  1.00  0.00     0.074 A 
ATOM     54  C   UNL     1      -5.771  -4.378  -6.683  1.00  0.00     0.031 C 
ATOM     55  C   UNL     1       0.874  -4.777  -8.499  1.00  0.00     0.029 A 
ATOM     56  C   UNL     1       0.146  -6.043  -8.481  1.00  0.00     0.049 A 
ATOM     57  H   UNL     1      -1.875  -6.338  -8.075  1.00  0.00     0.167 HD
ATOM     58  C   UNL     1      -6.094  -6.818  -6.962  1.00  0.00     0.037 A 
ATOM     59  C   UNL     1       0.677  -7.254  -8.735  1.00  0.00     0.037 A 
ATOM     60  C   UNL     1      -5.638  -8.139  -7.306  1.00  0.00     0.049 A 
ATOM     61  C   UNL     1      -0.210  -8.469  -8.674  1.00  0.00     0.074 A 
ATOM     62  C   UNL     1      -6.362  -9.317  -7.354  1.00  0.00     0.029 A 
ATOM     63  N   UNL     1      -4.335  -8.456  -7.663  1.00  0.00    -0.354 N 
ATOM     64  N   UNL     1      -1.488  -8.547  -8.389  1.00  0.00    -0.248 NA
ATOM     65  C   UNL     1       0.418  -9.763  -8.975  1.00  0.00     0.031 C 
ATOM     66  C   UNL     1      -5.487 -10.355  -7.690  1.00  0.00     0.029 A 
ATOM     67  C   UNL     1      -4.230  -9.816  -7.909  1.00  0.00     0.049 A 
ATOM     68  H   UNL     1      -3.595  -7.811  -7.732  1.00  0.00     0.167 HD
ATOM     69  C   UNL     1      -1.823  -9.890  -8.510  1.00  0.00     0.074 A 
ATOM     70  C   UNL     1      -0.617 -10.587  -8.904  1.00  0.00     0.031 C 
ATOM     71  C   UNL     1      -3.022 -10.491  -8.312  1.00  0.00     0.037 A 
BRANCH  58  72
ATOM     72  C   UNL     1      -7.524  -6.646  -6.537  1.00  0.00     0.064 A 
ATOM     73  C   UNL     1      -8.457  -5.968  -7.338  1.00  0.00     0.173 A 
ATOM     74  C   UNL     1      -7.977  -7.192  -5.326  1.00  0.00     0.173 A 
ATOM     75  F   UNL     1      -8.073  -5.415  -8.498  1.00  0.00    -0.203 F 
ATOM     76  C   UNL     1      -9.779  -5.817  -6.928  1.00  0.00     0.198 A 
ATOM     77  C   UNL     1      -9.308  -7.068  -4.936  1.00  0.00     0.198 A 
ATOM     78  F   UNL     1      -7.128  -7.851  -4.523  1.00  0.00    -0.203 F 
ATOM     79  F   UNL     1     -10.637  -5.118  -7.684  1.00  0.00    -0.200 F 
ATOM     80  C   UNL     1     -10.205  -6.374  -5.732  1.00  0.00     0.200 A 
ATOM     81  F   UNL     1      -9.721  -7.618  -3.785  1.00  0.00    -0.200 F 
ATOM     82  F   UNL     1     -11.480  -6.233  -5.343  1.00  0.00    -0.200 F 
ENDBRANCH  58  72
BRANCH  59  83
ATOM     83  C   UNL     1       2.117  -7.378  -9.084  1.00  0.00     0.064 A 
ATOM     84  C   UNL     1       2.515  -7.760 -10.373  1.00  0.00     0.173 A 
ATOM     85  C   UNL     1       3.123  -7.125  -8.139  1.00  0.00     0.173 A 
ATOM     86  F   UNL     1       1.590  -8.030 -11.306  1.00  0.00    -0.203 F 
ATOM     87  C   UNL     1       3.862  -7.907 -10.697  1.00  0.00     0.198 A 
ATOM     88  C   UNL     1       4.470  -7.243  -8.473  1.00  0.00     0.198 A 
ATOM     89  F   UNL     1       2.796  -6.749  -6.894  1.00  0.00    -0.203 F 
ATOM     90  F   UNL     1       4.212  -8.319 -11.923  1.00  0.00    -0.200 F 
ATOM     91  C   UNL     1       4.839  -7.643  -9.749  1.00  0.00     0.200 A 
ATOM     92  F   UNL     1       5.411  -6.968  -7.559  1.00  0.00    -0.200 F 
ATOM     93  F   UNL     1       6.134  -7.779 -10.062  1.00  0.00    -0.200 F 
ENDBRANCH  59  83
BRANCH  71  94
ATOM     94  C   UNL     1      -3.102 -11.970  -8.561  1.00  0.00     0.064 A 
ATOM     95  C   UNL     1      -2.498 -12.897  -7.699  1.00  0.00     0.173 A 
ATOM     96  C   UNL     1      -3.828 -12.465  -9.654  1.00  0.00     0.173 A 
ATOM     97  F   UNL     1      -1.779 -12.473  -6.649  1.00  0.00    -0.203 F 
ATOM     98  C   UNL     1      -2.597 -14.265  -7.938  1.00  0.00     0.198 A 
ATOM     99  C   UNL     1      -3.953 -13.834  -9.871  1.00  0.00     0.198 A 
ATOM    100  F   UNL     1      -4.431 -11.621 -10.505  1.00  0.00    -0.203 F 
ATOM    101  F   UNL     1      -1.970 -15.132  -7.130  1.00  0.00    -0.200 F 
ATOM    102  C   UNL     1      -3.331 -14.733  -9.018  1.00  0.00     0.200 A 
ATOM    103  F   UNL     1      -4.676 -14.284 -10.907  1.00  0.00    -0.200 F 
ATOM    104  F   UNL     1      -3.433 -16.050  -9.241  1.00  0.00    -0.200 F 
ENDBRANCH  71  94
ENDBRANCH  45  46
ENDBRANCH  37  40
ENDBRANCH  35  36
ENDBRANCH  34  35
ENDBRANCH  33  34
ENDBRANCH  32  33
ENDBRANCH   1  32
TORSDOF 18
