REMARK SMILES Cc1nn(C)c(=O)c(C(=O)N2CCCC[C@H]2C(=O)NCCCCCCNC(=O)c2ccc(-c3c4nc(c(-c5c(F)c(F)c(F)c(F)c5F)c5ccc([nH]5)c(-c5c(F)c(F)c(F)c(F)c5F)c5nc(c(-c6c(F)c(F)c(F)c(F)c6F)c6ccc3[nH]6)C=C5)C=C4)cc2)c1C
REMARK SMILES IDX 22 1 21 2 20 3 19 4 17 5 18 6 16 8 11 9 12 10 13 11 15 12
REMARK SMILES IDX 14 13 9 14 10 15 8 16 1 17 2 18 3 19 92 20 4 21 93 22 5 23
REMARK SMILES IDX 6 24 7 25 23 26 24 27 25 28 26 29 27 30 28 32 29 33 30 34
REMARK SMILES IDX 91 35 31 36 90 37 32 38 33 39 34 40 84 41 35 42 89 43 83 44
REMARK SMILES IDX 85 45 36 46 88 47 82 48 81 49 37 51 69 52 49 53 68 54 50 55
REMARK SMILES IDX 53 56 67 57 86 58 51 59 52 60 66 62 87 63 54 64 38 65 39 66
REMARK SMILES IDX 47 67 40 68 41 69 45 70 48 71 42 72 43 73 46 74 44 75 70 76
REMARK SMILES IDX 71 77 79 78 72 79 73 80 77 81 80 82 74 83 75 84 78 85 76 86
REMARK SMILES IDX 55 87 56 88 64 89 57 90 58 91 62 92 65 93 59 94 60 95 63 96
REMARK SMILES IDX 61 97
REMARK H PARENT 19 7 26 31 85 50 53 61
REMARK Flexibility Score: inf
ROOT
ATOM      1  C   UNL     1      -2.873   2.477   5.021  1.00  0.00     0.002 C 
ENDROOT
BRANCH   1   2
ATOM      2  C   UNL     1      -4.128   1.663   4.689  1.00  0.00     0.021 C 
BRANCH   2   3
ATOM      3  C   UNL     1      -4.545   1.743   3.223  1.00  0.00     0.116 C 
BRANCH   3   4
ATOM      4  N   UNL     1      -3.581   1.099   2.346  1.00  0.00    -0.354 N 
ATOM      5  C   UNL     1      -3.986   0.428   1.217  1.00  0.00     0.242 C 
ATOM      6  O   UNL     1      -4.304   1.083   0.224  1.00  0.00    -0.273 OA
ATOM      7  H   UNL     1      -2.622   1.145   2.564  1.00  0.00     0.163 HD
BRANCH   5   8
ATOM      8  C   UNL     1      -4.118  -1.125   1.252  1.00  0.00     0.174 C 
ATOM      9  N   UNL     1      -3.299  -1.904   2.212  1.00  0.00    -0.326 N 
ATOM     10  C   UNL     1      -3.778  -1.966   3.586  1.00  0.00     0.120 C 
ATOM     11  C   UNL     1      -5.237  -2.374   3.706  1.00  0.00     0.022 C 
ATOM     12  C   UNL     1      -5.610  -1.508   1.364  1.00  0.00     0.035 C 
ATOM     13  C   UNL     1      -6.136  -1.550   2.799  1.00  0.00     0.004 C 
BRANCH   9  14
ATOM     14  C   UNL     1      -2.464  -2.954   1.836  1.00  0.00     0.260 C 
ATOM     15  O   UNL     1      -2.656  -4.066   2.335  1.00  0.00    -0.269 OA
BRANCH  14  16
ATOM     16  C   UNL     1      -1.221  -2.715   0.999  1.00  0.00     0.111 A 
ATOM     17  C   UNL     1       1.373  -0.228  -0.248  1.00  0.00     0.069 C 
ATOM     18  C   UNL     1       0.737  -1.545   0.152  1.00  0.00     0.062 A 
ATOM     19  N   UNL     1       1.366  -2.607  -0.220  1.00  0.00    -0.175 NA
ATOM     20  C   UNL     1      -0.549  -1.544   0.920  1.00  0.00    -0.010 A 
ATOM     21  N   UNL     1       0.766  -3.806   0.005  1.00  0.00    -0.232 N 
ATOM     22  C   UNL     1      -0.867  -0.254   1.599  1.00  0.00     0.047 C 
ATOM     23  C   UNL     1       1.554  -4.965  -0.382  1.00  0.00     0.178 C 
ATOM     24  C   UNL     1      -0.554  -3.946   0.420  1.00  0.00     0.279 A 
ATOM     25  O   UNL     1      -1.144  -5.022   0.344  1.00  0.00    -0.267 OA
ENDBRANCH  14  16
ENDBRANCH   9  14
ENDBRANCH   5   8
ENDBRANCH   3   4
ENDBRANCH   2   3
ENDBRANCH   1   2
BRANCH   1  26
ATOM     26  C   UNL     1      -3.066   3.992   4.929  1.00  0.00     0.002 C 
BRANCH  26  27
ATOM     27  C   UNL     1      -4.268   4.525   5.712  1.00  0.00     0.021 C 
BRANCH  27  28
ATOM     28  C   UNL     1      -4.267   4.138   7.186  1.00  0.00     0.116 C 
BRANCH  28  29
ATOM     29  N   UNL     1      -3.196   4.798   7.913  1.00  0.00    -0.352 N 
ATOM     30  C   UNL     1      -3.294   5.730   8.914  1.00  0.00     0.251 C 
ATOM     31  H   UNL     1      -2.281   4.544   7.653  1.00  0.00     0.163 HD
ATOM     32  O   UNL     1      -2.312   6.375   9.272  1.00  0.00    -0.269 OA
BRANCH  30  33
ATOM     33  C   UNL     1      -4.606   5.964   9.548  1.00  0.00     0.039 A 
ATOM     34  C   UNL     1      -5.063   7.273   9.700  1.00  0.00     0.014 A 
ATOM     35  C   UNL     1      -5.388   4.883   9.969  1.00  0.00     0.014 A 
ATOM     36  C   UNL     1      -6.330   7.496  10.239  1.00  0.00     0.010 A 
ATOM     37  C   UNL     1      -6.683   5.104  10.423  1.00  0.00     0.010 A 
ATOM     38  C   UNL     1      -7.158   6.414  10.583  1.00  0.00    -0.014 A 
BRANCH  38  39
ATOM     39  C   UNL     1      -8.505   6.648  11.159  1.00  0.00     0.031 A 
ATOM     40  C   UNL     1      -8.793   6.240  12.576  1.00  0.00     0.074 A 
ATOM     41  C   UNL     1      -9.465   7.221  10.407  1.00  0.00     0.049 A 
ATOM     42  N   UNL     1      -9.889   6.396  13.274  1.00  0.00    -0.248 NA
ATOM     43  C   UNL     1      -7.716   5.547  13.303  1.00  0.00     0.031 C 
ATOM     44  C   UNL     1      -9.316   7.614   9.005  1.00  0.00     0.029 A 
ATOM     45  N   UNL     1     -10.751   7.584  10.719  1.00  0.00    -0.354 N 
ATOM     46  C   UNL     1      -9.629   5.830  14.514  1.00  0.00     0.074 A 
ATOM     47  C   UNL     1      -8.305   5.255  14.452  1.00  0.00     0.031 C 
ATOM     48  C   UNL     1     -10.448   8.207   8.593  1.00  0.00     0.029 A 
ATOM     49  C   UNL     1     -11.413   8.208   9.690  1.00  0.00     0.049 A 
ATOM     50  H   UNL     1     -11.161   7.413  11.598  1.00  0.00     0.167 HD
ATOM     51  C   UNL     1     -10.407   5.830  15.620  1.00  0.00     0.037 A 
ATOM     52  C   UNL     1     -12.653   8.732   9.642  1.00  0.00     0.037 A 
ATOM     53  C   UNL     1     -11.711   6.430  15.684  1.00  0.00     0.049 A 
ATOM     54  C   UNL     1     -13.516   8.683  10.875  1.00  0.00     0.074 A 
ATOM     55  C   UNL     1     -12.555   6.537  16.774  1.00  0.00     0.029 A 
ATOM     56  N   UNL     1     -12.360   7.022  14.611  1.00  0.00    -0.354 N 
ATOM     57  N   UNL     1     -13.225   8.225  12.068  1.00  0.00    -0.248 NA
ATOM     58  C   UNL     1     -14.879   9.222  10.756  1.00  0.00     0.031 C 
ATOM     59  C   UNL     1     -13.737   7.148  16.349  1.00  0.00     0.029 A 
ATOM     60  C   UNL     1     -13.612   7.462  15.005  1.00  0.00     0.049 A 
ATOM     61  H   UNL     1     -11.987   7.114  13.705  1.00  0.00     0.167 HD
ATOM     62  C   UNL     1     -14.358   8.430  12.844  1.00  0.00     0.074 A 
ATOM     63  C   UNL     1     -15.336   9.075  11.993  1.00  0.00     0.031 C 
ATOM     64  C   UNL     1     -14.571   8.104  14.142  1.00  0.00     0.037 A 
BRANCH  51  65
ATOM     65  C   UNL     1      -9.859   5.189  16.860  1.00  0.00     0.064 A 
ATOM     66  C   UNL     1      -8.801   5.772  17.576  1.00  0.00     0.173 A 
ATOM     67  C   UNL     1     -10.431   4.016  17.373  1.00  0.00     0.173 A 
ATOM     68  F   UNL     1      -8.211   6.888  17.120  1.00  0.00    -0.203 F 
ATOM     69  C   UNL     1      -8.322   5.191  18.747  1.00  0.00     0.198 A 
ATOM     70  C   UNL     1      -9.970   3.455  18.561  1.00  0.00     0.198 A 
ATOM     71  F   UNL     1     -11.447   3.422  16.730  1.00  0.00    -0.203 F 
ATOM     72  F   UNL     1      -7.284   5.743  19.390  1.00  0.00    -0.200 F 
ATOM     73  C   UNL     1      -8.913   4.040  19.244  1.00  0.00     0.200 A 
ATOM     74  F   UNL     1     -10.550   2.350  19.048  1.00  0.00    -0.200 F 
ATOM     75  F   UNL     1      -8.462   3.491  20.380  1.00  0.00    -0.200 F 
ENDBRANCH  51  65
BRANCH  52  76
ATOM     76  C   UNL     1     -13.133   9.384   8.395  1.00  0.00     0.064 A 
ATOM     77  C   UNL     1     -13.330  10.771   8.341  1.00  0.00     0.173 A 
ATOM     78  C   UNL     1     -13.384   8.645   7.230  1.00  0.00     0.173 A 
ATOM     79  F   UNL     1     -13.122  11.520   9.433  1.00  0.00    -0.203 F 
ATOM     80  C   UNL     1     -13.768  11.392   7.172  1.00  0.00     0.198 A 
ATOM     81  C   UNL     1     -13.796   9.269   6.055  1.00  0.00     0.198 A 
ATOM     82  F   UNL     1     -13.208   7.315   7.228  1.00  0.00    -0.203 F 
ATOM     83  F   UNL     1     -13.979  12.715   7.157  1.00  0.00    -0.200 F 
ATOM     84  C   UNL     1     -13.993  10.642   6.028  1.00  0.00     0.200 A 
ATOM     85  F   UNL     1     -13.997   8.542   4.947  1.00  0.00    -0.200 F 
ATOM     86  F   UNL     1     -14.402  11.240   4.901  1.00  0.00    -0.200 F 
ENDBRANCH  52  76
BRANCH  64  87
ATOM     87  C   UNL     1     -15.913   8.419  14.733  1.00  0.00     0.064 A 
ATOM     88  C   UNL     1     -17.043   7.655  14.409  1.00  0.00     0.173 A 
ATOM     89  C   UNL     1     -16.046   9.406  15.721  1.00  0.00     0.173 A 
ATOM     90  F   UNL     1     -16.968   6.708  13.462  1.00  0.00    -0.203 F 
ATOM     91  C   UNL     1     -18.258   7.867  15.055  1.00  0.00     0.198 A 
ATOM     92  C   UNL     1     -17.254   9.596  16.385  1.00  0.00     0.198 A 
ATOM     93  F   UNL     1     -14.990  10.156  16.074  1.00  0.00    -0.203 F 
ATOM     94  F   UNL     1     -19.329   7.136  14.718  1.00  0.00    -0.200 F 
ATOM     95  C   UNL     1     -18.358   8.826  16.052  1.00  0.00     0.200 A 
ATOM     96  F   UNL     1     -17.344  10.509  17.362  1.00  0.00    -0.200 F 
ATOM     97  F   UNL     1     -19.520   9.005  16.695  1.00  0.00    -0.200 F 
ENDBRANCH  64  87
ENDBRANCH  38  39
ENDBRANCH  30  33
ENDBRANCH  28  29
ENDBRANCH  27  28
ENDBRANCH  26  27
ENDBRANCH   1  26
TORSDOF 15
