REMARK SMILES Cc1nn(C)c(C)c1[C@H](C)N1C(=O)CC[C@@H](C(=O)NCCCCCCNC(=O)c2ccc(-c3c4nc(c(-c5c(F)c(F)c(F)c(F)c5F)c5ccc([nH]5)c(-c5c(F)c(F)c(F)c(F)c5F)c5nc(c(-c6c(F)c(F)c(F)c(F)c6F)c6ccc3[nH]6)C=C5)C=C4)cc2)[C@@H]1c1ccco1
REMARK SMILES IDX 22 1 21 2 20 3 19 4 17 5 18 6 16 8 11 9 12 10 92 11 13 12
REMARK SMILES IDX 14 13 15 14 9 15 10 16 8 17 1 18 2 19 3 20 4 21 6 22 5 23
REMARK SMILES IDX 7 24 93 25 94 26 97 27 95 28 96 29 23 30 24 31 25 32 26 33
REMARK SMILES IDX 27 34 28 36 29 37 30 38 91 39 31 40 90 41 32 42 33 43 34 44
REMARK SMILES IDX 84 45 35 46 89 47 83 48 85 49 36 50 88 51 82 52 81 53 37 55
REMARK SMILES IDX 69 56 49 57 68 58 50 59 53 60 67 61 86 62 51 63 52 64 66 66
REMARK SMILES IDX 87 67 54 68 38 69 39 70 47 71 40 72 41 73 45 74 48 75 42 76
REMARK SMILES IDX 43 77 46 78 44 79 70 80 71 81 79 82 72 83 73 84 77 85 80 86
REMARK SMILES IDX 74 87 75 88 78 89 76 90 55 91 56 92 64 93 57 94 58 95 62 96
REMARK SMILES IDX 65 97 59 98 60 99 63 100 61 101
REMARK H PARENT 19 7 26 35 85 54 53 65
REMARK Flexibility Score: inf
ROOT
ATOM      1  C   UNL     1      -1.094  10.256  -3.028  1.00  0.00     0.002 C 
ENDROOT
BRANCH   1   2
ATOM      2  C   UNL     1       0.203   9.431  -3.036  1.00  0.00     0.021 C 
BRANCH   2   3
ATOM      3  C   UNL     1       0.391   8.550  -1.800  1.00  0.00     0.116 C 
BRANCH   3   4
ATOM      4  N   UNL     1      -0.663   7.562  -1.729  1.00  0.00    -0.356 N 
ATOM      5  C   UNL     1      -0.672   6.262  -2.116  1.00  0.00     0.225 C 
ATOM      6  O   UNL     1      -1.778   5.749  -2.280  1.00  0.00    -0.275 OA
ATOM      7  H   UNL     1      -1.507   7.884  -1.337  1.00  0.00     0.163 HD
BRANCH   5   8
ATOM      8  C   UNL     1       0.631   5.475  -2.239  1.00  0.00     0.109 C 
ATOM      9  N   UNL     1      -0.196   3.385  -1.080  1.00  0.00    -0.325 N 
ATOM     10  C   UNL     1      -0.776   2.975  -2.280  1.00  0.00     0.223 C 
ATOM     11  C   UNL     1       0.731   4.530  -1.030  1.00  0.00     0.164 C 
ATOM     12  O   UNL     1      -1.680   2.135  -2.330  1.00  0.00    -0.275 OA
ATOM     13  C   UNL     1      -0.301   3.570  -3.593  1.00  0.00     0.101 C 
ATOM     14  C   UNL     1       0.715   4.687  -3.530  1.00  0.00     0.026 C 
BRANCH   9  15
ATOM     15  C   UNL     1      -0.665   2.690   0.162  1.00  0.00     0.117 C 
ATOM     16  C   UNL     1      -0.381   1.181   0.082  1.00  0.00     0.036 C 
BRANCH  15  17
ATOM     17  C   UNL     1      -0.205   3.329   1.478  1.00  0.00     0.018 A 
ATOM     18  C   UNL     1       1.244   1.480   2.784  1.00  0.00     0.069 C 
ATOM     19  C   UNL     1       0.613   2.806   2.543  1.00  0.00     0.065 A 
ATOM     20  N   UNL     1       0.797   3.707   3.515  1.00  0.00    -0.178 NA
ATOM     21  N   UNL     1       0.097   4.774   3.134  1.00  0.00    -0.272 N 
ATOM     22  C   UNL     1      -0.597   4.582   1.971  1.00  0.00     0.040 A 
ATOM     23  C   UNL     1       0.169   5.952   3.965  1.00  0.00     0.174 C 
ATOM     24  C   UNL     1      -1.523   5.611   1.424  1.00  0.00     0.067 C 
ENDBRANCH  15  17
ENDBRANCH   9  15
BRANCH  11  25
ATOM     25  C   UNL     1       2.149   4.113  -0.766  1.00  0.00     0.127 A 
ATOM     26  C   UNL     1       3.228   4.818  -0.264  1.00  0.00     0.048 A 
ATOM     27  O   UNL     1       2.515   2.822  -1.011  1.00  0.00    -0.467 OA
ATOM     28  C   UNL     1       4.300   3.902  -0.175  1.00  0.00     0.042 A 
ATOM     29  C   UNL     1       3.812   2.700  -0.627  1.00  0.00     0.195 A 
ENDBRANCH  11  25
ENDBRANCH   5   8
ENDBRANCH   3   4
ENDBRANCH   2   3
ENDBRANCH   1   2
BRANCH   1  30
ATOM     30  C   UNL     1      -1.289  11.151  -1.799  1.00  0.00     0.002 C 
BRANCH  30  31
ATOM     31  C   UNL     1      -0.126  12.098  -1.501  1.00  0.00     0.021 C 
BRANCH  31  32
ATOM     32  C   UNL     1       0.223  13.048  -2.640  1.00  0.00     0.116 C 
BRANCH  32  33
ATOM     33  N   UNL     1      -0.853  13.985  -2.923  1.00  0.00    -0.352 N 
ATOM     34  C   UNL     1      -0.810  15.354  -3.001  1.00  0.00     0.251 C 
ATOM     35  H   UNL     1      -1.736  13.580  -3.080  1.00  0.00     0.163 HD
ATOM     36  O   UNL     1      -1.851  16.004  -3.060  1.00  0.00    -0.269 OA
BRANCH  34  37
ATOM     37  C   UNL     1       0.493  16.050  -2.986  1.00  0.00     0.039 A 
ATOM     38  C   UNL     1       0.648  17.176  -2.174  1.00  0.00     0.014 A 
ATOM     39  C   UNL     1       1.561  15.592  -3.763  1.00  0.00     0.014 A 
ATOM     40  C   UNL     1       1.893  17.803  -2.091  1.00  0.00     0.010 A 
ATOM     41  C   UNL     1       2.819  16.170  -3.621  1.00  0.00     0.010 A 
ATOM     42  C   UNL     1       2.998  17.281  -2.783  1.00  0.00    -0.014 A 
BRANCH  42  43
ATOM     43  C   UNL     1       4.352  17.873  -2.629  1.00  0.00     0.031 A 
ATOM     44  C   UNL     1       5.049  18.488  -3.810  1.00  0.00     0.074 A 
ATOM     45  C   UNL     1       4.979  17.796  -1.439  1.00  0.00     0.049 A 
ATOM     46  N   UNL     1       6.257  18.987  -3.891  1.00  0.00    -0.248 NA
ATOM     47  C   UNL     1       4.300  18.524  -5.076  1.00  0.00     0.031 C 
ATOM     48  C   UNL     1       4.424  17.186  -0.230  1.00  0.00     0.029 A 
ATOM     49  N   UNL     1       6.225  18.224  -1.053  1.00  0.00    -0.354 N 
ATOM     50  C   UNL     1       6.414  19.386  -5.212  1.00  0.00     0.074 A 
ATOM     51  C   UNL     1       5.202  19.020  -5.910  1.00  0.00     0.031 C 
ATOM     52  C   UNL     1       5.315  17.297   0.768  1.00  0.00     0.029 A 
ATOM     53  C   UNL     1       6.521  17.944   0.260  1.00  0.00     0.049 A 
ATOM     54  H   UNL     1       6.848  18.686  -1.659  1.00  0.00     0.167 HD
ATOM     55  C   UNL     1       7.466  20.019  -5.783  1.00  0.00     0.037 A 
ATOM     56  C   UNL     1       7.642  18.172   0.970  1.00  0.00     0.037 A 
ATOM     57  C   UNL     1       8.665  20.395  -5.079  1.00  0.00     0.049 A 
ATOM     58  C   UNL     1       8.806  18.856   0.303  1.00  0.00     0.074 A 
ATOM     59  C   UNL     1       9.764  21.088  -5.556  1.00  0.00     0.029 A 
ATOM     60  N   UNL     1       8.925  20.103  -3.748  1.00  0.00    -0.354 N 
ATOM     61  N   UNL     1       8.917  19.289  -0.930  1.00  0.00    -0.248 NA
ATOM     62  C   UNL     1       9.998  19.088   1.129  1.00  0.00     0.031 C 
ATOM     63  C   UNL     1      10.713  21.163  -4.531  1.00  0.00     0.029 A 
ATOM     64  C   UNL     1      10.179  20.577  -3.395  1.00  0.00     0.049 A 
ATOM     65  H   UNL     1       8.309  19.630  -3.143  1.00  0.00     0.167 HD
ATOM     66  C   UNL     1      10.173  19.873  -1.018  1.00  0.00     0.074 A 
ATOM     67  C   UNL     1      10.781  19.752   0.290  1.00  0.00     0.031 C 
ATOM     68  C   UNL     1      10.769  20.458  -2.086  1.00  0.00     0.037 A 
BRANCH  55  69
ATOM     69  C   UNL     1       7.372  20.346  -7.247  1.00  0.00     0.064 A 
ATOM     70  C   UNL     1       6.479  21.315  -7.731  1.00  0.00     0.173 A 
ATOM     71  C   UNL     1       8.218  19.717  -8.173  1.00  0.00     0.173 A 
ATOM     72  F   UNL     1       5.640  21.940  -6.891  1.00  0.00    -0.203 F 
ATOM     73  C   UNL     1       6.416  21.619  -9.088  1.00  0.00     0.198 A 
ATOM     74  C   UNL     1       8.176  20.048  -9.525  1.00  0.00     0.198 A 
ATOM     75  F   UNL     1       9.096  18.788  -7.765  1.00  0.00    -0.203 F 
ATOM     76  F   UNL     1       5.519  22.510  -9.533  1.00  0.00    -0.200 F 
ATOM     77  C   UNL     1       7.270  20.992  -9.983  1.00  0.00     0.200 A 
ATOM     78  F   UNL     1       9.014  19.452 -10.385  1.00  0.00    -0.200 F 
ATOM     79  F   UNL     1       7.215  21.293 -11.287  1.00  0.00    -0.200 F 
ENDBRANCH  55  69
BRANCH  56  80
ATOM     80  C   UNL     1       7.716  17.762   2.397  1.00  0.00     0.064 A 
ATOM     81  C   UNL     1       7.784  18.719   3.420  1.00  0.00     0.173 A 
ATOM     82  C   UNL     1       7.734  16.410   2.769  1.00  0.00     0.173 A 
ATOM     83  F   UNL     1       7.791  20.025   3.115  1.00  0.00    -0.203 F 
ATOM     84  C   UNL     1       7.894  18.339   4.756  1.00  0.00     0.198 A 
ATOM     85  C   UNL     1       7.809  16.031   4.108  1.00  0.00     0.198 A 
ATOM     86  F   UNL     1       7.664  15.453   1.831  1.00  0.00    -0.203 F 
ATOM     87  F   UNL     1       8.011  19.274   5.709  1.00  0.00    -0.200 F 
ATOM     88  C   UNL     1       7.900  16.995   5.099  1.00  0.00     0.200 A 
ATOM     89  F   UNL     1       7.796  14.732   4.435  1.00  0.00    -0.200 F 
ATOM     90  F   UNL     1       8.001  16.630   6.385  1.00  0.00    -0.200 F 
ENDBRANCH  56  80
BRANCH  68  91
ATOM     91  C   UNL     1      12.132  21.053  -1.876  1.00  0.00     0.064 A 
ATOM     92  C   UNL     1      13.266  20.253  -1.668  1.00  0.00     0.173 A 
ATOM     93  C   UNL     1      12.312  22.445  -1.923  1.00  0.00     0.173 A 
ATOM     94  F   UNL     1      13.147  18.919  -1.601  1.00  0.00    -0.203 F 
ATOM     95  C   UNL     1      14.522  20.826  -1.486  1.00  0.00     0.198 A 
ATOM     96  C   UNL     1      13.574  23.011  -1.775  1.00  0.00     0.198 A 
ATOM     97  F   UNL     1      11.262  23.255  -2.126  1.00  0.00    -0.203 F 
ATOM     98  F   UNL     1      15.582  20.044  -1.235  1.00  0.00    -0.200 F 
ATOM     99  C   UNL     1      14.677  22.202  -1.548  1.00  0.00     0.200 A 
ATOM    100  F   UNL     1      13.723  24.341  -1.852  1.00  0.00    -0.200 F 
ATOM    101  F   UNL     1      15.888  22.750  -1.380  1.00  0.00    -0.200 F 
ENDBRANCH  68  91
ENDBRANCH  42  43
ENDBRANCH  34  37
ENDBRANCH  32  33
ENDBRANCH  31  32
ENDBRANCH  30  31
ENDBRANCH   1  30
TORSDOF 16
