REMARK SMILES Cc1c(NC(=S)NC(=O)CSc2ccc(Cl)cc2)cccc1C(=O)NCCCCCCNC(=O)c1ccc(-c2c3nc(c(-c4c(F)c(F)c(F)c(F)c4F)c4ccc([nH]4)c(-c4c(F)c(F)c(F)c(F)c4F)c4nc(c(-c5c(F)c(F)c(F)c(F)c5F)c5ccc2[nH]5)C=C4)C=C3)cc1
REMARK SMILES IDX 26 1 25 2 23 3 24 4 22 6 1 7 2 8 3 9 19 10 21 11 20 12 4 13
REMARK SMILES IDX 5 15 6 16 7 17 8 18 9 20 10 21 11 22 12 23 13 24 18 25 14 26
REMARK SMILES IDX 17 27 15 28 16 29 27 30 28 31 29 32 30 33 31 34 32 35 33 36
REMARK SMILES IDX 34 38 35 39 36 40 97 41 37 42 96 43 38 44 39 45 40 46 90 47
REMARK SMILES IDX 41 48 95 49 89 50 91 51 42 52 94 53 88 54 87 55 43 57 75 58
REMARK SMILES IDX 55 59 74 60 56 61 59 62 73 63 92 64 57 65 58 66 72 68 93 69
REMARK SMILES IDX 60 70 44 71 45 72 53 73 46 74 47 75 51 76 54 77 48 78 49 79
REMARK SMILES IDX 52 80 50 81 76 82 77 83 85 84 78 85 79 86 83 87 86 88 80 89
REMARK SMILES IDX 81 90 84 91 82 92 61 93 62 94 70 95 63 96 64 97 68 98 71 99
REMARK SMILES IDX 65 100 66 101 69 102 67 103
REMARK H PARENT 25 5 4 14 7 19 32 37 91 56 59 67
REMARK Flexibility Score: inf
ROOT
ATOM      1  C   UNL     1       3.556   1.993   0.449  1.00  0.00     0.116 C 
ENDROOT
BRANCH   1   2
ATOM      2  N   UNL     1       2.353   2.710   0.098  1.00  0.00    -0.352 N 
ATOM      3  C   UNL     1       1.137   2.454  -0.470  1.00  0.00     0.251 C 
ATOM      4  O   UNL     1       0.470   3.490  -0.613  1.00  0.00    -0.269 OA
ATOM      5  H   UNL     1       2.432   3.661   0.339  1.00  0.00     0.163 HD
BRANCH   3   6
ATOM      6  C   UNL     1       0.488   1.144  -0.876  1.00  0.00     0.044 A 
ATOM      7  C   UNL     1       2.429  -0.540  -0.954  1.00  0.00     0.047 C 
ATOM      8  C   UNL     1       0.976  -0.182  -0.934  1.00  0.00    -0.015 A 
ATOM      9  C   UNL     1       0.054  -1.263  -1.097  1.00  0.00     0.044 A 
ATOM     10  C   UNL     1      -1.218  -1.022  -1.598  1.00  0.00     0.026 A 
ATOM     11  C   UNL     1      -0.864   1.325  -1.264  1.00  0.00     0.014 A 
ATOM     12  C   UNL     1      -1.679   0.279  -1.690  1.00  0.00     0.003 A 
BRANCH   9  13
ATOM     13  N   UNL     1       0.470  -2.568  -0.759  1.00  0.00    -0.332 N 
ATOM     14  H   UNL     1       1.444  -2.639  -0.635  1.00  0.00     0.169 HD
BRANCH  13  15
ATOM     15  C   UNL     1      -0.167  -3.733  -0.569  1.00  0.00     0.177 C 
ATOM     16  S   UNL     1       0.748  -5.131  -0.733  1.00  0.00    -0.040 S 
BRANCH  15  17
ATOM     17  N   UNL     1      -1.476  -3.891  -0.219  1.00  0.00    -0.302 N 
ATOM     18  C   UNL     1      -2.545  -3.241   0.377  1.00  0.00     0.236 C 
ATOM     19  H   UNL     1      -1.766  -4.793  -0.487  1.00  0.00     0.172 HD
ATOM     20  O   UNL     1      -3.650  -3.789   0.243  1.00  0.00    -0.274 OA
BRANCH  18  21
ATOM     21  C   UNL     1      -2.458  -1.939   1.143  1.00  0.00     0.175 C 
BRANCH  21  22
ATOM     22  S   UNL     1      -0.981  -1.756   2.176  1.00  0.00    -0.116 SA
BRANCH  22  23
ATOM     23  C   UNL     1      -1.782  -1.548   3.746  1.00  0.00     0.008 A 
ATOM     24  C   UNL     1      -2.109  -0.277   4.229  1.00  0.00     0.016 A 
ATOM     25  C   UNL     1      -2.120  -2.685   4.484  1.00  0.00     0.016 A 
ATOM     26  C   UNL     1      -2.781  -0.148   5.447  1.00  0.00     0.021 A 
ATOM     27  C   UNL     1      -2.791  -2.556   5.698  1.00  0.00     0.021 A 
ATOM     28  C   UNL     1      -3.120  -1.289   6.175  1.00  0.00     0.041 A 
ATOM     29  Cl  UNL     1      -3.955  -1.134   7.670  1.00  0.00    -0.084 Cl
ENDBRANCH  22  23
ENDBRANCH  21  22
ENDBRANCH  18  21
ENDBRANCH  15  17
ENDBRANCH  13  15
ENDBRANCH   9  13
ENDBRANCH   3   6
ENDBRANCH   1   2
BRANCH   1  30
ATOM     30  C   UNL     1       4.554   1.984  -0.717  1.00  0.00     0.021 C 
BRANCH  30  31
ATOM     31  C   UNL     1       5.603   3.101  -0.708  1.00  0.00     0.002 C 
BRANCH  31  32
ATOM     32  C   UNL     1       6.513   3.180   0.527  1.00  0.00     0.002 C 
BRANCH  32  33
ATOM     33  C   UNL     1       7.010   1.847   1.089  1.00  0.00     0.021 C 
BRANCH  33  34
ATOM     34  C   UNL     1       7.977   1.105   0.177  1.00  0.00     0.116 C 
BRANCH  34  35
ATOM     35  N   UNL     1       9.380   1.356   0.483  1.00  0.00    -0.352 N 
ATOM     36  C   UNL     1      10.511   0.952  -0.195  1.00  0.00     0.251 C 
ATOM     37  H   UNL     1       9.544   1.892   1.292  1.00  0.00     0.163 HD
ATOM     38  O   UNL     1      11.625   1.202   0.256  1.00  0.00    -0.269 OA
BRANCH  36  39
ATOM     39  C   UNL     1      10.380   0.334  -1.534  1.00  0.00     0.039 A 
ATOM     40  C   UNL     1      11.184   0.829  -2.567  1.00  0.00     0.014 A 
ATOM     41  C   UNL     1       9.367  -0.581  -1.812  1.00  0.00     0.014 A 
ATOM     42  C   UNL     1      10.823   0.592  -3.891  1.00  0.00     0.010 A 
ATOM     43  C   UNL     1       8.953  -0.745  -3.119  1.00  0.00     0.010 A 
ATOM     44  C   UNL     1       9.643  -0.103  -4.152  1.00  0.00    -0.014 A 
BRANCH  44  45
ATOM     45  C   UNL     1       9.017  -0.157  -5.466  1.00  0.00     0.031 A 
ATOM     46  C   UNL     1       9.179  -1.351  -6.318  1.00  0.00     0.074 A 
ATOM     47  C   UNL     1       8.229   0.867  -5.864  1.00  0.00     0.049 A 
ATOM     48  N   UNL     1       8.973  -1.371  -7.591  1.00  0.00    -0.248 NA
ATOM     49  C   UNL     1       9.634  -2.629  -5.787  1.00  0.00     0.031 C 
ATOM     50  C   UNL     1       7.332   0.908  -7.016  1.00  0.00     0.029 A 
ATOM     51  N   UNL     1       8.269   2.195  -5.408  1.00  0.00    -0.354 N 
ATOM     52  C   UNL     1       9.046  -2.678  -8.013  1.00  0.00     0.074 A 
ATOM     53  C   UNL     1       9.490  -3.420  -6.855  1.00  0.00     0.031 C 
ATOM     54  C   UNL     1       7.163   2.189  -7.381  1.00  0.00     0.029 A 
ATOM     55  C   UNL     1       8.060   2.987  -6.564  1.00  0.00     0.049 A 
ATOM     56  H   UNL     1       8.411   2.507  -4.485  1.00  0.00     0.167 HD
ATOM     57  C   UNL     1       8.631  -2.994  -9.274  1.00  0.00     0.037 A 
ATOM     58  C   UNL     1       9.050   3.799  -7.037  1.00  0.00     0.037 A 
ATOM     59  C   UNL     1       8.283  -1.798 -10.036  1.00  0.00     0.049 A 
ATOM     60  C   UNL     1       9.517   3.474  -8.441  1.00  0.00     0.074 A 
ATOM     61  C   UNL     1       7.100  -1.126 -10.296  1.00  0.00     0.029 A 
ATOM     62  N   UNL     1       9.301  -0.941 -10.409  1.00  0.00    -0.354 N 
ATOM     63  N   UNL     1       9.149   2.418  -9.112  1.00  0.00    -0.248 NA
ATOM     64  C   UNL     1      10.521   4.266  -9.153  1.00  0.00     0.031 C 
ATOM     65  C   UNL     1       7.427   0.169 -10.792  1.00  0.00     0.029 A 
ATOM     66  C   UNL     1       8.805   0.273 -10.841  1.00  0.00     0.049 A 
ATOM     67  H   UNL     1      10.258  -1.167 -10.370  1.00  0.00     0.167 HD
ATOM     68  C   UNL     1       9.859   2.358 -10.280  1.00  0.00     0.074 A 
ATOM     69  C   UNL     1      10.709   3.533 -10.263  1.00  0.00     0.031 C 
ATOM     70  C   UNL     1       9.736   1.335 -11.169  1.00  0.00     0.037 A 
BRANCH  57  71
ATOM     71  C   UNL     1       8.346  -4.397  -9.751  1.00  0.00     0.064 A 
ATOM     72  C   UNL     1       7.348  -4.634 -10.722  1.00  0.00     0.173 A 
ATOM     73  C   UNL     1       8.982  -5.553  -9.265  1.00  0.00     0.173 A 
ATOM     74  F   UNL     1       6.724  -3.625 -11.345  1.00  0.00    -0.203 F 
ATOM     75  C   UNL     1       6.945  -5.922 -11.085  1.00  0.00     0.198 A 
ATOM     76  C   UNL     1       8.537  -6.842  -9.580  1.00  0.00     0.198 A 
ATOM     77  F   UNL     1      10.089  -5.476  -8.517  1.00  0.00    -0.203 F 
ATOM     78  F   UNL     1       5.991  -6.083 -12.013  1.00  0.00    -0.200 F 
ATOM     79  C   UNL     1       7.511  -7.026 -10.483  1.00  0.00     0.200 A 
ATOM     80  F   UNL     1       9.116  -7.904  -9.002  1.00  0.00    -0.200 F 
ATOM     81  F   UNL     1       7.090  -8.259 -10.792  1.00  0.00    -0.200 F 
ENDBRANCH  57  71
BRANCH  58  82
ATOM     82  C   UNL     1       9.926   4.329  -5.956  1.00  0.00     0.064 A 
ATOM     83  C   UNL     1       9.335   5.074  -4.916  1.00  0.00     0.173 A 
ATOM     84  C   UNL     1      11.209   3.817  -5.736  1.00  0.00     0.173 A 
ATOM     85  F   UNL     1       8.106   5.592  -5.076  1.00  0.00    -0.203 F 
ATOM     86  C   UNL     1       9.941   5.179  -3.667  1.00  0.00     0.198 A 
ATOM     87  C   UNL     1      11.825   3.950  -4.491  1.00  0.00     0.198 A 
ATOM     88  F   UNL     1      11.823   3.088  -6.679  1.00  0.00    -0.203 F 
ATOM     89  F   UNL     1       9.292   5.777  -2.657  1.00  0.00    -0.200 F 
ATOM     90  C   UNL     1      11.175   4.593  -3.448  1.00  0.00     0.200 A 
ATOM     91  F   UNL     1      13.012   3.365  -4.274  1.00  0.00    -0.200 F 
ATOM     92  F   UNL     1      11.719   4.610  -2.224  1.00  0.00    -0.200 F 
ENDBRANCH  58  82
BRANCH  70  93
ATOM     93  C   UNL     1      10.507   1.282 -12.447  1.00  0.00     0.064 A 
ATOM     94  C   UNL     1      10.507   2.353 -13.353  1.00  0.00     0.173 A 
ATOM     95  C   UNL     1      11.170   0.108 -12.851  1.00  0.00     0.173 A 
ATOM     96  F   UNL     1       9.870   3.496 -13.059  1.00  0.00    -0.203 F 
ATOM     97  C   UNL     1      11.157   2.262 -14.584  1.00  0.00     0.198 A 
ATOM     98  C   UNL     1      11.778   0.004 -14.099  1.00  0.00     0.198 A 
ATOM     99  F   UNL     1      11.259  -0.953 -12.034  1.00  0.00    -0.203 F 
ATOM    100  F   UNL     1      11.175   3.319 -15.406  1.00  0.00    -0.200 F 
ATOM    101  C   UNL     1      11.779   1.083 -14.961  1.00  0.00     0.200 A 
ATOM    102  F   UNL     1      12.365  -1.147 -14.458  1.00  0.00    -0.200 F 
ATOM    103  F   UNL     1      12.384   0.991 -16.153  1.00  0.00    -0.200 F 
ENDBRANCH  70  93
ENDBRANCH  44  45
ENDBRANCH  36  39
ENDBRANCH  34  35
ENDBRANCH  33  34
ENDBRANCH  32  33
ENDBRANCH  31  32
ENDBRANCH  30  31
ENDBRANCH   1  30
TORSDOF 19
