REMARK SMILES O=C(NCCCCCCNC(=O)[C@@H]1CCCN(C(=O)c2c(F)cc(Br)cc2F)C1)c1ccc(-c2c3nc(c(-c4c(F)c(F)c(F)c(F)c4F)c4ccc([nH]4)c(-c4c(F)c(F)c(F)c(F)c4F)c4nc(c(-c5c(F)c(F)c(F)c(F)c5F)c5ccc2[nH]5)C=C4)C=C3)cc1
REMARK SMILES IDX 6 1 5 2 4 3 3 4 1 5 2 6 30 8 31 9 92 10 32 11 91 12 33 13
REMARK SMILES IDX 34 14 35 15 85 16 36 17 90 18 84 19 86 20 37 21 89 22 83 23
REMARK SMILES IDX 82 24 38 26 70 27 50 28 69 29 51 30 54 31 68 32 87 33 52 34
REMARK SMILES IDX 53 35 67 37 88 38 55 39 39 40 40 41 48 42 41 43 42 44 46 45
REMARK SMILES IDX 49 46 43 47 44 48 47 49 45 50 71 51 72 52 80 53 73 54 74 55
REMARK SMILES IDX 78 56 81 57 75 58 76 59 79 60 77 61 56 62 57 63 65 64 58 65
REMARK SMILES IDX 59 66 63 67 66 68 60 69 61 70 64 71 62 72 7 73 8 74 9 75
REMARK SMILES IDX 10 76 11 77 12 79 13 80 14 81 29 82 15 83 17 84 16 85 18 86
REMARK SMILES IDX 19 87 20 88 21 89 27 90 22 91 23 92 26 93 28 94 24 95 25 96
REMARK H PARENT 3 7 86 25 54 36 10 78
REMARK Flexibility Score: inf
ROOT
ATOM      1  C   UNL     1       4.196  -1.618   3.470  1.00  0.00     0.002 C 
ENDROOT
BRANCH   1   2
ATOM      2  C   UNL     1       4.633  -0.469   2.560  1.00  0.00     0.021 C 
BRANCH   2   3
ATOM      3  C   UNL     1       4.396  -0.720   1.075  1.00  0.00     0.116 C 
BRANCH   3   4
ATOM      4  N   UNL     1       2.982  -0.860   0.767  1.00  0.00    -0.352 N 
ATOM      5  O   UNL     1       0.982  -0.235  -0.073  1.00  0.00    -0.269 OA
ATOM      6  C   UNL     1       2.208  -0.119  -0.084  1.00  0.00     0.251 C 
ATOM      7  H   UNL     1       2.516  -1.589   1.237  1.00  0.00     0.163 HD
BRANCH   6   8
ATOM      8  C   UNL     1       2.844   0.834  -1.012  1.00  0.00     0.039 A 
ATOM      9  C   UNL     1       3.959   0.457  -1.769  1.00  0.00     0.014 A 
ATOM     10  C   UNL     1       2.302   2.114  -1.143  1.00  0.00     0.014 A 
ATOM     11  C   UNL     1       4.596   1.393  -2.577  1.00  0.00     0.010 A 
ATOM     12  C   UNL     1       2.901   3.031  -2.006  1.00  0.00     0.010 A 
ATOM     13  C   UNL     1       4.063   2.683  -2.715  1.00  0.00    -0.014 A 
BRANCH  13  14
ATOM     14  C   UNL     1       4.684   3.656  -3.645  1.00  0.00     0.031 A 
ATOM     15  C   UNL     1       5.301   4.921  -3.128  1.00  0.00     0.074 A 
ATOM     16  C   UNL     1       4.639   3.413  -4.968  1.00  0.00     0.049 A 
ATOM     17  N   UNL     1       5.784   5.939  -3.794  1.00  0.00    -0.248 NA
ATOM     18  C   UNL     1       5.373   5.067  -1.667  1.00  0.00     0.031 C 
ATOM     19  C   UNL     1       4.061   2.217  -5.583  1.00  0.00     0.029 A 
ATOM     20  N   UNL     1       5.064   4.165  -6.032  1.00  0.00    -0.354 N 
ATOM     21  C   UNL     1       6.193   6.857  -2.837  1.00  0.00     0.074 A 
ATOM     22  C   UNL     1       5.880   6.285  -1.544  1.00  0.00     0.031 C 
ATOM     23  C   UNL     1       4.164   2.317  -6.915  1.00  0.00     0.029 A 
ATOM     24  C   UNL     1       4.756   3.609  -7.248  1.00  0.00     0.049 A 
ATOM     25  H   UNL     1       5.542   5.020  -5.934  1.00  0.00     0.167 HD
ATOM     26  C   UNL     1       6.777   8.065  -3.026  1.00  0.00     0.037 A 
ATOM     27  C   UNL     1       4.893   4.100  -8.493  1.00  0.00     0.037 A 
ATOM     28  C   UNL     1       7.082   8.620  -4.321  1.00  0.00     0.049 A 
ATOM     29  C   UNL     1       5.503   5.459  -8.681  1.00  0.00     0.074 A 
ATOM     30  C   UNL     1       7.714   9.813  -4.622  1.00  0.00     0.029 A 
ATOM     31  N   UNL     1       6.760   8.022  -5.532  1.00  0.00    -0.354 N 
ATOM     32  N   UNL     1       5.927   6.304  -7.773  1.00  0.00    -0.248 NA
ATOM     33  C   UNL     1       5.655   5.934 -10.062  1.00  0.00     0.031 C 
ATOM     34  C   UNL     1       7.719   9.967  -6.012  1.00  0.00     0.029 A 
ATOM     35  C   UNL     1       7.152   8.838  -6.582  1.00  0.00     0.049 A 
ATOM     36  H   UNL     1       6.319   7.148  -5.631  1.00  0.00     0.167 HD
ATOM     37  C   UNL     1       6.422   7.397  -8.469  1.00  0.00     0.074 A 
ATOM     38  C   UNL     1       6.246   7.107  -9.878  1.00  0.00     0.031 C 
ATOM     39  C   UNL     1       6.979   8.532  -7.981  1.00  0.00     0.037 A 
BRANCH  26  40
ATOM     40  C   UNL     1       7.085   8.885  -1.805  1.00  0.00     0.064 A 
ATOM     41  C   UNL     1       8.073   8.506  -0.884  1.00  0.00     0.173 A 
ATOM     42  C   UNL     1       6.385  10.077  -1.557  1.00  0.00     0.173 A 
ATOM     43  F   UNL     1       8.768   7.372  -1.067  1.00  0.00    -0.203 F 
ATOM     44  C   UNL     1       8.318   9.263   0.259  1.00  0.00     0.198 A 
ATOM     45  C   UNL     1       6.656  10.850  -0.431  1.00  0.00     0.198 A 
ATOM     46  F   UNL     1       5.437  10.495  -2.409  1.00  0.00    -0.203 F 
ATOM     47  F   UNL     1       9.222   8.846   1.156  1.00  0.00    -0.200 F 
ATOM     48  C   UNL     1       7.613  10.436   0.483  1.00  0.00     0.200 A 
ATOM     49  F   UNL     1       5.984  11.991  -0.226  1.00  0.00    -0.200 F 
ATOM     50  F   UNL     1       7.848  11.162   1.584  1.00  0.00    -0.200 F 
ENDBRANCH  26  40
BRANCH  27  51
ATOM     51  C   UNL     1       4.426   3.287  -9.644  1.00  0.00     0.064 A 
ATOM     52  C   UNL     1       5.337   2.677 -10.514  1.00  0.00     0.173 A 
ATOM     53  C   UNL     1       3.058   3.051  -9.855  1.00  0.00     0.173 A 
ATOM     54  F   UNL     1       6.653   2.886 -10.360  1.00  0.00    -0.203 F 
ATOM     55  C   UNL     1       4.898   1.861 -11.555  1.00  0.00     0.198 A 
ATOM     56  C   UNL     1       2.623   2.213 -10.878  1.00  0.00     0.198 A 
ATOM     57  F   UNL     1       2.148   3.604  -9.041  1.00  0.00    -0.203 F 
ATOM     58  F   UNL     1       5.789   1.306 -12.388  1.00  0.00    -0.200 F 
ATOM     59  C   UNL     1       3.543   1.621 -11.729  1.00  0.00     0.200 A 
ATOM     60  F   UNL     1       1.314   1.967 -11.029  1.00  0.00    -0.200 F 
ATOM     61  F   UNL     1       3.125   0.818 -12.717  1.00  0.00    -0.200 F 
ENDBRANCH  27  51
BRANCH  39  62
ATOM     62  C   UNL     1       7.490   9.536  -8.973  1.00  0.00     0.064 A 
ATOM     63  C   UNL     1       6.623  10.347  -9.719  1.00  0.00     0.173 A 
ATOM     64  C   UNL     1       8.871   9.742  -9.117  1.00  0.00     0.173 A 
ATOM     65  F   UNL     1       5.296  10.178  -9.631  1.00  0.00    -0.203 F 
ATOM     66  C   UNL     1       7.122  11.323 -10.578  1.00  0.00     0.198 A 
ATOM     67  C   UNL     1       9.365  10.737  -9.954  1.00  0.00     0.198 A 
ATOM     68  F   UNL     1       9.742   8.994  -8.422  1.00  0.00    -0.203 F 
ATOM     69  F   UNL     1       6.277  12.069 -11.305  1.00  0.00    -0.200 F 
ATOM     70  C   UNL     1       8.490  11.526 -10.686  1.00  0.00     0.200 A 
ATOM     71  F   UNL     1      10.687  10.940 -10.044  1.00  0.00    -0.200 F 
ATOM     72  F   UNL     1       8.967  12.480 -11.497  1.00  0.00    -0.200 F 
ENDBRANCH  39  62
ENDBRANCH  13  14
ENDBRANCH   6   8
ENDBRANCH   3   4
ENDBRANCH   2   3
ENDBRANCH   1   2
BRANCH   1  73
ATOM     73  C   UNL     1       4.843  -2.970   3.150  1.00  0.00     0.002 C 
BRANCH  73  74
ATOM     74  C   UNL     1       6.378  -2.968   3.150  1.00  0.00     0.021 C 
BRANCH  74  75
ATOM     75  C   UNL     1       6.999  -2.502   4.467  1.00  0.00     0.116 C 
BRANCH  75  76
ATOM     76  N   UNL     1       6.624  -3.399   5.542  1.00  0.00    -0.356 N 
ATOM     77  C   UNL     1       7.386  -4.272   6.254  1.00  0.00     0.224 C 
ATOM     78  H   UNL     1       5.673  -3.372   5.795  1.00  0.00     0.163 HD
ATOM     79  O   UNL     1       6.804  -5.112   6.940  1.00  0.00    -0.275 OA
BRANCH  77  80
ATOM     80  C   UNL     1       8.905  -4.160   6.187  1.00  0.00     0.098 C 
ATOM     81  C   UNL     1       9.607  -5.421   6.714  1.00  0.00     0.017 C 
ATOM     82  C   UNL     1       9.364  -2.925   6.972  1.00  0.00     0.133 C 
ATOM     83  C   UNL     1       9.532  -5.563   8.236  1.00  0.00     0.022 C 
ATOM     84  N   UNL     1       9.201  -3.122   8.412  1.00  0.00    -0.338 N 
ATOM     85  C   UNL     1       9.915  -4.276   8.960  1.00  0.00     0.120 C 
BRANCH  84  86
ATOM     86  C   UNL     1       8.336  -2.275   9.105  1.00  0.00     0.259 C 
ATOM     87  O   UNL     1       7.734  -1.342   8.575  1.00  0.00    -0.269 OA
BRANCH  86  88
ATOM     88  C   UNL     1       8.101  -2.479  10.539  1.00  0.00     0.111 A 
ATOM     89  C   UNL     1       9.133  -2.348  11.465  1.00  0.00     0.140 A 
ATOM     90  C   UNL     1       6.809  -2.728  10.994  1.00  0.00     0.140 A 
ATOM     91  F   UNL     1      10.384  -2.077  11.063  1.00  0.00    -0.206 F 
ATOM     92  C   UNL     1       8.895  -2.518  12.827  1.00  0.00     0.056 A 
ATOM     93  C   UNL     1       6.551  -2.890  12.354  1.00  0.00     0.056 A 
ATOM     94  F   UNL     1       5.784  -2.835  10.137  1.00  0.00    -0.206 F 
ATOM     95  C   UNL     1       7.601  -2.791  13.265  1.00  0.00     0.023 A 
ATOM     96  Br  UNL     1       7.268  -3.028  15.110  1.00  0.00    -0.051 Br
ENDBRANCH  86  88
ENDBRANCH  84  86
ENDBRANCH  77  80
ENDBRANCH  75  76
ENDBRANCH  74  75
ENDBRANCH  73  74
ENDBRANCH   1  73
TORSDOF 15
