REMARK SMILES CC[C@@](C)([NH3+])C(=O)N1CC[NH+]([C@H](C)C(=O)NCCCCCCNC(=O)c2ccc(-c3c4nc(c(-c5c(F)c(F)c(F)c(F)c5F)c5ccc([nH]5)c(-c5c(F)c(F)c(F)c(F)c5F)c5nc(c(-c6c(F)c(F)c(F)c(F)c6F)c6ccc3[nH]6)C=C5)C=C4)cc2)CC1
REMARK SMILES IDX 19 1 18 2 17 3 16 4 14 5 15 6 12 8 13 9 11 10 6 11 7 12 8 13
REMARK SMILES IDX 9 14 90 15 10 16 89 17 3 19 4 20 2 21 1 22 5 23 20 27 21 28
REMARK SMILES IDX 22 29 23 30 24 31 25 33 26 34 27 35 88 36 28 37 87 38 29 39
REMARK SMILES IDX 30 40 31 41 81 42 32 43 86 44 80 45 82 46 33 47 85 48 79 49
REMARK SMILES IDX 78 50 34 52 66 53 46 54 65 55 47 56 50 57 64 58 83 59 48 60
REMARK SMILES IDX 49 61 63 63 84 64 51 65 35 66 36 67 44 68 37 69 38 70 42 71
REMARK SMILES IDX 45 72 39 73 40 74 43 75 41 76 67 77 68 78 76 79 69 80 70 81
REMARK SMILES IDX 74 82 77 83 71 84 72 85 75 86 73 87 52 88 53 89 61 90 54 91
REMARK SMILES IDX 55 92 59 93 62 94 56 95 57 96 60 97 58 98
REMARK H PARENT 16 7 11 18 5 24 5 25 5 26 23 32 82 51 50 62
REMARK Flexibility Score: inf
ROOT
ATOM      1  C   UNL     1       6.929   1.900   5.526  1.00  0.00     0.002 C 
ENDROOT
BRANCH   1   2
ATOM      2  C   UNL     1       5.589   1.171   5.412  1.00  0.00     0.021 C 
BRANCH   2   3
ATOM      3  C   UNL     1       5.684  -0.296   5.024  1.00  0.00     0.116 C 
BRANCH   3   4
ATOM      4  N   UNL     1       6.268  -1.142   6.041  1.00  0.00    -0.351 N 
ATOM      5  C   UNL     1       6.077  -2.471   6.306  1.00  0.00     0.278 C 
ATOM      6  O   UNL     1       6.873  -2.991   7.097  1.00  0.00    -0.268 OA
ATOM      7  H   UNL     1       6.904  -0.689   6.639  1.00  0.00     0.163 HD
BRANCH   5   8
ATOM      8  C   UNL     1       4.918  -3.301   5.692  1.00  0.00     0.271 C 
ATOM      9  C   UNL     1       3.545  -2.644   5.889  1.00  0.00     0.086 C 
BRANCH   8  10
ATOM     10  N   UNL     1       5.225  -3.888   4.352  1.00  0.00    -0.322 N 
ATOM     11  C   UNL     1       4.091  -3.490   0.434  1.00  0.00     0.283 C 
ATOM     12  O   UNL     1       4.783  -2.896  -0.405  1.00  0.00    -0.268 OA
ATOM     13  N   UNL     1       4.729  -4.102   1.501  1.00  0.00    -0.326 N 
ATOM     14  C   UNL     1       5.997  -3.547   1.955  1.00  0.00     0.181 C 
ATOM     15  C   UNL     1       4.285  -5.186   2.372  1.00  0.00     0.181 C 
ATOM     16  C   UNL     1       5.770  -2.948   3.358  1.00  0.00     0.284 C 
ATOM     17  C   UNL     1       4.094  -4.684   3.818  1.00  0.00     0.284 C 
ATOM     18  H   UNL     1       6.000  -4.526   4.531  1.00  0.00     0.348 HD
BRANCH  11  19
ATOM     19  C   UNL     1       2.523  -3.314   0.400  1.00  0.00     0.171 C 
ATOM     20  C   UNL     1       2.114  -2.316   1.496  1.00  0.00     0.090 C 
BRANCH  19  21
ATOM     21  C   UNL     1       2.060  -2.802  -0.999  1.00  0.00     0.075 C 
ATOM     22  C   UNL     1       2.386  -1.347  -1.340  1.00  0.00     0.011 C 
ENDBRANCH  19  21
BRANCH  19  23
ATOM     23  N   UNL     1       1.815  -4.597   0.630  1.00  0.00    -0.345 N 
ATOM     24  H   UNL     1       0.808  -4.440   0.601  1.00  0.00     0.345 HD
ATOM     25  H   UNL     1       2.074  -4.970   1.544  1.00  0.00     0.345 HD
ATOM     26  H   UNL     1       2.076  -5.264  -0.096  1.00  0.00     0.345 HD
ENDBRANCH  19  23
ENDBRANCH  11  19
ENDBRANCH   8  10
ENDBRANCH   5   8
ENDBRANCH   3   4
ENDBRANCH   2   3
ENDBRANCH   1   2
BRANCH   1  27
ATOM     27  C   UNL     1       7.872   1.778   4.322  1.00  0.00     0.002 C 
BRANCH  27  28
ATOM     28  C   UNL     1       7.276   2.131   2.958  1.00  0.00     0.021 C 
BRANCH  28  29
ATOM     29  C   UNL     1       6.597   3.493   2.871  1.00  0.00     0.116 C 
BRANCH  29  30
ATOM     30  N   UNL     1       7.486   4.588   3.214  1.00  0.00    -0.352 N 
ATOM     31  C   UNL     1       7.736   5.755   2.535  1.00  0.00     0.251 C 
ATOM     32  H   UNL     1       7.982   4.479   4.058  1.00  0.00     0.163 HD
ATOM     33  O   UNL     1       8.631   6.505   2.904  1.00  0.00    -0.269 OA
BRANCH  31  34
ATOM     34  C   UNL     1       6.939   6.092   1.337  1.00  0.00     0.039 A 
ATOM     35  C   UNL     1       7.602   6.556   0.198  1.00  0.00     0.014 A 
ATOM     36  C   UNL     1       5.549   5.950   1.333  1.00  0.00     0.014 A 
ATOM     37  C   UNL     1       6.877   6.817  -0.966  1.00  0.00     0.010 A 
ATOM     38  C   UNL     1       4.838   6.135   0.151  1.00  0.00     0.010 A 
ATOM     39  C   UNL     1       5.495   6.572  -1.010  1.00  0.00    -0.014 A 
BRANCH  39  40
ATOM     40  C   UNL     1       4.719   6.766  -2.261  1.00  0.00     0.031 A 
ATOM     41  C   UNL     1       3.635   7.804  -2.325  1.00  0.00     0.074 A 
ATOM     42  C   UNL     1       4.952   5.966  -3.319  1.00  0.00     0.049 A 
ATOM     43  N   UNL     1       2.811   8.084  -3.304  1.00  0.00    -0.248 NA
ATOM     44  C   UNL     1       3.432   8.620  -1.118  1.00  0.00     0.031 C 
ATOM     45  C   UNL     1       5.953   4.900  -3.367  1.00  0.00     0.029 A 
ATOM     46  N   UNL     1       4.361   5.923  -4.556  1.00  0.00    -0.354 N 
ATOM     47  C   UNL     1       1.992   9.100  -2.829  1.00  0.00     0.074 A 
ATOM     48  C   UNL     1       2.372   9.339  -1.453  1.00  0.00     0.031 C 
ATOM     49  C   UNL     1       5.930   4.331  -4.582  1.00  0.00     0.029 A 
ATOM     50  C   UNL     1       4.885   4.960  -5.383  1.00  0.00     0.049 A 
ATOM     51  H   UNL     1       3.630   6.526  -4.826  1.00  0.00     0.167 HD
ATOM     52  C   UNL     1       1.030   9.790  -3.488  1.00  0.00     0.037 A 
ATOM     53  C   UNL     1       4.554   4.621  -6.643  1.00  0.00     0.037 A 
ATOM     54  C   UNL     1       0.659   9.549  -4.858  1.00  0.00     0.049 A 
ATOM     55  C   UNL     1       3.446   5.366  -7.336  1.00  0.00     0.074 A 
ATOM     56  C   UNL     1      -0.275  10.216  -5.631  1.00  0.00     0.029 A 
ATOM     57  N   UNL     1       1.201   8.553  -5.659  1.00  0.00    -0.354 N 
ATOM     58  N   UNL     1       2.720   6.367  -6.900  1.00  0.00    -0.248 NA
ATOM     59  C   UNL     1       3.112   4.932  -8.700  1.00  0.00     0.031 C 
ATOM     60  C   UNL     1      -0.340   9.587  -6.879  1.00  0.00     0.029 A 
ATOM     61  C   UNL     1       0.599   8.568  -6.907  1.00  0.00     0.049 A 
ATOM     62  H   UNL     1       1.908   7.927  -5.381  1.00  0.00     0.167 HD
ATOM     63  C   UNL     1       1.870   6.706  -7.945  1.00  0.00     0.074 A 
ATOM     64  C   UNL     1       2.179   5.810  -9.040  1.00  0.00     0.031 C 
ATOM     65  C   UNL     1       0.921   7.674  -7.992  1.00  0.00     0.037 A 
BRANCH  52  66
ATOM     66  C   UNL     1       0.310  10.867  -2.724  1.00  0.00     0.064 A 
ATOM     67  C   UNL     1       0.966  12.035  -2.300  1.00  0.00     0.173 A 
ATOM     68  C   UNL     1      -1.052  10.736  -2.415  1.00  0.00     0.173 A 
ATOM     69  F   UNL     1       2.271  12.209  -2.559  1.00  0.00    -0.203 F 
ATOM     70  C   UNL     1       0.298  13.005  -1.557  1.00  0.00     0.198 A 
ATOM     71  C   UNL     1      -1.726  11.726  -1.704  1.00  0.00     0.198 A 
ATOM     72  F   UNL     1      -1.732   9.646  -2.801  1.00  0.00    -0.203 F 
ATOM     73  F   UNL     1       0.965  14.075  -1.103  1.00  0.00    -0.200 F 
ATOM     74  C   UNL     1      -1.048  12.852  -1.264  1.00  0.00     0.200 A 
ATOM     75  F   UNL     1      -3.031  11.584  -1.435  1.00  0.00    -0.200 F 
ATOM     76  F   UNL     1      -1.689  13.785  -0.547  1.00  0.00    -0.200 F 
ENDBRANCH  52  66
BRANCH  53  77
ATOM     77  C   UNL     1       5.306   3.547  -7.345  1.00  0.00     0.064 A 
ATOM     78  C   UNL     1       6.142   3.851  -8.428  1.00  0.00     0.173 A 
ATOM     79  C   UNL     1       5.208   2.204  -6.954  1.00  0.00     0.173 A 
ATOM     80  F   UNL     1       6.251   5.119  -8.854  1.00  0.00    -0.203 F 
ATOM     81  C   UNL     1       6.837   2.852  -9.105  1.00  0.00     0.198 A 
ATOM     82  C   UNL     1       5.927   1.208  -7.612  1.00  0.00     0.198 A 
ATOM     83  F   UNL     1       4.424   1.860  -5.921  1.00  0.00    -0.203 F 
ATOM     84  F   UNL     1       7.592   3.166 -10.167  1.00  0.00    -0.200 F 
ATOM     85  C   UNL     1       6.735   1.532  -8.693  1.00  0.00     0.200 A 
ATOM     86  F   UNL     1       5.836  -0.064  -7.202  1.00  0.00    -0.200 F 
ATOM     87  F   UNL     1       7.407   0.572  -9.341  1.00  0.00    -0.200 F 
ENDBRANCH  53  77
BRANCH  65  88
ATOM     88  C   UNL     1       0.175   7.845  -9.285  1.00  0.00     0.064 A 
ATOM     89  C   UNL     1      -0.756   6.896  -9.733  1.00  0.00     0.173 A 
ATOM     90  C   UNL     1       0.367   8.995 -10.066  1.00  0.00     0.173 A 
ATOM     91  F   UNL     1      -0.966   5.772  -9.032  1.00  0.00    -0.203 F 
ATOM     92  C   UNL     1      -1.447   7.080 -10.929  1.00  0.00     0.198 A 
ATOM     93  C   UNL     1      -0.351   9.192 -11.242  1.00  0.00     0.198 A 
ATOM     94  F   UNL     1       1.240   9.938  -9.680  1.00  0.00    -0.203 F 
ATOM     95  F   UNL     1      -2.293   6.136 -11.363  1.00  0.00    -0.200 F 
ATOM     96  C   UNL     1      -1.250   8.231 -11.677  1.00  0.00     0.200 A 
ATOM     97  F   UNL     1      -0.172  10.313 -11.955  1.00  0.00    -0.200 F 
ATOM     98  F   UNL     1      -1.924   8.411 -12.822  1.00  0.00    -0.200 F 
ENDBRANCH  65  88
ENDBRANCH  39  40
ENDBRANCH  31  34
ENDBRANCH  29  30
ENDBRANCH  28  29
ENDBRANCH  27  28
ENDBRANCH   1  27
TORSDOF 17
