REMARK SMILES COc1ccc(NS(=O)(=O)c2ccc(NC(=O)[C@H]3CCCC[C@@H]3C(=O)NCCCCCCNC(=O)c3ccc(-c4c5nc(c(-c6c(F)c(F)c(F)c(F)c6F)c6ccc([nH]6)c(-c6c(F)c(F)c(F)c(F)c6F)c6nc(c(-c7c(F)c(F)c(F)c(F)c7F)c7ccc4[nH]7)C=C6)C=C5)cc3)cc2)cc1
REMARK SMILES IDX 27 1 26 2 24 3 25 4 23 6 18 7 19 8 20 9 22 10 21 11 16 12
REMARK SMILES IDX 15 13 17 15 14 16 11 17 12 18 100 19 13 20 99 21 8 22 9 23
REMARK SMILES IDX 10 24 7 25 6 27 3 28 4 29 102 30 5 31 101 32 2 33 1 34 28 35
REMARK SMILES IDX 29 36 30 37 31 38 32 39 33 40 34 41 35 43 36 44 37 45 98 46
REMARK SMILES IDX 38 47 97 48 39 49 40 50 41 51 91 52 42 53 96 54 90 55 92 56
REMARK SMILES IDX 43 57 95 58 89 59 88 60 44 62 76 63 56 64 75 65 57 66 60 67
REMARK SMILES IDX 74 68 93 69 58 70 59 71 73 73 94 74 61 75 45 76 46 77 54 78
REMARK SMILES IDX 47 79 48 80 52 81 55 82 49 83 50 84 53 85 51 86 77 87 78 88
REMARK SMILES IDX 86 89 79 90 80 91 84 92 87 93 81 94 82 95 85 96 83 97 62 98
REMARK SMILES IDX 63 99 71 100 64 101 65 102 69 103 72 104 66 105 67 106
REMARK SMILES IDX 70 107 68 108
REMARK H PARENT 26 5 15 14 7 26 33 42 92 61 60 72
REMARK Flexibility Score: inf
ROOT
ATOM      1  C   UNL     1      -7.200   3.867  -4.954  1.00  0.00     0.116 C 
ENDROOT
BRANCH   1   2
ATOM      2  N   UNL     1      -6.478   4.352  -6.110  1.00  0.00    -0.356 N 
ATOM      3  C   UNL     1      -5.194   4.832  -6.089  1.00  0.00     0.223 C 
ATOM      4  O   UNL     1      -4.358   4.239  -6.776  1.00  0.00    -0.275 OA
ATOM      5  H   UNL     1      -6.943   4.336  -6.977  1.00  0.00     0.163 HD
BRANCH   3   6
ATOM      6  C   UNL     1      -4.887   6.239  -5.534  1.00  0.00     0.091 C 
ATOM      7  C   UNL     1      -5.205   6.525  -4.053  1.00  0.00     0.091 C 
ATOM      8  C   UNL     1      -6.583   7.114  -3.725  1.00  0.00     0.014 C 
ATOM      9  C   UNL     1      -7.371   7.811  -4.839  1.00  0.00     0.001 C 
ATOM     10  C   UNL     1      -5.498   7.204  -6.556  1.00  0.00     0.014 C 
ATOM     11  C   UNL     1      -6.961   7.550  -6.289  1.00  0.00     0.001 C 
BRANCH   7  12
ATOM     12  C   UNL     1      -4.015   7.082  -3.204  1.00  0.00     0.228 C 
ATOM     13  N   UNL     1      -3.672   8.380  -2.943  1.00  0.00    -0.326 N 
ATOM     14  H   UNL     1      -2.963   8.444  -2.263  1.00  0.00     0.169 HD
ATOM     15  O   UNL     1      -3.285   6.242  -2.647  1.00  0.00    -0.274 OA
BRANCH  13  16
ATOM     16  C   UNL     1      -4.077   9.643  -3.404  1.00  0.00     0.041 A 
ATOM     17  C   UNL     1      -4.981  12.162  -4.319  1.00  0.00     0.087 A 
ATOM     18  C   UNL     1      -5.400  11.003  -4.942  1.00  0.00     0.024 A 
ATOM     19  C   UNL     1      -4.034  12.083  -3.290  1.00  0.00     0.024 A 
ATOM     20  C   UNL     1      -4.924   9.785  -4.474  1.00  0.00     0.027 A 
ATOM     21  C   UNL     1      -3.596  10.821  -2.824  1.00  0.00     0.027 A 
BRANCH  17  22
ATOM     22  S   UNL     1      -5.624  13.715  -4.900  1.00  0.00     0.261 S 
ATOM     23  O   UNL     1      -6.414  13.434  -6.083  1.00  0.00    -0.201 OA
ATOM     24  O   UNL     1      -4.518  14.645  -4.954  1.00  0.00    -0.201 OA
BRANCH  22  25
ATOM     25  N   UNL     1      -6.766  14.263  -3.780  1.00  0.00    -0.280 N 
ATOM     26  H   UNL     1      -7.481  14.869  -4.083  1.00  0.00     0.180 HD
BRANCH  25  27
ATOM     27  C   UNL     1      -6.723  13.875  -2.417  1.00  0.00     0.049 A 
ATOM     28  C   UNL     1      -6.691  13.143   0.271  1.00  0.00     0.119 A 
ATOM     29  C   UNL     1      -6.976  12.191  -0.704  1.00  0.00     0.048 A 
ATOM     30  C   UNL     1      -6.458  14.471  -0.091  1.00  0.00     0.048 A 
ATOM     31  C   UNL     1      -7.041  12.568  -2.043  1.00  0.00     0.030 A 
ATOM     32  C   UNL     1      -6.475  14.838  -1.442  1.00  0.00     0.030 A 
BRANCH  28  33
ATOM     33  O   UNL     1      -6.538  12.690   1.550  1.00  0.00    -0.497 OA
ATOM     34  C   UNL     1      -7.438  13.301   2.470  1.00  0.00     0.278 C 
ENDBRANCH  28  33
ENDBRANCH  25  27
ENDBRANCH  22  25
ENDBRANCH  17  22
ENDBRANCH  13  16
ENDBRANCH   7  12
ENDBRANCH   3   6
ENDBRANCH   1   2
BRANCH   1  35
ATOM     35  C   UNL     1      -8.630   4.387  -4.848  1.00  0.00     0.021 C 
BRANCH  35  36
ATOM     36  C   UNL     1      -9.637   3.873  -5.878  1.00  0.00     0.002 C 
BRANCH  36  37
ATOM     37  C   UNL     1      -9.818   2.358  -5.952  1.00  0.00     0.002 C 
BRANCH  37  38
ATOM     38  C   UNL     1      -9.977   1.632  -4.615  1.00  0.00     0.021 C 
BRANCH  38  39
ATOM     39  C   UNL     1     -11.072   2.161  -3.695  1.00  0.00     0.116 C 
BRANCH  39  40
ATOM     40  N   UNL     1     -12.398   2.026  -4.264  1.00  0.00    -0.352 N 
ATOM     41  C   UNL     1     -13.510   1.411  -3.747  1.00  0.00     0.251 C 
ATOM     42  H   UNL     1     -12.518   2.435  -5.151  1.00  0.00     0.163 HD
ATOM     43  O   UNL     1     -14.510   1.268  -4.444  1.00  0.00    -0.269 OA
BRANCH  41  44
ATOM     44  C   UNL     1     -13.509   0.899  -2.359  1.00  0.00     0.039 A 
ATOM     45  C   UNL     1     -14.060  -0.362  -2.116  1.00  0.00     0.014 A 
ATOM     46  C   UNL     1     -13.015   1.663  -1.296  1.00  0.00     0.014 A 
ATOM     47  C   UNL     1     -14.089  -0.869  -0.817  1.00  0.00     0.010 A 
ATOM     48  C   UNL     1     -12.983   1.128  -0.008  1.00  0.00     0.010 A 
ATOM     49  C   UNL     1     -13.539  -0.134   0.246  1.00  0.00    -0.014 A 
BRANCH  49  50
ATOM     50  C   UNL     1     -13.575  -0.676   1.627  1.00  0.00     0.031 A 
ATOM     51  C   UNL     1     -14.431  -0.025   2.677  1.00  0.00     0.074 A 
ATOM     52  C   UNL     1     -12.817  -1.742   1.944  1.00  0.00     0.049 A 
ATOM     53  N   UNL     1     -14.631  -0.382   3.921  1.00  0.00    -0.248 NA
ATOM     54  C   UNL     1     -15.135   1.205   2.286  1.00  0.00     0.031 C 
ATOM     55  C   UNL     1     -11.887  -2.413   1.036  1.00  0.00     0.029 A 
ATOM     56  N   UNL     1     -12.707  -2.445   3.116  1.00  0.00    -0.354 N 
ATOM     57  C   UNL     1     -15.473   0.581   4.460  1.00  0.00     0.074 A 
ATOM     58  C   UNL     1     -15.700   1.569   3.428  1.00  0.00     0.031 C 
ATOM     59  C   UNL     1     -11.316  -3.445   1.678  1.00  0.00     0.029 A 
ATOM     60  C   UNL     1     -11.833  -3.501   3.043  1.00  0.00     0.049 A 
ATOM     61  H   UNL     1     -13.208  -2.215   3.932  1.00  0.00     0.167 HD
ATOM     62  C   UNL     1     -16.029   0.624   5.695  1.00  0.00     0.037 A 
ATOM     63  C   UNL     1     -11.498  -4.420   3.968  1.00  0.00     0.037 A 
ATOM     64  C   UNL     1     -15.821  -0.374   6.711  1.00  0.00     0.049 A 
ATOM     65  C   UNL     1     -12.172  -4.391   5.311  1.00  0.00     0.074 A 
ATOM     66  C   UNL     1     -16.391  -0.461   7.969  1.00  0.00     0.029 A 
ATOM     67  N   UNL     1     -14.967  -1.461   6.583  1.00  0.00    -0.354 N 
ATOM     68  N   UNL     1     -13.044  -3.530   5.779  1.00  0.00    -0.248 NA
ATOM     69  C   UNL     1     -11.836  -5.473   6.245  1.00  0.00     0.031 C 
ATOM     70  C   UNL     1     -15.855  -1.581   8.616  1.00  0.00     0.029 A 
ATOM     71  C   UNL     1     -14.983  -2.216   7.745  1.00  0.00     0.049 A 
ATOM     72  H   UNL     1     -14.430  -1.665   5.784  1.00  0.00     0.167 HD
ATOM     73  C   UNL     1     -13.375  -3.975   7.051  1.00  0.00     0.074 A 
ATOM     74  C   UNL     1     -12.623  -5.193   7.275  1.00  0.00     0.031 C 
ATOM     75  C   UNL     1     -14.226  -3.424   7.952  1.00  0.00     0.037 A 
BRANCH  62  76
ATOM     76  C   UNL     1     -16.922   1.790   6.006  1.00  0.00     0.064 A 
ATOM     77  C   UNL     1     -18.177   1.939   5.396  1.00  0.00     0.173 A 
ATOM     78  C   UNL     1     -16.521   2.770   6.927  1.00  0.00     0.173 A 
ATOM     79  F   UNL     1     -18.602   1.037   4.498  1.00  0.00    -0.203 F 
ATOM     80  C   UNL     1     -18.980   3.044   5.666  1.00  0.00     0.198 A 
ATOM     81  C   UNL     1     -17.340   3.859   7.217  1.00  0.00     0.198 A 
ATOM     82  F   UNL     1     -15.333   2.675   7.543  1.00  0.00    -0.203 F 
ATOM     83  F   UNL     1     -20.147   3.195   5.024  1.00  0.00    -0.200 F 
ATOM     84  C   UNL     1     -18.563   4.001   6.579  1.00  0.00     0.200 A 
ATOM     85  F   UNL     1     -16.940   4.778   8.107  1.00  0.00    -0.200 F 
ATOM     86  F   UNL     1     -19.335   5.066   6.834  1.00  0.00    -0.200 F 
ENDBRANCH  62  76
BRANCH  63  87
ATOM     87  C   UNL     1     -10.513  -5.475   3.622  1.00  0.00     0.064 A 
ATOM     88  C   UNL     1     -10.923  -6.794   3.384  1.00  0.00     0.173 A 
ATOM     89  C   UNL     1      -9.151  -5.176   3.479  1.00  0.00     0.173 A 
ATOM     90  F   UNL     1     -12.214  -7.129   3.524  1.00  0.00    -0.203 F 
ATOM     91  C   UNL     1     -10.004  -7.778   3.025  1.00  0.00     0.198 A 
ATOM     92  C   UNL     1      -8.236  -6.156   3.098  1.00  0.00     0.198 A 
ATOM     93  F   UNL     1      -8.712  -3.926   3.687  1.00  0.00    -0.203 F 
ATOM     94  F   UNL     1     -10.418  -9.037   2.829  1.00  0.00    -0.200 F 
ATOM     95  C   UNL     1      -8.663  -7.457   2.875  1.00  0.00     0.200 A 
ATOM     96  F   UNL     1      -6.944  -5.838   2.939  1.00  0.00    -0.200 F 
ATOM     97  F   UNL     1      -7.783  -8.400   2.516  1.00  0.00    -0.200 F 
ENDBRANCH  63  87
BRANCH  75  98
ATOM     98  C   UNL     1     -14.401  -4.143   9.257  1.00  0.00     0.064 A 
ATOM     99  C   UNL     1     -13.399  -4.136  10.238  1.00  0.00     0.173 A 
ATOM    100  C   UNL     1     -15.598  -4.817   9.541  1.00  0.00     0.173 A 
ATOM    101  F   UNL     1     -12.232  -3.516  10.007  1.00  0.00    -0.203 F 
ATOM    102  C   UNL     1     -13.580  -4.799  11.449  1.00  0.00     0.198 A 
ATOM    103  C   UNL     1     -15.785  -5.457  10.763  1.00  0.00     0.198 A 
ATOM    104  F   UNL     1     -16.588  -4.848   8.637  1.00  0.00    -0.203 F 
ATOM    105  F   UNL     1     -12.593  -4.816  12.355  1.00  0.00    -0.200 F 
ATOM    106  C   UNL     1     -14.774  -5.454  11.713  1.00  0.00     0.200 A 
ATOM    107  F   UNL     1     -16.943  -6.081  11.021  1.00  0.00    -0.200 F 
ATOM    108  F   UNL     1     -14.948  -6.088  12.880  1.00  0.00    -0.200 F 
ENDBRANCH  75  98
ENDBRANCH  49  50
ENDBRANCH  41  44
ENDBRANCH  39  40
ENDBRANCH  38  39
ENDBRANCH  37  38
ENDBRANCH  36  37
ENDBRANCH  35  36
ENDBRANCH   1  35
TORSDOF 19
