REMARK SMILES O=C(CN1C(=O)/C(=C\c2c(F)cccc2Cl)Oc2ccccc21)NCCCCCCNC(=O)c1ccc(-c2c3nc(c(-c4c(F)c(F)c(F)c(F)c4F)c4ccc([nH]4)c(-c4c(F)c(F)c(F)c(F)c4F)c4nc(c(-c5c(F)c(F)c(F)c(F)c5F)c5ccc2[nH]5)C=C4)C=C3)cc1
REMARK SMILES IDX 27 1 26 2 25 3 24 4 1 5 2 6 3 8 4 9 5 10 23 11 6 12 7 13
REMARK SMILES IDX 18 14 22 15 8 16 17 17 19 18 21 19 20 20 9 21 10 22 15 23
REMARK SMILES IDX 11 24 12 25 14 26 16 27 13 28 28 29 29 30 30 31 31 32 32 33
REMARK SMILES IDX 33 35 34 36 35 37 96 38 36 39 95 40 37 41 38 42 39 43 89 44
REMARK SMILES IDX 40 45 94 46 88 47 90 48 41 49 93 50 87 51 86 52 42 54 74 55
REMARK SMILES IDX 54 56 73 57 55 58 58 59 72 60 91 61 56 62 57 63 71 65 92 66
REMARK SMILES IDX 59 67 43 68 44 69 52 70 45 71 46 72 50 73 53 74 47 75 48 76
REMARK SMILES IDX 51 77 49 78 75 79 76 80 84 81 77 82 78 83 82 84 85 85 79 86
REMARK SMILES IDX 80 87 83 88 81 89 60 90 61 91 69 92 62 93 63 94 67 95 70 96
REMARK SMILES IDX 64 97 65 98 68 99 66 100
REMARK H PARENT 24 7 31 34 90 53 58 64
REMARK Flexibility Score: inf
ROOT
ATOM      1  C   UNL     1       4.335   2.642  -2.272  1.00  0.00     0.002 C 
ENDROOT
BRANCH   1   2
ATOM      2  C   UNL     1       2.818   2.486  -2.108  1.00  0.00     0.021 C 
BRANCH   2   3
ATOM      3  C   UNL     1       2.321   1.038  -2.090  1.00  0.00     0.116 C 
BRANCH   3   4
ATOM      4  N   UNL     1       2.878   0.274  -0.995  1.00  0.00    -0.355 N 
ATOM      5  O   UNL     1       1.575   1.274   0.594  1.00  0.00    -0.273 OA
ATOM      6  C   UNL     1       2.432   0.441   0.296  1.00  0.00     0.240 C 
ATOM      7  H   UNL     1       3.592  -0.379  -1.177  1.00  0.00     0.163 HD
BRANCH   6   8
ATOM      8  C   UNL     1       3.194  -0.324   1.378  1.00  0.00     0.226 C 
BRANCH   8   9
ATOM      9  N   UNL     1       3.954  -1.498   0.954  1.00  0.00    -0.293 N 
ATOM     10  C   UNL     1       3.264  -2.700   0.951  1.00  0.00     0.294 C 
ATOM     11  C   UNL     1       5.343  -1.452   0.675  1.00  0.00     0.088 A 
ATOM     12  O   UNL     1       2.036  -2.748   0.987  1.00  0.00    -0.265 OA
ATOM     13  C   UNL     1       4.119  -3.935   0.951  1.00  0.00     0.193 C 
ATOM     14  C   UNL     1       6.025  -2.650   0.426  1.00  0.00     0.151 A 
ATOM     15  C   UNL     1       6.064  -0.252   0.614  1.00  0.00     0.030 A 
ATOM     16  C   UNL     1       3.687  -5.087   1.496  1.00  0.00     0.065 C 
ATOM     17  O   UNL     1       5.417  -3.879   0.464  1.00  0.00    -0.449 OA
ATOM     18  C   UNL     1       7.396  -2.656   0.152  1.00  0.00     0.049 A 
ATOM     19  C   UNL     1       7.437  -0.257   0.344  1.00  0.00     0.002 A 
ATOM     20  C   UNL     1       8.104  -1.458   0.119  1.00  0.00     0.004 A 
BRANCH  16  21
ATOM     21  C   UNL     1       2.416  -5.243   2.220  1.00  0.00     0.033 A 
ATOM     22  C   UNL     1       1.278  -5.679   1.532  1.00  0.00     0.132 A 
ATOM     23  C   UNL     1       2.274  -4.872   3.568  1.00  0.00     0.051 A 
ATOM     24  F   UNL     1       1.369  -6.045   0.244  1.00  0.00    -0.206 F 
ATOM     25  C   UNL     1       0.029  -5.721   2.149  1.00  0.00     0.040 A 
ATOM     26  C   UNL     1       1.023  -4.920   4.194  1.00  0.00     0.021 A 
ATOM     27  Cl  UNL     1       3.622  -4.325   4.508  1.00  0.00    -0.084 Cl
ATOM     28  C   UNL     1      -0.102  -5.335   3.481  1.00  0.00     0.005 A 
ENDBRANCH  16  21
ENDBRANCH   8   9
ENDBRANCH   6   8
ENDBRANCH   3   4
ENDBRANCH   2   3
ENDBRANCH   1   2
BRANCH   1  29
ATOM     29  C   UNL     1       4.930   2.030  -3.543  1.00  0.00     0.002 C 
BRANCH  29  30
ATOM     30  C   UNL     1       4.273   2.465  -4.854  1.00  0.00     0.021 C 
BRANCH  30  31
ATOM     31  C   UNL     1       4.257   3.969  -5.108  1.00  0.00     0.116 C 
BRANCH  31  32
ATOM     32  N   UNL     1       5.582   4.521  -5.346  1.00  0.00    -0.352 N 
ATOM     33  C   UNL     1       6.017   5.328  -6.372  1.00  0.00     0.251 C 
ATOM     34  H   UNL     1       6.265   4.282  -4.678  1.00  0.00     0.163 HD
ATOM     35  O   UNL     1       7.208   5.599  -6.487  1.00  0.00    -0.269 OA
BRANCH  33  36
ATOM     36  C   UNL     1       5.047   5.836  -7.367  1.00  0.00     0.039 A 
ATOM     37  C   UNL     1       3.838   6.405  -6.964  1.00  0.00     0.014 A 
ATOM     38  C   UNL     1       5.343   5.708  -8.728  1.00  0.00     0.014 A 
ATOM     39  C   UNL     1       2.859   6.689  -7.912  1.00  0.00     0.010 A 
ATOM     40  C   UNL     1       4.385   6.059  -9.684  1.00  0.00     0.010 A 
ATOM     41  C   UNL     1       3.115   6.499  -9.281  1.00  0.00    -0.014 A 
BRANCH  41  42
ATOM     42  C   UNL     1       2.026   6.726 -10.266  1.00  0.00     0.031 A 
ATOM     43  C   UNL     1       1.424   5.569 -11.018  1.00  0.00     0.074 A 
ATOM     44  C   UNL     1       1.528   7.965 -10.433  1.00  0.00     0.049 A 
ATOM     45  N   UNL     1       0.445   5.569 -11.888  1.00  0.00    -0.248 NA
ATOM     46  C   UNL     1       1.994   4.237 -10.761  1.00  0.00     0.031 C 
ATOM     47  C   UNL     1       2.013   9.165  -9.750  1.00  0.00     0.029 A 
ATOM     48  N   UNL     1       0.487   8.416 -11.204  1.00  0.00    -0.354 N 
ATOM     49  C   UNL     1       0.293   4.248 -12.291  1.00  0.00     0.074 A 
ATOM     50  C   UNL     1       1.296   3.475 -11.591  1.00  0.00     0.031 C 
ATOM     51  C   UNL     1       1.237  10.205 -10.090  1.00  0.00     0.029 A 
ATOM     52  C   UNL     1       0.231   9.756 -11.049  1.00  0.00     0.049 A 
ATOM     53  H   UNL     1      -0.027   7.835 -11.810  1.00  0.00     0.167 HD
ATOM     54  C   UNL     1      -0.609   3.726 -13.156  1.00  0.00     0.037 A 
ATOM     55  C   UNL     1      -0.708  10.537 -11.615  1.00  0.00     0.037 A 
ATOM     56  C   UNL     1      -1.627   4.486 -13.832  1.00  0.00     0.049 A 
ATOM     57  C   UNL     1      -1.676   9.937 -12.594  1.00  0.00     0.074 A 
ATOM     58  C   UNL     1      -2.597   4.037 -14.712  1.00  0.00     0.029 A 
ATOM     59  N   UNL     1      -1.812   5.853 -13.695  1.00  0.00    -0.354 N 
ATOM     60  N   UNL     1      -1.800   8.690 -12.973  1.00  0.00    -0.248 NA
ATOM     61  C   UNL     1      -2.626  10.859 -13.235  1.00  0.00     0.031 C 
ATOM     62  C   UNL     1      -3.351   5.138 -15.132  1.00  0.00     0.029 A 
ATOM     63  C   UNL     1      -2.871   6.267 -14.487  1.00  0.00     0.049 A 
ATOM     64  H   UNL     1      -1.272   6.442 -13.121  1.00  0.00     0.167 HD
ATOM     65  C   UNL     1      -2.841   8.673 -13.891  1.00  0.00     0.074 A 
ATOM     66  C   UNL     1      -3.329  10.032 -13.998  1.00  0.00     0.031 C 
ATOM     67  C   UNL     1      -3.340   7.624 -14.588  1.00  0.00     0.037 A 
BRANCH  54  68
ATOM     68  C   UNL     1      -0.541   2.253 -13.429  1.00  0.00     0.064 A 
ATOM     69  C   UNL     1      -1.010   1.315 -12.499  1.00  0.00     0.173 A 
ATOM     70  C   UNL     1      -0.062   1.780 -14.659  1.00  0.00     0.173 A 
ATOM     71  F   UNL     1      -1.466   1.719 -11.304  1.00  0.00    -0.203 F 
ATOM     72  C   UNL     1      -0.991  -0.047 -12.787  1.00  0.00     0.198 A 
ATOM     73  C   UNL     1      -0.063   0.419 -14.952  1.00  0.00     0.198 A 
ATOM     74  F   UNL     1       0.393   2.639 -15.583  1.00  0.00    -0.203 F 
ATOM     75  F   UNL     1      -1.419  -0.930 -11.873  1.00  0.00    -0.200 F 
ATOM     76  C   UNL     1      -0.525  -0.493 -14.015  1.00  0.00     0.200 A 
ATOM     77  F   UNL     1       0.379  -0.010 -16.142  1.00  0.00    -0.200 F 
ATOM     78  F   UNL     1      -0.518  -1.804 -14.294  1.00  0.00    -0.200 F 
ENDBRANCH  54  68
BRANCH  55  79
ATOM     79  C   UNL     1      -0.780  11.973 -11.251  1.00  0.00     0.064 A 
ATOM     80  C   UNL     1      -1.820  12.456 -10.446  1.00  0.00     0.173 A 
ATOM     81  C   UNL     1       0.201  12.881 -11.672  1.00  0.00     0.173 A 
ATOM     82  F   UNL     1      -2.791  11.627 -10.038  1.00  0.00    -0.203 F 
ATOM     83  C   UNL     1      -1.875  13.797 -10.075  1.00  0.00     0.198 A 
ATOM     84  C   UNL     1       0.157  14.217 -11.283  1.00  0.00     0.198 A 
ATOM     85  F   UNL     1       1.215  12.463 -12.444  1.00  0.00    -0.203 F 
ATOM     86  F   UNL     1      -2.891  14.241  -9.323  1.00  0.00    -0.200 F 
ATOM     87  C   UNL     1      -0.882  14.675 -10.486  1.00  0.00     0.200 A 
ATOM     88  F   UNL     1       1.124  15.059 -11.672  1.00  0.00    -0.200 F 
ATOM     89  F   UNL     1      -0.929  15.962 -10.118  1.00  0.00    -0.200 F 
ENDBRANCH  55  79
BRANCH  67  90
ATOM     90  C   UNL     1      -4.471   7.900 -15.530  1.00  0.00     0.064 A 
ATOM     91  C   UNL     1      -4.248   8.510 -16.772  1.00  0.00     0.173 A 
ATOM     92  C   UNL     1      -5.778   7.500 -15.215  1.00  0.00     0.173 A 
ATOM     93  F   UNL     1      -3.017   8.922 -17.110  1.00  0.00    -0.203 F 
ATOM     94  C   UNL     1      -5.297   8.720 -17.663  1.00  0.00     0.198 A 
ATOM     95  C   UNL     1      -6.821   7.693 -16.116  1.00  0.00     0.198 A 
ATOM     96  F   UNL     1      -6.038   6.908 -14.040  1.00  0.00    -0.203 F 
ATOM     97  F   UNL     1      -5.067   9.329 -18.834  1.00  0.00    -0.200 F 
ATOM     98  C   UNL     1      -6.580   8.305 -17.337  1.00  0.00     0.200 A 
ATOM     99  F   UNL     1      -8.058   7.284 -15.805  1.00  0.00    -0.200 F 
ATOM    100  F   UNL     1      -7.587   8.499 -18.200  1.00  0.00    -0.200 F 
ENDBRANCH  67  90
ENDBRANCH  41  42
ENDBRANCH  33  36
ENDBRANCH  31  32
ENDBRANCH  30  31
ENDBRANCH  29  30
ENDBRANCH   1  29
TORSDOF 15
