REMARK SMILES CC(C)C[C@H](Nc1ncnc2scc(-c3ccccc3)c12)C(=O)NCCCCCCNC(=O)c1ccc(-c2c3nc(c(-c4c(F)c(F)c(F)c(F)c4F)c4ccc([nH]4)c(-c4c(F)c(F)c(F)c(F)c4F)c4nc(c(-c5c(F)c(F)c(F)c(F)c5F)c5ccc2[nH]5)C=C4)C=C3)cc1
REMARK SMILES IDX 27 1 26 2 25 3 24 4 22 5 23 6 5 8 4 9 2 10 1 11 3 12 6 13
REMARK SMILES IDX 7 15 8 16 21 17 9 18 11 19 14 20 10 21 12 22 13 23 15 24
REMARK SMILES IDX 16 25 20 26 17 27 19 28 18 29 28 30 29 31 30 32 31 33 32 34
REMARK SMILES IDX 33 36 34 37 35 38 96 39 36 40 95 41 37 42 38 43 39 44 89 45
REMARK SMILES IDX 40 46 94 47 88 48 90 49 41 50 93 51 87 52 86 53 42 55 74 56
REMARK SMILES IDX 54 57 73 58 55 59 58 60 72 61 91 62 56 63 57 64 71 66 92 67
REMARK SMILES IDX 59 68 43 69 44 70 52 71 45 72 46 73 50 74 53 75 47 76 48 77
REMARK SMILES IDX 51 78 49 79 75 80 76 81 84 82 77 83 78 84 82 85 85 86 79 87
REMARK SMILES IDX 80 88 83 89 81 90 60 91 61 92 69 93 62 94 63 95 67 96 70 97
REMARK SMILES IDX 64 98 65 99 68 100 66 101
REMARK H PARENT 24 7 6 14 31 35 90 54 58 65
REMARK Flexibility Score: inf
ROOT
ATOM      1  C   UNL     1      -5.445   2.667  -3.488  1.00  0.00     0.002 C 
ENDROOT
BRANCH   1   2
ATOM      2  C   UNL     1      -3.954   2.363  -3.388  1.00  0.00     0.021 C 
BRANCH   2   3
ATOM      3  C   UNL     1      -3.246   2.980  -2.189  1.00  0.00     0.116 C 
BRANCH   3   4
ATOM      4  N   UNL     1      -3.613   2.381  -0.925  1.00  0.00    -0.354 N 
ATOM      5  C   UNL     1      -2.842   1.881   0.085  1.00  0.00     0.242 C 
ATOM      6  O   UNL     1      -3.455   1.473   1.080  1.00  0.00    -0.273 OA
ATOM      7  H   UNL     1      -4.582   2.325  -0.766  1.00  0.00     0.163 HD
BRANCH   5   8
ATOM      8  C   UNL     1      -1.294   1.766   0.026  1.00  0.00     0.170 C 
BRANCH   8   9
ATOM      9  C   UNL     1      -0.496   3.044   0.359  1.00  0.00     0.038 C 
BRANCH   9  10
ATOM     10  C   UNL     1      -0.760   4.354  -0.416  1.00  0.00    -0.015 C 
ATOM     11  C   UNL     1      -1.942   5.154   0.143  1.00  0.00     0.007 C 
ATOM     12  C   UNL     1       0.482   5.254  -0.385  1.00  0.00     0.007 C 
ENDBRANCH   9  10
ENDBRANCH   8   9
BRANCH   8  13
ATOM     13  N   UNL     1      -0.832   0.880  -1.066  1.00  0.00    -0.358 N 
ATOM     14  H   UNL     1      -0.916  -0.089  -0.915  1.00  0.00     0.162 HD
BRANCH  13  15
ATOM     15  C   UNL     1      -0.298   1.271  -2.267  1.00  0.00     0.139 A 
ATOM     16  N   UNL     1       0.622   2.259  -2.247  1.00  0.00    -0.219 NA
ATOM     17  C   UNL     1      -0.693   0.732  -3.525  1.00  0.00     0.062 A 
ATOM     18  C   UNL     1       1.118   2.736  -3.391  1.00  0.00     0.225 A 
ATOM     19  C   UNL     1      -0.135   1.384  -4.626  1.00  0.00     0.129 A 
ATOM     20  C   UNL     1      -1.613  -0.320  -3.979  1.00  0.00     0.006 A 
ATOM     21  N   UNL     1       0.767   2.377  -4.617  1.00  0.00    -0.225 NA
ATOM     22  S   UNL     1      -0.749   0.855  -6.118  1.00  0.00    -0.123 S 
ATOM     23  C   UNL     1      -1.755  -0.282  -5.360  1.00  0.00     0.076 A 
BRANCH  20  24
ATOM     24  C   UNL     1      -2.453  -1.282  -3.241  1.00  0.00    -0.017 A 
ATOM     25  C   UNL     1      -2.594  -2.602  -3.690  1.00  0.00     0.009 A 
ATOM     26  C   UNL     1      -3.230  -0.893  -2.148  1.00  0.00     0.009 A 
ATOM     27  C   UNL     1      -3.499  -3.479  -3.076  1.00  0.00     0.001 A 
ATOM     28  C   UNL     1      -4.125  -1.760  -1.521  1.00  0.00     0.001 A 
ATOM     29  C   UNL     1      -4.266  -3.056  -1.993  1.00  0.00     0.000 A 
ENDBRANCH  20  24
ENDBRANCH  13  15
ENDBRANCH   8  13
ENDBRANCH   5   8
ENDBRANCH   3   4
ENDBRANCH   2   3
ENDBRANCH   1   2
BRANCH   1  30
ATOM     30  C   UNL     1      -5.774   4.144  -3.690  1.00  0.00     0.002 C 
BRANCH  30  31
ATOM     31  C   UNL     1      -4.981   4.831  -4.804  1.00  0.00     0.021 C 
BRANCH  31  32
ATOM     32  C   UNL     1      -4.997   4.101  -6.143  1.00  0.00     0.116 C 
BRANCH  32  33
ATOM     33  N   UNL     1      -6.340   3.994  -6.687  1.00  0.00    -0.352 N 
ATOM     34  C   UNL     1      -6.821   4.490  -7.870  1.00  0.00     0.251 C 
ATOM     35  H   UNL     1      -6.988   3.502  -6.134  1.00  0.00     0.163 HD
ATOM     36  O   UNL     1      -8.027   4.508  -8.102  1.00  0.00    -0.269 OA
BRANCH  34  37
ATOM     37  C   UNL     1      -5.868   5.023  -8.861  1.00  0.00     0.039 A 
ATOM     38  C   UNL     1      -6.092   6.288  -9.407  1.00  0.00     0.014 A 
ATOM     39  C   UNL     1      -4.739   4.281  -9.224  1.00  0.00     0.014 A 
ATOM     40  C   UNL     1      -5.154   6.833 -10.284  1.00  0.00     0.010 A 
ATOM     41  C   UNL     1      -3.770   4.857 -10.037  1.00  0.00     0.010 A 
ATOM     42  C   UNL     1      -3.971   6.135 -10.582  1.00  0.00    -0.014 A 
BRANCH  42  43
ATOM     43  C   UNL     1      -2.936   6.715 -11.474  1.00  0.00     0.031 A 
ATOM     44  C   UNL     1      -2.610   6.037 -12.777  1.00  0.00     0.074 A 
ATOM     45  C   UNL     1      -2.245   7.804 -11.082  1.00  0.00     0.049 A 
ATOM     46  N   UNL     1      -1.679   6.326 -13.650  1.00  0.00    -0.248 NA
ATOM     47  C   UNL     1      -3.422   4.863 -13.136  1.00  0.00     0.031 C 
ATOM     48  C   UNL     1      -2.447   8.528  -9.826  1.00  0.00     0.029 A 
ATOM     49  N   UNL     1      -1.222   8.484 -11.695  1.00  0.00    -0.354 N 
ATOM     50  C   UNL     1      -1.777   5.358 -14.641  1.00  0.00     0.074 A 
ATOM     51  C   UNL     1      -2.830   4.450 -14.247  1.00  0.00     0.031 C 
ATOM     52  C   UNL     1      -1.587   9.558  -9.768  1.00  0.00     0.029 A 
ATOM     53  C   UNL     1      -0.742   9.540 -10.958  1.00  0.00     0.049 A 
ATOM     54  H   UNL     1      -0.865   8.238 -12.579  1.00  0.00     0.167 HD
ATOM     55  C   UNL     1      -1.061   5.250 -15.785  1.00  0.00     0.037 A 
ATOM     56  C   UNL     1       0.278  10.385 -11.208  1.00  0.00     0.037 A 
ATOM     57  C   UNL     1      -0.042   6.180 -16.191  1.00  0.00     0.049 A 
ATOM     58  C   UNL     1       1.065  10.225 -12.484  1.00  0.00     0.074 A 
ATOM     59  C   UNL     1       0.680   6.203 -17.371  1.00  0.00     0.029 A 
ATOM     60  N   UNL     1       0.403   7.248 -15.427  1.00  0.00    -0.354 N 
ATOM     61  N   UNL     1       0.904   9.358 -13.454  1.00  0.00    -0.248 NA
ATOM     62  C   UNL     1       2.175  11.164 -12.700  1.00  0.00     0.031 C 
ATOM     63  C   UNL     1       1.608   7.244 -17.294  1.00  0.00     0.029 A 
ATOM     64  C   UNL     1       1.416   7.914 -16.097  1.00  0.00     0.049 A 
ATOM     65  H   UNL     1       0.053   7.495 -14.541  1.00  0.00     0.167 HD
ATOM     66  C   UNL     1       1.860   9.675 -14.411  1.00  0.00     0.074 A 
ATOM     67  C   UNL     1       2.589  10.821 -13.911  1.00  0.00     0.031 C 
ATOM     68  C   UNL     1       2.111   9.072 -15.598  1.00  0.00     0.037 A 
BRANCH  55  69
ATOM     69  C   UNL     1      -1.343   4.085 -16.689  1.00  0.00     0.064 A 
ATOM     70  C   UNL     1      -2.527   3.996 -17.435  1.00  0.00     0.173 A 
ATOM     71  C   UNL     1      -0.372   3.089 -16.878  1.00  0.00     0.173 A 
ATOM     72  F   UNL     1      -3.491   4.917 -17.285  1.00  0.00    -0.203 F 
ATOM     73  C   UNL     1      -2.735   2.946 -18.325  1.00  0.00     0.198 A 
ATOM     74  C   UNL     1      -0.570   2.058 -17.791  1.00  0.00     0.198 A 
ATOM     75  F   UNL     1       0.781   3.130 -16.193  1.00  0.00    -0.203 F 
ATOM     76  F   UNL     1      -3.888   2.863 -19.003  1.00  0.00    -0.200 F 
ATOM     77  C   UNL     1      -1.753   1.985 -18.511  1.00  0.00     0.200 A 
ATOM     78  F   UNL     1       0.388   1.140 -17.982  1.00  0.00    -0.200 F 
ATOM     79  F   UNL     1      -1.945   0.988 -19.386  1.00  0.00    -0.200 F 
ENDBRANCH  55  69
BRANCH  56  80
ATOM     80  C   UNL     1       0.626  11.462 -10.240  1.00  0.00     0.064 A 
ATOM     81  C   UNL     1       0.491  12.814 -10.587  1.00  0.00     0.173 A 
ATOM     82  C   UNL     1       1.154  11.166  -8.975  1.00  0.00     0.173 A 
ATOM     83  F   UNL     1       0.010  13.151 -11.793  1.00  0.00    -0.203 F 
ATOM     84  C   UNL     1       0.912  13.826  -9.727  1.00  0.00     0.198 A 
ATOM     85  C   UNL     1       1.541  12.180  -8.100  1.00  0.00     0.198 A 
ATOM     86  F   UNL     1       1.300   9.891  -8.587  1.00  0.00    -0.203 F 
ATOM     87  F   UNL     1       0.842  15.106 -10.117  1.00  0.00    -0.200 F 
ATOM     88  C   UNL     1       1.435  13.508  -8.483  1.00  0.00     0.200 A 
ATOM     89  F   UNL     1       2.030  11.868  -6.892  1.00  0.00    -0.200 F 
ATOM     90  F   UNL     1       1.850  14.480  -7.660  1.00  0.00    -0.200 F 
ENDBRANCH  56  80
BRANCH  68  91
ATOM     91  C   UNL     1       3.173   9.674 -16.474  1.00  0.00     0.064 A 
ATOM     92  C   UNL     1       4.535   9.594 -16.149  1.00  0.00     0.173 A 
ATOM     93  C   UNL     1       2.821  10.289 -17.685  1.00  0.00     0.173 A 
ATOM     94  F   UNL     1       4.923   9.028 -14.996  1.00  0.00    -0.203 F 
ATOM     95  C   UNL     1       5.503  10.129 -16.994  1.00  0.00     0.198 A 
ATOM     96  C   UNL     1       3.794  10.791 -18.544  1.00  0.00     0.198 A 
ATOM     97  F   UNL     1       1.533  10.384 -18.047  1.00  0.00    -0.203 F 
ATOM     98  F   UNL     1       6.795  10.085 -16.641  1.00  0.00    -0.200 F 
ATOM     99  C   UNL     1       5.133  10.718 -18.195  1.00  0.00     0.200 A 
ATOM    100  F   UNL     1       3.435  11.342 -19.712  1.00  0.00    -0.200 F 
ATOM    101  F   UNL     1       6.069  11.219 -19.013  1.00  0.00    -0.200 F 
ENDBRANCH  68  91
ENDBRANCH  42  43
ENDBRANCH  34  37
ENDBRANCH  32  33
ENDBRANCH  31  32
ENDBRANCH  30  31
ENDBRANCH   1  30
TORSDOF 18
