REMARK SMILES O=C(NCCCCCCNC(=O)C1(C/C=C/c2ccccc2)Cc2ccccc2C1)c1ccc(-c2c3nc(c(-c4c(F)c(F)c(F)c(F)c4F)c4ccc([nH]4)c(-c4c(F)c(F)c(F)c(F)c4F)c4nc(c(-c5c(F)c(F)c(F)c(F)c5F)c5ccc2[nH]5)C=C4)C=C3)cc1
REMARK SMILES IDX 7 1 6 2 5 3 4 4 3 5 1 6 2 7 31 9 32 10 93 11 33 12 92 13
REMARK SMILES IDX 34 14 35 15 36 16 86 17 37 18 91 19 85 20 87 21 38 22 90 23
REMARK SMILES IDX 84 24 83 25 39 27 71 28 51 29 70 30 52 31 55 32 69 33 88 34
REMARK SMILES IDX 53 35 54 36 68 38 89 39 56 40 40 41 41 42 49 43 42 44 43 45
REMARK SMILES IDX 47 46 50 47 44 48 45 49 48 50 46 51 72 52 73 53 81 54 74 55
REMARK SMILES IDX 75 56 79 57 82 58 76 59 77 60 80 61 78 62 57 63 58 64 66 65
REMARK SMILES IDX 59 66 60 67 64 68 67 69 61 70 62 71 65 72 63 73 8 74 9 75
REMARK SMILES IDX 10 76 11 77 12 79 13 80 23 81 30 82 24 83 29 84 25 85 28 86
REMARK SMILES IDX 26 87 27 88 14 89 15 90 16 91 17 92 18 93 22 94 19 95 21 96
REMARK SMILES IDX 20 97
REMARK H PARENT 3 8 87 26 55 37 10 78
REMARK Flexibility Score: inf
ROOT
ATOM      1  C   UNL     1       4.267   1.370   4.361  1.00  0.00     0.002 C 
ENDROOT
BRANCH   1   2
ATOM      2  C   UNL     1       3.698   2.263   3.252  1.00  0.00     0.002 C 
BRANCH   2   3
ATOM      3  C   UNL     1       4.283   2.044   1.851  1.00  0.00     0.021 C 
BRANCH   3   4
ATOM      4  C   UNL     1       4.133   0.627   1.305  1.00  0.00     0.116 C 
BRANCH   4   5
ATOM      5  N   UNL     1       2.746   0.299   1.009  1.00  0.00    -0.352 N 
ATOM      6  O   UNL     1       0.902   0.016  -0.260  1.00  0.00    -0.269 OA
ATOM      7  C   UNL     1       2.130   0.086  -0.197  1.00  0.00     0.251 C 
ATOM      8  H   UNL     1       2.160   0.217   1.796  1.00  0.00     0.163 HD
BRANCH   7   9
ATOM      9  C   UNL     1       2.928  -0.053  -1.434  1.00  0.00     0.039 A 
ATOM     10  C   UNL     1       4.059  -0.871  -1.465  1.00  0.00     0.014 A 
ATOM     11  C   UNL     1       2.506   0.596  -2.598  1.00  0.00     0.014 A 
ATOM     12  C   UNL     1       4.838  -0.942  -2.618  1.00  0.00     0.010 A 
ATOM     13  C   UNL     1       3.242   0.457  -3.779  1.00  0.00     0.010 A 
ATOM     14  C   UNL     1       4.426  -0.297  -3.796  1.00  0.00    -0.014 A 
BRANCH  14  15
ATOM     15  C   UNL     1       5.198  -0.482  -5.054  1.00  0.00     0.031 A 
ATOM     16  C   UNL     1       5.858   0.681  -5.742  1.00  0.00     0.074 A 
ATOM     17  C   UNL     1       5.293  -1.717  -5.585  1.00  0.00     0.049 A 
ATOM     18  N   UNL     1       6.529   0.704  -6.868  1.00  0.00    -0.248 NA
ATOM     19  C   UNL     1       5.745   1.992  -5.086  1.00  0.00     0.031 C 
ATOM     20  C   UNL     1       4.690  -2.925  -5.018  1.00  0.00     0.029 A 
ATOM     21  N   UNL     1       5.930  -2.165  -6.715  1.00  0.00    -0.354 N 
ATOM     22  C   UNL     1       6.904   2.027  -7.063  1.00  0.00     0.074 A 
ATOM     23  C   UNL     1       6.358   2.784  -5.955  1.00  0.00     0.031 C 
ATOM     24  C   UNL     1       5.014  -3.979  -5.780  1.00  0.00     0.029 A 
ATOM     25  C   UNL     1       5.785  -3.514  -6.928  1.00  0.00     0.049 A 
ATOM     26  H   UNL     1       6.442  -1.576  -7.316  1.00  0.00     0.167 HD
ATOM     27  C   UNL     1       7.643   2.557  -8.068  1.00  0.00     0.037 A 
ATOM     28  C   UNL     1       6.200  -4.290  -7.946  1.00  0.00     0.037 A 
ATOM     29  C   UNL     1       8.184   1.796  -9.168  1.00  0.00     0.049 A 
ATOM     30  C   UNL     1       6.968  -3.665  -9.076  1.00  0.00     0.074 A 
ATOM     31  C   UNL     1       8.969   2.239 -10.220  1.00  0.00     0.029 A 
ATOM     32  N   UNL     1       7.990   0.436  -9.364  1.00  0.00    -0.354 N 
ATOM     33  N   UNL     1       7.345  -2.420  -9.231  1.00  0.00    -0.248 NA
ATOM     34  C   UNL     1       7.365  -4.555 -10.175  1.00  0.00     0.031 C 
ATOM     35  C   UNL     1       9.200   1.161 -11.081  1.00  0.00     0.029 A 
ATOM     36  C   UNL     1       8.616   0.030 -10.533  1.00  0.00     0.049 A 
ATOM     37  H   UNL     1       7.482  -0.154  -8.761  1.00  0.00     0.167 HD
ATOM     38  C   UNL     1       8.045  -2.380 -10.429  1.00  0.00     0.074 A 
ATOM     39  C   UNL     1       8.056  -3.731 -10.950  1.00  0.00     0.031 C 
ATOM     40  C   UNL     1       8.625  -1.319 -11.041  1.00  0.00     0.037 A 
BRANCH  27  41
ATOM     41  C   UNL     1       7.900   4.038  -8.042  1.00  0.00     0.064 A 
ATOM     42  C   UNL     1       8.744   4.625  -7.087  1.00  0.00     0.173 A 
ATOM     43  C   UNL     1       7.337   4.876  -9.018  1.00  0.00     0.173 A 
ATOM     44  F   UNL     1       9.303   3.873  -6.127  1.00  0.00    -0.203 F 
ATOM     45  C   UNL     1       8.991   5.996  -7.093  1.00  0.00     0.198 A 
ATOM     46  C   UNL     1       7.611   6.241  -9.040  1.00  0.00     0.198 A 
ATOM     47  F   UNL     1       6.530   4.368  -9.962  1.00  0.00    -0.203 F 
ATOM     48  F   UNL     1       9.763   6.540  -6.141  1.00  0.00    -0.200 F 
ATOM     49  C   UNL     1       8.431   6.801  -8.073  1.00  0.00     0.200 A 
ATOM     50  F   UNL     1       7.083   7.014  -9.999  1.00  0.00    -0.200 F 
ATOM     51  F   UNL     1       8.678   8.118  -8.082  1.00  0.00    -0.200 F 
ENDBRANCH  27  41
BRANCH  28  52
ATOM     52  C   UNL     1       5.888  -5.744  -7.943  1.00  0.00     0.064 A 
ATOM     53  C   UNL     1       6.905  -6.699  -7.810  1.00  0.00     0.173 A 
ATOM     54  C   UNL     1       4.571  -6.208  -8.072  1.00  0.00     0.173 A 
ATOM     55  F   UNL     1       8.183  -6.305  -7.704  1.00  0.00    -0.203 F 
ATOM     56  C   UNL     1       6.619  -8.062  -7.824  1.00  0.00     0.198 A 
ATOM     57  C   UNL     1       4.281  -7.570  -8.051  1.00  0.00     0.198 A 
ATOM     58  F   UNL     1       3.560  -5.336  -8.198  1.00  0.00    -0.203 F 
ATOM     59  F   UNL     1       7.615  -8.954  -7.743  1.00  0.00    -0.200 F 
ATOM     60  C   UNL     1       5.307  -8.496  -7.937  1.00  0.00     0.200 A 
ATOM     61  F   UNL     1       3.010  -7.984  -8.141  1.00  0.00    -0.200 F 
ATOM     62  F   UNL     1       5.031  -9.807  -7.942  1.00  0.00    -0.200 F 
ENDBRANCH  28  52
BRANCH  40  63
ATOM     63  C   UNL     1       9.360  -1.583 -12.325  1.00  0.00     0.064 A 
ATOM     64  C   UNL     1       8.684  -1.913 -13.509  1.00  0.00     0.173 A 
ATOM     65  C   UNL     1      10.758  -1.474 -12.376  1.00  0.00     0.173 A 
ATOM     66  F   UNL     1       7.349  -2.047 -13.511  1.00  0.00    -0.203 F 
ATOM     67  C   UNL     1       9.384  -2.153 -14.689  1.00  0.00     0.198 A 
ATOM     68  C   UNL     1      11.451  -1.681 -13.565  1.00  0.00     0.198 A 
ATOM     69  F   UNL     1      11.453  -1.156 -11.274  1.00  0.00    -0.203 F 
ATOM     70  F   UNL     1       8.722  -2.521 -15.795  1.00  0.00    -0.200 F 
ATOM     71  C   UNL     1      10.765  -2.029 -14.719  1.00  0.00     0.200 A 
ATOM     72  F   UNL     1      12.784  -1.545 -13.595  1.00  0.00    -0.200 F 
ATOM     73  F   UNL     1      11.435  -2.252 -15.857  1.00  0.00    -0.200 F 
ENDBRANCH  40  63
ENDBRANCH  14  15
ENDBRANCH   7   9
ENDBRANCH   4   5
ENDBRANCH   3   4
ENDBRANCH   2   3
ENDBRANCH   1   2
BRANCH   1  74
ATOM     74  C   UNL     1       5.791   1.393   4.478  1.00  0.00     0.021 C 
BRANCH  74  75
ATOM     75  C   UNL     1       6.404   2.689   5.013  1.00  0.00     0.116 C 
BRANCH  75  76
ATOM     76  N   UNL     1       6.641   2.584   6.439  1.00  0.00    -0.356 N 
ATOM     77  C   UNL     1       7.650   2.081   7.189  1.00  0.00     0.227 C 
ATOM     78  H   UNL     1       5.908   2.959   6.979  1.00  0.00     0.163 HD
ATOM     79  O   UNL     1       7.305   1.825   8.353  1.00  0.00    -0.274 OA
BRANCH  77  80
ATOM     80  C   UNL     1       9.143   1.975   6.791  1.00  0.00     0.061 C 
ATOM     81  C   UNL     1       9.828   3.307   7.260  1.00  0.00     0.053 C 
ATOM     82  C   UNL     1       9.823   0.899   7.717  1.00  0.00     0.053 C 
ATOM     83  C   UNL     1      11.195   2.839   7.672  1.00  0.00    -0.044 A 
ATOM     84  C   UNL     1      11.199   1.459   7.889  1.00  0.00    -0.044 A 
ATOM     85  C   UNL     1      12.351   3.580   7.836  1.00  0.00     0.004 A 
ATOM     86  C   UNL     1      12.355   0.777   8.222  1.00  0.00     0.004 A 
ATOM     87  C   UNL     1      13.528   2.903   8.174  1.00  0.00     0.000 A 
ATOM     88  C   UNL     1      13.533   1.510   8.352  1.00  0.00     0.000 A 
BRANCH  80  89
ATOM     89  C   UNL     1       9.547   1.695   5.308  1.00  0.00     0.045 C 
BRANCH  89  90
ATOM     90  C   UNL     1       9.049   0.393   4.744  1.00  0.00    -0.025 C 
ATOM     91  C   UNL     1       8.621   0.212   3.485  1.00  0.00     0.004 C 
BRANCH  91  92
ATOM     92  C   UNL     1       7.864  -0.978   3.044  1.00  0.00    -0.026 A 
ATOM     93  C   UNL     1       7.592  -1.147   1.681  1.00  0.00     0.008 A 
ATOM     94  C   UNL     1       7.233  -1.840   3.958  1.00  0.00     0.008 A 
ATOM     95  C   UNL     1       6.702  -2.137   1.252  1.00  0.00     0.001 A 
ATOM     96  C   UNL     1       6.333  -2.816   3.531  1.00  0.00     0.001 A 
ATOM     97  C   UNL     1       6.059  -2.957   2.177  1.00  0.00     0.000 A 
ENDBRANCH  91  92
ENDBRANCH  89  90
ENDBRANCH  80  89
ENDBRANCH  77  80
ENDBRANCH  75  76
ENDBRANCH  74  75
ENDBRANCH   1  74
TORSDOF 16
