REMARK SMILES Cc1nc2n(n1)[C@@H](c1ccc([N+](=O)[O-])o1)CC(C(=O)NCCCCCCNC(=O)c1ccc(-c3c4nc(c(-c5c(F)c(F)c(F)c(F)c5F)c5ccc([nH]5)c(-c5c(F)c(F)c(F)c(F)c5F)c5nc(c(-c6c(F)c(F)c(F)c(F)c6F)c6ccc3[nH]6)C=C5)C=C4)cc1)=N2
REMARK SMILES IDX 23 1 22 2 21 3 20 4 18 5 19 6 17 8 1 9 2 10 3 11 6 12 4 13
REMARK SMILES IDX 5 14 93 15 7 16 16 17 8 18 9 19 15 20 10 21 11 22 12 23
REMARK SMILES IDX 13 24 14 25 24 26 25 27 26 28 27 29 28 30 29 32 30 33 31 34
REMARK SMILES IDX 92 35 32 36 91 37 33 38 34 39 35 40 85 41 36 42 90 43 84 44
REMARK SMILES IDX 86 45 37 46 89 47 83 48 82 49 38 51 70 52 50 53 69 54 51 55
REMARK SMILES IDX 54 56 68 57 87 58 52 59 53 60 67 62 88 63 55 64 39 65 40 66
REMARK SMILES IDX 48 67 41 68 42 69 46 70 49 71 43 72 44 73 47 74 45 75 71 76
REMARK SMILES IDX 72 77 80 78 73 79 74 80 78 81 81 82 75 83 76 84 79 85 77 86
REMARK SMILES IDX 56 87 57 88 65 89 58 90 59 91 63 92 66 93 60 94 61 95 64 96
REMARK SMILES IDX 62 97
REMARK H PARENT 20 7 27 31 86 50 54 61
REMARK Flexibility Score: inf
ROOT
ATOM      1  C   UNL     1      -3.143   7.358   7.489  1.00  0.00     0.002 C 
ENDROOT
BRANCH   1   2
ATOM      2  C   UNL     1      -2.433   6.815   6.240  1.00  0.00     0.021 C 
BRANCH   2   3
ATOM      3  C   UNL     1      -1.248   5.897   6.555  1.00  0.00     0.116 C 
BRANCH   3   4
ATOM      4  N   UNL     1      -1.672   4.516   6.732  1.00  0.00    -0.351 N 
ATOM      5  C   UNL     1      -1.641   3.369   5.981  1.00  0.00     0.265 C 
ATOM      6  O   UNL     1      -2.140   2.363   6.487  1.00  0.00    -0.268 OA
ATOM      7  H   UNL     1      -2.085   4.369   7.614  1.00  0.00     0.163 HD
BRANCH   5   8
ATOM      8  C   UNL     1      -1.023   3.244   4.573  1.00  0.00     0.112 C 
ATOM      9  C   UNL     1       0.975   0.207   0.052  1.00  0.00     0.092 C 
ATOM     10  C   UNL     1       0.456   1.164   1.049  1.00  0.00     0.149 A 
ATOM     11  N   UNL     1      -0.180   0.761   2.193  1.00  0.00    -0.195 NA
ATOM     12  N   UNL     1       0.595   2.490   0.922  1.00  0.00    -0.154 NA
ATOM     13  C   UNL     1      -0.451   1.881   2.829  1.00  0.00     0.249 A 
ATOM     14  N   UNL     1      -0.013   2.913   2.046  1.00  0.00    -0.219 N 
ATOM     15  N   UNL     1      -1.029   2.060   4.036  1.00  0.00    -0.211 NA
ATOM     16  C   UNL     1      -0.035   4.298   2.450  1.00  0.00     0.184 C 
ATOM     17  C   UNL     1      -0.403   4.450   3.928  1.00  0.00     0.098 C 
BRANCH  16  18
ATOM     18  C   UNL     1      -0.927   5.142   1.584  1.00  0.00     0.136 A 
ATOM     19  C   UNL     1      -1.649   4.955   0.417  1.00  0.00     0.056 A 
ATOM     20  O   UNL     1      -1.077   6.440   2.005  1.00  0.00    -0.404 OA
ATOM     21  C   UNL     1      -2.296   6.189   0.126  1.00  0.00     0.134 A 
ATOM     22  C   UNL     1      -1.924   7.043   1.132  1.00  0.00     0.433 A 
BRANCH  22  23
ATOM     23  N   UNL     1      -2.265   8.398   1.435  1.00  0.00     0.102 N 
ATOM     24  O   UNL     1      -2.983   8.981   0.607  1.00  0.00    -0.256 OA
ATOM     25  O   UNL     1      -1.846   8.873   2.495  1.00  0.00    -0.256 OA
ENDBRANCH  22  23
ENDBRANCH  16  18
ENDBRANCH   5   8
ENDBRANCH   3   4
ENDBRANCH   2   3
ENDBRANCH   1   2
BRANCH   1  26
ATOM     26  C   UNL     1      -2.272   8.221   8.412  1.00  0.00     0.002 C 
BRANCH  26  27
ATOM     27  C   UNL     1      -1.660   9.483   7.774  1.00  0.00     0.021 C 
BRANCH  27  28
ATOM     28  C   UNL     1      -2.656  10.621   7.495  1.00  0.00     0.116 C 
BRANCH  28  29
ATOM     29  N   UNL     1      -3.201  11.123   8.745  1.00  0.00    -0.352 N 
ATOM     30  C   UNL     1      -3.321  12.388   9.245  1.00  0.00     0.251 C 
ATOM     31  H   UNL     1      -3.547  10.422   9.342  1.00  0.00     0.163 HD
ATOM     32  O   UNL     1      -3.440  12.518  10.464  1.00  0.00    -0.269 OA
BRANCH  30  33
ATOM     33  C   UNL     1      -3.352  13.600   8.396  1.00  0.00     0.039 A 
ATOM     34  C   UNL     1      -2.837  14.782   8.948  1.00  0.00     0.014 A 
ATOM     35  C   UNL     1      -4.031  13.650   7.176  1.00  0.00     0.014 A 
ATOM     36  C   UNL     1      -2.983  16.000   8.284  1.00  0.00     0.010 A 
ATOM     37  C   UNL     1      -4.177  14.876   6.510  1.00  0.00     0.010 A 
ATOM     38  C   UNL     1      -3.647  16.058   7.054  1.00  0.00    -0.014 A 
BRANCH  38  39
ATOM     39  C   UNL     1      -3.606  17.339   6.312  1.00  0.00     0.031 A 
ATOM     40  C   UNL     1      -3.196  17.215   4.881  1.00  0.00     0.074 A 
ATOM     41  C   UNL     1      -4.310  18.435   6.672  1.00  0.00     0.049 A 
ATOM     42  N   UNL     1      -4.035  16.919   3.931  1.00  0.00    -0.248 NA
ATOM     43  C   UNL     1      -1.794  17.143   4.472  1.00  0.00     0.031 C 
ATOM     44  C   UNL     1      -5.648  18.384   7.271  1.00  0.00     0.029 A 
ATOM     45  N   UNL     1      -4.122  19.770   6.375  1.00  0.00    -0.354 N 
ATOM     46  C   UNL     1      -3.292  16.557   2.823  1.00  0.00     0.074 A 
ATOM     47  C   UNL     1      -1.905  16.733   3.198  1.00  0.00     0.031 C 
ATOM     48  C   UNL     1      -6.225  19.597   7.139  1.00  0.00     0.029 A 
ATOM     49  C   UNL     1      -5.258  20.550   6.586  1.00  0.00     0.049 A 
ATOM     50  H   UNL     1      -3.270  20.135   6.046  1.00  0.00     0.167 HD
ATOM     51  C   UNL     1      -3.861  16.117   1.671  1.00  0.00     0.037 A 
ATOM     52  C   UNL     1      -5.615  21.629   5.834  1.00  0.00     0.037 A 
ATOM     53  C   UNL     1      -5.292  16.066   1.663  1.00  0.00     0.049 A 
ATOM     54  C   UNL     1      -5.959  20.982   4.520  1.00  0.00     0.074 A 
ATOM     55  C   UNL     1      -6.277  15.124   1.868  1.00  0.00     0.029 A 
ATOM     56  N   UNL     1      -5.974  17.236   1.432  1.00  0.00    -0.354 N 
ATOM     57  N   UNL     1      -7.081  20.379   4.236  1.00  0.00    -0.248 NA
ATOM     58  C   UNL     1      -4.861  20.708   3.591  1.00  0.00     0.031 C 
ATOM     59  C   UNL     1      -7.449  15.870   2.215  1.00  0.00     0.029 A 
ATOM     60  C   UNL     1      -7.080  17.213   2.241  1.00  0.00     0.049 A 
ATOM     61  H   UNL     1      -5.718  17.953   0.807  1.00  0.00     0.167 HD
ATOM     62  C   UNL     1      -6.756  19.447   3.249  1.00  0.00     0.074 A 
ATOM     63  C   UNL     1      -5.387  19.729   2.869  1.00  0.00     0.031 C 
ATOM     64  C   UNL     1      -7.552  18.383   2.940  1.00  0.00     0.037 A 
BRANCH  51  65
ATOM     65  C   UNL     1      -3.147  15.832   0.412  1.00  0.00     0.064 A 
ATOM     66  C   UNL     1      -3.269  16.765  -0.629  1.00  0.00     0.173 A 
ATOM     67  C   UNL     1      -2.595  14.582   0.122  1.00  0.00     0.173 A 
ATOM     68  F   UNL     1      -3.803  17.974  -0.384  1.00  0.00    -0.203 F 
ATOM     69  C   UNL     1      -2.909  16.441  -1.930  1.00  0.00     0.198 A 
ATOM     70  C   UNL     1      -2.221  14.263  -1.184  1.00  0.00     0.198 A 
ATOM     71  F   UNL     1      -2.470  13.657   1.084  1.00  0.00    -0.203 F 
ATOM     72  F   UNL     1      -3.100  17.330  -2.914  1.00  0.00    -0.200 F 
ATOM     73  C   UNL     1      -2.398  15.184  -2.210  1.00  0.00     0.200 A 
ATOM     74  F   UNL     1      -1.726  13.049  -1.462  1.00  0.00    -0.200 F 
ATOM     75  F   UNL     1      -2.092  14.855  -3.473  1.00  0.00    -0.200 F 
ENDBRANCH  51  65
BRANCH  52  76
ATOM     76  C   UNL     1      -4.776  22.865   5.944  1.00  0.00     0.064 A 
ATOM     77  C   UNL     1      -4.487  23.372   7.228  1.00  0.00     0.173 A 
ATOM     78  C   UNL     1      -4.272  23.613   4.867  1.00  0.00     0.173 A 
ATOM     79  F   UNL     1      -5.029  22.799   8.315  1.00  0.00    -0.203 F 
ATOM     80  C   UNL     1      -3.651  24.474   7.422  1.00  0.00     0.198 A 
ATOM     81  C   UNL     1      -3.411  24.697   5.059  1.00  0.00     0.198 A 
ATOM     82  F   UNL     1      -4.596  23.313   3.602  1.00  0.00    -0.203 F 
ATOM     83  F   UNL     1      -3.386  24.902   8.664  1.00  0.00    -0.200 F 
ATOM     84  C   UNL     1      -3.087  25.116   6.336  1.00  0.00     0.200 A 
ATOM     85  F   UNL     1      -2.884  25.323   3.998  1.00  0.00    -0.200 F 
ATOM     86  F   UNL     1      -2.242  26.141   6.518  1.00  0.00    -0.200 F 
ENDBRANCH  52  76
BRANCH  64  87
ATOM     87  C   UNL     1      -8.873  18.364   3.626  1.00  0.00     0.064 A 
ATOM     88  C   UNL     1      -9.870  19.280   3.269  1.00  0.00     0.173 A 
ATOM     89  C   UNL     1      -9.159  17.436   4.638  1.00  0.00     0.173 A 
ATOM     90  F   UNL     1      -9.646  20.184   2.302  1.00  0.00    -0.203 F 
ATOM     91  C   UNL     1     -11.113  19.258   3.893  1.00  0.00     0.198 A 
ATOM     92  C   UNL     1     -10.413  17.398   5.239  1.00  0.00     0.198 A 
ATOM     93  F   UNL     1      -8.233  16.551   5.042  1.00  0.00    -0.203 F 
ATOM     94  F   UNL     1     -12.055  20.145   3.540  1.00  0.00    -0.200 F 
ATOM     95  C   UNL     1     -11.388  18.310   4.867  1.00  0.00     0.200 A 
ATOM     96  F   UNL     1     -10.682  16.470   6.168  1.00  0.00    -0.200 F 
ATOM     97  F   UNL     1     -12.598  18.268   5.442  1.00  0.00    -0.200 F 
ENDBRANCH  64  87
ENDBRANCH  38  39
ENDBRANCH  30  33
ENDBRANCH  28  29
ENDBRANCH  27  28
ENDBRANCH  26  27
ENDBRANCH   1  26
TORSDOF 15
