REMARK SMILES C[C@H](Nc1ccc(F)cc1Br)[C@@H](C)C(=O)NCCCCCCNC(=O)c1ccc(-c2c3nc(c(-c4c(F)c(F)c(F)c(F)c4F)c4ccc([nH]4)c(-c4c(F)c(F)c(F)c(F)c4F)c4nc(c(-c5c(F)c(F)c(F)c(F)c5F)c5ccc2[nH]5)C=C4)C=C3)cc1
REMARK SMILES IDX 19 1 18 2 17 3 16 4 14 5 15 6 12 8 13 9 2 10 1 11 3 12 4 14
REMARK SMILES IDX 5 15 10 16 6 17 9 18 11 19 7 20 8 21 20 22 21 23 22 24 23 25
REMARK SMILES IDX 24 26 25 28 26 29 27 30 88 31 28 32 87 33 29 34 30 35 31 36
REMARK SMILES IDX 81 37 32 38 86 39 80 40 82 41 33 42 85 43 79 44 78 45 34 47
REMARK SMILES IDX 66 48 46 49 65 50 47 51 50 52 64 53 83 54 48 55 49 56 63 58
REMARK SMILES IDX 84 59 51 60 35 61 36 62 44 63 37 64 38 65 42 66 45 67 39 68
REMARK SMILES IDX 40 69 43 70 41 71 67 72 68 73 76 74 69 75 70 76 74 77 77 78
REMARK SMILES IDX 71 79 72 80 75 81 73 82 52 83 53 84 61 85 54 86 55 87 59 88
REMARK SMILES IDX 62 89 56 90 57 91 60 92 58 93
REMARK H PARENT 16 7 3 13 23 27 82 46 50 57
REMARK Flexibility Score: inf
ROOT
ATOM      1  C   UNL     1       0.428  -1.583  -6.157  1.00  0.00     0.002 C 
ENDROOT
BRANCH   1   2
ATOM      2  C   UNL     1       0.824  -0.883  -4.853  1.00  0.00     0.021 C 
BRANCH   2   3
ATOM      3  C   UNL     1      -0.346  -0.241  -4.110  1.00  0.00     0.116 C 
BRANCH   3   4
ATOM      4  N   UNL     1      -1.241  -1.247  -3.577  1.00  0.00    -0.356 N 
ATOM      5  C   UNL     1      -1.531  -1.601  -2.299  1.00  0.00     0.224 C 
ATOM      6  O   UNL     1      -2.299  -2.552  -2.134  1.00  0.00    -0.275 OA
ATOM      7  H   UNL     1      -1.725  -1.764  -4.261  1.00  0.00     0.163 HD
BRANCH   5   8
ATOM      8  C   UNL     1      -0.959  -0.853  -1.100  1.00  0.00     0.097 C 
ATOM      9  C   UNL     1      -1.522   0.574  -1.074  1.00  0.00     0.020 C 
BRANCH   8  10
ATOM     10  C   UNL     1       0.584  -1.002  -0.966  1.00  0.00     0.088 C 
ATOM     11  C   UNL     1       0.938  -2.497  -0.933  1.00  0.00     0.031 C 
BRANCH  10  12
ATOM     12  N   UNL     1       1.040  -0.239   0.208  1.00  0.00    -0.381 N 
ATOM     13  H   UNL     1       0.715   0.689   0.260  1.00  0.00     0.160 HD
BRANCH  12  14
ATOM     14  C   UNL     1       1.858  -0.637   1.247  1.00  0.00     0.049 A 
ATOM     15  C   UNL     1       3.090  -1.265   1.031  1.00  0.00     0.030 A 
ATOM     16  C   UNL     1       1.451  -0.446   2.587  1.00  0.00     0.044 A 
ATOM     17  C   UNL     1       3.865  -1.726   2.099  1.00  0.00     0.041 A 
ATOM     18  C   UNL     1       2.219  -0.900   3.659  1.00  0.00     0.057 A 
ATOM     19  Br  UNL     1      -0.184   0.445   2.992  1.00  0.00    -0.048 Br
ATOM     20  C   UNL     1       3.416  -1.548   3.400  1.00  0.00     0.124 A 
ATOM     21  F   UNL     1       4.155  -2.000   4.421  1.00  0.00    -0.207 F 
ENDBRANCH  12  14
ENDBRANCH  10  12
ENDBRANCH   8  10
ENDBRANCH   5   8
ENDBRANCH   3   4
ENDBRANCH   2   3
ENDBRANCH   1   2
BRANCH   1  22
ATOM     22  C   UNL     1      -0.316  -0.703  -7.167  1.00  0.00     0.002 C 
BRANCH  22  23
ATOM     23  C   UNL     1       0.378   0.616  -7.515  1.00  0.00     0.021 C 
BRANCH  23  24
ATOM     24  C   UNL     1       1.788   0.464  -8.076  1.00  0.00     0.116 C 
BRANCH  24  25
ATOM     25  N   UNL     1       1.799  -0.252  -9.341  1.00  0.00    -0.352 N 
ATOM     26  C   UNL     1       2.344   0.119 -10.542  1.00  0.00     0.251 C 
ATOM     27  H   UNL     1       1.351  -1.129  -9.334  1.00  0.00     0.163 HD
ATOM     28  O   UNL     1       2.093  -0.524 -11.562  1.00  0.00    -0.269 OA
BRANCH  26  29
ATOM     29  C   UNL     1       3.220   1.305 -10.621  1.00  0.00     0.039 A 
ATOM     30  C   UNL     1       3.037   2.212 -11.668  1.00  0.00     0.014 A 
ATOM     31  C   UNL     1       4.227   1.518  -9.674  1.00  0.00     0.014 A 
ATOM     32  C   UNL     1       3.826   3.361 -11.734  1.00  0.00     0.010 A 
ATOM     33  C   UNL     1       4.965   2.698  -9.701  1.00  0.00     0.010 A 
ATOM     34  C   UNL     1       4.776   3.629 -10.734  1.00  0.00    -0.014 A 
BRANCH  34  35
ATOM     35  C   UNL     1       5.581   4.875 -10.755  1.00  0.00     0.031 A 
ATOM     36  C   UNL     1       7.072   4.809 -10.931  1.00  0.00     0.074 A 
ATOM     37  C   UNL     1       4.976   6.062 -10.555  1.00  0.00     0.049 A 
ATOM     38  N   UNL     1       7.953   5.777 -10.911  1.00  0.00    -0.248 NA
ATOM     39  C   UNL     1       7.655   3.473 -11.131  1.00  0.00     0.031 C 
ATOM     40  C   UNL     1       3.543   6.252 -10.328  1.00  0.00     0.029 A 
ATOM     41  N   UNL     1       5.493   7.332 -10.499  1.00  0.00    -0.354 N 
ATOM     42  C   UNL     1       9.189   5.168 -11.082  1.00  0.00     0.074 A 
ATOM     43  C   UNL     1       8.952   3.742 -11.150  1.00  0.00     0.031 C 
ATOM     44  C   UNL     1       3.292   7.562 -10.178  1.00  0.00     0.029 A 
ATOM     45  C   UNL     1       4.548   8.300 -10.260  1.00  0.00     0.049 A 
ATOM     46  H   UNL     1       6.449   7.531 -10.618  1.00  0.00     0.167 HD
ATOM     47  C   UNL     1      10.408   5.747 -11.195  1.00  0.00     0.037 A 
ATOM     48  C   UNL     1       4.683   9.632 -10.117  1.00  0.00     0.037 A 
ATOM     49  C   UNL     1      10.637   7.168 -11.151  1.00  0.00     0.049 A 
ATOM     50  C   UNL     1       6.050  10.249 -10.238  1.00  0.00     0.074 A 
ATOM     51  C   UNL     1      11.826   7.856 -11.315  1.00  0.00     0.029 A 
ATOM     52  N   UNL     1       9.653   8.118 -10.922  1.00  0.00    -0.354 N 
ATOM     53  N   UNL     1       7.202   9.669 -10.468  1.00  0.00    -0.248 NA
ATOM     54  C   UNL     1       6.133  11.709 -10.086  1.00  0.00     0.031 C 
ATOM     55  C   UNL     1      11.570   9.220 -11.139  1.00  0.00     0.029 A 
ATOM     56  C   UNL     1      10.212   9.386 -10.917  1.00  0.00     0.049 A 
ATOM     57  H   UNL     1       8.698   7.922 -10.784  1.00  0.00     0.167 HD
ATOM     58  C   UNL     1       8.141  10.691 -10.516  1.00  0.00     0.074 A 
ATOM     59  C   UNL     1       7.421  11.930 -10.307  1.00  0.00     0.031 C 
ATOM     60  C   UNL     1       9.480  10.610 -10.714  1.00  0.00     0.037 A 
BRANCH  47  61
ATOM     61  C   UNL     1      11.592   4.842 -11.382  1.00  0.00     0.064 A 
ATOM     62  C   UNL     1      11.791   4.128 -12.574  1.00  0.00     0.173 A 
ATOM     63  C   UNL     1      12.559   4.716 -10.373  1.00  0.00     0.173 A 
ATOM     64  F   UNL     1      10.891   4.204 -13.565  1.00  0.00    -0.203 F 
ATOM     65  C   UNL     1      12.898   3.298 -12.736  1.00  0.00     0.198 A 
ATOM     66  C   UNL     1      13.681   3.910 -10.551  1.00  0.00     0.198 A 
ATOM     67  F   UNL     1      12.421   5.382  -9.217  1.00  0.00    -0.203 F 
ATOM     68  F   UNL     1      13.040   2.586 -13.863  1.00  0.00    -0.200 F 
ATOM     69  C   UNL     1      13.845   3.195 -11.728  1.00  0.00     0.200 A 
ATOM     70  F   UNL     1      14.602   3.822  -9.582  1.00  0.00    -0.200 F 
ATOM     71  F   UNL     1      14.913   2.402 -11.889  1.00  0.00    -0.200 F 
ENDBRANCH  47  61
BRANCH  48  72
ATOM     72  C   UNL     1       3.486  10.477  -9.864  1.00  0.00     0.064 A 
ATOM     73  C   UNL     1       3.013  11.365 -10.841  1.00  0.00     0.173 A 
ATOM     74  C   UNL     1       2.794  10.419  -8.646  1.00  0.00     0.173 A 
ATOM     75  F   UNL     1       3.653  11.470 -12.015  1.00  0.00    -0.203 F 
ATOM     76  C   UNL     1       1.908  12.178 -10.600  1.00  0.00     0.198 A 
ATOM     77  C   UNL     1       1.672  11.212  -8.417  1.00  0.00     0.198 A 
ATOM     78  F   UNL     1       3.202   9.582  -7.680  1.00  0.00    -0.203 F 
ATOM     79  F   UNL     1       1.507  13.052 -11.533  1.00  0.00    -0.200 F 
ATOM     80  C   UNL     1       1.235  12.098  -9.390  1.00  0.00     0.200 A 
ATOM     81  F   UNL     1       1.016  11.120  -7.252  1.00  0.00    -0.200 F 
ATOM     82  F   UNL     1       0.171  12.878  -9.160  1.00  0.00    -0.200 F 
ENDBRANCH  48  72
BRANCH  60  83
ATOM     83  C   UNL     1      10.249  11.899 -10.750  1.00  0.00     0.064 A 
ATOM     84  C   UNL     1      10.474  12.655  -9.589  1.00  0.00     0.173 A 
ATOM     85  C   UNL     1      10.799  12.364 -11.954  1.00  0.00     0.173 A 
ATOM     86  F   UNL     1       9.955  12.261  -8.416  1.00  0.00    -0.203 F 
ATOM     87  C   UNL     1      11.200  13.841  -9.638  1.00  0.00     0.198 A 
ATOM     88  C   UNL     1      11.551  13.535 -11.993  1.00  0.00     0.198 A 
ATOM     89  F   UNL     1      10.618  11.676 -13.091  1.00  0.00    -0.203 F 
ATOM     90  F   UNL     1      11.362  14.572  -8.527  1.00  0.00    -0.200 F 
ATOM     91  C   UNL     1      11.744  14.276 -10.838  1.00  0.00     0.200 A 
ATOM     92  F   UNL     1      12.088  13.946 -13.150  1.00  0.00    -0.200 F 
ATOM     93  F   UNL     1      12.450  15.415 -10.881  1.00  0.00    -0.200 F 
ENDBRANCH  60  83
ENDBRANCH  34  35
ENDBRANCH  26  29
ENDBRANCH  24  25
ENDBRANCH  23  24
ENDBRANCH  22  23
ENDBRANCH   1  22
TORSDOF 16
