REMARK SMILES O=C(NCCCCCCNC(=O)[C@@H]1CS[C@H](c2ncc(-c3ccccc3)s2)[NH2+]1)c1ccc(-c2c3nc(c(-c4c(F)c(F)c(F)c(F)c4F)c4ccc([nH]4)c(-c4c(F)c(F)c(F)c(F)c4F)c4nc(c(-c5c(F)c(F)c(F)c(F)c5F)c5ccc2[nH]5)C=C4)C=C3)cc1
REMARK SMILES IDX 6 1 5 2 4 3 3 4 1 5 2 6 29 8 30 9 91 10 31 11 90 12 32 13
REMARK SMILES IDX 33 14 34 15 84 16 35 17 89 18 83 19 85 20 36 21 88 22 82 23
REMARK SMILES IDX 81 24 37 26 69 27 49 28 68 29 50 30 53 31 67 32 86 33 51 34
REMARK SMILES IDX 52 35 66 37 87 38 54 39 38 40 39 41 47 42 40 43 41 44 45 45
REMARK SMILES IDX 48 46 42 47 43 48 46 49 44 50 70 51 71 52 79 53 72 54 73 55
REMARK SMILES IDX 77 56 80 57 74 58 75 59 78 60 76 61 55 62 56 63 64 64 57 65
REMARK SMILES IDX 58 66 62 67 65 68 59 69 60 70 63 71 61 72 7 73 8 74 9 75
REMARK SMILES IDX 10 76 11 77 12 79 13 80 14 81 28 82 15 83 16 84 17 87 18 88
REMARK SMILES IDX 27 89 19 90 20 91 21 92 22 93 26 94 23 95 25 96 24 97
REMARK H PARENT 3 7 85 25 53 36 10 78 28 85 28 86
REMARK Flexibility Score: inf
ROOT
ATOM      1  C   UNL     1      13.510   7.049  -8.658  1.00  0.00     0.002 C 
ENDROOT
BRANCH   1   2
ATOM      2  C   UNL     1      14.136   8.013  -7.654  1.00  0.00     0.021 C 
BRANCH   2   3
ATOM      3  C   UNL     1      15.447   7.539  -7.041  1.00  0.00     0.116 C 
BRANCH   3   4
ATOM      4  N   UNL     1      16.550   7.533  -7.990  1.00  0.00    -0.352 N 
ATOM      5  O   UNL     1      18.542   8.204  -8.840  1.00  0.00    -0.269 OA
ATOM      6  C   UNL     1      17.755   8.190  -7.900  1.00  0.00     0.251 C 
ATOM      7  H   UNL     1      16.416   6.989  -8.800  1.00  0.00     0.163 HD
BRANCH   6   8
ATOM      8  C   UNL     1      18.077   8.910  -6.651  1.00  0.00     0.039 A 
ATOM      9  C   UNL     1      17.909   8.273  -5.420  1.00  0.00     0.014 A 
ATOM     10  C   UNL     1      18.491  10.243  -6.708  1.00  0.00     0.014 A 
ATOM     11  C   UNL     1      17.994   9.014  -4.251  1.00  0.00     0.010 A 
ATOM     12  C   UNL     1      18.679  10.960  -5.522  1.00  0.00     0.010 A 
ATOM     13  C   UNL     1      18.401  10.360  -4.284  1.00  0.00    -0.014 A 
BRANCH  13  14
ATOM     14  C   UNL     1      18.597  11.071  -2.995  1.00  0.00     0.031 A 
ATOM     15  C   UNL     1      17.757  12.253  -2.604  1.00  0.00     0.074 A 
ATOM     16  C   UNL     1      19.519  10.581  -2.143  1.00  0.00     0.049 A 
ATOM     17  N   UNL     1      17.766  12.933  -1.483  1.00  0.00    -0.248 NA
ATOM     18  C   UNL     1      16.786  12.746  -3.593  1.00  0.00     0.031 C 
ATOM     19  C   UNL     1      20.410   9.454  -2.431  1.00  0.00     0.029 A 
ATOM     20  N   UNL     1      19.837  10.934  -0.857  1.00  0.00    -0.354 N 
ATOM     21  C   UNL     1      16.819  13.937  -1.635  1.00  0.00     0.074 A 
ATOM     22  C   UNL     1      16.270  13.796  -2.967  1.00  0.00     0.031 C 
ATOM     23  C   UNL     1      21.122   9.164  -1.335  1.00  0.00     0.029 A 
ATOM     24  C   UNL     1      20.790  10.124  -0.290  1.00  0.00     0.049 A 
ATOM     25  H   UNL     1      19.422  11.693  -0.387  1.00  0.00     0.167 HD
ATOM     26  C   UNL     1      16.441  14.881  -0.739  1.00  0.00     0.037 A 
ATOM     27  C   UNL     1      21.347  10.156   0.933  1.00  0.00     0.037 A 
ATOM     28  C   UNL     1      16.988  15.007   0.589  1.00  0.00     0.049 A 
ATOM     29  C   UNL     1      20.895  11.204   1.906  1.00  0.00     0.074 A 
ATOM     30  C   UNL     1      16.668  15.929   1.573  1.00  0.00     0.029 A 
ATOM     31  N   UNL     1      17.967  14.181   1.123  1.00  0.00    -0.354 N 
ATOM     32  N   UNL     1      19.991  12.139   1.751  1.00  0.00    -0.248 NA
ATOM     33  C   UNL     1      21.544  11.204   3.223  1.00  0.00     0.031 C 
ATOM     34  C   UNL     1      17.477  15.681   2.688  1.00  0.00     0.029 A 
ATOM     35  C   UNL     1      18.270  14.578   2.417  1.00  0.00     0.049 A 
ATOM     36  H   UNL     1      18.385  13.424   0.652  1.00  0.00     0.167 HD
ATOM     37  C   UNL     1      19.962  12.841   2.945  1.00  0.00     0.074 A 
ATOM     38  C   UNL     1      20.910  12.196   3.831  1.00  0.00     0.031 C 
ATOM     39  C   UNL     1      19.228  13.931   3.276  1.00  0.00     0.037 A 
BRANCH  26  40
ATOM     40  C   UNL     1      15.387  15.865  -1.160  1.00  0.00     0.064 A 
ATOM     41  C   UNL     1      14.040  15.492  -1.281  1.00  0.00     0.173 A 
ATOM     42  C   UNL     1      15.715  17.212  -1.379  1.00  0.00     0.173 A 
ATOM     43  F   UNL     1      13.675  14.215  -1.092  1.00  0.00    -0.203 F 
ATOM     44  C   UNL     1      13.064  16.427  -1.618  1.00  0.00     0.198 A 
ATOM     45  C   UNL     1      14.733  18.149  -1.692  1.00  0.00     0.198 A 
ATOM     46  F   UNL     1      16.987  17.625  -1.271  1.00  0.00    -0.203 F 
ATOM     47  F   UNL     1      11.788  16.040  -1.757  1.00  0.00    -0.200 F 
ATOM     48  C   UNL     1      13.409  17.755  -1.815  1.00  0.00     0.200 A 
ATOM     49  F   UNL     1      15.067  19.435  -1.870  1.00  0.00    -0.200 F 
ATOM     50  F   UNL     1      12.466  18.655  -2.126  1.00  0.00    -0.200 F 
ENDBRANCH  26  40
BRANCH  27  51
ATOM     51  C   UNL     1      22.395   9.167   1.289  1.00  0.00     0.064 A 
ATOM     52  C   UNL     1      22.160   8.171   2.246  1.00  0.00     0.173 A 
ATOM     53  C   UNL     1      23.651   9.188   0.662  1.00  0.00     0.173 A 
ATOM     54  F   UNL     1      20.982   8.120   2.885  1.00  0.00    -0.203 F 
ATOM     55  C   UNL     1      23.146   7.243   2.573  1.00  0.00     0.198 A 
ATOM     56  C   UNL     1      24.623   8.239   0.965  1.00  0.00     0.198 A 
ATOM     57  F   UNL     1      23.922  10.116  -0.268  1.00  0.00    -0.203 F 
ATOM     58  F   UNL     1      22.912   6.327   3.522  1.00  0.00    -0.200 F 
ATOM     59  C   UNL     1      24.374   7.273   1.927  1.00  0.00     0.200 A 
ATOM     60  F   UNL     1      25.799   8.260   0.323  1.00  0.00    -0.200 F 
ATOM     61  F   UNL     1      25.317   6.373   2.235  1.00  0.00    -0.200 F 
ENDBRANCH  27  51
BRANCH  39  62
ATOM     62  C   UNL     1      19.431  14.484   4.655  1.00  0.00     0.064 A 
ATOM     63  C   UNL     1      20.610  15.162   5.003  1.00  0.00     0.173 A 
ATOM     64  C   UNL     1      18.444  14.331   5.638  1.00  0.00     0.173 A 
ATOM     65  F   UNL     1      21.591  15.317   4.100  1.00  0.00    -0.203 F 
ATOM     66  C   UNL     1      20.806  15.635   6.296  1.00  0.00     0.198 A 
ATOM     67  C   UNL     1      18.633  14.830   6.924  1.00  0.00     0.198 A 
ATOM     68  F   UNL     1      17.298  13.694   5.354  1.00  0.00    -0.203 F 
ATOM     69  F   UNL     1      21.964  16.227   6.622  1.00  0.00    -0.200 F 
ATOM     70  C   UNL     1      19.817  15.472   7.254  1.00  0.00     0.200 A 
ATOM     71  F   UNL     1      17.673  14.680   7.847  1.00  0.00    -0.200 F 
ATOM     72  F   UNL     1      20.010  15.923   8.502  1.00  0.00    -0.200 F 
ENDBRANCH  39  62
ENDBRANCH  13  14
ENDBRANCH   6   8
ENDBRANCH   3   4
ENDBRANCH   2   3
ENDBRANCH   1   2
BRANCH   1  73
ATOM     73  C   UNL     1      13.377   5.606  -8.171  1.00  0.00     0.002 C 
BRANCH  73  74
ATOM     74  C   UNL     1      12.696   5.428  -6.810  1.00  0.00     0.021 C 
BRANCH  74  75
ATOM     75  C   UNL     1      11.208   5.756  -6.780  1.00  0.00     0.116 C 
BRANCH  75  76
ATOM     76  N   UNL     1      10.439   4.857  -7.619  1.00  0.00    -0.351 N 
ATOM     77  C   UNL     1       9.487   3.920  -7.415  1.00  0.00     0.279 C 
ATOM     78  H   UNL     1      10.667   4.954  -8.572  1.00  0.00     0.163 HD
ATOM     79  O   UNL     1       9.112   3.341  -8.448  1.00  0.00    -0.268 OA
BRANCH  77  80
ATOM     80  C   UNL     1       8.849   3.515  -6.067  1.00  0.00     0.284 C 
ATOM     81  C   UNL     1       8.847   4.441  -4.870  1.00  0.00     0.151 C 
ATOM     82  N   UNL     1       9.275   2.152  -5.647  1.00  0.00    -0.319 N 
ATOM     83  S   UNL     1      10.176   3.847  -3.800  1.00  0.00    -0.085 SA
ATOM     84  C   UNL     1      10.373   2.256  -4.674  1.00  0.00     0.303 C 
ATOM     85  H   UNL     1       9.593   1.630  -6.463  1.00  0.00     0.348 HD
ATOM     86  H   UNL     1       8.486   1.669  -5.218  1.00  0.00     0.348 HD
BRANCH  84  87
ATOM     87  C   UNL     1      11.781   2.070  -5.224  1.00  0.00     0.162 A 
ATOM     88  N   UNL     1      12.882   2.274  -4.518  1.00  0.00    -0.242 NA
ATOM     89  S   UNL     1      12.071   1.478  -6.822  1.00  0.00    -0.112 S 
ATOM     90  C   UNL     1      13.998   2.088  -5.311  1.00  0.00     0.132 A 
ATOM     91  C   UNL     1      13.756   1.745  -6.627  1.00  0.00     0.055 A 
BRANCH  91  92
ATOM     92  C   UNL     1      14.694   1.638  -7.746  1.00  0.00    -0.007 A 
ATOM     93  C   UNL     1      14.400   2.218  -8.991  1.00  0.00     0.009 A 
ATOM     94  C   UNL     1      15.949   1.039  -7.569  1.00  0.00     0.009 A 
ATOM     95  C   UNL     1      15.344   2.226 -10.021  1.00  0.00     0.001 A 
ATOM     96  C   UNL     1      16.888   1.033  -8.605  1.00  0.00     0.001 A 
ATOM     97  C   UNL     1      16.589   1.636  -9.826  1.00  0.00     0.000 A 
ENDBRANCH  91  92
ENDBRANCH  84  87
ENDBRANCH  77  80
ENDBRANCH  75  76
ENDBRANCH  74  75
ENDBRANCH  73  74
ENDBRANCH   1  73
TORSDOF 15
