REMARK SMILES Cc1cc(CNC(=O)C[C@H](C)CC(=O)NCCCCCCNC(=O)c2ccc(-c3c4nc(c(-c5c(F)c(F)c(F)c(F)c5F)c5ccc([nH]5)c(-c5c(F)c(F)c(F)c(F)c5F)c5nc(c(-c6c(F)c(F)c(F)c(F)c6F)c6ccc3[nH]6)C=C5)C=C4)cc2)cc(C)c1F
REMARK SMILES IDX 17 1 16 2 15 3 13 4 14 5 12 7 10 8 11 9 9 10 7 11 6 12 8 14
REMARK SMILES IDX 5 15 4 16 1 17 2 18 3 19 91 20 89 21 92 22 88 23 90 24 18 25
REMARK SMILES IDX 19 26 20 27 21 28 22 29 23 30 24 32 25 33 26 34 87 35 27 36
REMARK SMILES IDX 86 37 28 38 29 39 30 40 80 41 31 42 85 43 79 44 81 45 32 46
REMARK SMILES IDX 84 47 78 48 77 49 33 51 65 52 45 53 64 54 46 55 49 56 63 57
REMARK SMILES IDX 82 58 47 59 48 60 62 62 83 63 50 64 34 65 35 66 43 67 36 68
REMARK SMILES IDX 37 69 41 70 44 71 38 72 39 73 42 74 40 75 66 76 67 77 75 78
REMARK SMILES IDX 68 79 69 80 73 81 76 82 70 83 71 84 74 85 72 86 51 87 52 88
REMARK SMILES IDX 60 89 53 90 54 91 58 92 61 93 55 94 56 95 59 96 57 97
REMARK H PARENT 15 6 6 13 22 31 81 50 49 61
REMARK Flexibility Score: inf
ROOT
ATOM      1  C   UNL     1      -3.638  -2.906  -6.921  1.00  0.00     0.021 C 
ENDROOT
BRANCH   1   2
ATOM      2  C   UNL     1      -4.773  -2.494  -5.979  1.00  0.00     0.116 C 
BRANCH   2   3
ATOM      3  N   UNL     1      -4.659  -3.171  -4.699  1.00  0.00    -0.356 N 
ATOM      4  C   UNL     1      -4.218  -2.709  -3.495  1.00  0.00     0.220 C 
ATOM      5  O   UNL     1      -4.123  -3.508  -2.562  1.00  0.00    -0.275 OA
ATOM      6  H   UNL     1      -4.946  -4.113  -4.701  1.00  0.00     0.163 HD
BRANCH   4   7
ATOM      7  C   UNL     1      -3.820  -1.252  -3.312  1.00  0.00     0.103 C 
BRANCH   7   8
ATOM      8  C   UNL     1      -2.388  -0.966  -3.803  1.00  0.00     0.004 C 
ATOM      9  C   UNL     1      -2.380  -0.094  -5.064  1.00  0.00     0.009 C 
BRANCH   8  10
ATOM     10  C   UNL     1      -1.495  -0.347  -2.709  1.00  0.00     0.103 C 
BRANCH  10  11
ATOM     11  C   UNL     1      -0.045  -0.310  -3.177  1.00  0.00     0.220 C 
ATOM     12  N   UNL     1       0.635  -1.481  -3.367  1.00  0.00    -0.352 N 
ATOM     13  H   UNL     1       1.353  -1.466  -4.040  1.00  0.00     0.163 HD
ATOM     14  O   UNL     1       0.500   0.755  -3.469  1.00  0.00    -0.275 OA
BRANCH  12  15
ATOM     15  C   UNL     1       0.416  -2.740  -2.686  1.00  0.00     0.151 C 
BRANCH  15  16
ATOM     16  C   UNL     1       0.453  -3.960  -3.579  1.00  0.00    -0.028 A 
ATOM     17  C   UNL     1      -2.013  -6.145  -5.518  1.00  0.00     0.047 C 
ATOM     18  C   UNL     1      -0.745  -5.627  -4.914  1.00  0.00    -0.015 A 
ATOM     19  C   UNL     1      -0.716  -4.419  -4.208  1.00  0.00     0.012 A 
ATOM     20  C   UNL     1       0.418  -6.386  -4.988  1.00  0.00     0.129 A 
ATOM     21  C   UNL     1       1.600  -5.965  -4.376  1.00  0.00    -0.015 A 
ATOM     22  F   UNL     1       0.381  -7.568  -5.622  1.00  0.00    -0.206 F 
ATOM     23  C   UNL     1       1.615  -4.739  -3.688  1.00  0.00     0.012 A 
ATOM     24  C   UNL     1       2.789  -6.876  -4.340  1.00  0.00     0.047 C 
ENDBRANCH  15  16
ENDBRANCH  12  15
ENDBRANCH  10  11
ENDBRANCH   8  10
ENDBRANCH   7   8
ENDBRANCH   4   7
ENDBRANCH   2   3
ENDBRANCH   1   2
BRANCH   1  25
ATOM     25  C   UNL     1      -3.925  -4.193  -7.703  1.00  0.00     0.002 C 
BRANCH  25  26
ATOM     26  C   UNL     1      -4.625  -3.980  -9.049  1.00  0.00     0.002 C 
BRANCH  26  27
ATOM     27  C   UNL     1      -3.865  -3.103 -10.052  1.00  0.00     0.021 C 
BRANCH  27  28
ATOM     28  C   UNL     1      -2.398  -3.480 -10.249  1.00  0.00     0.116 C 
BRANCH  28  29
ATOM     29  N   UNL     1      -2.252  -4.782 -10.881  1.00  0.00    -0.352 N 
ATOM     30  C   UNL     1      -2.099  -5.070 -12.215  1.00  0.00     0.251 C 
ATOM     31  H   UNL     1      -2.266  -5.557 -10.274  1.00  0.00     0.163 HD
ATOM     32  O   UNL     1      -2.213  -6.216 -12.638  1.00  0.00    -0.269 OA
BRANCH  30  33
ATOM     33  C   UNL     1      -1.802  -3.967 -13.145  1.00  0.00     0.039 A 
ATOM     34  C   UNL     1      -2.634  -3.749 -14.245  1.00  0.00     0.014 A 
ATOM     35  C   UNL     1      -0.698  -3.144 -12.907  1.00  0.00     0.014 A 
ATOM     36  C   UNL     1      -2.387  -2.664 -15.087  1.00  0.00     0.010 A 
ATOM     37  C   UNL     1      -0.489  -2.030 -13.709  1.00  0.00     0.010 A 
ATOM     38  C   UNL     1      -1.323  -1.790 -14.813  1.00  0.00    -0.014 A 
BRANCH  38  39
ATOM     39  C   UNL     1      -0.993  -0.662 -15.713  1.00  0.00     0.031 A 
ATOM     40  C   UNL     1       0.273  -0.727 -16.519  1.00  0.00     0.074 A 
ATOM     41  C   UNL     1      -1.774   0.432 -15.752  1.00  0.00     0.049 A 
ATOM     42  N   UNL     1       0.834   0.192 -17.261  1.00  0.00    -0.248 NA
ATOM     43  C   UNL     1       1.021  -1.994 -16.458  1.00  0.00     0.031 C 
ATOM     44  C   UNL     1      -3.018   0.612 -15.004  1.00  0.00     0.029 A 
ATOM     45  N   UNL     1      -1.623   1.609 -16.440  1.00  0.00    -0.354 N 
ATOM     46  C   UNL     1       2.004  -0.380 -17.741  1.00  0.00     0.074 A 
ATOM     47  C   UNL     1       2.101  -1.704 -17.166  1.00  0.00     0.031 C 
ATOM     48  C   UNL     1      -3.521   1.827 -15.279  1.00  0.00     0.029 A 
ATOM     49  C   UNL     1      -2.618   2.523 -16.192  1.00  0.00     0.049 A 
ATOM     50  H   UNL     1      -0.873   1.783 -17.053  1.00  0.00     0.167 HD
ATOM     51  C   UNL     1       2.905   0.144 -18.604  1.00  0.00     0.037 A 
ATOM     52  C   UNL     1      -2.769   3.782 -16.644  1.00  0.00     0.037 A 
ATOM     53  C   UNL     1       2.793   1.455 -19.185  1.00  0.00     0.049 A 
ATOM     54  C   UNL     1      -1.736   4.356 -17.578  1.00  0.00     0.074 A 
ATOM     55  C   UNL     1       3.632   2.069 -20.097  1.00  0.00     0.029 A 
ATOM     56  N   UNL     1       1.772   2.353 -18.910  1.00  0.00    -0.354 N 
ATOM     57  N   UNL     1      -0.647   3.799 -18.051  1.00  0.00    -0.248 NA
ATOM     58  C   UNL     1      -1.955   5.733 -18.040  1.00  0.00     0.031 C 
ATOM     59  C   UNL     1       3.140   3.355 -20.343  1.00  0.00     0.029 A 
ATOM     60  C   UNL     1       1.969   3.525 -19.622  1.00  0.00     0.049 A 
ATOM     61  H   UNL     1       1.018   2.183 -18.300  1.00  0.00     0.167 HD
ATOM     62  C   UNL     1      -0.059   4.748 -18.877  1.00  0.00     0.074 A 
ATOM     63  C   UNL     1      -0.928   5.908 -18.860  1.00  0.00     0.031 C 
ATOM     64  C   UNL     1       1.097   4.671 -19.582  1.00  0.00     0.037 A 
BRANCH  51  65
ATOM     65  C   UNL     1       4.084  -0.706 -18.973  1.00  0.00     0.064 A 
ATOM     66  C   UNL     1       3.941  -1.845 -19.780  1.00  0.00     0.173 A 
ATOM     67  C   UNL     1       5.373  -0.366 -18.539  1.00  0.00     0.173 A 
ATOM     68  F   UNL     1       2.726  -2.223 -20.206  1.00  0.00    -0.203 F 
ATOM     69  C   UNL     1       5.043  -2.625 -20.120  1.00  0.00     0.198 A 
ATOM     70  C   UNL     1       6.477  -1.131 -18.906  1.00  0.00     0.198 A 
ATOM     71  F   UNL     1       5.564   0.712 -17.764  1.00  0.00    -0.203 F 
ATOM     72  F   UNL     1       4.876  -3.734 -20.854  1.00  0.00    -0.200 F 
ATOM     73  C   UNL     1       6.311  -2.263 -19.690  1.00  0.00     0.200 A 
ATOM     74  F   UNL     1       7.703  -0.775 -18.498  1.00  0.00    -0.200 F 
ATOM     75  F   UNL     1       7.372  -3.009 -20.027  1.00  0.00    -0.200 F 
ENDBRANCH  51  65
BRANCH  52  76
ATOM     76  C   UNL     1      -3.957   4.578 -16.238  1.00  0.00     0.064 A 
ATOM     77  C   UNL     1      -4.966   4.880 -17.164  1.00  0.00     0.173 A 
ATOM     78  C   UNL     1      -4.114   5.047 -14.926  1.00  0.00     0.173 A 
ATOM     79  F   UNL     1      -4.849   4.474 -18.437  1.00  0.00    -0.203 F 
ATOM     80  C   UNL     1      -6.080   5.631 -16.796  1.00  0.00     0.198 A 
ATOM     81  C   UNL     1      -5.242   5.776 -14.553  1.00  0.00     0.198 A 
ATOM     82  F   UNL     1      -3.178   4.784 -14.002  1.00  0.00    -0.203 F 
ATOM     83  F   UNL     1      -7.011   5.936 -17.710  1.00  0.00    -0.200 F 
ATOM     84  C   UNL     1      -6.221   6.072 -15.489  1.00  0.00     0.200 A 
ATOM     85  F   UNL     1      -5.380   6.190 -13.286  1.00  0.00    -0.200 F 
ATOM     86  F   UNL     1      -7.297   6.787 -15.133  1.00  0.00    -0.200 F 
ENDBRANCH  52  76
BRANCH  64  87
ATOM     87  C   UNL     1       1.485   5.870 -20.397  1.00  0.00     0.064 A 
ATOM     88  C   UNL     1       1.931   7.054 -19.791  1.00  0.00     0.173 A 
ATOM     89  C   UNL     1       1.452   5.822 -21.799  1.00  0.00     0.173 A 
ATOM     90  F   UNL     1       1.968   7.155 -18.454  1.00  0.00    -0.203 F 
ATOM     91  C   UNL     1       2.304   8.154 -20.558  1.00  0.00     0.198 A 
ATOM     92  C   UNL     1       1.856   6.912 -22.564  1.00  0.00     0.198 A 
ATOM     93  F   UNL     1       1.042   4.710 -22.428  1.00  0.00    -0.203 F 
ATOM     94  F   UNL     1       2.680   9.291 -19.957  1.00  0.00    -0.200 F 
ATOM     95  C   UNL     1       2.274   8.080 -21.943  1.00  0.00     0.200 A 
ATOM     96  F   UNL     1       1.841   6.833 -23.901  1.00  0.00    -0.200 F 
ATOM     97  F   UNL     1       2.640   9.137 -22.680  1.00  0.00    -0.200 F 
ENDBRANCH  64  87
ENDBRANCH  38  39
ENDBRANCH  30  33
ENDBRANCH  28  29
ENDBRANCH  27  28
ENDBRANCH  26  27
ENDBRANCH  25  26
ENDBRANCH   1  25
TORSDOF 18
