REMARK SMILES Cc1ccccc1O[C@@H](C)C(=O)Oc1ccccc1C(=O)NCCCCCCNC(=O)c1ccc(-c2c3nc(c(-c4c(F)c(F)c(F)c(F)c4F)c4ccc([nH]4)c(-c4c(F)c(F)c(F)c(F)c4F)c4nc(c(-c5c(F)c(F)c(F)c(F)c5F)c5ccc2[nH]5)C=C4)C=C3)cc1
REMARK SMILES IDX 24 1 23 2 22 3 20 4 21 5 19 7 14 8 15 9 16 10 18 11 17 12
REMARK SMILES IDX 13 13 11 14 12 15 9 16 10 17 8 18 7 19 1 20 2 21 3 22 4 23
REMARK SMILES IDX 6 24 5 25 25 26 26 27 27 28 28 29 29 30 30 31 31 33 32 34
REMARK SMILES IDX 33 35 94 36 34 37 93 38 35 39 36 40 37 41 87 42 38 43 92 44
REMARK SMILES IDX 86 45 88 46 39 47 91 48 85 49 84 50 40 52 72 53 52 54 71 55
REMARK SMILES IDX 53 56 56 57 70 58 89 59 54 60 55 61 69 63 90 64 57 65 41 66
REMARK SMILES IDX 42 67 50 68 43 69 44 70 48 71 51 72 45 73 46 74 49 75 47 76
REMARK SMILES IDX 73 77 74 78 82 79 75 80 76 81 80 82 83 83 77 84 78 85 81 86
REMARK SMILES IDX 79 87 58 88 59 89 67 90 60 91 61 92 65 93 68 94 62 95 63 96
REMARK SMILES IDX 66 97 64 98
REMARK H PARENT 22 6 29 32 88 51 56 62
REMARK Flexibility Score: inf
ROOT
ATOM      1  C   UNL     1       8.086   1.454  -4.652  1.00  0.00     0.021 C 
ENDROOT
BRANCH   1   2
ATOM      2  C   UNL     1       7.220   0.375  -4.002  1.00  0.00     0.116 C 
BRANCH   2   3
ATOM      3  N   UNL     1       6.641   0.702  -2.713  1.00  0.00    -0.352 N 
ATOM      4  C   UNL     1       5.444   0.297  -2.152  1.00  0.00     0.255 C 
ATOM      5  O   UNL     1       5.243   0.507  -0.958  1.00  0.00    -0.269 OA
ATOM      6  H   UNL     1       7.183   1.304  -2.153  1.00  0.00     0.163 HD
BRANCH   4   7
ATOM      7  C   UNL     1       4.399  -0.396  -2.954  1.00  0.00     0.082 A 
ATOM      8  C   UNL     1       3.036  -0.071  -2.863  1.00  0.00     0.143 A 
ATOM      9  C   UNL     1       2.071  -0.774  -3.599  1.00  0.00     0.048 A 
ATOM     10  C   UNL     1       2.452  -1.827  -4.423  1.00  0.00     0.004 A 
ATOM     11  C   UNL     1       4.750  -1.509  -3.736  1.00  0.00     0.018 A 
ATOM     12  C   UNL     1       3.789  -2.207  -4.478  1.00  0.00     0.001 A 
BRANCH   8  13
ATOM     13  O   UNL     1       2.458   0.769  -1.880  1.00  0.00    -0.423 OA
BRANCH  13  14
ATOM     14  C   UNL     1       2.891   2.031  -1.514  1.00  0.00     0.352 C 
ATOM     15  O   UNL     1       3.667   2.721  -2.168  1.00  0.00    -0.247 OA
BRANCH  14  16
ATOM     16  C   UNL     1       2.237   2.462  -0.172  1.00  0.00     0.280 C 
ATOM     17  C   UNL     1       3.233   2.481   0.991  1.00  0.00     0.066 C 
BRANCH  16  18
ATOM     18  O   UNL     1       0.968   2.083   0.332  1.00  0.00    -0.479 OA
BRANCH  18  19
ATOM     19  C   UNL     1       0.359   0.879   0.169  1.00  0.00     0.123 A 
ATOM     20  C   UNL     1       2.300  -0.786   0.620  1.00  0.00     0.048 C 
ATOM     21  C   UNL     1       0.885  -0.417   0.276  1.00  0.00    -0.009 A 
ATOM     22  C   UNL     1      -0.002  -1.515   0.157  1.00  0.00     0.007 A 
ATOM     23  C   UNL     1      -1.370  -1.343  -0.038  1.00  0.00     0.001 A 
ATOM     24  C   UNL     1      -1.030   1.032  -0.011  1.00  0.00     0.047 A 
ATOM     25  C   UNL     1      -1.889  -0.061  -0.116  1.00  0.00     0.004 A 
ENDBRANCH  18  19
ENDBRANCH  16  18
ENDBRANCH  14  16
ENDBRANCH  13  14
ENDBRANCH   8  13
ENDBRANCH   4   7
ENDBRANCH   2   3
ENDBRANCH   1   2
BRANCH   1  26
ATOM     26  C   UNL     1       9.249   2.067  -3.865  1.00  0.00     0.002 C 
BRANCH  26  27
ATOM     27  C   UNL     1      10.219   1.149  -3.109  1.00  0.00     0.002 C 
BRANCH  27  28
ATOM     28  C   UNL     1      10.773  -0.076  -3.837  1.00  0.00     0.021 C 
BRANCH  28  29
ATOM     29  C   UNL     1      11.596   0.214  -5.085  1.00  0.00     0.116 C 
BRANCH  29  30
ATOM     30  N   UNL     1      13.042   0.105  -4.917  1.00  0.00    -0.352 N 
ATOM     31  C   UNL     1      14.043   0.338  -5.854  1.00  0.00     0.251 C 
ATOM     32  H   UNL     1      13.348  -0.170  -4.022  1.00  0.00     0.163 HD
ATOM     33  O   UNL     1      15.215   0.188  -5.577  1.00  0.00    -0.269 OA
BRANCH  31  34
ATOM     34  C   UNL     1      13.649   0.901  -7.170  1.00  0.00     0.039 A 
ATOM     35  C   UNL     1      14.239   2.105  -7.567  1.00  0.00     0.014 A 
ATOM     36  C   UNL     1      12.544   0.398  -7.847  1.00  0.00     0.014 A 
ATOM     37  C   UNL     1      13.558   2.932  -8.457  1.00  0.00     0.010 A 
ATOM     38  C   UNL     1      11.816   1.255  -8.647  1.00  0.00     0.010 A 
ATOM     39  C   UNL     1      12.290   2.547  -8.894  1.00  0.00    -0.014 A 
BRANCH  39  40
ATOM     40  C   UNL     1      11.364   3.462  -9.549  1.00  0.00     0.031 A 
ATOM     41  C   UNL     1      11.177   3.402 -11.011  1.00  0.00     0.074 A 
ATOM     42  C   UNL     1      10.626   4.324  -8.815  1.00  0.00     0.049 A 
ATOM     43  N   UNL     1      10.835   4.410 -11.742  1.00  0.00    -0.248 NA
ATOM     44  C   UNL     1      11.388   2.180 -11.775  1.00  0.00     0.031 C 
ATOM     45  C   UNL     1       9.501   5.133  -9.280  1.00  0.00     0.029 A 
ATOM     46  N   UNL     1      10.873   4.789  -7.513  1.00  0.00    -0.354 N 
ATOM     47  C   UNL     1      10.506   3.927 -12.986  1.00  0.00     0.074 A 
ATOM     48  C   UNL     1      10.932   2.545 -12.977  1.00  0.00     0.031 C 
ATOM     49  C   UNL     1       9.348   6.177  -8.452  1.00  0.00     0.029 A 
ATOM     50  C   UNL     1      10.439   6.137  -7.498  1.00  0.00     0.049 A 
ATOM     51  H   UNL     1      11.267   4.283  -6.766  1.00  0.00     0.167 HD
ATOM     52  C   UNL     1       9.773   4.702 -13.838  1.00  0.00     0.037 A 
ATOM     53  C   UNL     1      11.302   7.163  -7.245  1.00  0.00     0.037 A 
ATOM     54  C   UNL     1       9.502   6.018 -13.265  1.00  0.00     0.049 A 
ATOM     55  C   UNL     1      11.432   8.147  -8.380  1.00  0.00     0.074 A 
ATOM     56  C   UNL     1       8.401   6.534 -12.600  1.00  0.00     0.029 A 
ATOM     57  N   UNL     1      10.550   6.904 -13.030  1.00  0.00    -0.354 N 
ATOM     58  N   UNL     1      11.026   7.904  -9.596  1.00  0.00    -0.248 NA
ATOM     59  C   UNL     1      12.057   9.460  -8.252  1.00  0.00     0.031 C 
ATOM     60  C   UNL     1       8.804   7.707 -11.918  1.00  0.00     0.029 A 
ATOM     61  C   UNL     1      10.147   7.916 -12.177  1.00  0.00     0.049 A 
ATOM     62  H   UNL     1      11.452   6.823 -13.417  1.00  0.00     0.167 HD
ATOM     63  C   UNL     1      11.340   8.965 -10.403  1.00  0.00     0.074 A 
ATOM     64  C   UNL     1      11.963   9.925  -9.511  1.00  0.00     0.031 C 
ATOM     65  C   UNL     1      11.066   8.956 -11.741  1.00  0.00     0.037 A 
BRANCH  52  66
ATOM     66  C   UNL     1       9.033   4.121 -15.024  1.00  0.00     0.064 A 
ATOM     67  C   UNL     1       7.756   4.594 -15.395  1.00  0.00     0.173 A 
ATOM     68  C   UNL     1       9.505   3.038 -15.788  1.00  0.00     0.173 A 
ATOM     69  F   UNL     1       7.229   5.696 -14.849  1.00  0.00    -0.203 F 
ATOM     70  C   UNL     1       6.962   3.943 -16.343  1.00  0.00     0.198 A 
ATOM     71  C   UNL     1       8.690   2.350 -16.693  1.00  0.00     0.198 A 
ATOM     72  F   UNL     1      10.782   2.639 -15.703  1.00  0.00    -0.203 F 
ATOM     73  F   UNL     1       5.748   4.429 -16.639  1.00  0.00    -0.200 F 
ATOM     74  C   UNL     1       7.410   2.793 -16.958  1.00  0.00     0.200 A 
ATOM     75  F   UNL     1       9.153   1.247 -17.300  1.00  0.00    -0.200 F 
ATOM     76  F   UNL     1       6.625   2.132 -17.819  1.00  0.00    -0.200 F 
ENDBRANCH  52  66
BRANCH  53  77
ATOM     77  C   UNL     1      12.371   6.777  -6.290  1.00  0.00     0.064 A 
ATOM     78  C   UNL     1      11.966   6.444  -4.983  1.00  0.00     0.173 A 
ATOM     79  C   UNL     1      13.602   6.285  -6.736  1.00  0.00     0.173 A 
ATOM     80  F   UNL     1      10.802   6.913  -4.504  1.00  0.00    -0.203 F 
ATOM     81  C   UNL     1      12.667   5.508  -4.229  1.00  0.00     0.198 A 
ATOM     82  C   UNL     1      14.320   5.373  -5.961  1.00  0.00     0.198 A 
ATOM     83  F   UNL     1      14.041   6.574  -7.970  1.00  0.00    -0.203 F 
ATOM     84  F   UNL     1      12.170   5.086  -3.058  1.00  0.00    -0.200 F 
ATOM     85  C   UNL     1      13.824   4.943  -4.737  1.00  0.00     0.200 A 
ATOM     86  F   UNL     1      15.449   4.834  -6.444  1.00  0.00    -0.200 F 
ATOM     87  F   UNL     1      14.434   3.954  -4.070  1.00  0.00    -0.200 F 
ENDBRANCH  53  77
BRANCH  65  88
ATOM     88  C   UNL     1      11.533   9.988 -12.735  1.00  0.00     0.064 A 
ATOM     89  C   UNL     1      12.740  10.696 -12.616  1.00  0.00     0.173 A 
ATOM     90  C   UNL     1      10.810  10.209 -13.931  1.00  0.00     0.173 A 
ATOM     91  F   UNL     1      13.577  10.476 -11.593  1.00  0.00    -0.203 F 
ATOM     92  C   UNL     1      13.152  11.620 -13.579  1.00  0.00     0.198 A 
ATOM     93  C   UNL     1      11.252  11.089 -14.918  1.00  0.00     0.198 A 
ATOM     94  F   UNL     1       9.664   9.560 -14.186  1.00  0.00    -0.203 F 
ATOM     95  F   UNL     1      14.286  12.310 -13.394  1.00  0.00    -0.200 F 
ATOM     96  C   UNL     1      12.412  11.812 -14.732  1.00  0.00     0.200 A 
ATOM     97  F   UNL     1      10.554  11.221 -16.054  1.00  0.00    -0.200 F 
ATOM     98  F   UNL     1      12.829  12.673 -15.670  1.00  0.00    -0.200 F 
ENDBRANCH  65  88
ENDBRANCH  39  40
ENDBRANCH  31  34
ENDBRANCH  29  30
ENDBRANCH  28  29
ENDBRANCH  27  28
ENDBRANCH  26  27
ENDBRANCH   1  26
TORSDOF 18
