REMARK SMILES N#CCC[NH+]1CCN(c2cc(C(=O)NCCCCCCNC(=O)c3ccc(-c4c5nc(c(-c6c(F)c(F)c(F)c(F)c6F)c6ccc([nH]6)c(-c6c(F)c(F)c(F)c(F)c6F)c6nc(c(-c7c(F)c(F)c(F)c(F)c7F)c7ccc4[nH]7)C=C6)C=C5)cc3)c3cc(NS(=O)(=O)c4ccccc4Cl)ccc3n2)CC1
REMARK SMILES IDX 16 1 15 2 14 3 12 4 13 5 11 7 9 8 10 9 104 10 103 11 87 12
REMARK SMILES IDX 102 13 88 14 101 15 89 16 8 17 5 18 6 19 106 20 7 22 105 23
REMARK SMILES IDX 4 24 3 25 2 26 1 27 90 28 91 30 92 31 93 32 94 33 95 34
REMARK SMILES IDX 99 35 96 36 98 37 100 38 97 39 17 40 18 41 19 42 20 43 21 44
REMARK SMILES IDX 22 45 23 47 24 48 25 49 86 50 26 51 85 52 27 53 28 54 29 55
REMARK SMILES IDX 79 56 30 57 84 58 78 59 80 60 31 61 83 62 77 63 76 64 32 66
REMARK SMILES IDX 64 67 44 68 63 69 45 70 48 71 62 72 81 73 46 74 47 75 61 77
REMARK SMILES IDX 82 78 49 79 33 80 34 81 42 82 35 83 36 84 40 85 43 86 37 87
REMARK SMILES IDX 38 88 41 89 39 90 65 91 66 92 74 93 67 94 68 95 72 96 75 97
REMARK SMILES IDX 69 98 70 99 73 100 71 101 50 102 51 103 59 104 52 105 53 106
REMARK SMILES IDX 57 107 60 108 54 109 55 110 58 111 56 112
REMARK H PARENT 14 6 5 21 90 29 21 46 80 65 48 76
REMARK Flexibility Score: inf
ROOT
ATOM      1  C   UNL     1      -3.782   5.653   2.200  1.00  0.00     0.021 C 
ENDROOT
BRANCH   1   2
ATOM      2  C   UNL     1      -2.429   4.926   2.528  1.00  0.00     0.116 C 
BRANCH   2   3
ATOM      3  N   UNL     1      -2.020   3.820   1.697  1.00  0.00    -0.352 N 
ATOM      4  C   UNL     1      -0.687   3.517   1.499  1.00  0.00     0.252 C 
ATOM      5  O   UNL     1      -0.276   2.460   1.979  1.00  0.00    -0.269 OA
ATOM      6  H   UNL     1      -2.708   3.268   1.260  1.00  0.00     0.163 HD
BRANCH   4   7
ATOM      7  C   UNL     1       0.225   4.362   0.667  1.00  0.00     0.052 A 
ATOM      8  C   UNL     1       2.167   4.277  -0.741  1.00  0.00     0.130 A 
ATOM      9  C   UNL     1       1.356   3.695   0.221  1.00  0.00     0.061 A 
ATOM     10  N   UNL     1       2.106   5.598  -0.995  1.00  0.00    -0.231 NA
ATOM     11  C   UNL     1       1.147   6.326  -0.382  1.00  0.00     0.074 A 
ATOM     12  C   UNL     1       0.112   5.722   0.337  1.00  0.00     0.015 A 
ATOM     13  C   UNL     1       1.128   7.720  -0.422  1.00  0.00     0.031 A 
ATOM     14  C   UNL     1      -0.921   6.562   0.741  1.00  0.00     0.038 A 
ATOM     15  C   UNL     1       0.305   8.444   0.475  1.00  0.00     0.029 A 
ATOM     16  C   UNL     1      -0.603   7.779   1.300  1.00  0.00     0.050 A 
BRANCH   8  17
ATOM     17  N   UNL     1       2.890   3.441  -1.593  1.00  0.00    -0.345 N 
ATOM     18  N   UNL     1       4.149   0.938  -2.447  1.00  0.00    -0.331 N 
ATOM     19  C   UNL     1       2.810   1.272  -2.940  1.00  0.00     0.284 C 
ATOM     20  C   UNL     1       4.922   2.161  -2.206  1.00  0.00     0.284 C 
ATOM     21  H   UNL     1       4.618   0.444  -3.207  1.00  0.00     0.348 HD
ATOM     22  C   UNL     1       2.052   2.415  -2.240  1.00  0.00     0.179 C 
ATOM     23  C   UNL     1       4.278   3.175  -1.240  1.00  0.00     0.179 C 
BRANCH  18  24
ATOM     24  C   UNL     1       4.266  -0.145  -1.465  1.00  0.00     0.277 C 
BRANCH  24  25
ATOM     25  C   UNL     1       3.702  -0.051  -0.035  1.00  0.00     0.181 C 
BRANCH  25  26
ATOM     26  C   UNL     1       2.182  -0.051  -0.035  1.00  0.00     0.068 C 
ATOM     27  N   UNL     1       0.921  -0.051  -0.035  1.00  0.00    -0.198 NA
ENDBRANCH  25  26
ENDBRANCH  24  25
ENDBRANCH  18  24
ENDBRANCH   8  17
BRANCH  16  28
ATOM     28  N   UNL     1      -0.217   7.712   2.779  1.00  0.00    -0.280 N 
ATOM     29  H   UNL     1       0.718   7.522   3.024  1.00  0.00     0.180 HD
BRANCH  28  30
ATOM     30  S   UNL     1      -1.399   7.965   4.047  1.00  0.00     0.263 S 
ATOM     31  O   UNL     1      -1.003   9.182   4.656  1.00  0.00    -0.201 OA
ATOM     32  O   UNL     1      -2.695   7.908   3.360  1.00  0.00    -0.201 OA
BRANCH  30  33
ATOM     33  C   UNL     1      -1.424   6.630   5.371  1.00  0.00     0.106 A 
ATOM     34  C   UNL     1      -2.331   5.562   5.317  1.00  0.00     0.024 A 
ATOM     35  C   UNL     1      -0.844   6.737   6.629  1.00  0.00     0.061 A 
ATOM     36  C   UNL     1      -2.482   4.494   6.227  1.00  0.00     0.002 A 
ATOM     37  C   UNL     1      -1.029   5.708   7.619  1.00  0.00     0.022 A 
ATOM     38  Cl  UNL     1       0.038   8.106   7.170  1.00  0.00    -0.083 Cl
ATOM     39  C   UNL     1      -1.792   4.559   7.402  1.00  0.00     0.002 A 
ENDBRANCH  30  33
ENDBRANCH  28  30
ENDBRANCH  16  28
ENDBRANCH   4   7
ENDBRANCH   2   3
ENDBRANCH   1   2
BRANCH   1  40
ATOM     40  C   UNL     1      -5.005   5.979   3.165  1.00  0.00     0.002 C 
BRANCH  40  41
ATOM     41  C   UNL     1      -5.164   6.705   4.562  1.00  0.00     0.002 C 
BRANCH  41  42
ATOM     42  C   UNL     1      -5.199   8.226   4.777  1.00  0.00     0.021 C 
BRANCH  42  43
ATOM     43  C   UNL     1      -6.386   8.906   4.141  1.00  0.00     0.116 C 
BRANCH  43  44
ATOM     44  N   UNL     1      -7.498   8.989   5.083  1.00  0.00    -0.352 N 
ATOM     45  C   UNL     1      -8.161  10.124   5.487  1.00  0.00     0.251 C 
ATOM     46  H   UNL     1      -7.807   8.139   5.472  1.00  0.00     0.163 HD
ATOM     47  O   UNL     1      -8.866  10.128   6.489  1.00  0.00    -0.269 OA
BRANCH  45  48
ATOM     48  C   UNL     1      -8.000  11.349   4.677  1.00  0.00     0.039 A 
ATOM     49  C   UNL     1      -7.811  12.584   5.298  1.00  0.00     0.014 A 
ATOM     50  C   UNL     1      -8.001  11.247   3.283  1.00  0.00     0.014 A 
ATOM     51  C   UNL     1      -7.606  13.718   4.510  1.00  0.00     0.010 A 
ATOM     52  C   UNL     1      -7.668  12.346   2.511  1.00  0.00     0.010 A 
ATOM     53  C   UNL     1      -7.526  13.602   3.112  1.00  0.00    -0.014 A 
BRANCH  53  54
ATOM     54  C   UNL     1      -7.414  14.793   2.237  1.00  0.00     0.031 A 
ATOM     55  C   UNL     1      -8.525  15.085   1.261  1.00  0.00     0.074 A 
ATOM     56  C   UNL     1      -6.315  15.567   2.282  1.00  0.00     0.049 A 
ATOM     57  N   UNL     1      -8.609  16.024   0.355  1.00  0.00    -0.248 NA
ATOM     58  C   UNL     1      -9.678  14.167   1.273  1.00  0.00     0.031 C 
ATOM     59  C   UNL     1      -5.153  15.341   3.143  1.00  0.00     0.029 A 
ATOM     60  N   UNL     1      -5.996  16.702   1.582  1.00  0.00    -0.354 N 
ATOM     61  C   UNL     1      -9.801  15.788  -0.319  1.00  0.00     0.074 A 
ATOM     62  C   UNL     1     -10.367  14.575   0.220  1.00  0.00     0.031 C 
ATOM     63  C   UNL     1      -4.264  16.329   2.947  1.00  0.00     0.029 A 
ATOM     64  C   UNL     1      -4.778  17.235   1.924  1.00  0.00     0.049 A 
ATOM     65  H   UNL     1      -6.585  17.096   0.899  1.00  0.00     0.167 HD
ATOM     66  C   UNL     1     -10.396  16.541  -1.273  1.00  0.00     0.037 A 
ATOM     67  C   UNL     1      -4.155  18.335   1.460  1.00  0.00     0.037 A 
ATOM     68  C   UNL     1      -9.850  17.777  -1.761  1.00  0.00     0.049 A 
ATOM     69  C   UNL     1      -4.847  19.170   0.415  1.00  0.00     0.074 A 
ATOM     70  C   UNL     1     -10.396  18.663  -2.671  1.00  0.00     0.029 A 
ATOM     71  N   UNL     1      -8.628  18.304  -1.366  1.00  0.00    -0.354 N 
ATOM     72  N   UNL     1      -6.011  18.981  -0.161  1.00  0.00    -0.248 NA
ATOM     73  C   UNL     1      -4.144  20.378  -0.037  1.00  0.00     0.031 C 
ATOM     74  C   UNL     1      -9.481  19.702  -2.865  1.00  0.00     0.029 A 
ATOM     75  C   UNL     1      -8.392  19.494  -2.032  1.00  0.00     0.049 A 
ATOM     76  H   UNL     1      -8.020  17.892  -0.711  1.00  0.00     0.167 HD
ATOM     77  C   UNL     1      -6.192  20.056  -1.020  1.00  0.00     0.074 A 
ATOM     78  C   UNL     1      -5.026  20.904  -0.875  1.00  0.00     0.031 C 
ATOM     79  C   UNL     1      -7.226  20.321  -1.858  1.00  0.00     0.037 A 
BRANCH  66  80
ATOM     80  C   UNL     1     -11.702  16.055  -1.832  1.00  0.00     0.064 A 
ATOM     81  C   UNL     1     -12.870  16.010  -1.054  1.00  0.00     0.173 A 
ATOM     82  C   UNL     1     -11.793  15.643  -3.170  1.00  0.00     0.173 A 
ATOM     83  F   UNL     1     -12.836  16.377   0.237  1.00  0.00    -0.203 F 
ATOM     84  C   UNL     1     -14.069  15.539  -1.582  1.00  0.00     0.198 A 
ATOM     85  C   UNL     1     -13.003  15.206  -3.706  1.00  0.00     0.198 A 
ATOM     86  F   UNL     1     -10.710  15.665  -3.961  1.00  0.00    -0.203 F 
ATOM     87  F   UNL     1     -15.154  15.449  -0.801  1.00  0.00    -0.200 F 
ATOM     88  C   UNL     1     -14.136  15.145  -2.910  1.00  0.00     0.200 A 
ATOM     89  F   UNL     1     -13.069  14.838  -4.993  1.00  0.00    -0.200 F 
ATOM     90  F   UNL     1     -15.292  14.699  -3.420  1.00  0.00    -0.200 F 
ENDBRANCH  66  80
BRANCH  67  91
ATOM     91  C   UNL     1      -2.829  18.727   2.005  1.00  0.00     0.064 A 
ATOM     92  C   UNL     1      -2.682  19.882   2.786  1.00  0.00     0.173 A 
ATOM     93  C   UNL     1      -1.680  17.962   1.754  1.00  0.00     0.173 A 
ATOM     94  F   UNL     1      -3.747  20.658   3.040  1.00  0.00    -0.203 F 
ATOM     95  C   UNL     1      -1.436  20.271   3.273  1.00  0.00     0.198 A 
ATOM     96  C   UNL     1      -0.439  18.335   2.267  1.00  0.00     0.198 A 
ATOM     97  F   UNL     1      -1.764  16.845   1.018  1.00  0.00    -0.203 F 
ATOM     98  F   UNL     1      -1.317  21.408   3.973  1.00  0.00    -0.200 F 
ATOM     99  C   UNL     1      -0.316  19.495   3.018  1.00  0.00     0.200 A 
ATOM    100  F   UNL     1       0.638  17.574   2.031  1.00  0.00    -0.200 F 
ATOM    101  F   UNL     1       0.882  19.868   3.487  1.00  0.00    -0.200 F 
ENDBRANCH  67  91
BRANCH  79 102
ATOM    102  C   UNL     1      -7.158  21.592  -2.652  1.00  0.00     0.064 A 
ATOM    103  C   UNL     1      -6.257  21.748  -3.715  1.00  0.00     0.173 A 
ATOM    104  C   UNL     1      -8.043  22.646  -2.377  1.00  0.00     0.173 A 
ATOM    105  F   UNL     1      -5.383  20.773  -4.009  1.00  0.00    -0.203 F 
ATOM    106  C   UNL     1      -6.225  22.926  -4.456  1.00  0.00     0.198 A 
ATOM    107  C   UNL     1      -8.032  23.807  -3.143  1.00  0.00     0.198 A 
ATOM    108  F   UNL     1      -8.932  22.540  -1.378  1.00  0.00    -0.203 F 
ATOM    109  F   UNL     1      -5.322  23.074  -5.435  1.00  0.00    -0.200 F 
ATOM    110  C   UNL     1      -7.117  23.950  -4.175  1.00  0.00     0.200 A 
ATOM    111  F   UNL     1      -8.907  24.788  -2.882  1.00  0.00    -0.200 F 
ATOM    112  F   UNL     1      -7.092  25.078  -4.897  1.00  0.00    -0.200 F 
ENDBRANCH  79 102
ENDBRANCH  53  54
ENDBRANCH  45  48
ENDBRANCH  43  44
ENDBRANCH  42  43
ENDBRANCH  41  42
ENDBRANCH  40  41
ENDBRANCH   1  40
TORSDOF 20
