REMARK SMILES CC(=O)NCCc1c[nH]c2ccc(C(=O)NCCCCCCNC(=O)c3ccc(-c4c5nc(c(-c6c(F)c(F)c(F)c(F)c6F)c6ccc([nH]6)c(-c6c(F)c(F)c(F)c(F)c6F)c6nc(c(-c7c(F)c(F)c(F)c(F)c7F)c7ccc4[nH]7)C=C6)C=C5)cc3)cc12
REMARK SMILES IDX 19 1 18 2 17 3 16 4 14 5 15 6 13 8 7 9 8 10 90 11 9 12 10 13
REMARK SMILES IDX 89 14 11 16 12 17 6 18 5 19 4 20 1 21 2 22 3 23 20 25 21 26
REMARK SMILES IDX 22 27 23 28 24 29 25 31 26 32 27 33 88 34 28 35 87 36 29 37
REMARK SMILES IDX 30 38 31 39 81 40 32 41 86 42 80 43 82 44 33 45 85 46 79 47
REMARK SMILES IDX 78 48 34 50 66 51 46 52 65 53 47 54 50 55 64 56 83 57 48 58
REMARK SMILES IDX 49 59 63 61 84 62 51 63 35 64 36 65 44 66 37 67 38 68 42 69
REMARK SMILES IDX 45 70 39 71 40 72 43 73 41 74 67 75 68 76 76 77 69 78 70 79
REMARK SMILES IDX 74 80 77 81 71 82 72 83 75 84 73 85 52 86 53 87 61 88 54 89
REMARK SMILES IDX 55 90 59 91 62 92 56 93 57 94 60 95 58 96
REMARK H PARENT 16 7 9 15 4 24 23 30 82 49 50 60
REMARK Flexibility Score: inf
ROOT
ATOM      1  C   UNL     1       3.165   6.596   8.423  1.00  0.00     0.002 C 
ENDROOT
BRANCH   1   2
ATOM      2  C   UNL     1       2.856   5.096   8.551  1.00  0.00     0.021 C 
BRANCH   2   3
ATOM      3  C   UNL     1       1.807   4.606   7.549  1.00  0.00     0.116 C 
BRANCH   3   4
ATOM      4  N   UNL     1       2.413   4.450   6.244  1.00  0.00    -0.352 N 
ATOM      5  C   UNL     1       2.869   3.368   5.541  1.00  0.00     0.251 C 
ATOM      6  O   UNL     1       3.406   3.601   4.456  1.00  0.00    -0.269 OA
ATOM      7  H   UNL     1       2.518   5.301   5.760  1.00  0.00     0.163 HD
BRANCH   5   8
ATOM      8  C   UNL     1       2.715   1.950   5.978  1.00  0.00     0.040 A 
ATOM      9  C   UNL     1       2.625  -1.570   4.445  1.00  0.00    -0.021 A 
ATOM     10  C   UNL     1       2.402  -2.627   5.307  1.00  0.00     0.087 A 
ATOM     11  C   UNL     1       2.592  -0.380   5.238  1.00  0.00     0.003 A 
ATOM     12  N   UNL     1       2.261  -2.127   6.575  1.00  0.00    -0.361 N 
ATOM     13  C   UNL     1       2.412  -0.760   6.565  1.00  0.00     0.046 A 
ATOM     14  C   UNL     1       2.721   0.992   4.946  1.00  0.00     0.024 A 
ATOM     15  H   UNL     1       2.078  -2.668   7.377  1.00  0.00     0.166 HD
ATOM     16  C   UNL     1       2.425   0.160   7.618  1.00  0.00     0.027 A 
ATOM     17  C   UNL     1       2.620   1.514   7.301  1.00  0.00     0.016 A 
BRANCH   9  18
ATOM     18  C   UNL     1       2.886  -1.653   2.971  1.00  0.00     0.059 C 
BRANCH  18  19
ATOM     19  C   UNL     1       1.611  -1.728   2.130  1.00  0.00     0.120 C 
BRANCH  19  20
ATOM     20  N   UNL     1       0.808  -0.518   2.223  1.00  0.00    -0.356 N 
ATOM     21  C   UNL     1       1.013   0.138  -0.141  1.00  0.00     0.114 C 
ATOM     22  C   UNL     1       0.483   0.374   1.246  1.00  0.00     0.216 C 
ATOM     23  O   UNL     1      -0.236   1.335   1.512  1.00  0.00    -0.275 OA
ATOM     24  H   UNL     1       0.451  -0.314   3.117  1.00  0.00     0.163 HD
ENDBRANCH  19  20
ENDBRANCH  18  19
ENDBRANCH   9  18
ENDBRANCH   5   8
ENDBRANCH   3   4
ENDBRANCH   2   3
ENDBRANCH   1   2
BRANCH   1  25
ATOM     25  C   UNL     1       1.986   7.529   8.728  1.00  0.00     0.002 C 
BRANCH  25  26
ATOM     26  C   UNL     1       1.308   7.299  10.083  1.00  0.00     0.021 C 
BRANCH  26  27
ATOM     27  C   UNL     1       2.228   7.469  11.289  1.00  0.00     0.116 C 
BRANCH  27  28
ATOM     28  N   UNL     1       2.694   8.838  11.424  1.00  0.00    -0.352 N 
ATOM     29  C   UNL     1       2.660   9.669  12.513  1.00  0.00     0.251 C 
ATOM     30  H   UNL     1       3.093   9.226  10.612  1.00  0.00     0.163 HD
ATOM     31  O   UNL     1       2.909  10.863  12.379  1.00  0.00    -0.269 OA
BRANCH  29  32
ATOM     32  C   UNL     1       2.323   9.140  13.853  1.00  0.00     0.039 A 
ATOM     33  C   UNL     1       1.510   9.910  14.689  1.00  0.00     0.014 A 
ATOM     34  C   UNL     1       2.854   7.931  14.313  1.00  0.00     0.014 A 
ATOM     35  C   UNL     1       1.210   9.458  15.976  1.00  0.00     0.010 A 
ATOM     36  C   UNL     1       2.503   7.450  15.574  1.00  0.00     0.010 A 
ATOM     37  C   UNL     1       1.696   8.220  16.424  1.00  0.00    -0.014 A 
BRANCH  37  38
ATOM     38  C   UNL     1       1.399   7.744  17.798  1.00  0.00     0.031 A 
ATOM     39  C   UNL     1       2.503   7.633  18.813  1.00  0.00     0.074 A 
ATOM     40  C   UNL     1       0.143   7.386  18.124  1.00  0.00     0.049 A 
ATOM     41  N   UNL     1       2.447   7.231  20.058  1.00  0.00    -0.248 NA
ATOM     42  C   UNL     1       3.856   7.998  18.363  1.00  0.00     0.031 C 
ATOM     43  C   UNL     1      -1.002   7.402  17.213  1.00  0.00     0.029 A 
ATOM     44  N   UNL     1      -0.379   6.936  19.310  1.00  0.00    -0.354 N 
ATOM     45  C   UNL     1       3.752   7.282  20.532  1.00  0.00     0.074 A 
ATOM     46  C   UNL     1       4.586   7.704  19.428  1.00  0.00     0.031 C 
ATOM     47  C   UNL     1      -2.098   7.006  17.880  1.00  0.00     0.029 A 
ATOM     48  C   UNL     1      -1.728   6.688  19.256  1.00  0.00     0.049 A 
ATOM     49  H   UNL     1       0.162   6.805  20.122  1.00  0.00     0.167 HD
ATOM     50  C   UNL     1       4.210   7.024  21.780  1.00  0.00     0.037 A 
ATOM     51  C   UNL     1      -2.572   6.258  20.214  1.00  0.00     0.037 A 
ATOM     52  C   UNL     1       3.373   6.636  22.885  1.00  0.00     0.049 A 
ATOM     53  C   UNL     1      -2.043   6.009  21.600  1.00  0.00     0.074 A 
ATOM     54  C   UNL     1       3.732   6.406  24.202  1.00  0.00     0.029 A 
ATOM     55  N   UNL     1       2.005   6.425  22.800  1.00  0.00    -0.354 N 
ATOM     56  N   UNL     1      -0.819   6.125  22.053  1.00  0.00    -0.248 NA
ATOM     57  C   UNL     1      -3.020   5.584  22.613  1.00  0.00     0.031 C 
ATOM     58  C   UNL     1       2.585   6.023  24.907  1.00  0.00     0.029 A 
ATOM     59  C   UNL     1       1.506   6.056  24.039  1.00  0.00     0.049 A 
ATOM     60  H   UNL     1       1.468   6.524  21.981  1.00  0.00     0.167 HD
ATOM     61  C   UNL     1      -0.880   5.814  23.404  1.00  0.00     0.074 A 
ATOM     62  C   UNL     1      -2.267   5.521  23.702  1.00  0.00     0.031 C 
ATOM     63  C   UNL     1       0.121   5.775  24.317  1.00  0.00     0.037 A 
BRANCH  50  64
ATOM     64  C   UNL     1       5.686   7.162  22.018  1.00  0.00     0.064 A 
ATOM     65  C   UNL     1       6.313   8.418  22.035  1.00  0.00     0.173 A 
ATOM     66  C   UNL     1       6.478   6.030  22.260  1.00  0.00     0.173 A 
ATOM     67  F   UNL     1       5.602   9.530  21.797  1.00  0.00    -0.203 F 
ATOM     68  C   UNL     1       7.683   8.532  22.256  1.00  0.00     0.198 A 
ATOM     69  C   UNL     1       7.843   6.150  22.508  1.00  0.00     0.198 A 
ATOM     70  F   UNL     1       5.928   4.807  22.260  1.00  0.00    -0.203 F 
ATOM     71  F   UNL     1       8.268   9.737  22.218  1.00  0.00    -0.200 F 
ATOM     72  C   UNL     1       8.445   7.399  22.498  1.00  0.00     0.200 A 
ATOM     73  F   UNL     1       8.577   5.056  22.753  1.00  0.00    -0.200 F 
ATOM     74  F   UNL     1       9.763   7.511  22.715  1.00  0.00    -0.200 F 
ENDBRANCH  50  64
BRANCH  51  75
ATOM     75  C   UNL     1      -4.013   6.081  19.904  1.00  0.00     0.064 A 
ATOM     76  C   UNL     1      -4.972   6.962  20.422  1.00  0.00     0.173 A 
ATOM     77  C   UNL     1      -4.461   5.032  19.088  1.00  0.00     0.173 A 
ATOM     78  F   UNL     1      -4.593   7.968  21.223  1.00  0.00    -0.203 F 
ATOM     79  C   UNL     1      -6.328   6.791  20.151  1.00  0.00     0.198 A 
ATOM     80  C   UNL     1      -5.814   4.877  18.797  1.00  0.00     0.198 A 
ATOM     81  F   UNL     1      -3.581   4.166  18.565  1.00  0.00    -0.203 F 
ATOM     82  F   UNL     1      -7.228   7.623  20.693  1.00  0.00    -0.200 F 
ATOM     83  C   UNL     1      -6.747   5.751  19.335  1.00  0.00     0.200 A 
ATOM     84  F   UNL     1      -6.215   3.878  17.998  1.00  0.00    -0.200 F 
ATOM     85  F   UNL     1      -8.051   5.588  19.072  1.00  0.00    -0.200 F 
ENDBRANCH  51  75
BRANCH  63  86
ATOM     86  C   UNL     1      -0.254   5.432  25.728  1.00  0.00     0.064 A 
ATOM     87  C   UNL     1      -0.616   4.128  26.096  1.00  0.00     0.173 A 
ATOM     88  C   UNL     1      -0.227   6.415  26.729  1.00  0.00     0.173 A 
ATOM     89  F   UNL     1      -0.672   3.157  25.172  1.00  0.00    -0.203 F 
ATOM     90  C   UNL     1      -0.965   3.827  27.410  1.00  0.00     0.198 A 
ATOM     91  C   UNL     1      -0.550   6.104  28.047  1.00  0.00     0.198 A 
ATOM     92  F   UNL     1       0.119   7.676  26.428  1.00  0.00    -0.203 F 
ATOM     93  F   UNL     1      -1.356   2.585  27.730  1.00  0.00    -0.200 F 
ATOM     94  C   UNL     1      -0.926   4.813  28.384  1.00  0.00     0.200 A 
ATOM     95  F   UNL     1      -0.501   7.056  28.989  1.00  0.00    -0.200 F 
ATOM     96  F   UNL     1      -1.261   4.521  29.649  1.00  0.00    -0.200 F 
ENDBRANCH  63  86
ENDBRANCH  37  38
ENDBRANCH  29  32
ENDBRANCH  27  28
ENDBRANCH  26  27
ENDBRANCH  25  26
ENDBRANCH   1  25
TORSDOF 16
