REMARK SMILES Cc1ccc(S(=O)(=O)N2CCCC2)cc1C(=O)N[C@H](CC1=c2ccccc2=NC1)C(=O)NCCCCCCNC(=O)c1ccc(-c2c3nc(c(-c4c(F)c(F)c(F)c(F)c4F)c4ccc([nH]4)c(-c4c(F)c(F)c(F)c(F)c4F)c4nc(c(-c5c(F)c(F)c(F)c(F)c5F)c5ccc2[nH]5)C=C4)C=C3)cc1
REMARK SMILES IDX 34 1 33 2 32 3 30 4 31 5 19 7 18 8 16 9 17 10 15 12 1 13
REMARK SMILES IDX 2 14 3 15 4 16 14 17 5 18 6 19 7 20 8 21 9 22 10 23 13 24
REMARK SMILES IDX 11 25 12 26 20 27 21 28 22 29 29 30 23 31 27 32 28 33 24 34
REMARK SMILES IDX 26 35 25 36 35 37 36 38 37 39 38 40 39 41 40 42 41 44 42 45
REMARK SMILES IDX 43 46 104 47 44 48 103 49 45 50 46 51 47 52 97 53 48 54
REMARK SMILES IDX 102 55 96 56 98 57 49 58 101 59 95 60 94 61 50 63 82 64
REMARK SMILES IDX 62 65 81 66 63 67 66 68 80 69 99 70 64 71 65 72 79 74 100 75
REMARK SMILES IDX 67 76 51 77 52 78 60 79 53 80 54 81 58 82 61 83 55 84 56 85
REMARK SMILES IDX 59 86 57 87 83 88 84 89 92 90 85 91 86 92 90 93 93 94 87 95
REMARK SMILES IDX 88 96 91 97 89 98 68 99 69 100 77 101 70 102 71 103 75 104
REMARK SMILES IDX 78 105 72 106 73 107 76 108 74 109
REMARK H PARENT 32 6 18 11 39 43 98 62 66 73
REMARK Flexibility Score: inf
ROOT
ATOM      1  C   UNL     1       5.770   3.999   1.779  1.00  0.00     0.021 C 
ENDROOT
BRANCH   1   2
ATOM      2  C   UNL     1       5.916   2.714   0.963  1.00  0.00     0.116 C 
BRANCH   2   3
ATOM      3  N   UNL     1       5.176   1.616   1.534  1.00  0.00    -0.354 N 
ATOM      4  C   UNL     1       4.138   0.870   1.089  1.00  0.00     0.242 C 
ATOM      5  O   UNL     1       3.921  -0.148   1.760  1.00  0.00    -0.273 OA
ATOM      6  H   UNL     1       5.491   1.355   2.430  1.00  0.00     0.163 HD
BRANCH   4   7
ATOM      7  C   UNL     1       3.199   1.217  -0.114  1.00  0.00     0.175 C 
BRANCH   7   8
ATOM      8  N   UNL     1       3.743   1.922  -1.325  1.00  0.00    -0.340 N 
ATOM      9  C   UNL     1       4.077   3.114  -1.914  1.00  0.00     0.252 C 
ATOM     10  O   UNL     1       4.615   2.954  -3.021  1.00  0.00    -0.269 OA
ATOM     11  H   UNL     1       3.950   1.220  -1.984  1.00  0.00     0.164 HD
BRANCH   9  12
ATOM     12  C   UNL     1       3.954   4.549  -1.452  1.00  0.00     0.044 A 
ATOM     13  C   UNL     1       2.620   4.251   0.690  1.00  0.00     0.045 C 
ATOM     14  C   UNL     1       3.271   5.056  -0.346  1.00  0.00    -0.038 A 
ATOM     15  C   UNL     1       3.106   6.439  -0.136  1.00  0.00     0.005 A 
ATOM     16  C   UNL     1       3.684   7.356  -0.975  1.00  0.00     0.022 A 
ATOM     17  C   UNL     1       4.597   5.519  -2.267  1.00  0.00     0.035 A 
ATOM     18  C   UNL     1       4.452   6.898  -2.036  1.00  0.00     0.083 A 
BRANCH  18  19
ATOM     19  S   UNL     1       5.123   8.192  -3.046  1.00  0.00     0.243 S 
ATOM     20  O   UNL     1       4.004   8.737  -3.775  1.00  0.00    -0.207 OA
ATOM     21  O   UNL     1       5.910   9.011  -2.139  1.00  0.00    -0.207 OA
BRANCH  19  22
ATOM     22  N   UNL     1       6.165   7.512  -4.128  1.00  0.00    -0.198 NA
ATOM     23  C   UNL     1       5.735   6.674  -5.249  1.00  0.00     0.102 C 
ATOM     24  C   UNL     1       7.599   7.378  -3.864  1.00  0.00     0.102 C 
ATOM     25  C   UNL     1       6.917   5.731  -5.442  1.00  0.00     0.018 C 
ATOM     26  C   UNL     1       8.106   6.604  -5.075  1.00  0.00     0.018 C 
ENDBRANCH  19  22
ENDBRANCH  18  19
ENDBRANCH   9  12
ENDBRANCH   7   8
BRANCH   7  27
ATOM     27  C   UNL     1       1.652   1.387   0.185  1.00  0.00     0.068 C 
BRANCH  27  28
ATOM     28  C   UNL     1       1.115   1.487   1.608  1.00  0.00    -0.037 C 
ATOM     29  C   UNL     1       0.980   0.504   2.499  1.00  0.00     0.001 A 
ATOM     30  C   UNL     1       0.474   2.729   2.187  1.00  0.00     0.174 C 
ATOM     31  C   UNL     1       1.246  -0.895   2.510  1.00  0.00     0.010 A 
ATOM     32  C   UNL     1       0.411   1.171   3.683  1.00  0.00     0.065 A 
ATOM     33  N   UNL     1       0.037   2.404   3.560  1.00  0.00    -0.280 NA
ATOM     34  C   UNL     1       1.098  -1.571   3.660  1.00  0.00     0.001 A 
ATOM     35  C   UNL     1       0.335   0.386   4.927  1.00  0.00     0.028 A 
ATOM     36  C   UNL     1       0.687  -0.908   4.887  1.00  0.00     0.002 A 
ENDBRANCH  27  28
ENDBRANCH   7  27
ENDBRANCH   4   7
ENDBRANCH   2   3
ENDBRANCH   1   2
BRANCH   1  37
ATOM     37  C   UNL     1       6.913   4.291   2.753  1.00  0.00     0.002 C 
BRANCH  37  38
ATOM     38  C   UNL     1       8.322   4.294   2.147  1.00  0.00     0.002 C 
BRANCH  38  39
ATOM     39  C   UNL     1       8.470   5.044   0.826  1.00  0.00     0.021 C 
BRANCH  39  40
ATOM     40  C   UNL     1       8.394   6.555   0.968  1.00  0.00     0.116 C 
BRANCH  40  41
ATOM     41  N   UNL     1       9.682   7.120   1.355  1.00  0.00    -0.352 N 
ATOM     42  C   UNL     1      10.164   8.411   1.278  1.00  0.00     0.251 C 
ATOM     43  H   UNL     1      10.315   6.470   1.738  1.00  0.00     0.163 HD
ATOM     44  O   UNL     1      11.358   8.632   1.446  1.00  0.00    -0.269 OA
BRANCH  42  45
ATOM     45  C   UNL     1       9.207   9.536   1.240  1.00  0.00     0.039 A 
ATOM     46  C   UNL     1       9.367  10.487   2.259  1.00  0.00     0.014 A 
ATOM     47  C   UNL     1       7.998   9.401   0.577  1.00  0.00     0.014 A 
ATOM     48  C   UNL     1       8.240  11.043   2.837  1.00  0.00     0.010 A 
ATOM     49  C   UNL     1       6.873   9.828   1.228  1.00  0.00     0.010 A 
ATOM     50  C   UNL     1       7.008  10.579   2.397  1.00  0.00    -0.014 A 
BRANCH  50  51
ATOM     51  C   UNL     1       5.755  10.886   3.039  1.00  0.00     0.031 A 
ATOM     52  C   UNL     1       5.023  12.038   2.513  1.00  0.00     0.074 A 
ATOM     53  C   UNL     1       5.263  10.000   3.929  1.00  0.00     0.049 A 
ATOM     54  N   UNL     1       4.066  12.630   3.124  1.00  0.00    -0.248 NA
ATOM     55  C   UNL     1       5.367  12.658   1.237  1.00  0.00     0.031 C 
ATOM     56  C   UNL     1       3.920   9.910   4.488  1.00  0.00     0.029 A 
ATOM     57  N   UNL     1       6.008   9.073   4.677  1.00  0.00    -0.354 N 
ATOM     58  C   UNL     1       3.470  13.481   2.219  1.00  0.00     0.074 A 
ATOM     59  C   UNL     1       4.390  13.556   1.115  1.00  0.00     0.031 C 
ATOM     60  C   UNL     1       3.991   9.260   5.665  1.00  0.00     0.029 A 
ATOM     61  C   UNL     1       5.403   9.067   5.958  1.00  0.00     0.049 A 
ATOM     62  H   UNL     1       6.781   8.543   4.377  1.00  0.00     0.167 HD
ATOM     63  C   UNL     1       2.192  13.876   2.481  1.00  0.00     0.037 A 
ATOM     64  C   UNL     1       6.077   9.645   7.000  1.00  0.00     0.037 A 
ATOM     65  C   UNL     1       1.807  13.420   3.825  1.00  0.00     0.049 A 
ATOM     66  C   UNL     1       5.421  10.919   7.513  1.00  0.00     0.074 A 
ATOM     67  C   UNL     1       1.088  12.339   4.312  1.00  0.00     0.029 A 
ATOM     68  N   UNL     1       2.537  13.896   4.902  1.00  0.00    -0.354 N 
ATOM     69  N   UNL     1       4.407  11.518   6.945  1.00  0.00    -0.248 NA
ATOM     70  C   UNL     1       5.918  11.658   8.670  1.00  0.00     0.031 C 
ATOM     71  C   UNL     1       1.436  12.160   5.689  1.00  0.00     0.029 A 
ATOM     72  C   UNL     1       2.336  13.148   6.046  1.00  0.00     0.049 A 
ATOM     73  H   UNL     1       3.132  14.679   4.857  1.00  0.00     0.167 HD
ATOM     74  C   UNL     1       4.112  12.679   7.611  1.00  0.00     0.074 A 
ATOM     75  C   UNL     1       5.120  12.739   8.660  1.00  0.00     0.031 C 
ATOM     76  C   UNL     1       3.082  13.508   7.247  1.00  0.00     0.037 A 
BRANCH  63  77
ATOM     77  C   UNL     1       1.216  14.437   1.465  1.00  0.00     0.064 A 
ATOM     78  C   UNL     1      -0.168  14.420   1.743  1.00  0.00     0.173 A 
ATOM     79  C   UNL     1       1.540  14.939   0.186  1.00  0.00     0.173 A 
ATOM     80  F   UNL     1      -0.634  14.045   2.941  1.00  0.00    -0.203 F 
ATOM     81  C   UNL     1      -1.135  14.784   0.799  1.00  0.00     0.198 A 
ATOM     82  C   UNL     1       0.573  15.277  -0.768  1.00  0.00     0.198 A 
ATOM     83  F   UNL     1       2.795  15.180  -0.190  1.00  0.00    -0.203 F 
ATOM     84  F   UNL     1      -2.434  14.728   1.125  1.00  0.00    -0.200 F 
ATOM     85  C   UNL     1      -0.766  15.190  -0.465  1.00  0.00     0.200 A 
ATOM     86  F   UNL     1       0.960  15.694  -1.983  1.00  0.00    -0.200 F 
ATOM     87  F   UNL     1      -1.691  15.519  -1.377  1.00  0.00    -0.200 F 
ENDBRANCH  63  77
BRANCH  64  88
ATOM     88  C   UNL     1       7.553   9.399   6.898  1.00  0.00     0.064 A 
ATOM     89  C   UNL     1       7.990   8.058   6.802  1.00  0.00     0.173 A 
ATOM     90  C   UNL     1       8.435  10.390   6.455  1.00  0.00     0.173 A 
ATOM     91  F   UNL     1       7.200   7.062   7.236  1.00  0.00    -0.203 F 
ATOM     92  C   UNL     1       9.159   7.722   6.120  1.00  0.00     0.198 A 
ATOM     93  C   UNL     1       9.631  10.049   5.815  1.00  0.00     0.198 A 
ATOM     94  F   UNL     1       8.096  11.685   6.524  1.00  0.00    -0.203 F 
ATOM     95  F   UNL     1       9.453   6.433   5.892  1.00  0.00    -0.200 F 
ATOM     96  C   UNL     1       9.961   8.719   5.597  1.00  0.00     0.200 A 
ATOM     97  F   UNL     1      10.415  11.015   5.316  1.00  0.00    -0.200 F 
ATOM     98  F   UNL     1      11.028   8.399   4.852  1.00  0.00    -0.200 F 
ENDBRANCH  64  88
BRANCH  76  99
ATOM     99  C   UNL     1       2.723  14.786   7.979  1.00  0.00     0.064 A 
ATOM    100  C   UNL     1       2.859  14.933   9.367  1.00  0.00     0.173 A 
ATOM    101  C   UNL     1       2.152  15.901   7.315  1.00  0.00     0.173 A 
ATOM    102  F   UNL     1       3.198  13.894  10.143  1.00  0.00    -0.203 F 
ATOM    103  C   UNL     1       2.609  16.148  10.012  1.00  0.00     0.198 A 
ATOM    104  C   UNL     1       1.846  17.092   7.968  1.00  0.00     0.198 A 
ATOM    105  F   UNL     1       1.873  15.896   6.006  1.00  0.00    -0.203 F 
ATOM    106  F   UNL     1       2.851  16.262  11.325  1.00  0.00    -0.200 F 
ATOM    107  C   UNL     1       2.113  17.230   9.310  1.00  0.00     0.200 A 
ATOM    108  F   UNL     1       1.304  18.105   7.277  1.00  0.00    -0.200 F 
ATOM    109  F   UNL     1       1.877  18.395   9.927  1.00  0.00    -0.200 F 
ENDBRANCH  76  99
ENDBRANCH  50  51
ENDBRANCH  42  45
ENDBRANCH  40  41
ENDBRANCH  39  40
ENDBRANCH  38  39
ENDBRANCH  37  38
ENDBRANCH   1  37
TORSDOF 19
