REMARK SMILES Cc1coc2c(C)c3oc(=O)c(CC(=O)NCC(=O)N[C@H](C(=O)NCCCCCCNC(=O)c4ccc(-c5c6nc(c(-c7c(F)c(F)c(F)c(F)c7F)c7ccc([nH]7)c(-c7c(F)c(F)c(F)c(F)c7F)c7nc(c(-c8c(F)c(F)c(F)c(F)c8F)c8ccc5[nH]8)C=C7)C=C6)cc4)C(C)C)c(C)c3cc12
REMARK SMILES IDX 26 1 25 2 24 3 22 4 23 5 21 7 20 8 18 9 19 10 17 12 16 13
REMARK SMILES IDX 14 14 15 15 13 17 12 18 1 19 2 20 3 21 104 22 4 23 5 24
REMARK SMILES IDX 103 25 6 26 102 27 7 28 8 29 100 30 9 31 101 32 10 33 11 34
REMARK SMILES IDX 97 35 98 36 99 37 27 38 28 39 29 40 30 41 31 42 32 43 33 45
REMARK SMILES IDX 34 46 35 47 96 48 36 49 95 50 37 51 38 52 39 53 89 54 40 55
REMARK SMILES IDX 94 56 88 57 90 58 41 59 93 60 87 61 86 62 42 64 74 65 54 66
REMARK SMILES IDX 73 67 55 68 58 69 72 70 91 71 56 72 57 73 71 75 92 76 59 77
REMARK SMILES IDX 43 78 44 79 52 80 45 81 46 82 50 83 53 84 47 85 48 86 51 87
REMARK SMILES IDX 49 88 75 89 76 90 84 91 77 92 78 93 82 94 85 95 79 96 80 97
REMARK SMILES IDX 83 98 81 99 60 100 61 101 69 102 62 103 63 104 67 105 70 106
REMARK SMILES IDX 64 107 65 108 68 109 66 110
REMARK H PARENT 24 6 20 11 16 16 31 44 90 63 58 74
REMARK Flexibility Score: inf
ROOT
ATOM      1  C   UNL     1       4.653   8.428   1.190  1.00  0.00     0.021 C 
ENDROOT
BRANCH   1   2
ATOM      2  C   UNL     1       5.202   7.029   0.775  1.00  0.00     0.116 C 
BRANCH   2   3
ATOM      3  N   UNL     1       5.683   5.973   1.632  1.00  0.00    -0.354 N 
ATOM      4  C   UNL     1       5.586   4.625   1.249  1.00  0.00     0.242 C 
ATOM      5  O   UNL     1       6.436   3.826   1.650  1.00  0.00    -0.273 OA
ATOM      6  H   UNL     1       6.086   6.201   2.501  1.00  0.00     0.163 HD
BRANCH   4   7
ATOM      7  C   UNL     1       4.327   4.133   0.405  1.00  0.00     0.173 C 
BRANCH   7   8
ATOM      8  N   UNL     1       4.565   2.751  -0.164  1.00  0.00    -0.343 N 
ATOM      9  C   UNL     1       4.041   1.843  -1.039  1.00  0.00     0.240 C 
ATOM     10  O   UNL     1       4.835   0.919  -1.306  1.00  0.00    -0.273 OA
ATOM     11  H   UNL     1       5.382   2.375   0.236  1.00  0.00     0.164 HD
BRANCH   9  12
ATOM     12  C   UNL     1       2.697   1.842  -1.872  1.00  0.00     0.216 C 
BRANCH  12  13
ATOM     13  N   UNL     1       1.343   1.907  -1.319  1.00  0.00    -0.347 N 
ATOM     14  C   UNL     1       0.263   2.717  -1.491  1.00  0.00     0.225 C 
ATOM     15  O   UNL     1      -0.699   2.487  -0.742  1.00  0.00    -0.275 OA
ATOM     16  H   UNL     1       1.172   1.191  -0.665  1.00  0.00     0.164 HD
BRANCH  14  17
ATOM     17  C   UNL     1       0.126   3.870  -2.506  1.00  0.00     0.143 C 
BRANCH  17  18
ATOM     18  C   UNL     1       1.333   4.696  -2.925  1.00  0.00     0.051 A 
ATOM     19  C   UNL     1       7.548   8.175  -0.839  1.00  0.00     0.048 C 
ATOM     20  C   UNL     1       6.740   8.021  -2.100  1.00  0.00    -0.005 A 
ATOM     21  C   UNL     1       7.460   8.192  -3.265  1.00  0.00     0.199 A 
ATOM     22  C   UNL     1       5.396   7.546  -2.537  1.00  0.00     0.024 A 
ATOM     23  O   UNL     1       6.843   7.601  -4.289  1.00  0.00    -0.464 OA
ATOM     24  C   UNL     1       5.671   7.112  -3.824  1.00  0.00     0.140 A 
ATOM     25  C   UNL     1       4.031   7.258  -2.108  1.00  0.00     0.024 A 
ATOM     26  C   UNL     1       4.904   6.214  -4.550  1.00  0.00     0.036 A 
ATOM     27  C   UNL     1       3.153   6.375  -2.822  1.00  0.00     0.022 A 
ATOM     28  C   UNL     1       5.507   5.574  -5.751  1.00  0.00     0.052 C 
ATOM     29  C   UNL     1       3.667   5.851  -3.999  1.00  0.00     0.145 A 
ATOM     30  C   UNL     1       1.807   5.850  -2.375  1.00  0.00    -0.029 A 
ATOM     31  O   UNL     1       2.970   4.873  -4.724  1.00  0.00    -0.422 OA
ATOM     32  C   UNL     1       0.989   6.591  -1.343  1.00  0.00     0.046 C 
ATOM     33  C   UNL     1       1.908   4.186  -4.197  1.00  0.00     0.340 A 
ATOM     34  O   UNL     1       1.447   3.210  -4.777  1.00  0.00    -0.246 OA
ENDBRANCH  17  18
ENDBRANCH  14  17
ENDBRANCH  12  13
ENDBRANCH   9  12
ENDBRANCH   7   8
BRANCH   7  35
ATOM     35  C   UNL     1       3.128   4.209   1.392  1.00  0.00     0.015 C 
ATOM     36  C   UNL     1       2.715   5.595   1.895  1.00  0.00     0.010 C 
ATOM     37  C   UNL     1       1.914   3.656   0.725  1.00  0.00     0.010 C 
ENDBRANCH   7  35
ENDBRANCH   4   7
ENDBRANCH   2   3
ENDBRANCH   1   2
BRANCH   1  38
ATOM     38  C   UNL     1       5.338   9.774   1.549  1.00  0.00     0.002 C 
BRANCH  38  39
ATOM     39  C   UNL     1       6.268  10.676   0.683  1.00  0.00     0.002 C 
BRANCH  39  40
ATOM     40  C   UNL     1       6.031  10.899  -0.826  1.00  0.00     0.021 C 
BRANCH  40  41
ATOM     41  C   UNL     1       5.504  12.265  -1.259  1.00  0.00     0.116 C 
BRANCH  41  42
ATOM     42  N   UNL     1       6.269  13.395  -0.728  1.00  0.00    -0.352 N 
ATOM     43  C   UNL     1       5.881  14.717  -0.561  1.00  0.00     0.251 C 
ATOM     44  H   UNL     1       7.191  13.187  -0.450  1.00  0.00     0.163 HD
ATOM     45  O   UNL     1       6.692  15.604  -0.411  1.00  0.00    -0.269 OA
BRANCH  43  46
ATOM     46  C   UNL     1       4.436  15.018  -0.588  1.00  0.00     0.039 A 
ATOM     47  C   UNL     1       3.943  16.105  -1.306  1.00  0.00     0.014 A 
ATOM     48  C   UNL     1       3.578  14.113   0.030  1.00  0.00     0.014 A 
ATOM     49  C   UNL     1       2.570  16.193  -1.495  1.00  0.00     0.010 A 
ATOM     50  C   UNL     1       2.259  14.080  -0.342  1.00  0.00     0.010 A 
ATOM     51  C   UNL     1       1.737  15.139  -1.064  1.00  0.00    -0.014 A 
BRANCH  51  52
ATOM     52  C   UNL     1       0.351  15.072  -1.513  1.00  0.00     0.031 A 
ATOM     53  C   UNL     1       0.218  15.341  -2.965  1.00  0.00     0.074 A 
ATOM     54  C   UNL     1      -0.700  14.714  -0.743  1.00  0.00     0.049 A 
ATOM     55  N   UNL     1      -0.099  16.477  -3.486  1.00  0.00    -0.248 NA
ATOM     56  C   UNL     1       0.700  14.354  -3.946  1.00  0.00     0.031 C 
ATOM     57  C   UNL     1      -0.692  14.148   0.611  1.00  0.00     0.029 A 
ATOM     58  N   UNL     1      -2.033  14.744  -1.040  1.00  0.00    -0.354 N 
ATOM     59  C   UNL     1      -0.116  16.274  -4.857  1.00  0.00     0.074 A 
ATOM     60  C   UNL     1       0.583  15.039  -5.091  1.00  0.00     0.031 C 
ATOM     61  C   UNL     1      -1.922  13.684   0.926  1.00  0.00     0.029 A 
ATOM     62  C   UNL     1      -2.845  14.094  -0.114  1.00  0.00     0.049 A 
ATOM     63  H   UNL     1      -2.390  15.188  -1.843  1.00  0.00     0.167 HD
ATOM     64  C   UNL     1      -1.008  16.971  -5.612  1.00  0.00     0.037 A 
ATOM     65  C   UNL     1      -4.191  13.939  -0.183  1.00  0.00     0.037 A 
ATOM     66  C   UNL     1      -1.563  18.063  -4.848  1.00  0.00     0.049 A 
ATOM     67  C   UNL     1      -4.696  15.033  -1.041  1.00  0.00     0.074 A 
ATOM     68  C   UNL     1      -1.106  19.264  -4.350  1.00  0.00     0.029 A 
ATOM     69  N   UNL     1      -2.646  17.694  -4.095  1.00  0.00    -0.354 N 
ATOM     70  N   UNL     1      -4.659  16.290  -0.695  1.00  0.00    -0.248 NA
ATOM     71  C   UNL     1      -4.906  14.776  -2.460  1.00  0.00     0.031 C 
ATOM     72  C   UNL     1      -1.851  19.506  -3.155  1.00  0.00     0.029 A 
ATOM     73  C   UNL     1      -2.790  18.489  -2.993  1.00  0.00     0.049 A 
ATOM     74  H   UNL     1      -3.248  16.948  -4.320  1.00  0.00     0.167 HD
ATOM     75  C   UNL     1      -4.396  16.956  -1.875  1.00  0.00     0.074 A 
ATOM     76  C   UNL     1      -4.737  16.012  -2.934  1.00  0.00     0.031 C 
ATOM     77  C   UNL     1      -3.615  18.074  -1.878  1.00  0.00     0.037 A 
BRANCH  64  78
ATOM     78  C   UNL     1      -1.781  16.368  -6.763  1.00  0.00     0.064 A 
ATOM     79  C   UNL     1      -2.586  17.202  -7.564  1.00  0.00     0.173 A 
ATOM     80  C   UNL     1      -2.015  14.982  -6.904  1.00  0.00     0.173 A 
ATOM     81  F   UNL     1      -2.496  18.537  -7.460  1.00  0.00    -0.203 F 
ATOM     82  C   UNL     1      -3.564  16.684  -8.419  1.00  0.00     0.198 A 
ATOM     83  C   UNL     1      -2.952  14.468  -7.797  1.00  0.00     0.198 A 
ATOM     84  F   UNL     1      -1.449  14.078  -6.098  1.00  0.00    -0.203 F 
ATOM     85  F   UNL     1      -4.382  17.516  -9.079  1.00  0.00    -0.200 F 
ATOM     86  C   UNL     1      -3.741  15.318  -8.540  1.00  0.00     0.200 A 
ATOM     87  F   UNL     1      -3.138  13.142  -7.862  1.00  0.00    -0.200 F 
ATOM     88  F   UNL     1      -4.706  14.820  -9.324  1.00  0.00    -0.200 F 
ENDBRANCH  64  78
BRANCH  65  89
ATOM     89  C   UNL     1      -5.036  12.777   0.187  1.00  0.00     0.064 A 
ATOM     90  C   UNL     1      -6.440  12.883   0.186  1.00  0.00     0.173 A 
ATOM     91  C   UNL     1      -4.510  11.472   0.215  1.00  0.00     0.173 A 
ATOM     92  F   UNL     1      -7.025  14.089   0.139  1.00  0.00    -0.203 F 
ATOM     93  C   UNL     1      -7.264  11.755   0.138  1.00  0.00     0.198 A 
ATOM     94  C   UNL     1      -5.336  10.345   0.170  1.00  0.00     0.198 A 
ATOM     95  F   UNL     1      -3.186  11.264   0.178  1.00  0.00    -0.203 F 
ATOM     96  F   UNL     1      -8.594  11.901   0.045  1.00  0.00    -0.200 F 
ATOM     97  C   UNL     1      -6.711  10.487   0.108  1.00  0.00     0.200 A 
ATOM     98  F   UNL     1      -4.787   9.124   0.110  1.00  0.00    -0.200 F 
ATOM     99  F   UNL     1      -7.494   9.408  -0.026  1.00  0.00    -0.200 F 
ENDBRANCH  65  89
BRANCH  77 100
ATOM    100  C   UNL     1      -3.500  18.851  -0.603  1.00  0.00     0.064 A 
ATOM    101  C   UNL     1      -2.862  18.400   0.564  1.00  0.00     0.173 A 
ATOM    102  C   UNL     1      -3.975  20.170  -0.615  1.00  0.00     0.173 A 
ATOM    103  F   UNL     1      -2.328  17.174   0.631  1.00  0.00    -0.203 F 
ATOM    104  C   UNL     1      -2.721  19.237   1.672  1.00  0.00     0.198 A 
ATOM    105  C   UNL     1      -3.800  21.013   0.475  1.00  0.00     0.198 A 
ATOM    106  F   UNL     1      -4.568  20.658  -1.716  1.00  0.00    -0.203 F 
ATOM    107  F   UNL     1      -2.114  18.789   2.781  1.00  0.00    -0.200 F 
ATOM    108  C   UNL     1      -3.179  20.545   1.621  1.00  0.00     0.200 A 
ATOM    109  F   UNL     1      -4.210  22.287   0.403  1.00  0.00    -0.200 F 
ATOM    110  F   UNL     1      -3.002  21.363   2.668  1.00  0.00    -0.200 F 
ENDBRANCH  77 100
ENDBRANCH  51  52
ENDBRANCH  43  46
ENDBRANCH  41  42
ENDBRANCH  40  41
ENDBRANCH  39  40
ENDBRANCH  38  39
ENDBRANCH   1  38
TORSDOF 19
