REMARK SMILES Cc1sc2nc3c(S[C@H](C)C(=O)NCCCCCCNC(=O)c4ccc(-c5c6nc(c(-c7c(F)c(F)c(F)c(F)c7F)c7ccc([nH]7)c(-c7c(F)c(F)c(F)c(F)c7F)c7nc(c(-c8c(F)c(F)c(F)c(F)c8F)c8ccc5[nH]8)C=C7)C=C6)cc4)cc(C(=O)c4ccccc4O)cn3c(=O)c2c1C
REMARK SMILES IDX 15 1 14 2 13 3 11 4 12 5 9 7 10 8 8 9 7 10 1 11 2 12 3 13
REMARK SMILES IDX 102 14 4 15 101 16 103 17 5 18 99 19 6 20 98 21 100 22 97 23
REMARK SMILES IDX 86 24 87 25 88 26 89 27 90 28 91 29 95 30 92 31 94 32 93 33
REMARK SMILES IDX 96 34 16 36 17 37 18 38 19 39 20 40 21 41 22 43 23 44 24 45
REMARK SMILES IDX 85 46 25 47 84 48 26 49 27 50 28 51 78 52 29 53 83 54 77 55
REMARK SMILES IDX 79 56 30 57 82 58 76 59 75 60 31 62 63 63 43 64 62 65 44 66
REMARK SMILES IDX 47 67 61 68 80 69 45 70 46 71 60 73 81 74 48 75 32 76 33 77
REMARK SMILES IDX 41 78 34 79 35 80 39 81 42 82 36 83 37 84 40 85 38 86 64 87
REMARK SMILES IDX 65 88 73 89 66 90 67 91 71 92 74 93 68 94 69 95 72 96 70 97
REMARK SMILES IDX 49 98 50 99 58 100 51 101 52 102 56 103 59 104 53 105 54 106
REMARK SMILES IDX 57 107 55 108
REMARK H PARENT 13 6 96 35 20 42 79 61 47 72
REMARK Flexibility Score: inf
ROOT
ATOM      1  C   UNL     1       1.507  -7.366   3.740  1.00  0.00     0.021 C 
ENDROOT
BRANCH   1   2
ATOM      2  C   UNL     1       0.724  -8.717   4.416  1.00  0.00     0.116 C 
BRANCH   2   3
ATOM      3  N   UNL     1      -0.135  -9.076   6.300  1.00  0.00    -0.355 N 
ATOM      4  C   UNL     1      -1.235  -8.696   7.205  1.00  0.00     0.233 C 
ATOM      5  O   UNL     1      -1.141  -9.239   8.320  1.00  0.00    -0.274 OA
ATOM      6  H   UNL     1       0.405  -9.764   6.753  1.00  0.00     0.163 HD
BRANCH   4   7
ATOM      7  C   UNL     1      -2.551  -7.771   6.904  1.00  0.00     0.138 C 
ATOM      8  C   UNL     1      -2.520  -6.282   6.506  1.00  0.00     0.030 C 
BRANCH   7   9
ATOM      9  S   UNL     1      -3.770  -8.599   5.763  1.00  0.00    -0.109 SA
BRANCH   9  10
ATOM     10  C   UNL     1      -2.689  -9.185   4.553  1.00  0.00     0.052 A 
ATOM     11  C   UNL     1       4.610  -6.617   7.455  1.00  0.00     0.057 C 
ATOM     12  C   UNL     1       3.338  -7.278   7.002  1.00  0.00     0.007 A 
ATOM     13  S   UNL     1       1.877  -6.313   6.947  1.00  0.00    -0.120 S 
ATOM     14  C   UNL     1       3.266  -8.583   6.516  1.00  0.00    -0.022 A 
ATOM     15  C   UNL     1       0.980  -7.490   6.090  1.00  0.00     0.131 A 
ATOM     16  C   UNL     1       1.927  -8.908   6.196  1.00  0.00     0.080 A 
ATOM     17  C   UNL     1       4.445  -9.453   6.175  1.00  0.00     0.046 C 
ATOM     18  N   UNL     1      -0.603  -7.436   5.276  1.00  0.00    -0.218 NA
ATOM     19  C   UNL     1       1.219 -10.519   5.591  1.00  0.00     0.266 A 
ATOM     20  C   UNL     1      -1.277  -8.808   4.787  1.00  0.00     0.155 A 
ATOM     21  N   UNL     1      -0.379 -10.373   4.881  1.00  0.00    -0.266 N 
ATOM     22  O   UNL     1       1.897 -11.540   5.522  1.00  0.00    -0.268 OA
ATOM     23  C   UNL     1      -0.785 -11.359   4.014  1.00  0.00     0.108 A 
ATOM     24  C   UNL     1      -2.963 -10.307   3.859  1.00  0.00     0.032 A 
ATOM     25  C   UNL     1      -1.942 -11.228   3.354  1.00  0.00     0.041 A 
BRANCH  25  26
ATOM     26  C   UNL     1      -2.111 -12.234   2.266  1.00  0.00     0.198 C 
ATOM     27  O   UNL     1      -1.197 -12.955   1.866  1.00  0.00    -0.288 OA
BRANCH  26  28
ATOM     28  C   UNL     1      -3.443 -12.463   1.717  1.00  0.00     0.064 A 
ATOM     29  C   UNL     1      -4.214 -11.402   1.235  1.00  0.00     0.016 A 
ATOM     30  C   UNL     1      -3.937 -13.768   1.726  1.00  0.00     0.126 A 
ATOM     31  C   UNL     1      -5.536 -11.636   0.882  1.00  0.00     0.001 A 
ATOM     32  C   UNL     1      -5.258 -13.996   1.379  1.00  0.00     0.047 A 
ATOM     33  C   UNL     1      -6.063 -12.925   0.979  1.00  0.00     0.004 A 
BRANCH  30  34
ATOM     34  O   UNL     1      -3.175 -14.848   2.078  1.00  0.00    -0.507 OA
ATOM     35  H   UNL     1      -2.277 -14.729   2.318  1.00  0.00     0.293 HD
ENDBRANCH  30  34
ENDBRANCH  26  28
ENDBRANCH  25  26
ENDBRANCH   9  10
ENDBRANCH   7   9
ENDBRANCH   4   7
ENDBRANCH   2   3
ENDBRANCH   1   2
BRANCH   1  36
ATOM     36  C   UNL     1       3.009  -7.587   3.503  1.00  0.00     0.002 C 
BRANCH  36  37
ATOM     37  C   UNL     1       3.360  -8.918   2.824  1.00  0.00     0.002 C 
BRANCH  37  38
ATOM     38  C   UNL     1       2.711  -9.007   1.453  1.00  0.00     0.021 C 
BRANCH  38  39
ATOM     39  C   UNL     1       3.315  -7.923   0.577  1.00  0.00     0.116 C 
BRANCH  39  40
ATOM     40  N   UNL     1       4.703  -8.247   0.252  1.00  0.00    -0.352 N 
ATOM     41  C   UNL     1       5.157  -9.031  -0.784  1.00  0.00     0.251 C 
ATOM     42  H   UNL     1       5.391  -7.860   0.840  1.00  0.00     0.163 HD
ATOM     43  O   UNL     1       6.294  -9.477  -0.816  1.00  0.00    -0.269 OA
BRANCH  41  44
ATOM     44  C   UNL     1       4.157  -9.370  -1.808  1.00  0.00     0.039 A 
ATOM     45  C   UNL     1       3.386  -8.325  -2.323  1.00  0.00     0.014 A 
ATOM     46  C   UNL     1       3.775 -10.704  -1.938  1.00  0.00     0.014 A 
ATOM     47  C   UNL     1       2.087  -8.594  -2.705  1.00  0.00     0.010 A 
ATOM     48  C   UNL     1       2.506 -10.978  -2.430  1.00  0.00     0.010 A 
ATOM     49  C   UNL     1       1.636  -9.916  -2.734  1.00  0.00    -0.014 A 
BRANCH  49  50
ATOM     50  C   UNL     1       0.336 -10.094  -3.394  1.00  0.00     0.031 A 
ATOM     51  C   UNL     1       0.605 -10.514  -4.803  1.00  0.00     0.074 A 
ATOM     52  C   UNL     1      -0.805 -10.467  -2.774  1.00  0.00     0.049 A 
ATOM     53  N   UNL     1       0.933 -11.744  -5.068  1.00  0.00    -0.248 NA
ATOM     54  C   UNL     1       0.977  -9.569  -5.856  1.00  0.00     0.031 C 
ATOM     55  C   UNL     1      -0.854 -11.312  -1.580  1.00  0.00     0.029 A 
ATOM     56  N   UNL     1      -2.128 -10.365  -3.186  1.00  0.00    -0.354 N 
ATOM     57  C   UNL     1       1.580 -11.749  -6.285  1.00  0.00     0.074 A 
ATOM     58  C   UNL     1       1.569 -10.380  -6.750  1.00  0.00     0.031 C 
ATOM     59  C   UNL     1      -2.102 -11.806  -1.463  1.00  0.00     0.029 A 
ATOM     60  C   UNL     1      -2.992 -11.195  -2.454  1.00  0.00     0.049 A 
ATOM     61  H   UNL     1      -2.427  -9.773  -3.914  1.00  0.00     0.167 HD
ATOM     62  C   UNL     1       2.093 -12.893  -6.808  1.00  0.00     0.037 A 
ATOM     63  C   UNL     1      -4.042 -11.867  -3.020  1.00  0.00     0.037 A 
ATOM     64  C   UNL     1       2.006 -14.050  -5.964  1.00  0.00     0.049 A 
ATOM     65  C   UNL     1      -3.312 -12.934  -3.798  1.00  0.00     0.074 A 
ATOM     66  C   UNL     1       2.841 -14.800  -5.166  1.00  0.00     0.029 A 
ATOM     67  N   UNL     1       0.769 -14.625  -5.803  1.00  0.00    -0.354 N 
ATOM     68  N   UNL     1      -2.725 -13.984  -3.289  1.00  0.00    -0.248 NA
ATOM     69  C   UNL     1      -2.874 -12.570  -5.146  1.00  0.00     0.031 C 
ATOM     70  C   UNL     1       1.980 -15.451  -4.224  1.00  0.00     0.029 A 
ATOM     71  C   UNL     1       0.675 -15.049  -4.503  1.00  0.00     0.049 A 
ATOM     72  H   UNL     1       0.075 -14.716  -6.496  1.00  0.00     0.167 HD
ATOM     73  C   UNL     1      -1.634 -14.228  -4.123  1.00  0.00     0.074 A 
ATOM     74  C   UNL     1      -1.793 -13.329  -5.249  1.00  0.00     0.031 C 
ATOM     75  C   UNL     1      -0.565 -14.998  -3.764  1.00  0.00     0.037 A 
BRANCH  62  76
ATOM     76  C   UNL     1       2.435 -13.076  -8.228  1.00  0.00     0.064 A 
ATOM     77  C   UNL     1       1.438 -13.661  -9.026  1.00  0.00     0.173 A 
ATOM     78  C   UNL     1       3.719 -12.949  -8.757  1.00  0.00     0.173 A 
ATOM     79  F   UNL     1       0.193 -13.807  -8.539  1.00  0.00    -0.203 F 
ATOM     80  C   UNL     1       1.724 -14.162 -10.286  1.00  0.00     0.198 A 
ATOM     81  C   UNL     1       4.001 -13.437 -10.035  1.00  0.00     0.198 A 
ATOM     82  F   UNL     1       4.706 -12.407  -8.029  1.00  0.00    -0.203 F 
ATOM     83  F   UNL     1       0.765 -14.780 -10.988  1.00  0.00    -0.200 F 
ATOM     84  C   UNL     1       3.010 -14.059 -10.787  1.00  0.00     0.200 A 
ATOM     85  F   UNL     1       5.243 -13.341 -10.530  1.00  0.00    -0.200 F 
ATOM     86  F   UNL     1       3.297 -14.575 -11.990  1.00  0.00    -0.200 F 
ENDBRANCH  62  76
BRANCH  63  87
ATOM     87  C   UNL     1      -5.167 -11.068  -3.609  1.00  0.00     0.064 A 
ATOM     88  C   UNL     1      -5.687  -9.980  -2.880  1.00  0.00     0.173 A 
ATOM     89  C   UNL     1      -5.790 -11.327  -4.843  1.00  0.00     0.173 A 
ATOM     90  F   UNL     1      -5.236  -9.719  -1.643  1.00  0.00    -0.203 F 
ATOM     91  C   UNL     1      -6.665  -9.134  -3.404  1.00  0.00     0.198 A 
ATOM     92  C   UNL     1      -6.743 -10.458  -5.385  1.00  0.00     0.198 A 
ATOM     93  F   UNL     1      -5.484 -12.418  -5.558  1.00  0.00    -0.203 F 
ATOM     94  F   UNL     1      -7.103  -8.094  -2.679  1.00  0.00    -0.200 F 
ATOM     95  C   UNL     1      -7.166  -9.351  -4.673  1.00  0.00     0.200 A 
ATOM     96  F   UNL     1      -7.233 -10.688  -6.612  1.00  0.00    -0.200 F 
ATOM     97  F   UNL     1      -8.055  -8.501  -5.205  1.00  0.00    -0.200 F 
ENDBRANCH  63  87
BRANCH  75  98
ATOM     98  C   UNL     1      -0.650 -15.650  -2.423  1.00  0.00     0.064 A 
ATOM     99  C   UNL     1      -1.585 -16.666  -2.183  1.00  0.00     0.173 A 
ATOM    100  C   UNL     1       0.240 -15.321  -1.386  1.00  0.00     0.173 A 
ATOM    101  F   UNL     1      -2.455 -17.025  -3.140  1.00  0.00    -0.203 F 
ATOM    102  C   UNL     1      -1.603 -17.350  -0.972  1.00  0.00     0.198 A 
ATOM    103  C   UNL     1       0.241 -16.031  -0.189  1.00  0.00     0.198 A 
ATOM    104  F   UNL     1       1.138 -14.334  -1.539  1.00  0.00    -0.203 F 
ATOM    105  F   UNL     1      -2.495 -18.331  -0.774  1.00  0.00    -0.200 F 
ATOM    106  C   UNL     1      -0.677 -17.048   0.015  1.00  0.00     0.200 A 
ATOM    107  F   UNL     1       1.154 -15.755   0.755  1.00  0.00    -0.200 F 
ATOM    108  F   UNL     1      -0.655 -17.754   1.155  1.00  0.00    -0.200 F 
ENDBRANCH  75  98
ENDBRANCH  49  50
ENDBRANCH  41  44
ENDBRANCH  39  40
ENDBRANCH  38  39
ENDBRANCH  37  38
ENDBRANCH  36  37
ENDBRANCH   1  36
TORSDOF 18
