REMARK SMILES C[C@](O)(C(=O)NCCCCCCNC(=O)c1ccc(-c2c3nc(c(-c4c(F)c(F)c(F)c(F)c4F)c4ccc([nH]4)c(-c4c(F)c(F)c(F)c(F)c4F)c4nc(c(-c5c(F)c(F)c(F)c(F)c5F)c5ccc2[nH]5)C=C4)C=C3)cc1)c1ccc(O)cc1
REMARK SMILES IDX 9 1 8 2 7 3 6 4 4 5 5 6 2 8 1 9 79 10 80 11 85 12 81 13
REMARK SMILES IDX 84 14 82 15 83 16 3 18 10 20 11 21 12 22 13 23 14 24 15 26
REMARK SMILES IDX 16 27 17 28 78 29 18 30 77 31 19 32 20 33 21 34 71 35 22 36
REMARK SMILES IDX 76 37 70 38 72 39 23 40 75 41 69 42 68 43 24 45 56 46 36 47
REMARK SMILES IDX 55 48 37 49 40 50 54 51 73 52 38 53 39 54 53 56 74 57 41 58
REMARK SMILES IDX 25 59 26 60 34 61 27 62 28 63 32 64 35 65 29 66 30 67 33 68
REMARK SMILES IDX 31 69 57 70 58 71 66 72 59 73 60 74 64 75 67 76 61 77 62 78
REMARK SMILES IDX 65 79 63 80 42 81 43 82 51 83 44 84 45 85 49 86 52 87 46 88
REMARK SMILES IDX 47 89 50 90 48 91
REMARK H PARENT 6 7 83 17 3 19 13 25 72 44 40 55
REMARK Flexibility Score: inf
ROOT
ATOM      1  C   UNL     1      -3.039  -2.542   1.305  1.00  0.00     0.002 C 
ENDROOT
BRANCH   1   2
ATOM      2  C   UNL     1      -1.537  -2.237   1.289  1.00  0.00     0.021 C 
BRANCH   2   3
ATOM      3  C   UNL     1      -0.897  -2.191  -0.097  1.00  0.00     0.116 C 
BRANCH   3   4
ATOM      4  N   UNL     1      -1.477  -1.158  -0.935  1.00  0.00    -0.353 N 
ATOM      5  C   UNL     1      -0.880  -0.187  -1.692  1.00  0.00     0.256 C 
ATOM      6  O   UNL     1      -1.637   0.485  -2.401  1.00  0.00    -0.271 OA
ATOM      7  H   UNL     1      -2.461  -1.156  -0.964  1.00  0.00     0.163 HD
BRANCH   5   8
ATOM      8  C   UNL     1       0.682   0.013  -1.672  1.00  0.00     0.165 C 
ATOM      9  C   UNL     1       1.285  -1.165  -2.457  1.00  0.00     0.058 C 
BRANCH   8  10
ATOM     10  C   UNL     1       1.111   1.390  -2.219  1.00  0.00    -0.007 A 
ATOM     11  C   UNL     1       2.243   1.546  -3.041  1.00  0.00     0.011 A 
ATOM     12  C   UNL     1       0.412   2.559  -1.850  1.00  0.00     0.011 A 
ATOM     13  C   UNL     1       2.628   2.804  -3.512  1.00  0.00     0.046 A 
ATOM     14  C   UNL     1       0.794   3.818  -2.325  1.00  0.00     0.046 A 
ATOM     15  C   UNL     1       1.897   3.928  -3.161  1.00  0.00     0.115 A 
BRANCH  15  16
ATOM     16  O   UNL     1       2.298   5.131  -3.659  1.00  0.00    -0.508 OA
ATOM     17  H   UNL     1       3.046   5.179  -4.221  1.00  0.00     0.293 HD
ENDBRANCH  15  16
ENDBRANCH   8  10
BRANCH   8  18
ATOM     18  O   UNL     1       1.204  -0.050  -0.338  1.00  0.00    -0.376 OA
ATOM     19  H   UNL     1       0.842   0.682   0.186  1.00  0.00     0.212 HD
ENDBRANCH   8  18
ENDBRANCH   5   8
ENDBRANCH   3   4
ENDBRANCH   2   3
ENDBRANCH   1   2
BRANCH   1  20
ATOM     20  C   UNL     1      -3.470  -3.811   0.565  1.00  0.00     0.002 C 
BRANCH  20  21
ATOM     21  C   UNL     1      -2.767  -5.101   0.992  1.00  0.00     0.021 C 
BRANCH  21  22
ATOM     22  C   UNL     1      -2.856  -5.436   2.477  1.00  0.00     0.116 C 
BRANCH  22  23
ATOM     23  N   UNL     1      -4.223  -5.629   2.931  1.00  0.00    -0.352 N 
ATOM     24  C   UNL     1      -4.761  -6.639   3.686  1.00  0.00     0.251 C 
ATOM     25  H   UNL     1      -4.858  -4.929   2.654  1.00  0.00     0.163 HD
ATOM     26  O   UNL     1      -5.978  -6.697   3.854  1.00  0.00    -0.269 OA
BRANCH  24  27
ATOM     27  C   UNL     1      -3.893  -7.681   4.278  1.00  0.00     0.039 A 
ATOM     28  C   UNL     1      -4.305  -9.014   4.204  1.00  0.00     0.014 A 
ATOM     29  C   UNL     1      -2.692  -7.356   4.915  1.00  0.00     0.014 A 
ATOM     30  C   UNL     1      -3.486 -10.025   4.710  1.00  0.00     0.010 A 
ATOM     31  C   UNL     1      -1.844  -8.369   5.361  1.00  0.00     0.010 A 
ATOM     32  C   UNL     1      -2.232  -9.713   5.261  1.00  0.00    -0.014 A 
BRANCH  32  33
ATOM     33  C   UNL     1      -1.313 -10.789   5.713  1.00  0.00     0.031 A 
ATOM     34  C   UNL     1      -0.958 -10.934   7.165  1.00  0.00     0.074 A 
ATOM     35  C   UNL     1      -0.755 -11.606   4.800  1.00  0.00     0.049 A 
ATOM     36  N   UNL     1      -0.165 -11.803   7.740  1.00  0.00    -0.248 NA
ATOM     37  C   UNL     1      -1.552  -9.959   8.092  1.00  0.00     0.031 C 
ATOM     38  C   UNL     1      -0.976 -11.531   3.355  1.00  0.00     0.029 A 
ATOM     39  N   UNL     1       0.113 -12.658   4.950  1.00  0.00    -0.354 N 
ATOM     40  C   UNL     1      -0.155 -11.473   9.089  1.00  0.00     0.074 A 
ATOM     41  C   UNL     1      -0.982 -10.295   9.240  1.00  0.00     0.031 C 
ATOM     42  C   UNL     1      -0.287 -12.514   2.754  1.00  0.00     0.029 A 
ATOM     43  C   UNL     1       0.447 -13.269   3.766  1.00  0.00     0.049 A 
ATOM     44  H   UNL     1       0.464 -12.947   5.823  1.00  0.00     0.167 HD
ATOM     45  C   UNL     1       0.469 -12.109  10.111  1.00  0.00     0.037 A 
ATOM     46  C   UNL     1       1.250 -14.321   3.524  1.00  0.00     0.037 A 
ATOM     47  C   UNL     1       1.270 -13.296   9.961  1.00  0.00     0.049 A 
ATOM     48  C   UNL     1       1.926 -15.012   4.676  1.00  0.00     0.074 A 
ATOM     49  C   UNL     1       1.876 -14.059  10.944  1.00  0.00     0.029 A 
ATOM     50  N   UNL     1       1.585 -13.888   8.746  1.00  0.00    -0.354 N 
ATOM     51  N   UNL     1       1.860 -14.743   5.956  1.00  0.00    -0.248 NA
ATOM     52  C   UNL     1       2.785 -16.157   4.345  1.00  0.00     0.031 C 
ATOM     53  C   UNL     1       2.595 -15.086  10.321  1.00  0.00     0.029 A 
ATOM     54  C   UNL     1       2.400 -14.990   8.952  1.00  0.00     0.049 A 
ATOM     55  H   UNL     1       1.274 -13.572   7.867  1.00  0.00     0.167 HD
ATOM     56  C   UNL     1       2.648 -15.694   6.587  1.00  0.00     0.074 A 
ATOM     57  C   UNL     1       3.169 -16.560   5.549  1.00  0.00     0.031 C 
ATOM     58  C   UNL     1       2.917 -15.838   7.909  1.00  0.00     0.037 A 
BRANCH  45  59
ATOM     59  C   UNL     1       0.307 -11.528  11.486  1.00  0.00     0.064 A 
ATOM     60  C   UNL     1      -0.917 -11.583  12.170  1.00  0.00     0.173 A 
ATOM     61  C   UNL     1       1.396 -10.931  12.139  1.00  0.00     0.173 A 
ATOM     62  F   UNL     1      -1.992 -12.134  11.586  1.00  0.00    -0.203 F 
ATOM     63  C   UNL     1      -1.053 -11.032  13.441  1.00  0.00     0.198 A 
ATOM     64  C   UNL     1       1.264 -10.407  13.422  1.00  0.00     0.198 A 
ATOM     65  F   UNL     1       2.591 -10.858  11.533  1.00  0.00    -0.203 F 
ATOM     66  F   UNL     1      -2.246 -11.049  14.053  1.00  0.00    -0.200 F 
ATOM     67  C   UNL     1       0.038 -10.449  14.068  1.00  0.00     0.200 A 
ATOM     68  F   UNL     1       2.322  -9.855  14.031  1.00  0.00    -0.200 F 
ATOM     69  F   UNL     1      -0.095  -9.921  15.293  1.00  0.00    -0.200 F 
ENDBRANCH  45  59
BRANCH  46  70
ATOM     70  C   UNL     1       1.423 -14.811   2.133  1.00  0.00     0.064 A 
ATOM     71  C   UNL     1       0.849 -16.023   1.726  1.00  0.00     0.173 A 
ATOM     72  C   UNL     1       2.146 -14.077   1.183  1.00  0.00     0.173 A 
ATOM     73  F   UNL     1       0.165 -16.769   2.606  1.00  0.00    -0.203 F 
ATOM     74  C   UNL     1       1.004 -16.490   0.422  1.00  0.00     0.198 A 
ATOM     75  C   UNL     1       2.279 -14.532  -0.127  1.00  0.00     0.198 A 
ATOM     76  F   UNL     1       2.710 -12.909   1.524  1.00  0.00    -0.203 F 
ATOM     77  F   UNL     1       0.475 -17.669   0.068  1.00  0.00    -0.200 F 
ATOM     78  C   UNL     1       1.713 -15.741  -0.505  1.00  0.00     0.200 A 
ATOM     79  F   UNL     1       2.954 -13.800  -1.024  1.00  0.00    -0.200 F 
ATOM     80  F   UNL     1       1.854 -16.185  -1.761  1.00  0.00    -0.200 F 
ENDBRANCH  46  70
BRANCH  58  81
ATOM     81  C   UNL     1       3.803 -16.983   8.304  1.00  0.00     0.064 A 
ATOM     82  C   UNL     1       5.180 -16.973   8.034  1.00  0.00     0.173 A 
ATOM     83  C   UNL     1       3.274 -18.092   8.981  1.00  0.00     0.173 A 
ATOM     84  F   UNL     1       5.730 -15.943   7.373  1.00  0.00    -0.203 F 
ATOM     85  C   UNL     1       5.989 -18.044   8.401  1.00  0.00     0.198 A 
ATOM     86  C   UNL     1       4.092 -19.149   9.373  1.00  0.00     0.198 A 
ATOM     87  F   UNL     1       1.965 -18.148   9.268  1.00  0.00    -0.203 F 
ATOM     88  F   UNL     1       7.292 -18.036   8.087  1.00  0.00    -0.200 F 
ATOM     89  C   UNL     1       5.446 -19.128   9.075  1.00  0.00     0.200 A 
ATOM     90  F   UNL     1       3.568 -20.190  10.034  1.00  0.00    -0.200 F 
ATOM     91  F   UNL     1       6.227 -20.157   9.430  1.00  0.00    -0.200 F 
ENDBRANCH  58  81
ENDBRANCH  32  33
ENDBRANCH  24  27
ENDBRANCH  22  23
ENDBRANCH  21  22
ENDBRANCH  20  21
ENDBRANCH   1  20
TORSDOF 16
