REMARK SMILES CCN1C[C@]2(C(=O)NCCCCCCNC(=O)c3ccc(-c4c5nc(c(-c6c(F)c(F)c(F)c(F)c6F)c6ccc([nH]6)c(-c6c(F)c(F)c(F)c(F)c6F)c6nc(c(-c7c(F)c(F)c(F)c(F)c7F)c7ccc4[nH]7)C=C6)C=C5)cc3)CN(c3ccc(-c4ccccc4)nn3)C[C@H]2C1=O
REMARK SMILES IDX 11 1 10 2 9 3 8 4 6 5 7 6 5 8 3 9 4 10 97 11 96 12 98 13
REMARK SMILES IDX 81 14 95 15 82 16 2 17 1 18 83 19 84 20 94 21 85 22 93 23
REMARK SMILES IDX 86 24 87 25 88 26 92 27 89 28 91 29 90 30 12 31 13 32 14 33
REMARK SMILES IDX 15 34 16 35 17 37 18 38 19 39 80 40 20 41 79 42 21 43 22 44
REMARK SMILES IDX 23 45 73 46 24 47 78 48 72 49 74 50 25 51 77 52 71 53 70 54
REMARK SMILES IDX 26 56 58 57 38 58 57 59 39 60 42 61 56 62 75 63 40 64 41 65
REMARK SMILES IDX 55 67 76 68 43 69 27 70 28 71 36 72 29 73 30 74 34 75 37 76
REMARK SMILES IDX 31 77 32 78 35 79 33 80 59 81 60 82 68 83 61 84 62 85 66 86
REMARK SMILES IDX 69 87 63 88 64 89 67 90 65 91 44 92 45 93 53 94 46 95 47 96
REMARK SMILES IDX 51 97 54 98 48 99 49 100 52 101 50 102
REMARK H PARENT 8 7 15 36 74 55 42 66
REMARK Flexibility Score: inf
ROOT
ATOM      1  C   UNL     1       5.423  -5.175   2.925  1.00  0.00     0.002 C 
ENDROOT
BRANCH   1   2
ATOM      2  C   UNL     1       4.309  -5.540   1.938  1.00  0.00     0.021 C 
BRANCH   2   3
ATOM      3  C   UNL     1       3.387  -4.366   1.605  1.00  0.00     0.116 C 
BRANCH   3   4
ATOM      4  N   UNL     1       4.062  -3.483   0.678  1.00  0.00    -0.355 N 
ATOM      5  C   UNL     1       3.906  -3.495  -0.682  1.00  0.00     0.230 C 
ATOM      6  O   UNL     1       4.843  -3.122  -1.388  1.00  0.00    -0.274 OA
ATOM      7  H   UNL     1       4.685  -2.821   1.056  1.00  0.00     0.163 HD
BRANCH   5   8
ATOM      8  C   UNL     1       2.533  -3.922  -1.205  1.00  0.00     0.097 C 
ATOM      9  N   UNL     1       1.000  -2.127  -1.713  1.00  0.00    -0.341 N 
ATOM     10  C   UNL     1       2.408  -2.454  -1.847  1.00  0.00     0.139 C 
ATOM     11  C   UNL     1       0.251  -3.277  -1.762  1.00  0.00     0.228 C 
ATOM     12  C   UNL     1       1.273  -4.331  -2.015  1.00  0.00     0.117 C 
ATOM     13  O   UNL     1      -0.951  -3.412  -1.685  1.00  0.00    -0.274 OA
ATOM     14  C   UNL     1       3.206  -5.316  -1.680  1.00  0.00     0.137 C 
ATOM     15  C   UNL     1       0.851  -5.693  -1.537  1.00  0.00     0.133 C 
ATOM     16  N   UNL     1       2.148  -6.299  -1.371  1.00  0.00    -0.353 N 
BRANCH   9  17
ATOM     17  C   UNL     1       0.476  -0.787  -1.516  1.00  0.00     0.116 C 
ATOM     18  C   UNL     1       0.797  -0.240  -0.134  1.00  0.00     0.027 C 
ENDBRANCH   9  17
BRANCH  16  19
ATOM     19  C   UNL     1       2.377  -7.407  -0.599  1.00  0.00     0.151 A 
ATOM     20  C   UNL     1       1.720  -7.616   0.608  1.00  0.00     0.051 A 
ATOM     21  N   UNL     1       3.294  -8.310  -0.979  1.00  0.00    -0.132 NA
ATOM     22  C   UNL     1       1.984  -8.747   1.388  1.00  0.00     0.035 A 
ATOM     23  N   UNL     1       3.525  -9.468  -0.234  1.00  0.00    -0.148 NA
ATOM     24  C   UNL     1       2.876  -9.700   0.926  1.00  0.00     0.093 A 
BRANCH  24  25
ATOM     25  C   UNL     1       3.171 -10.976   1.617  1.00  0.00     0.002 A 
ATOM     26  C   UNL     1       4.319 -11.722   1.284  1.00  0.00     0.010 A 
ATOM     27  C   UNL     1       2.318 -11.527   2.595  1.00  0.00     0.010 A 
ATOM     28  C   UNL     1       4.597 -12.954   1.885  1.00  0.00     0.001 A 
ATOM     29  C   UNL     1       2.594 -12.761   3.200  1.00  0.00     0.001 A 
ATOM     30  C   UNL     1       3.732 -13.475   2.841  1.00  0.00     0.000 A 
ENDBRANCH  24  25
ENDBRANCH  16  19
ENDBRANCH   5   8
ENDBRANCH   3   4
ENDBRANCH   2   3
ENDBRANCH   1   2
BRANCH   1  31
ATOM     31  C   UNL     1       4.917  -4.753   4.308  1.00  0.00     0.002 C 
BRANCH  31  32
ATOM     32  C   UNL     1       3.949  -5.746   4.956  1.00  0.00     0.021 C 
BRANCH  32  33
ATOM     33  C   UNL     1       4.509  -7.159   5.085  1.00  0.00     0.116 C 
BRANCH  33  34
ATOM     34  N   UNL     1       5.684  -7.183   5.940  1.00  0.00    -0.352 N 
ATOM     35  C   UNL     1       5.862  -7.813   7.143  1.00  0.00     0.251 C 
ATOM     36  H   UNL     1       6.460  -6.676   5.608  1.00  0.00     0.163 HD
ATOM     37  O   UNL     1       6.796  -7.507   7.874  1.00  0.00    -0.269 OA
BRANCH  35  38
ATOM     38  C   UNL     1       4.912  -8.866   7.556  1.00  0.00     0.039 A 
ATOM     39  C   UNL     1       4.465  -8.894   8.877  1.00  0.00     0.014 A 
ATOM     40  C   UNL     1       4.486  -9.835   6.642  1.00  0.00     0.014 A 
ATOM     41  C   UNL     1       3.557  -9.876   9.275  1.00  0.00     0.010 A 
ATOM     42  C   UNL     1       3.519 -10.761   7.018  1.00  0.00     0.010 A 
ATOM     43  C   UNL     1       3.059 -10.802   8.343  1.00  0.00    -0.014 A 
BRANCH  43  44
ATOM     44  C   UNL     1       2.081 -11.842   8.745  1.00  0.00     0.031 A 
ATOM     45  C   UNL     1       2.458 -13.296   8.664  1.00  0.00     0.074 A 
ATOM     46  C   UNL     1       0.845 -11.482   9.138  1.00  0.00     0.049 A 
ATOM     47  N   UNL     1       1.730 -14.356   8.912  1.00  0.00    -0.248 NA
ATOM     48  C   UNL     1       3.828 -13.601   8.220  1.00  0.00     0.031 C 
ATOM     49  C   UNL     1       0.353 -10.106   9.224  1.00  0.00     0.029 A 
ATOM     50  N   UNL     1      -0.226 -12.243   9.533  1.00  0.00    -0.354 N 
ATOM     51  C   UNL     1       2.549 -15.446   8.648  1.00  0.00     0.074 A 
ATOM     52  C   UNL     1       3.805 -14.924   8.157  1.00  0.00     0.031 C 
ATOM     53  C   UNL     1      -0.913 -10.120   9.671  1.00  0.00     0.029 A 
ATOM     54  C   UNL     1      -1.336 -11.504   9.860  1.00  0.00     0.049 A 
ATOM     55  H   UNL     1      -0.201 -13.227   9.578  1.00  0.00     0.167 HD
ATOM     56  C   UNL     1       2.287 -16.762   8.826  1.00  0.00     0.037 A 
ATOM     57  C   UNL     1      -2.560 -11.901  10.258  1.00  0.00     0.037 A 
ATOM     58  C   UNL     1       1.040 -17.275   9.330  1.00  0.00     0.049 A 
ATOM     59  C   UNL     1      -2.836 -13.373  10.415  1.00  0.00     0.074 A 
ATOM     60  C   UNL     1       0.686 -18.588   9.585  1.00  0.00     0.029 A 
ATOM     61  N   UNL     1      -0.061 -16.494   9.654  1.00  0.00    -0.354 N 
ATOM     62  N   UNL     1      -2.035 -14.393  10.219  1.00  0.00    -0.248 NA
ATOM     63  C   UNL     1      -4.186 -13.748  10.858  1.00  0.00     0.031 C 
ATOM     64  C   UNL     1      -0.647 -18.608  10.005  1.00  0.00     0.029 A 
ATOM     65  C   UNL     1      -1.104 -17.302  10.081  1.00  0.00     0.049 A 
ATOM     66  H   UNL     1      -0.097 -15.513   9.589  1.00  0.00     0.167 HD
ATOM     67  C   UNL     1      -2.769 -15.524  10.551  1.00  0.00     0.074 A 
ATOM     68  C   UNL     1      -4.075 -15.064  10.973  1.00  0.00     0.031 C 
ATOM     69  C   UNL     1      -2.394 -16.827  10.513  1.00  0.00     0.037 A 
BRANCH  56  70
ATOM     70  C   UNL     1       3.369 -17.742   8.469  1.00  0.00     0.064 A 
ATOM     71  C   UNL     1       4.560 -17.828   9.207  1.00  0.00     0.173 A 
ATOM     72  C   UNL     1       3.201 -18.628   7.394  1.00  0.00     0.173 A 
ATOM     73  F   UNL     1       4.779 -16.996  10.236  1.00  0.00    -0.203 F 
ATOM     74  C   UNL     1       5.554 -18.740   8.862  1.00  0.00     0.198 A 
ATOM     75  C   UNL     1       4.181 -19.564   7.075  1.00  0.00     0.198 A 
ATOM     76  F   UNL     1       2.081 -18.593   6.657  1.00  0.00    -0.203 F 
ATOM     77  F   UNL     1       6.706 -18.764   9.547  1.00  0.00    -0.200 F 
ATOM     78  C   UNL     1       5.361 -19.613   7.803  1.00  0.00     0.200 A 
ATOM     79  F   UNL     1       3.985 -20.418   6.060  1.00  0.00    -0.200 F 
ATOM     80  F   UNL     1       6.314 -20.497   7.478  1.00  0.00    -0.200 F 
ENDBRANCH  56  70
BRANCH  57  81
ATOM     81  C   UNL     1      -3.612 -10.893  10.556  1.00  0.00     0.064 A 
ATOM     82  C   UNL     1      -4.090 -10.712  11.862  1.00  0.00     0.173 A 
ATOM     83  C   UNL     1      -4.175 -10.102   9.542  1.00  0.00     0.173 A 
ATOM     84  F   UNL     1      -3.597 -11.456  12.863  1.00  0.00    -0.203 F 
ATOM     85  C   UNL     1      -5.109  -9.803  12.137  1.00  0.00     0.198 A 
ATOM     86  C   UNL     1      -5.170  -9.169   9.825  1.00  0.00     0.198 A 
ATOM     87  F   UNL     1      -3.749 -10.229   8.277  1.00  0.00    -0.203 F 
ATOM     88  F   UNL     1      -5.585  -9.692  13.385  1.00  0.00    -0.200 F 
ATOM     89  C   UNL     1      -5.645  -9.028  11.120  1.00  0.00     0.200 A 
ATOM     90  F   UNL     1      -5.671  -8.410   8.841  1.00  0.00    -0.200 F 
ATOM     91  F   UNL     1      -6.624  -8.153  11.385  1.00  0.00    -0.200 F 
ENDBRANCH  57  81
BRANCH  69  92
ATOM     92  C   UNL     1      -3.388 -17.846  10.993  1.00  0.00     0.064 A 
ATOM     93  C   UNL     1      -4.554 -18.144  10.272  1.00  0.00     0.173 A 
ATOM     94  C   UNL     1      -3.147 -18.564  12.175  1.00  0.00     0.173 A 
ATOM     95  F   UNL     1      -4.839 -17.477   9.143  1.00  0.00    -0.203 F 
ATOM     96  C   UNL     1      -5.457 -19.098  10.735  1.00  0.00     0.198 A 
ATOM     97  C   UNL     1      -4.033 -19.543  12.614  1.00  0.00     0.198 A 
ATOM     98  F   UNL     1      -2.043 -18.326  12.898  1.00  0.00    -0.203 F 
ATOM     99  F   UNL     1      -6.593 -19.324  10.060  1.00  0.00    -0.200 F 
ATOM    100  C   UNL     1      -5.192 -19.802  11.899  1.00  0.00     0.200 A 
ATOM    101  F   UNL     1      -3.765 -20.235  13.730  1.00  0.00    -0.200 F 
ATOM    102  F   UNL     1      -6.058 -20.726  12.338  1.00  0.00    -0.200 F 
ENDBRANCH  69  92
ENDBRANCH  43  44
ENDBRANCH  35  38
ENDBRANCH  33  34
ENDBRANCH  32  33
ENDBRANCH  31  32
ENDBRANCH   1  31
TORSDOF 16
