REMARK SMILES CCSc1ccc(-c2cc(Cl)cc3c2O[C@H](C(F)(F)F)C(C(=O)NCCCCCCNC(=O)c2ccc(-c4c5nc(c(-c6c(F)c(F)c(F)c(F)c6F)c6ccc([nH]6)c(-c6c(F)c(F)c(F)c(F)c6F)c6nc(c(-c7c(F)c(F)c(F)c(F)c7F)c7ccc4[nH]7)C=C6)C=C5)cc2)=C3)cc1
REMARK SMILES IDX 27 1 26 2 25 3 24 4 22 5 23 6 21 8 8 9 9 10 14 11 10 12
REMARK SMILES IDX 13 13 15 14 11 15 12 16 97 17 16 18 7 19 4 20 5 21 99 22
REMARK SMILES IDX 6 23 98 24 3 25 2 26 1 27 17 28 18 29 19 30 20 31 28 32
REMARK SMILES IDX 29 33 30 34 31 35 32 36 33 38 34 39 35 40 96 41 36 42 95 43
REMARK SMILES IDX 37 44 38 45 39 46 89 47 40 48 94 49 88 50 90 51 41 52 93 53
REMARK SMILES IDX 87 54 86 55 42 57 74 58 54 59 73 60 55 61 58 62 72 63 91 64
REMARK SMILES IDX 56 65 57 66 71 68 92 69 59 70 43 71 44 72 52 73 45 74 46 75
REMARK SMILES IDX 50 76 53 77 47 78 48 79 51 80 49 81 75 82 76 83 84 84 77 85
REMARK SMILES IDX 78 86 82 87 85 88 79 89 80 90 83 91 81 92 60 93 61 94 69 95
REMARK SMILES IDX 62 96 63 97 67 98 70 99 64 100 65 101 68 102 66 103
REMARK H PARENT 24 7 31 37 90 56 58 67
REMARK Flexibility Score: inf
ROOT
ATOM      1  C   UNL     1      16.123  -3.625   1.955  1.00  0.00     0.002 C 
ENDROOT
BRANCH   1   2
ATOM      2  C   UNL     1      15.057  -3.028   2.890  1.00  0.00     0.021 C 
BRANCH   2   3
ATOM      3  C   UNL     1      14.216  -1.905   2.267  1.00  0.00     0.116 C 
BRANCH   3   4
ATOM      4  N   UNL     1      13.551  -2.393   1.077  1.00  0.00    -0.352 N 
ATOM      5  C   UNL     1      12.205  -2.483   0.937  1.00  0.00     0.251 C 
ATOM      6  O   UNL     1      11.690  -3.541   0.597  1.00  0.00    -0.270 OA
ATOM      7  H   UNL     1      14.112  -2.679   0.321  1.00  0.00     0.163 HD
BRANCH   5   8
ATOM      8  C   UNL     1      11.453  -1.201   1.054  1.00  0.00     0.067 C 
ATOM      9  C   UNL     1       7.799  -2.528  -0.080  1.00  0.00     0.026 A 
ATOM     10  C   UNL     1       8.012  -3.373  -1.201  1.00  0.00     0.033 A 
ATOM     11  C   UNL     1       8.881  -1.723   0.309  1.00  0.00     0.135 A 
ATOM     12  C   UNL     1       9.142  -3.272  -2.007  1.00  0.00     0.042 A 
ATOM     13  C   UNL     1       9.963  -1.548  -0.588  1.00  0.00     0.019 A 
ATOM     14  O   UNL     1       8.984  -1.132   1.564  1.00  0.00    -0.475 OA
ATOM     15  Cl  UNL     1       9.337  -4.335  -3.343  1.00  0.00    -0.084 Cl
ATOM     16  C   UNL     1      10.088  -2.299  -1.753  1.00  0.00     0.032 A 
ATOM     17  C   UNL     1      11.090  -0.701  -0.144  1.00  0.00     0.025 C 
ATOM     18  C   UNL     1      10.371  -1.186   2.123  1.00  0.00     0.314 C 
BRANCH   9  19
ATOM     19  C   UNL     1       6.380  -2.417   0.341  1.00  0.00    -0.015 A 
ATOM     20  C   UNL     1       3.546  -2.383  -0.050  1.00  0.00     0.007 A 
ATOM     21  C   UNL     1       4.212  -3.549   0.351  1.00  0.00     0.015 A 
ATOM     22  C   UNL     1       4.298  -1.213  -0.158  1.00  0.00     0.015 A 
ATOM     23  C   UNL     1       5.600  -3.566   0.560  1.00  0.00     0.010 A 
ATOM     24  C   UNL     1       5.690  -1.224   0.059  1.00  0.00     0.010 A 
BRANCH  20  25
ATOM     25  S   UNL     1       1.812  -2.573  -0.450  1.00  0.00    -0.126 SA
BRANCH  25  26
ATOM     26  C   UNL     1       1.219  -0.920  -0.953  1.00  0.00     0.071 C 
ATOM     27  C   UNL     1       1.036   0.001   0.239  1.00  0.00     0.016 C 
ENDBRANCH  25  26
ENDBRANCH  20  25
ENDBRANCH   9  19
BRANCH  18  28
ATOM     28  C   UNL     1      10.670  -0.008   3.078  1.00  0.00     0.429 C 
ATOM     29  F   UNL     1       9.780   1.001   2.963  1.00  0.00    -0.167 F 
ATOM     30  F   UNL     1      10.674  -0.411   4.371  1.00  0.00    -0.167 F 
ATOM     31  F   UNL     1      11.899   0.537   2.857  1.00  0.00    -0.167 F 
ENDBRANCH  18  28
ENDBRANCH   5   8
ENDBRANCH   3   4
ENDBRANCH   2   3
ENDBRANCH   1   2
BRANCH   1  32
ATOM     32  C   UNL     1      17.070  -2.600   1.327  1.00  0.00     0.002 C 
BRANCH  32  33
ATOM     33  C   UNL     1      17.857  -1.767   2.338  1.00  0.00     0.021 C 
BRANCH  33  34
ATOM     34  C   UNL     1      18.662  -2.588   3.337  1.00  0.00     0.116 C 
BRANCH  34  35
ATOM     35  N   UNL     1      19.653  -3.431   2.689  1.00  0.00    -0.352 N 
ATOM     36  C   UNL     1      20.966  -3.626   3.019  1.00  0.00     0.251 C 
ATOM     37  H   UNL     1      19.334  -3.932   1.904  1.00  0.00     0.163 HD
ATOM     38  O   UNL     1      21.711  -4.241   2.253  1.00  0.00    -0.269 OA
BRANCH  36  39
ATOM     39  C   UNL     1      21.500  -3.083   4.284  1.00  0.00     0.039 A 
ATOM     40  C   UNL     1      22.765  -2.492   4.279  1.00  0.00     0.014 A 
ATOM     41  C   UNL     1      20.771  -3.174   5.474  1.00  0.00     0.014 A 
ATOM     42  C   UNL     1      23.286  -1.968   5.462  1.00  0.00     0.010 A 
ATOM     43  C   UNL     1      21.253  -2.572   6.631  1.00  0.00     0.010 A 
ATOM     44  C   UNL     1      22.527  -1.987   6.644  1.00  0.00    -0.014 A 
BRANCH  44  45
ATOM     45  C   UNL     1      23.078  -1.435   7.907  1.00  0.00     0.031 A 
ATOM     46  C   UNL     1      23.324  -2.342   9.083  1.00  0.00     0.074 A 
ATOM     47  C   UNL     1      23.336  -0.117   8.003  1.00  0.00     0.049 A 
ATOM     48  N   UNL     1      23.798  -2.052  10.268  1.00  0.00    -0.248 NA
ATOM     49  C   UNL     1      22.963  -3.759   8.915  1.00  0.00     0.031 C 
ATOM     50  C   UNL     1      23.088   0.870   6.952  1.00  0.00     0.029 A 
ATOM     51  N   UNL     1      23.863   0.618   9.034  1.00  0.00    -0.354 N 
ATOM     52  C   UNL     1      23.787  -3.244  10.982  1.00  0.00     0.074 A 
ATOM     53  C   UNL     1      23.192  -4.245  10.125  1.00  0.00     0.031 C 
ATOM     54  C   UNL     1      23.493   2.077   7.380  1.00  0.00     0.029 A 
ATOM     55  C   UNL     1      23.994   1.954   8.745  1.00  0.00     0.049 A 
ATOM     56  H   UNL     1      24.123   0.226   9.899  1.00  0.00     0.167 HD
ATOM     57  C   UNL     1      24.261  -3.490  12.226  1.00  0.00     0.037 A 
ATOM     58  C   UNL     1      24.467   2.966   9.498  1.00  0.00     0.037 A 
ATOM     59  C   UNL     1      24.866  -2.493  13.070  1.00  0.00     0.049 A 
ATOM     60  C   UNL     1      24.985   2.667  10.880  1.00  0.00     0.074 A 
ATOM     61  C   UNL     1      25.415  -2.645  14.331  1.00  0.00     0.029 A 
ATOM     62  N   UNL     1      24.996  -1.151  12.737  1.00  0.00    -0.354 N 
ATOM     63  N   UNL     1      25.035   1.523  11.518  1.00  0.00    -0.248 NA
ATOM     64  C   UNL     1      25.528   3.801  11.639  1.00  0.00     0.031 C 
ATOM     65  C   UNL     1      25.829  -1.387  14.782  1.00  0.00     0.029 A 
ATOM     66  C   UNL     1      25.599  -0.462  13.777  1.00  0.00     0.049 A 
ATOM     67  H   UNL     1      24.703  -0.750  11.887  1.00  0.00     0.167 HD
ATOM     68  C   UNL     1      25.642   1.791  12.738  1.00  0.00     0.074 A 
ATOM     69  C   UNL     1      25.959   3.204  12.741  1.00  0.00     0.031 C 
ATOM     70  C   UNL     1      25.913   0.945  13.762  1.00  0.00     0.037 A 
BRANCH  57  71
ATOM     71  C   UNL     1      24.146  -4.896  12.746  1.00  0.00     0.064 A 
ATOM     72  C   UNL     1      24.884  -5.952  12.187  1.00  0.00     0.173 A 
ATOM     73  C   UNL     1      23.306  -5.190  13.831  1.00  0.00     0.173 A 
ATOM     74  F   UNL     1      25.693  -5.730  11.140  1.00  0.00    -0.203 F 
ATOM     75  C   UNL     1      24.757  -7.252  12.670  1.00  0.00     0.198 A 
ATOM     76  C   UNL     1      23.209  -6.485  14.335  1.00  0.00     0.198 A 
ATOM     77  F   UNL     1      22.581  -4.220  14.408  1.00  0.00    -0.203 F 
ATOM     78  F   UNL     1      25.426  -8.252  12.079  1.00  0.00    -0.200 F 
ATOM     79  C   UNL     1      23.926  -7.516  13.748  1.00  0.00     0.200 A 
ATOM     80  F   UNL     1      22.417  -6.735  15.386  1.00  0.00    -0.200 F 
ATOM     81  F   UNL     1      23.810  -8.767  14.215  1.00  0.00    -0.200 F 
ENDBRANCH  57  71
BRANCH  58  82
ATOM     82  C   UNL     1      24.498   4.347   8.950  1.00  0.00     0.064 A 
ATOM     83  C   UNL     1      25.713   4.986   8.663  1.00  0.00     0.173 A 
ATOM     84  C   UNL     1      23.315   5.059   8.704  1.00  0.00     0.173 A 
ATOM     85  F   UNL     1      26.873   4.354   8.897  1.00  0.00    -0.203 F 
ATOM     86  C   UNL     1      25.744   6.292   8.179  1.00  0.00     0.198 A 
ATOM     87  C   UNL     1      23.346   6.353   8.188  1.00  0.00     0.198 A 
ATOM     88  F   UNL     1      22.125   4.491   8.953  1.00  0.00    -0.203 F 
ATOM     89  F   UNL     1      26.920   6.897   7.964  1.00  0.00    -0.200 F 
ATOM     90  C   UNL     1      24.560   6.972   7.936  1.00  0.00     0.200 A 
ATOM     91  F   UNL     1      22.199   6.999   7.938  1.00  0.00    -0.200 F 
ATOM     92  F   UNL     1      24.590   8.227   7.466  1.00  0.00    -0.200 F 
ENDBRANCH  58  82
BRANCH  70  93
ATOM     93  C   UNL     1      26.628   1.516  14.954  1.00  0.00     0.064 A 
ATOM     94  C   UNL     1      26.010   2.425  15.826  1.00  0.00     0.173 A 
ATOM     95  C   UNL     1      27.947   1.129  15.240  1.00  0.00     0.173 A 
ATOM     96  F   UNL     1      24.755   2.838  15.592  1.00  0.00    -0.203 F 
ATOM     97  C   UNL     1      26.698   2.956  16.914  1.00  0.00     0.198 A 
ATOM     98  C   UNL     1      28.619   1.632  16.350  1.00  0.00     0.198 A 
ATOM     99  F   UNL     1      28.583   0.254  14.446  1.00  0.00    -0.203 F 
ATOM    100  F   UNL     1      26.109   3.871  17.695  1.00  0.00    -0.200 F 
ATOM    101  C   UNL     1      27.999   2.554  17.179  1.00  0.00     0.200 A 
ATOM    102  F   UNL     1      29.869   1.228  16.615  1.00  0.00    -0.200 F 
ATOM    103  F   UNL     1      28.658   3.063  18.229  1.00  0.00    -0.200 F 
ENDBRANCH  70  93
ENDBRANCH  44  45
ENDBRANCH  36  39
ENDBRANCH  34  35
ENDBRANCH  33  34
ENDBRANCH  32  33
ENDBRANCH   1  32
TORSDOF 17
