REMARK SMILES O=C(Cc1ccccc1C(=O)NCCCCCCNC(=O)c1ccc(-c2c3nc(c(-c4c(F)c(F)c(F)c(F)c4F)c4ccc([nH]4)c(-c4c(F)c(F)c(F)c(F)c4F)c4nc(c(-c5c(F)c(F)c(F)c(F)c5F)c5ccc2[nH]5)C=C4)C=C3)cc1)Nc1cccc(OC[C@@H]2CCCO2)c1
REMARK SMILES IDX 13 1 12 2 10 3 11 4 9 6 4 7 5 8 6 9 8 10 7 11 3 12 2 13 1 14
REMARK SMILES IDX 85 15 86 17 87 18 98 19 88 20 90 21 89 22 91 23 92 24 93 25
REMARK SMILES IDX 94 26 97 27 95 28 96 29 14 30 15 31 16 32 17 33 18 34 19 35
REMARK SMILES IDX 20 36 21 38 22 39 23 40 84 41 24 42 83 43 25 44 26 45 27 46
REMARK SMILES IDX 77 47 28 48 82 49 76 50 78 51 29 52 81 53 75 54 74 55 30 57
REMARK SMILES IDX 62 58 42 59 61 60 43 61 46 62 60 63 79 64 44 65 45 66 59 68
REMARK SMILES IDX 80 69 47 70 31 71 32 72 40 73 33 74 34 75 38 76 41 77 35 78
REMARK SMILES IDX 36 79 39 80 37 81 63 82 64 83 72 84 65 85 66 86 70 87 73 88
REMARK SMILES IDX 67 89 68 90 71 91 69 92 48 93 49 94 57 95 50 96 51 97 55 98
REMARK SMILES IDX 58 99 52 100 53 101 56 102 54 103
REMARK H PARENT 12 5 85 16 19 37 78 56 46 67
REMARK Flexibility Score: inf
ROOT
ATOM      1  C   UNL     1       4.295   3.082   1.212  1.00  0.00     0.116 C 
ENDROOT
BRANCH   1   2
ATOM      2  N   UNL     1       4.659   2.748   2.571  1.00  0.00    -0.352 N 
ATOM      3  C   UNL     1       4.848   1.655   3.361  1.00  0.00     0.251 C 
ATOM      4  O   UNL     1       5.188   1.960   4.514  1.00  0.00    -0.269 OA
ATOM      5  H   UNL     1       4.821   3.569   3.088  1.00  0.00     0.163 HD
BRANCH   3   6
ATOM      6  C   UNL     1       4.731   0.182   3.054  1.00  0.00     0.043 A 
ATOM      7  C   UNL     1       3.864  -0.515   2.176  1.00  0.00    -0.026 A 
ATOM      8  C   UNL     1       3.773  -1.926   2.288  1.00  0.00     0.005 A 
ATOM      9  C   UNL     1       4.558  -2.652   3.180  1.00  0.00     0.000 A 
ATOM     10  C   UNL     1       5.528  -0.595   3.933  1.00  0.00     0.014 A 
ATOM     11  C   UNL     1       5.453  -1.986   3.994  1.00  0.00     0.001 A 
BRANCH   7  12
ATOM     12  C   UNL     1       3.012   0.182   1.158  1.00  0.00     0.136 C 
BRANCH  12  13
ATOM     13  C   UNL     1       2.144  -0.611   0.207  1.00  0.00     0.228 C 
ATOM     14  O   UNL     1       0.921  -0.482   0.232  1.00  0.00    -0.274 OA
ATOM     15  N   UNL     1       2.845  -1.384  -0.718  1.00  0.00    -0.326 N 
ATOM     16  H   UNL     1       3.800  -1.565  -0.560  1.00  0.00     0.169 HD
BRANCH  15  17
ATOM     17  C   UNL     1       2.232  -1.915  -1.869  1.00  0.00     0.044 A 
ATOM     18  C   UNL     1       2.572  -3.186  -2.324  1.00  0.00     0.026 A 
ATOM     19  C   UNL     1       1.259  -1.175  -2.546  1.00  0.00     0.072 A 
ATOM     20  C   UNL     1       1.838  -3.754  -3.369  1.00  0.00     0.006 A 
ATOM     21  C   UNL     1       0.489  -1.744  -3.552  1.00  0.00     0.121 A 
ATOM     22  C   UNL     1       0.785  -3.045  -3.960  1.00  0.00     0.046 A 
BRANCH  21  23
ATOM     23  O   UNL     1      -0.586  -1.156  -4.157  1.00  0.00    -0.491 OA
BRANCH  23  24
ATOM     24  C   UNL     1      -0.902   0.205  -3.834  1.00  0.00     0.261 C 
BRANCH  24  25
ATOM     25  C   UNL     1      -1.500   0.413  -2.438  1.00  0.00     0.156 C 
ATOM     26  C   UNL     1      -2.740  -0.398  -2.128  1.00  0.00     0.038 C 
ATOM     27  O   UNL     1      -1.876   1.789  -2.225  1.00  0.00    -0.375 OA
ATOM     28  C   UNL     1      -3.258   0.350  -0.921  1.00  0.00     0.031 C 
ATOM     29  C   UNL     1      -2.950   1.794  -1.268  1.00  0.00     0.161 C 
ENDBRANCH  24  25
ENDBRANCH  23  24
ENDBRANCH  21  23
ENDBRANCH  15  17
ENDBRANCH  12  13
ENDBRANCH   7  12
ENDBRANCH   3   6
ENDBRANCH   1   2
BRANCH   1  30
ATOM     30  C   UNL     1       2.804   3.438   1.130  1.00  0.00     0.021 C 
BRANCH  30  31
ATOM     31  C   UNL     1       2.557   4.905   0.771  1.00  0.00     0.002 C 
BRANCH  31  32
ATOM     32  C   UNL     1       2.957   5.260  -0.664  1.00  0.00     0.002 C 
BRANCH  32  33
ATOM     33  C   UNL     1       2.139   4.555  -1.749  1.00  0.00     0.021 C 
BRANCH  33  34
ATOM     34  C   UNL     1       0.643   4.851  -1.703  1.00  0.00     0.116 C 
BRANCH  34  35
ATOM     35  N   UNL     1       0.374   6.274  -1.872  1.00  0.00    -0.352 N 
ATOM     36  C   UNL     1      -0.318   6.908  -2.871  1.00  0.00     0.251 C 
ATOM     37  H   UNL     1       0.741   6.862  -1.172  1.00  0.00     0.163 HD
ATOM     38  O   UNL     1      -0.241   8.128  -3.015  1.00  0.00    -0.269 OA
BRANCH  36  39
ATOM     39  C   UNL     1      -1.166   6.112  -3.776  1.00  0.00     0.039 A 
ATOM     40  C   UNL     1      -1.108   6.322  -5.156  1.00  0.00     0.014 A 
ATOM     41  C   UNL     1      -2.020   5.146  -3.243  1.00  0.00     0.014 A 
ATOM     42  C   UNL     1      -1.863   5.513  -6.010  1.00  0.00     0.010 A 
ATOM     43  C   UNL     1      -2.711   4.300  -4.096  1.00  0.00     0.010 A 
ATOM     44  C   UNL     1      -2.647   4.476  -5.485  1.00  0.00    -0.014 A 
BRANCH  44  45
ATOM     45  C   UNL     1      -3.440   3.553  -6.334  1.00  0.00     0.031 A 
ATOM     46  C   UNL     1      -4.934   3.507  -6.175  1.00  0.00     0.074 A 
ATOM     47  C   UNL     1      -2.814   2.673  -7.137  1.00  0.00     0.049 A 
ATOM     48  N   UNL     1      -5.799   2.662  -6.675  1.00  0.00    -0.248 NA
ATOM     49  C   UNL     1      -5.532   4.528  -5.298  1.00  0.00     0.031 C 
ATOM     50  C   UNL     1      -1.367   2.583  -7.332  1.00  0.00     0.029 A 
ATOM     51  N   UNL     1      -3.318   1.664  -7.918  1.00  0.00    -0.354 N 
ATOM     52  C   UNL     1      -7.031   3.032  -6.152  1.00  0.00     0.074 A 
ATOM     53  C   UNL     1      -6.796   4.139  -5.252  1.00  0.00     0.031 C 
ATOM     54  C   UNL     1      -1.101   1.584  -8.189  1.00  0.00     0.029 A 
ATOM     55  C   UNL     1      -2.352   0.935  -8.568  1.00  0.00     0.049 A 
ATOM     56  H   UNL     1      -4.282   1.479  -8.005  1.00  0.00     0.167 HD
ATOM     57  C   UNL     1      -8.252   2.511  -6.418  1.00  0.00     0.037 A 
ATOM     58  C   UNL     1      -2.467  -0.142  -9.367  1.00  0.00     0.037 A 
ATOM     59  C   UNL     1      -8.480   1.429  -7.339  1.00  0.00     0.049 A 
ATOM     60  C   UNL     1      -3.835  -0.705  -9.649  1.00  0.00     0.074 A 
ATOM     61  C   UNL     1      -9.681   0.864  -7.727  1.00  0.00     0.029 A 
ATOM     62  N   UNL     1      -7.479   0.749  -8.017  1.00  0.00    -0.354 N 
ATOM     63  N   UNL     1      -5.002  -0.307  -9.204  1.00  0.00    -0.248 NA
ATOM     64  C   UNL     1      -3.903  -1.863 -10.551  1.00  0.00     0.031 C 
ATOM     65  C   UNL     1      -9.405  -0.188  -8.605  1.00  0.00     0.029 A 
ATOM     66  C   UNL     1      -8.035  -0.241  -8.810  1.00  0.00     0.049 A 
ATOM     67  H   UNL     1      -6.516   0.941  -7.945  1.00  0.00     0.167 HD
ATOM     68  C   UNL     1      -5.943  -1.137  -9.800  1.00  0.00     0.074 A 
ATOM     69  C   UNL     1      -5.211  -2.060 -10.642  1.00  0.00     0.031 C 
ATOM     70  C   UNL     1      -7.291  -1.131  -9.665  1.00  0.00     0.037 A 
BRANCH  57  71
ATOM     71  C   UNL     1      -9.433   3.109  -5.709  1.00  0.00     0.064 A 
ATOM     72  C   UNL     1      -9.870   4.415  -5.979  1.00  0.00     0.173 A 
ATOM     73  C   UNL     1     -10.152   2.361  -4.765  1.00  0.00     0.173 A 
ATOM     74  F   UNL     1      -9.212   5.178  -6.866  1.00  0.00    -0.203 F 
ATOM     75  C   UNL     1     -10.958   4.963  -5.305  1.00  0.00     0.198 A 
ATOM     76  C   UNL     1     -11.262   2.899  -4.118  1.00  0.00     0.198 A 
ATOM     77  F   UNL     1      -9.783   1.105  -4.472  1.00  0.00    -0.203 F 
ATOM     78  F   UNL     1     -11.319   6.232  -5.537  1.00  0.00    -0.200 F 
ATOM     79  C   UNL     1     -11.657   4.202  -4.380  1.00  0.00     0.200 A 
ATOM     80  F   UNL     1     -11.946   2.158  -3.236  1.00  0.00    -0.200 F 
ATOM     81  F   UNL     1     -12.708   4.728  -3.736  1.00  0.00    -0.200 F 
ENDBRANCH  57  71
BRANCH  58  82
ATOM     82  C   UNL     1      -1.255  -0.738  -9.989  1.00  0.00     0.064 A 
ATOM     83  C   UNL     1      -1.033  -0.627 -11.369  1.00  0.00     0.173 A 
ATOM     84  C   UNL     1      -0.299  -1.425  -9.227  1.00  0.00     0.173 A 
ATOM     85  F   UNL     1      -1.928   0.004 -12.142  1.00  0.00    -0.203 F 
ATOM     86  C   UNL     1       0.088  -1.200 -11.966  1.00  0.00     0.198 A 
ATOM     87  C   UNL     1       0.836  -1.972  -9.822  1.00  0.00     0.198 A 
ATOM     88  F   UNL     1      -0.461  -1.554  -7.902  1.00  0.00    -0.203 F 
ATOM     89  F   UNL     1       0.251  -1.119 -13.294  1.00  0.00    -0.200 F 
ATOM     90  C   UNL     1       1.024  -1.867 -11.192  1.00  0.00     0.200 A 
ATOM     91  F   UNL     1       1.747  -2.604  -9.069  1.00  0.00    -0.200 F 
ATOM     92  F   UNL     1       2.104  -2.415 -11.766  1.00  0.00    -0.200 F 
ENDBRANCH  58  82
BRANCH  70  93
ATOM     93  C   UNL     1      -8.078  -2.105 -10.493  1.00  0.00     0.064 A 
ATOM     94  C   UNL     1      -8.098  -3.476 -10.204  1.00  0.00     0.173 A 
ATOM     95  C   UNL     1      -8.883  -1.641 -11.546  1.00  0.00     0.173 A 
ATOM     96  F   UNL     1      -7.336  -3.970  -9.217  1.00  0.00    -0.203 F 
ATOM     97  C   UNL     1      -8.884  -4.351 -10.950  1.00  0.00     0.198 A 
ATOM     98  C   UNL     1      -9.690  -2.514 -12.269  1.00  0.00     0.198 A 
ATOM     99  F   UNL     1      -8.904  -0.336 -11.857  1.00  0.00    -0.203 F 
ATOM    100  F   UNL     1      -8.862  -5.664 -10.681  1.00  0.00    -0.200 F 
ATOM    101  C   UNL     1      -9.687  -3.868 -11.974  1.00  0.00     0.200 A 
ATOM    102  F   UNL     1     -10.476  -2.042 -13.247  1.00  0.00    -0.200 F 
ATOM    103  F   UNL     1     -10.456  -4.710 -12.678  1.00  0.00    -0.200 F 
ENDBRANCH  70  93
ENDBRANCH  44  45
ENDBRANCH  36  39
ENDBRANCH  34  35
ENDBRANCH  33  34
ENDBRANCH  32  33
ENDBRANCH  31  32
ENDBRANCH  30  31
ENDBRANCH   1  30
TORSDOF 19
