REMARK SMILES Cc1csc(C[C@@H](Cc2ccc(Br)cc2)C(=O)NCCCCCCNC(=O)c2ccc(-c3c4nc(c(-c5c(F)c(F)c(F)c(F)c5F)c5ccc([nH]5)c(-c5c(F)c(F)c(F)c(F)c5F)c5nc(c(-c6c(F)c(F)c(F)c(F)c6F)c6ccc3[nH]6)C=C5)C=C4)cc2)n1
REMARK SMILES IDX 21 1 20 2 19 3 18 4 16 5 17 6 7 8 6 9 5 10 1 11 2 12 3 13
REMARK SMILES IDX 91 14 4 15 8 16 9 17 10 18 15 19 11 20 14 21 12 22 13 23
REMARK SMILES IDX 22 24 23 25 24 26 25 27 26 28 27 30 28 31 29 32 90 33 30 34
REMARK SMILES IDX 89 35 31 36 32 37 33 38 83 39 34 40 88 41 82 42 84 43 35 44
REMARK SMILES IDX 87 45 81 46 80 47 36 49 68 50 48 51 67 52 49 53 52 54 66 55
REMARK SMILES IDX 85 56 50 57 51 58 65 60 86 61 53 62 37 63 38 64 46 65 39 66
REMARK SMILES IDX 40 67 44 68 47 69 41 70 42 71 45 72 43 73 69 74 70 75 78 76
REMARK SMILES IDX 71 77 72 78 76 79 79 80 73 81 74 82 77 83 75 84 54 85 55 86
REMARK SMILES IDX 63 87 56 88 57 89 61 90 64 91 58 92 59 93 62 94 60 95
REMARK H PARENT 18 7 25 29 84 48 52 59
REMARK Flexibility Score: inf
ROOT
ATOM      1  C   UNL     1       2.956   6.978   2.518  1.00  0.00     0.002 C 
ENDROOT
BRANCH   1   2
ATOM      2  C   UNL     1       2.490   5.528   2.359  1.00  0.00     0.021 C 
BRANCH   2   3
ATOM      3  C   UNL     1       1.532   5.285   1.200  1.00  0.00     0.116 C 
BRANCH   3   4
ATOM      4  N   UNL     1       2.181   5.204  -0.090  1.00  0.00    -0.356 N 
ATOM      5  C   UNL     1       1.880   4.452  -1.183  1.00  0.00     0.223 C 
ATOM      6  O   UNL     1       2.453   4.751  -2.236  1.00  0.00    -0.275 OA
ATOM      7  H   UNL     1       2.969   5.786  -0.193  1.00  0.00     0.163 HD
BRANCH   5   8
ATOM      8  C   UNL     1       0.905   3.273  -1.159  1.00  0.00     0.089 C 
BRANCH   8   9
ATOM      9  C   UNL     1       1.334   2.209  -0.139  1.00  0.00     0.081 C 
BRANCH   9  10
ATOM     10  C   UNL     1       0.589   0.911  -0.240  1.00  0.00     0.094 A 
ATOM     11  C   UNL     1      -2.567  -0.797  -0.065  1.00  0.00     0.067 C 
ATOM     12  C   UNL     1      -1.114  -0.509  -0.153  1.00  0.00     0.048 A 
ATOM     13  C   UNL     1      -0.075  -1.416  -0.187  1.00  0.00     0.090 A 
ATOM     14  N   UNL     1      -0.720   0.813  -0.185  1.00  0.00    -0.247 NA
ATOM     15  S   UNL     1       1.426  -0.590  -0.278  1.00  0.00    -0.127 S 
ENDBRANCH   9  10
ENDBRANCH   8   9
BRANCH   8  16
ATOM     16  C   UNL     1      -0.575   3.709  -1.268  1.00  0.00     0.049 C 
BRANCH  16  17
ATOM     17  C   UNL     1      -1.252   4.425  -0.122  1.00  0.00    -0.047 A 
ATOM     18  C   UNL     1      -1.651   3.741   1.035  1.00  0.00     0.005 A 
ATOM     19  C   UNL     1      -1.534   5.797  -0.218  1.00  0.00     0.005 A 
ATOM     20  C   UNL     1      -2.265   4.417   2.092  1.00  0.00     0.016 A 
ATOM     21  C   UNL     1      -2.154   6.476   0.836  1.00  0.00     0.016 A 
ATOM     22  C   UNL     1      -2.508   5.784   1.991  1.00  0.00     0.017 A 
ATOM     23  Br  UNL     1      -3.306   6.704   3.436  1.00  0.00    -0.051 Br
ENDBRANCH  16  17
ENDBRANCH   8  16
ENDBRANCH   5   8
ENDBRANCH   3   4
ENDBRANCH   2   3
ENDBRANCH   1   2
BRANCH   1  24
ATOM     24  C   UNL     1       1.854   8.045   2.557  1.00  0.00     0.002 C 
BRANCH  24  25
ATOM     25  C   UNL     1       0.679   7.776   3.502  1.00  0.00     0.021 C 
BRANCH  25  26
ATOM     26  C   UNL     1       1.037   7.588   4.971  1.00  0.00     0.116 C 
BRANCH  26  27
ATOM     27  N   UNL     1       1.648   8.768   5.552  1.00  0.00    -0.352 N 
ATOM     28  C   UNL     1       1.372   9.418   6.728  1.00  0.00     0.251 C 
ATOM     29  H   UNL     1       2.374   9.165   5.019  1.00  0.00     0.163 HD
ATOM     30  O   UNL     1       1.916  10.494   6.963  1.00  0.00    -0.269 OA
BRANCH  28  31
ATOM     31  C   UNL     1       0.419   8.854   7.714  1.00  0.00     0.039 A 
ATOM     32  C   UNL     1      -0.419   9.738   8.403  1.00  0.00     0.014 A 
ATOM     33  C   UNL     1       0.384   7.490   8.017  1.00  0.00     0.014 A 
ATOM     34  C   UNL     1      -1.306   9.255   9.368  1.00  0.00     0.010 A 
ATOM     35  C   UNL     1      -0.550   7.000   8.931  1.00  0.00     0.010 A 
ATOM     36  C   UNL     1      -1.391   7.879   9.630  1.00  0.00    -0.014 A 
BRANCH  36  37
ATOM     37  C   UNL     1      -2.325   7.356  10.659  1.00  0.00     0.031 A 
ATOM     38  C   UNL     1      -1.791   6.716  11.912  1.00  0.00     0.074 A 
ATOM     39  C   UNL     1      -3.655   7.426  10.456  1.00  0.00     0.049 A 
ATOM     40  N   UNL     1      -2.442   6.171  12.909  1.00  0.00    -0.248 NA
ATOM     41  C   UNL     1      -0.328   6.657  12.050  1.00  0.00     0.031 C 
ATOM     42  C   UNL     1      -4.299   7.985   9.267  1.00  0.00     0.029 A 
ATOM     43  N   UNL     1      -4.703   7.019  11.243  1.00  0.00    -0.354 N 
ATOM     44  C   UNL     1      -1.472   5.694  13.781  1.00  0.00     0.074 A 
ATOM     45  C   UNL     1      -0.188   5.967  13.172  1.00  0.00     0.031 C 
ATOM     46  C   UNL     1      -5.631   7.909   9.414  1.00  0.00     0.029 A 
ATOM     47  C   UNL     1      -5.935   7.271  10.692  1.00  0.00     0.049 A 
ATOM     48  H   UNL     1      -4.583   6.588  12.120  1.00  0.00     0.167 HD
ATOM     49  C   UNL     1      -1.634   5.104  14.989  1.00  0.00     0.037 A 
ATOM     50  C   UNL     1      -7.170   7.017  11.165  1.00  0.00     0.037 A 
ATOM     51  C   UNL     1      -2.911   4.860  15.608  1.00  0.00     0.049 A 
ATOM     52  C   UNL     1      -7.324   6.372  12.516  1.00  0.00     0.074 A 
ATOM     53  C   UNL     1      -3.178   4.314  16.852  1.00  0.00     0.029 A 
ATOM     54  N   UNL     1      -4.137   5.151  15.028  1.00  0.00    -0.354 N 
ATOM     55  N   UNL     1      -6.398   5.979  13.357  1.00  0.00    -0.248 NA
ATOM     56  C   UNL     1      -8.697   6.147  12.988  1.00  0.00     0.031 C 
ATOM     57  C   UNL     1      -4.567   4.241  17.009  1.00  0.00     0.029 A 
ATOM     58  C   UNL     1      -5.164   4.784  15.883  1.00  0.00     0.049 A 
ATOM     59  H   UNL     1      -4.259   5.559  14.140  1.00  0.00     0.167 HD
ATOM     60  C   UNL     1      -7.073   5.489  14.466  1.00  0.00     0.074 A 
ATOM     61  C   UNL     1      -8.488   5.645  14.197  1.00  0.00     0.031 C 
ATOM     62  C   UNL     1      -6.567   4.957  15.605  1.00  0.00     0.037 A 
BRANCH  49  63
ATOM     63  C   UNL     1      -0.395   4.682  15.725  1.00  0.00     0.064 A 
ATOM     64  C   UNL     1       0.485   5.622  16.283  1.00  0.00     0.173 A 
ATOM     65  C   UNL     1      -0.096   3.322  15.897  1.00  0.00     0.173 A 
ATOM     66  F   UNL     1       0.250   6.935  16.136  1.00  0.00    -0.203 F 
ATOM     67  C   UNL     1       1.634   5.218  16.956  1.00  0.00     0.198 A 
ATOM     68  C   UNL     1       1.039   2.921  16.597  1.00  0.00     0.198 A 
ATOM     69  F   UNL     1      -0.906   2.381  15.389  1.00  0.00    -0.203 F 
ATOM     70  F   UNL     1       2.486   6.135  17.435  1.00  0.00    -0.200 F 
ATOM     71  C   UNL     1       1.907   3.868  17.119  1.00  0.00     0.200 A 
ATOM     72  F   UNL     1       1.296   1.616  16.764  1.00  0.00    -0.200 F 
ATOM     73  F   UNL     1       3.012   3.480  17.770  1.00  0.00    -0.200 F 
ENDBRANCH  49  63
BRANCH  50  74
ATOM     74  C   UNL     1      -8.361   7.412  10.371  1.00  0.00     0.064 A 
ATOM     75  C   UNL     1      -9.178   8.474  10.782  1.00  0.00     0.173 A 
ATOM     76  C   UNL     1      -8.708   6.739   9.191  1.00  0.00     0.173 A 
ATOM     77  F   UNL     1      -8.898   9.133  11.917  1.00  0.00    -0.203 F 
ATOM     78  C   UNL     1     -10.306   8.839  10.052  1.00  0.00     0.198 A 
ATOM     79  C   UNL     1      -9.823   7.121   8.448  1.00  0.00     0.198 A 
ATOM     80  F   UNL     1      -7.957   5.717   8.755  1.00  0.00    -0.203 F 
ATOM     81  F   UNL     1     -11.094   9.831  10.491  1.00  0.00    -0.200 F 
ATOM     82  C   UNL     1     -10.625   8.166   8.883  1.00  0.00     0.200 A 
ATOM     83  F   UNL     1     -10.122   6.476   7.312  1.00  0.00    -0.200 F 
ATOM     84  F   UNL     1     -11.710   8.518   8.179  1.00  0.00    -0.200 F 
ENDBRANCH  50  74
BRANCH  62  85
ATOM     85  C   UNL     1      -7.546   4.542  16.664  1.00  0.00     0.064 A 
ATOM     86  C   UNL     1      -8.353   3.405  16.517  1.00  0.00     0.173 A 
ATOM     87  C   UNL     1      -7.655   5.277  17.855  1.00  0.00     0.173 A 
ATOM     88  F   UNL     1      -8.296   2.678  15.391  1.00  0.00    -0.203 F 
ATOM     89  C   UNL     1      -9.252   3.033  17.513  1.00  0.00     0.198 A 
ATOM     90  C   UNL     1      -8.535   4.886  18.860  1.00  0.00     0.198 A 
ATOM     91  F   UNL     1      -6.901   6.370  18.047  1.00  0.00    -0.203 F 
ATOM     92  F   UNL     1     -10.047   1.969  17.331  1.00  0.00    -0.200 F 
ATOM     93  C   UNL     1      -9.338   3.769  18.685  1.00  0.00     0.200 A 
ATOM     94  F   UNL     1      -8.608   5.592  19.996  1.00  0.00    -0.200 F 
ATOM     95  F   UNL     1     -10.202   3.407  19.643  1.00  0.00    -0.200 F 
ENDBRANCH  62  85
ENDBRANCH  36  37
ENDBRANCH  28  31
ENDBRANCH  26  27
ENDBRANCH  25  26
ENDBRANCH  24  25
ENDBRANCH   1  24
TORSDOF 17
