REMARK SMILES Cn1c(SCC(=O)Nc2cccc(C(=O)NCCCCCCNC(=O)c3ccc(-c4c5nc(c(-c6c(F)c(F)c(F)c(F)c6F)c6ccc([nH]6)c(-c6c(F)c(F)c(F)c(F)c6F)c6nc(c(-c7c(F)c(F)c(F)c(F)c7F)c7ccc4[nH]7)C=C6)C=C5)cc3)c2)nnc1[C@@H]1CCCN1C(=O)c1ccccc1Cl
REMARK SMILES IDX 17 1 16 2 14 3 15 4 13 6 9 7 10 8 89 9 11 10 12 11 8 12 6 13
REMARK SMILES IDX 7 14 5 16 4 17 3 18 1 19 2 20 92 21 90 22 91 23 93 24 94 25
REMARK SMILES IDX 97 26 95 27 96 28 98 29 99 30 100 31 101 32 105 33 102 34
REMARK SMILES IDX 104 35 106 36 103 37 18 38 19 39 20 40 21 41 22 42 23 43
REMARK SMILES IDX 24 44 25 46 26 47 27 48 88 49 28 50 87 51 29 52 30 53 31 54
REMARK SMILES IDX 81 55 32 56 86 57 80 58 82 59 33 60 85 61 79 62 78 63 34 65
REMARK SMILES IDX 66 66 46 67 65 68 47 69 50 70 64 71 83 72 48 73 49 74 63 76
REMARK SMILES IDX 84 77 51 78 35 79 36 80 44 81 37 82 38 83 42 84 45 85 39 86
REMARK SMILES IDX 40 87 43 88 41 89 67 90 68 91 76 92 69 93 70 94 74 95 77 96
REMARK SMILES IDX 71 97 72 98 75 99 73 100 52 101 53 102 61 103 54 104 55 105
REMARK SMILES IDX 59 106 62 107 56 108 57 109 60 110 58 111
REMARK H PARENT 16 5 8 15 23 45 82 64 50 75
REMARK Flexibility Score: inf
ROOT
ATOM      1  C   UNL     1      -2.180   3.096   0.431  1.00  0.00     0.116 C 
ENDROOT
BRANCH   1   2
ATOM      2  N   UNL     1      -2.597   4.316   1.098  1.00  0.00    -0.352 N 
ATOM      3  C   UNL     1      -2.009   5.251   1.911  1.00  0.00     0.251 C 
ATOM      4  O   UNL     1      -2.728   6.225   2.167  1.00  0.00    -0.269 OA
ATOM      5  H   UNL     1      -3.542   4.527   0.921  1.00  0.00     0.163 HD
BRANCH   3   6
ATOM      6  C   UNL     1      -0.629   5.231   2.516  1.00  0.00     0.041 A 
ATOM      7  C   UNL     1       1.529   4.308   3.196  1.00  0.00     0.041 A 
ATOM      8  C   UNL     1       1.811   5.442   3.953  1.00  0.00     0.026 A 
ATOM      9  C   UNL     1       0.304   4.187   2.507  1.00  0.00     0.040 A 
ATOM     10  C   UNL     1       0.916   6.499   3.958  1.00  0.00     0.003 A 
ATOM     11  C   UNL     1      -0.281   6.394   3.243  1.00  0.00     0.014 A 
BRANCH   7  12
ATOM     12  N   UNL     1       2.449   3.257   3.272  1.00  0.00    -0.325 N 
ATOM     13  C   UNL     1       3.108   2.612   2.267  1.00  0.00     0.234 C 
ATOM     14  O   UNL     1       3.808   1.636   2.559  1.00  0.00    -0.274 OA
ATOM     15  H   UNL     1       2.650   2.938   4.181  1.00  0.00     0.169 HD
BRANCH  13  16
ATOM     16  C   UNL     1       3.132   3.182   0.871  1.00  0.00     0.178 C 
BRANCH  16  17
ATOM     17  S   UNL     1       1.869   2.615  -0.248  1.00  0.00    -0.076 SA
BRANCH  17  18
ATOM     18  C   UNL     1       1.304   1.093   0.328  1.00  0.00     0.191 A 
ATOM     19  C   UNL     1       3.343  -0.388   0.472  1.00  0.00     0.154 C 
ATOM     20  N   UNL     1       1.953  -0.106   0.242  1.00  0.00    -0.307 N 
ATOM     21  C   UNL     1       0.950  -1.030   0.051  1.00  0.00     0.156 A 
ATOM     22  N   UNL     1       0.028   0.866   0.528  1.00  0.00    -0.123 NA
ATOM     23  N   UNL     1      -0.200  -0.466   0.361  1.00  0.00    -0.132 NA
BRANCH  21  24
ATOM     24  C   UNL     1       1.080  -2.435  -0.388  1.00  0.00     0.154 C 
ATOM     25  C   UNL     1       1.533  -3.335   0.767  1.00  0.00     0.035 C 
ATOM     26  N   UNL     1       2.031  -2.695  -1.470  1.00  0.00    -0.328 N 
ATOM     27  C   UNL     1       2.181  -4.515   0.067  1.00  0.00     0.024 C 
ATOM     28  C   UNL     1       2.797  -3.902  -1.183  1.00  0.00     0.120 C 
BRANCH  26  29
ATOM     29  C   UNL     1       2.202  -2.116  -2.724  1.00  0.00     0.255 C 
ATOM     30  O   UNL     1       2.969  -2.587  -3.562  1.00  0.00    -0.269 OA
BRANCH  29  31
ATOM     31  C   UNL     1       1.539  -0.866  -3.132  1.00  0.00     0.058 A 
ATOM     32  C   UNL     1       0.299  -0.927  -3.774  1.00  0.00     0.015 A 
ATOM     33  C   UNL     1       2.266   0.332  -3.175  1.00  0.00     0.053 A 
ATOM     34  C   UNL     1      -0.242   0.220  -4.369  1.00  0.00     0.001 A 
ATOM     35  C   UNL     1       1.690   1.490  -3.710  1.00  0.00     0.021 A 
ATOM     36  Cl  UNL     1       3.916   0.441  -2.674  1.00  0.00    -0.083 Cl
ATOM     37  C   UNL     1       0.431   1.437  -4.298  1.00  0.00     0.002 A 
ENDBRANCH  29  31
ENDBRANCH  26  29
ENDBRANCH  21  24
ENDBRANCH  17  18
ENDBRANCH  16  17
ENDBRANCH  13  16
ENDBRANCH   7  12
ENDBRANCH   3   6
ENDBRANCH   1   2
BRANCH   1  38
ATOM     38  C   UNL     1      -3.036   1.884   0.834  1.00  0.00     0.021 C 
BRANCH  38  39
ATOM     39  C   UNL     1      -4.170   1.480  -0.124  1.00  0.00     0.002 C 
BRANCH  39  40
ATOM     40  C   UNL     1      -3.832   1.266  -1.605  1.00  0.00     0.002 C 
BRANCH  40  41
ATOM     41  C   UNL     1      -2.659   0.344  -1.951  1.00  0.00     0.021 C 
BRANCH  41  42
ATOM     42  C   UNL     1      -2.822  -1.160  -1.691  1.00  0.00     0.116 C 
BRANCH  42  43
ATOM     43  N   UNL     1      -3.713  -1.794  -2.660  1.00  0.00    -0.352 N 
ATOM     44  C   UNL     1      -3.550  -2.809  -3.575  1.00  0.00     0.251 C 
ATOM     45  H   UNL     1      -4.622  -1.415  -2.658  1.00  0.00     0.163 HD
ATOM     46  O   UNL     1      -4.446  -2.987  -4.400  1.00  0.00    -0.269 OA
BRANCH  44  47
ATOM     47  C   UNL     1      -2.359  -3.705  -3.634  1.00  0.00     0.039 A 
ATOM     48  C   UNL     1      -1.967  -4.216  -4.884  1.00  0.00     0.014 A 
ATOM     49  C   UNL     1      -1.683  -4.154  -2.503  1.00  0.00     0.014 A 
ATOM     50  C   UNL     1      -0.893  -5.118  -5.004  1.00  0.00     0.010 A 
ATOM     51  C   UNL     1      -0.581  -5.020  -2.633  1.00  0.00     0.010 A 
ATOM     52  C   UNL     1      -0.159  -5.517  -3.879  1.00  0.00    -0.014 A 
BRANCH  52  53
ATOM     53  C   UNL     1       1.025  -6.439  -3.982  1.00  0.00     0.031 A 
ATOM     54  C   UNL     1       1.072  -7.745  -3.221  1.00  0.00     0.074 A 
ATOM     55  C   UNL     1       2.122  -6.088  -4.687  1.00  0.00     0.049 A 
ATOM     56  N   UNL     1       2.061  -8.600  -3.091  1.00  0.00    -0.248 NA
ATOM     57  C   UNL     1      -0.143  -8.128  -2.490  1.00  0.00     0.031 C 
ATOM     58  C   UNL     1       2.280  -4.848  -5.439  1.00  0.00     0.029 A 
ATOM     59  N   UNL     1       3.340  -6.720  -4.835  1.00  0.00    -0.354 N 
ATOM     60  C   UNL     1       1.591  -9.611  -2.261  1.00  0.00     0.074 A 
ATOM     61  C   UNL     1       0.250  -9.230  -1.865  1.00  0.00     0.031 C 
ATOM     62  C   UNL     1       3.531  -4.778  -5.923  1.00  0.00     0.029 A 
ATOM     63  C   UNL     1       4.271  -5.966  -5.511  1.00  0.00     0.049 A 
ATOM     64  H   UNL     1       3.525  -7.624  -4.490  1.00  0.00     0.167 HD
ATOM     65  C   UNL     1       2.196 -10.767  -1.888  1.00  0.00     0.037 A 
ATOM     66  C   UNL     1       5.580  -6.177  -5.758  1.00  0.00     0.037 A 
ATOM     67  C   UNL     1       3.504 -11.196  -2.314  1.00  0.00     0.049 A 
ATOM     68  C   UNL     1       6.240  -7.456  -5.332  1.00  0.00     0.074 A 
ATOM     69  C   UNL     1       4.130 -12.412  -2.085  1.00  0.00     0.029 A 
ATOM     70  N   UNL     1       4.393 -10.427  -3.048  1.00  0.00    -0.354 N 
ATOM     71  N   UNL     1       5.746  -8.447  -4.633  1.00  0.00    -0.248 NA
ATOM     72  C   UNL     1       7.635  -7.660  -5.756  1.00  0.00     0.031 C 
ATOM     73  C   UNL     1       5.414 -12.361  -2.639  1.00  0.00     0.029 A 
ATOM     74  C   UNL     1       5.573 -11.130  -3.252  1.00  0.00     0.049 A 
ATOM     75  H   UNL     1       4.215  -9.516  -3.376  1.00  0.00     0.167 HD
ATOM     76  C   UNL     1       6.749  -9.405  -4.568  1.00  0.00     0.074 A 
ATOM     77  C   UNL     1       7.885  -8.877  -5.291  1.00  0.00     0.031 C 
ATOM     78  C   UNL     1       6.713 -10.620  -3.969  1.00  0.00     0.037 A 
BRANCH  65  79
ATOM     79  C   UNL     1       1.433 -11.683  -0.973  1.00  0.00     0.064 A 
ATOM     80  C   UNL     1       0.310 -12.399  -1.417  1.00  0.00     0.173 A 
ATOM     81  C   UNL     1       1.857 -11.882   0.350  1.00  0.00     0.173 A 
ATOM     82  F   UNL     1      -0.136 -12.242  -2.672  1.00  0.00    -0.203 F 
ATOM     83  C   UNL     1      -0.382 -13.250  -0.560  1.00  0.00     0.198 A 
ATOM     84  C   UNL     1       1.179 -12.758   1.195  1.00  0.00     0.198 A 
ATOM     85  F   UNL     1       2.933 -11.234   0.821  1.00  0.00    -0.203 F 
ATOM     86  F   UNL     1      -1.482 -13.882  -0.992  1.00  0.00    -0.200 F 
ATOM     87  C   UNL     1       0.056 -13.432   0.743  1.00  0.00     0.200 A 
ATOM     88  F   UNL     1       1.612 -12.945   2.450  1.00  0.00    -0.200 F 
ATOM     89  F   UNL     1      -0.611 -14.254   1.566  1.00  0.00    -0.200 F 
ENDBRANCH  65  79
BRANCH  66  90
ATOM     90  C   UNL     1       6.358  -5.138  -6.480  1.00  0.00     0.064 A 
ATOM     91  C   UNL     1       6.685  -5.293  -7.833  1.00  0.00     0.173 A 
ATOM     92  C   UNL     1       6.777  -3.967  -5.832  1.00  0.00     0.173 A 
ATOM     93  F   UNL     1       6.337  -6.414  -8.481  1.00  0.00    -0.203 F 
ATOM     94  C   UNL     1       7.407  -4.315  -8.513  1.00  0.00     0.198 A 
ATOM     95  C   UNL     1       7.480  -2.979  -6.519  1.00  0.00     0.198 A 
ATOM     96  F   UNL     1       6.509  -3.786  -4.530  1.00  0.00    -0.203 F 
ATOM     97  F   UNL     1       7.739  -4.503  -9.797  1.00  0.00    -0.200 F 
ATOM     98  C   UNL     1       7.796  -3.156  -7.859  1.00  0.00     0.200 A 
ATOM     99  F   UNL     1       7.860  -1.862  -5.885  1.00  0.00    -0.200 F 
ATOM    100  F   UNL     1       8.488  -2.214  -8.516  1.00  0.00    -0.200 F 
ENDBRANCH  66  90
BRANCH  78 101
ATOM    101  C   UNL     1       7.925 -11.496  -4.098  1.00  0.00     0.064 A 
ATOM    102  C   UNL     1       9.107 -11.228  -3.393  1.00  0.00     0.173 A 
ATOM    103  C   UNL     1       7.893 -12.637  -4.914  1.00  0.00     0.173 A 
ATOM    104  F   UNL     1       9.197 -10.141  -2.612  1.00  0.00    -0.203 F 
ATOM    105  C   UNL     1      10.218 -12.061  -3.514  1.00  0.00     0.198 A 
ATOM    106  C   UNL     1       8.996 -13.481  -5.014  1.00  0.00     0.198 A 
ATOM    107  F   UNL     1       6.786 -12.941  -5.609  1.00  0.00    -0.203 F 
ATOM    108  F   UNL     1      11.351 -11.764  -2.862  1.00  0.00    -0.200 F 
ATOM    109  C   UNL     1      10.160 -13.189  -4.319  1.00  0.00     0.200 A 
ATOM    110  F   UNL     1       8.934 -14.576  -5.785  1.00  0.00    -0.200 F 
ATOM    111  F   UNL     1      11.227 -13.992  -4.430  1.00  0.00    -0.200 F 
ENDBRANCH  78 101
ENDBRANCH  52  53
ENDBRANCH  44  47
ENDBRANCH  42  43
ENDBRANCH  41  42
ENDBRANCH  40  41
ENDBRANCH  39  40
ENDBRANCH  38  39
ENDBRANCH   1  38
TORSDOF 20
