REMARK SMILES CCCCCCNC(=O)Oc1cccc(-c2ccc([C@H](C)C(=O)NCCCCCCNC(=O)c3ccc(-c4c5nc(c(-c6c(F)c(F)c(F)c(F)c6F)c6ccc([nH]6)c(-c6c(F)c(F)c(F)c(F)c6F)c6nc(c(-c7c(F)c(F)c(F)c(F)c7F)c7ccc4[nH]7)C=C6)C=C5)cc3)cc2F)c1
REMARK SMILES IDX 22 1 23 2 24 3 20 5 21 6 19 7 16 8 17 9 98 10 18 11 97 12
REMARK SMILES IDX 99 13 15 14 11 15 12 16 100 17 13 18 14 19 10 20 8 21 7 22
REMARK SMILES IDX 9 24 6 25 5 26 4 27 3 28 2 29 1 30 25 31 26 32 27 33 28 34
REMARK SMILES IDX 29 35 30 36 31 37 32 38 33 40 34 41 35 42 96 43 36 44 95 45
REMARK SMILES IDX 37 46 38 47 39 48 89 49 40 50 94 51 88 52 90 53 41 54 93 55
REMARK SMILES IDX 87 56 86 57 42 59 74 60 54 61 73 62 55 63 58 64 72 65 91 66
REMARK SMILES IDX 56 67 57 68 71 70 92 71 59 72 43 73 44 74 52 75 45 76 46 77
REMARK SMILES IDX 50 78 53 79 47 80 48 81 51 82 49 83 75 84 76 85 84 86 77 87
REMARK SMILES IDX 78 88 82 89 85 90 79 91 80 92 83 93 81 94 60 95 61 96 69 97
REMARK SMILES IDX 62 98 63 99 67 100 70 101 64 102 65 103 68 104 66 105
REMARK H PARENT 24 4 7 23 31 39 90 58 58 69
REMARK Flexibility Score: inf
ROOT
ATOM      1  C   UNL     1      -3.712   4.004  13.804  1.00  0.00     0.227 C 
ATOM      2  O   UNL     1      -2.760   4.773  13.960  1.00  0.00    -0.274 OA
ATOM      3  N   UNL     1      -3.638   2.775  14.393  1.00  0.00    -0.356 N 
ATOM      4  H   UNL     1      -2.790   2.585  14.857  1.00  0.00     0.163 HD
ENDROOT
BRANCH   1   5
ATOM      5  C   UNL     1      -4.928   4.414  12.965  1.00  0.00     0.105 C 
ATOM      6  C   UNL     1      -4.877   3.643  11.638  1.00  0.00     0.023 C 
BRANCH   5   7
ATOM      7  C   UNL     1      -6.246   4.397  13.740  1.00  0.00    -0.033 A 
ATOM      8  C   UNL     1      -8.688   4.418  15.233  1.00  0.00     0.018 A 
ATOM      9  C   UNL     1      -7.454   4.646  15.856  1.00  0.00     0.012 A 
ATOM     10  C   UNL     1      -8.670   4.206  13.848  1.00  0.00     0.131 A 
ATOM     11  C   UNL     1      -6.261   4.657  15.123  1.00  0.00     0.005 A 
ATOM     12  C   UNL     1      -7.481   4.198  13.111  1.00  0.00     0.044 A 
ATOM     13  F   UNL     1      -9.817   4.019  13.177  1.00  0.00    -0.206 F 
BRANCH   8  14
ATOM     14  C   UNL     1      -9.940   4.418  16.010  1.00  0.00    -0.012 A 
ATOM     15  C   UNL     1     -12.075   3.418  16.597  1.00  0.00     0.133 A 
ATOM     16  C   UNL     1     -12.349   4.451  17.489  1.00  0.00     0.047 A 
ATOM     17  C   UNL     1     -10.894   3.398  15.854  1.00  0.00     0.056 A 
ATOM     18  C   UNL     1     -11.413   5.466  17.662  1.00  0.00     0.004 A 
ATOM     19  C   UNL     1     -10.222   5.447  16.929  1.00  0.00     0.009 A 
BRANCH  15  20
ATOM     20  O   UNL     1     -13.092   2.476  16.382  1.00  0.00    -0.410 OA
BRANCH  20  21
ATOM     21  C   UNL     1     -12.784   1.132  16.517  1.00  0.00     0.412 C 
ATOM     22  N   UNL     1     -13.839   0.310  16.236  1.00  0.00    -0.321 N 
ATOM     23  H   UNL     1     -13.682  -0.658  16.325  1.00  0.00     0.167 HD
ATOM     24  O   UNL     1     -11.699   0.670  16.863  1.00  0.00    -0.224 OA
BRANCH  22  25
ATOM     25  C   UNL     1     -15.167   0.718  15.820  1.00  0.00     0.119 C 
BRANCH  25  26
ATOM     26  C   UNL     1     -15.528   0.174  14.438  1.00  0.00     0.021 C 
BRANCH  26  27
ATOM     27  C   UNL     1     -15.629  -1.354  14.354  1.00  0.00     0.002 C 
BRANCH  27  28
ATOM     28  C   UNL     1     -16.654  -1.999  15.293  1.00  0.00    -0.000 C 
BRANCH  28  29
ATOM     29  C   UNL     1     -18.100  -1.531  15.118  1.00  0.00    -0.003 C 
ATOM     30  C   UNL     1     -18.677  -1.856  13.750  1.00  0.00     0.004 C 
ENDBRANCH  28  29
ENDBRANCH  27  28
ENDBRANCH  26  27
ENDBRANCH  25  26
ENDBRANCH  22  25
ENDBRANCH  20  21
ENDBRANCH  15  20
ENDBRANCH   8  14
ENDBRANCH   5   7
ENDBRANCH   1   5
BRANCH   3  31
ATOM     31  C   UNL     1      -4.619   1.705  14.441  1.00  0.00     0.116 C 
BRANCH  31  32
ATOM     32  C   UNL     1      -3.985   0.356  14.117  1.00  0.00     0.021 C 
BRANCH  32  33
ATOM     33  C   UNL     1      -3.023  -0.163  15.191  1.00  0.00     0.002 C 
BRANCH  33  34
ATOM     34  C   UNL     1      -3.640  -0.366  16.580  1.00  0.00     0.002 C 
BRANCH  34  35
ATOM     35  C   UNL     1      -4.885  -1.255  16.622  1.00  0.00     0.021 C 
BRANCH  35  36
ATOM     36  C   UNL     1      -4.708  -2.643  16.016  1.00  0.00     0.116 C 
BRANCH  36  37
ATOM     37  N   UNL     1      -3.703  -3.432  16.711  1.00  0.00    -0.352 N 
ATOM     38  C   UNL     1      -3.772  -4.730  17.150  1.00  0.00     0.251 C 
ATOM     39  H   UNL     1      -2.853  -2.969  16.891  1.00  0.00     0.163 HD
ATOM     40  O   UNL     1      -2.881  -5.196  17.852  1.00  0.00    -0.269 OA
BRANCH  38  41
ATOM     41  C   UNL     1      -4.939  -5.565  16.796  1.00  0.00     0.039 A 
ATOM     42  C   UNL     1      -5.558  -6.318  17.798  1.00  0.00     0.014 A 
ATOM     43  C   UNL     1      -5.417  -5.613  15.483  1.00  0.00     0.014 A 
ATOM     44  C   UNL     1      -6.691  -7.075  17.495  1.00  0.00     0.010 A 
ATOM     45  C   UNL     1      -6.583  -6.319  15.196  1.00  0.00     0.010 A 
ATOM     46  C   UNL     1      -7.229  -7.058  16.198  1.00  0.00    -0.014 A 
BRANCH  46  47
ATOM     47  C   UNL     1      -8.460  -7.818  15.865  1.00  0.00     0.031 A 
ATOM     48  C   UNL     1      -8.393  -8.972  14.904  1.00  0.00     0.074 A 
ATOM     49  C   UNL     1      -9.644  -7.436  16.382  1.00  0.00     0.049 A 
ATOM     50  N   UNL     1      -9.364  -9.700  14.414  1.00  0.00    -0.248 NA
ATOM     51  C   UNL     1      -7.057  -9.342  14.412  1.00  0.00     0.031 C 
ATOM     52  C   UNL     1      -9.843  -6.316  17.303  1.00  0.00     0.029 A 
ATOM     53  N   UNL     1     -10.907  -7.941  16.197  1.00  0.00    -0.354 N 
ATOM     54  C   UNL     1      -8.758 -10.605  13.552  1.00  0.00     0.074 A 
ATOM     55  C   UNL     1      -7.343 -10.303  13.545  1.00  0.00     0.031 C 
ATOM     56  C   UNL     1     -11.146  -6.232  17.618  1.00  0.00     0.029 A 
ATOM     57  C   UNL     1     -11.879  -7.264  16.892  1.00  0.00     0.049 A 
ATOM     58  H   UNL     1     -11.097  -8.716  15.620  1.00  0.00     0.167 HD
ATOM     59  C   UNL     1      -9.328 -11.613  12.850  1.00  0.00     0.037 A 
ATOM     60  C   UNL     1     -13.212  -7.451  16.929  1.00  0.00     0.037 A 
ATOM     61  C   UNL     1     -10.732 -11.926  12.873  1.00  0.00     0.049 A 
ATOM     62  C   UNL     1     -13.820  -8.566  16.119  1.00  0.00     0.074 A 
ATOM     63  C   UNL     1     -11.403 -12.941  12.213  1.00  0.00     0.029 A 
ATOM     64  N   UNL     1     -11.682 -11.229  13.605  1.00  0.00    -0.354 N 
ATOM     65  N   UNL     1     -13.232  -9.439  15.339  1.00  0.00    -0.248 NA
ATOM     66  C   UNL     1     -15.280  -8.722  16.198  1.00  0.00     0.031 C 
ATOM     67  C   UNL     1     -12.763 -12.839  12.520  1.00  0.00     0.029 A 
ATOM     68  C   UNL     1     -12.934 -11.787  13.405  1.00  0.00     0.049 A 
ATOM     69  H   UNL     1     -11.495 -10.452  14.180  1.00  0.00     0.167 HD
ATOM     70  C   UNL     1     -14.240 -10.270  14.867  1.00  0.00     0.074 A 
ATOM     71  C   UNL     1     -15.477  -9.802  15.456  1.00  0.00     0.031 C 
ATOM     72  C   UNL     1     -14.150 -11.325  14.022  1.00  0.00     0.037 A 
BRANCH  59  73
ATOM     73  C   UNL     1      -8.427 -12.465  12.005  1.00  0.00     0.064 A 
ATOM     74  C   UNL     1      -7.529 -13.375  12.584  1.00  0.00     0.173 A 
ATOM     75  C   UNL     1      -8.493 -12.408  10.605  1.00  0.00     0.173 A 
ATOM     76  F   UNL     1      -7.420 -13.458  13.918  1.00  0.00    -0.203 F 
ATOM     77  C   UNL     1      -6.716 -14.181  11.792  1.00  0.00     0.198 A 
ATOM     78  C   UNL     1      -7.699 -13.236   9.816  1.00  0.00     0.198 A 
ATOM     79  F   UNL     1      -9.339 -11.559  10.001  1.00  0.00    -0.203 F 
ATOM     80  F   UNL     1      -5.838 -15.014  12.367  1.00  0.00    -0.200 F 
ATOM     81  C   UNL     1      -6.807 -14.117  10.410  1.00  0.00     0.200 A 
ATOM     82  F   UNL     1      -7.796 -13.182   8.480  1.00  0.00    -0.200 F 
ATOM     83  F   UNL     1      -6.032 -14.902   9.649  1.00  0.00    -0.200 F 
ENDBRANCH  59  73
BRANCH  60  84
ATOM     84  C   UNL     1     -14.067  -6.583  17.780  1.00  0.00     0.064 A 
ATOM     85  C   UNL     1     -14.719  -7.103  18.908  1.00  0.00     0.173 A 
ATOM     86  C   UNL     1     -14.271  -5.229  17.477  1.00  0.00     0.173 A 
ATOM     87  F   UNL     1     -14.570  -8.397  19.229  1.00  0.00    -0.203 F 
ATOM     88  C   UNL     1     -15.567  -6.312  19.680  1.00  0.00     0.198 A 
ATOM     89  C   UNL     1     -15.088  -4.430  18.272  1.00  0.00     0.198 A 
ATOM     90  F   UNL     1     -13.673  -4.679  16.409  1.00  0.00    -0.203 F 
ATOM     91  F   UNL     1     -16.224  -6.851  20.715  1.00  0.00    -0.200 F 
ATOM     92  C   UNL     1     -15.749  -4.975  19.363  1.00  0.00     0.200 A 
ATOM     93  F   UNL     1     -15.239  -3.132  17.980  1.00  0.00    -0.200 F 
ATOM     94  F   UNL     1     -16.567  -4.213  20.101  1.00  0.00    -0.200 F 
ENDBRANCH  60  84
BRANCH  72  95
ATOM     95  C   UNL     1     -15.412 -12.079  13.725  1.00  0.00     0.064 A 
ATOM     96  C   UNL     1     -16.413 -11.546  12.900  1.00  0.00     0.173 A 
ATOM     97  C   UNL     1     -15.602 -13.370  14.242  1.00  0.00     0.173 A 
ATOM     98  F   UNL     1     -16.284 -10.309  12.396  1.00  0.00    -0.203 F 
ATOM     99  C   UNL     1     -17.569 -12.269  12.622  1.00  0.00     0.198 A 
ATOM    100  C   UNL     1     -16.747 -14.101  13.938  1.00  0.00     0.198 A 
ATOM    101  F   UNL     1     -14.671 -13.926  15.031  1.00  0.00    -0.203 F 
ATOM    102  F   UNL     1     -18.533 -11.723  11.868  1.00  0.00    -0.200 F 
ATOM    103  C   UNL     1     -17.732 -13.548  13.135  1.00  0.00     0.200 A 
ATOM    104  F   UNL     1     -16.897 -15.341  14.425  1.00  0.00    -0.200 F 
ATOM    105  F   UNL     1     -18.843 -14.245  12.860  1.00  0.00    -0.200 F 
ENDBRANCH  72  95
ENDBRANCH  46  47
ENDBRANCH  38  41
ENDBRANCH  36  37
ENDBRANCH  35  36
ENDBRANCH  34  35
ENDBRANCH  33  34
ENDBRANCH  32  33
ENDBRANCH  31  32
ENDBRANCH   3  31
TORSDOF 22
