REMARK SMILES Nc1oc2ccc(F)cc2c(=O)c1[C@@H]1[NH2+][C@H](C(=O)NCCCCCCNC(=O)c2ccc(-c3c4nc(c(-c5c(F)c(F)c(F)c(F)c5F)c5ccc([nH]5)c(-c5c(F)c(F)c(F)c(F)c5F)c5nc(c(-c6c(F)c(F)c(F)c(F)c6F)c6ccc3[nH]6)C=C5)C=C4)cc2)CS1
REMARK SMILES IDX 22 1 21 2 20 3 19 4 17 5 18 6 16 8 14 9 15 10 93 11 92 14
REMARK SMILES IDX 13 15 2 16 3 17 4 18 11 19 5 20 10 21 12 22 6 23 9 24 7 25
REMARK SMILES IDX 8 26 1 27 23 30 24 31 25 32 26 33 27 34 28 36 29 37 30 38
REMARK SMILES IDX 91 39 31 40 90 41 32 42 33 43 34 44 84 45 35 46 89 47 83 48
REMARK SMILES IDX 85 49 36 50 88 51 82 52 81 53 37 55 69 56 49 57 68 58 50 59
REMARK SMILES IDX 53 60 67 61 86 62 51 63 52 64 66 66 87 67 54 68 38 69 39 70
REMARK SMILES IDX 47 71 40 72 41 73 45 74 48 75 42 76 43 77 46 78 44 79 70 80
REMARK SMILES IDX 71 81 79 82 72 83 73 84 77 85 80 86 74 87 75 88 78 89 76 90
REMARK SMILES IDX 55 91 56 92 64 93 57 94 58 95 62 96 65 97 59 98 60 99 63 100
REMARK SMILES IDX 61 101
REMARK H PARENT 19 7 15 12 15 13 1 28 1 29 26 35 85 54 53 65
REMARK Flexibility Score: inf
ROOT
ATOM      1  C   UNL     1      -3.183  -0.934  -0.571  1.00  0.00     0.002 C 
ENDROOT
BRANCH   1   2
ATOM      2  C   UNL     1      -1.968  -1.320   0.304  1.00  0.00     0.021 C 
BRANCH   2   3
ATOM      3  C   UNL     1      -0.788  -0.330   0.311  1.00  0.00     0.116 C 
BRANCH   3   4
ATOM      4  N   UNL     1      -0.683   0.491   1.504  1.00  0.00    -0.351 N 
ATOM      5  C   UNL     1       0.365   0.710   2.356  1.00  0.00     0.279 C 
ATOM      6  O   UNL     1       0.248   1.673   3.127  1.00  0.00    -0.268 OA
ATOM      7  H   UNL     1      -1.508   0.974   1.740  1.00  0.00     0.163 HD
BRANCH   5   8
ATOM      8  C   UNL     1       1.688  -0.093   2.370  1.00  0.00     0.283 C 
ATOM      9  C   UNL     1       2.626  -2.060   1.275  1.00  0.00     0.283 C 
ATOM     10  N   UNL     1       1.506  -1.530   2.078  1.00  0.00    -0.320 N 
ATOM     11  S   UNL     1       3.886  -0.773   1.109  1.00  0.00    -0.087 SA
ATOM     12  H   UNL     1       1.456  -2.044   2.958  1.00  0.00     0.348 HD
ATOM     13  H   UNL     1       0.645  -1.644   1.544  1.00  0.00     0.348 HD
ATOM     14  C   UNL     1       2.722   0.557   1.466  1.00  0.00     0.151 C 
BRANCH   9  15
ATOM     15  C   UNL     1       2.055  -2.589  -0.020  1.00  0.00     0.128 A 
ATOM     16  C   UNL     1       1.896  -1.964  -1.210  1.00  0.00     0.205 A 
ATOM     17  O   UNL     1       1.121  -2.463  -2.237  1.00  0.00    -0.440 OA
ATOM     18  C   UNL     1       0.443  -3.626  -2.058  1.00  0.00     0.140 A 
ATOM     19  C   UNL     1       1.481  -3.961   0.127  1.00  0.00     0.205 A 
ATOM     20  C   UNL     1      -0.421  -3.994  -3.075  1.00  0.00     0.051 A 
ATOM     21  C   UNL     1       0.612  -4.441  -0.948  1.00  0.00     0.068 A 
ATOM     22  O   UNL     1       1.687  -4.667   1.106  1.00  0.00    -0.288 OA
ATOM     23  C   UNL     1      -1.065  -5.218  -2.991  1.00  0.00     0.043 A 
ATOM     24  C   UNL     1      -0.047  -5.670  -0.856  1.00  0.00     0.055 A 
ATOM     25  C   UNL     1      -0.880  -6.051  -1.894  1.00  0.00     0.124 A 
ATOM     26  F   UNL     1      -1.520  -7.225  -1.848  1.00  0.00    -0.207 F 
BRANCH  16  27
ATOM     27  N   UNL     1       2.378  -0.733  -1.537  1.00  0.00    -0.369 N 
ATOM     28  H   UNL     1       2.209  -0.360  -2.433  1.00  0.00     0.159 HD
ATOM     29  H   UNL     1       2.894  -0.215  -0.877  1.00  0.00     0.159 HD
ENDBRANCH  16  27
ENDBRANCH   9  15
ENDBRANCH   5   8
ENDBRANCH   3   4
ENDBRANCH   2   3
ENDBRANCH   1   2
BRANCH   1  30
ATOM     30  C   UNL     1      -2.847  -0.673  -2.051  1.00  0.00     0.002 C 
BRANCH  30  31
ATOM     31  C   UNL     1      -3.550  -1.445  -3.195  1.00  0.00     0.021 C 
BRANCH  31  32
ATOM     32  C   UNL     1      -4.082  -2.870  -2.988  1.00  0.00     0.116 C 
BRANCH  32  33
ATOM     33  N   UNL     1      -5.324  -3.066  -3.740  1.00  0.00    -0.352 N 
ATOM     34  C   UNL     1      -5.649  -3.825  -4.837  1.00  0.00     0.251 C 
ATOM     35  H   UNL     1      -6.082  -2.548  -3.385  1.00  0.00     0.163 HD
ATOM     36  O   UNL     1      -6.748  -3.680  -5.364  1.00  0.00    -0.269 OA
BRANCH  34  37
ATOM     37  C   UNL     1      -4.709  -4.804  -5.426  1.00  0.00     0.039 A 
ATOM     38  C   UNL     1      -4.134  -5.816  -4.665  1.00  0.00     0.014 A 
ATOM     39  C   UNL     1      -4.487  -4.782  -6.808  1.00  0.00     0.014 A 
ATOM     40  C   UNL     1      -3.234  -6.715  -5.264  1.00  0.00     0.010 A 
ATOM     41  C   UNL     1      -3.617  -5.707  -7.407  1.00  0.00     0.010 A 
ATOM     42  C   UNL     1      -2.929  -6.658  -6.636  1.00  0.00    -0.014 A 
BRANCH  42  43
ATOM     43  C   UNL     1      -1.891  -7.550  -7.258  1.00  0.00     0.031 A 
ATOM     44  C   UNL     1      -0.726  -6.969  -8.037  1.00  0.00     0.074 A 
ATOM     45  C   UNL     1      -1.952  -8.892  -7.128  1.00  0.00     0.049 A 
ATOM     46  N   UNL     1       0.181  -7.580  -8.766  1.00  0.00    -0.248 NA
ATOM     47  C   UNL     1      -0.557  -5.509  -7.990  1.00  0.00     0.031 C 
ATOM     48  C   UNL     1      -2.962  -9.625  -6.367  1.00  0.00     0.029 A 
ATOM     49  N   UNL     1      -1.137  -9.882  -7.630  1.00  0.00    -0.354 N 
ATOM     50  C   UNL     1       0.998  -6.582  -9.287  1.00  0.00     0.074 A 
ATOM     51  C   UNL     1       0.466  -5.322  -8.812  1.00  0.00     0.031 C 
ATOM     52  C   UNL     1      -2.680 -10.935  -6.408  1.00  0.00     0.029 A 
ATOM     53  C   UNL     1      -1.528 -11.152  -7.278  1.00  0.00     0.049 A 
ATOM     54  H   UNL     1      -0.348  -9.698  -8.189  1.00  0.00     0.167 HD
ATOM     55  C   UNL     1       2.096  -6.697 -10.078  1.00  0.00     0.037 A 
ATOM     56  C   UNL     1      -1.050 -12.361  -7.634  1.00  0.00     0.037 A 
ATOM     57  C   UNL     1       2.659  -7.943 -10.537  1.00  0.00     0.049 A 
ATOM     58  C   UNL     1       0.103 -12.466  -8.593  1.00  0.00     0.074 A 
ATOM     59  C   UNL     1       3.762  -8.143 -11.354  1.00  0.00     0.029 A 
ATOM     60  N   UNL     1       2.178  -9.202 -10.213  1.00  0.00    -0.354 N 
ATOM     61  N   UNL     1       0.822 -11.513  -9.130  1.00  0.00    -0.248 NA
ATOM     62  C   UNL     1       0.498 -13.821  -9.006  1.00  0.00     0.031 C 
ATOM     63  C   UNL     1       3.919  -9.517 -11.560  1.00  0.00     0.029 A 
ATOM     64  C   UNL     1       2.952 -10.179 -10.823  1.00  0.00     0.049 A 
ATOM     65  H   UNL     1       1.400  -9.377  -9.635  1.00  0.00     0.167 HD
ATOM     66  C   UNL     1       1.771 -12.151  -9.920  1.00  0.00     0.074 A 
ATOM     67  C   UNL     1       1.543 -13.574  -9.785  1.00  0.00     0.031 C 
ATOM     68  C   UNL     1       2.743 -11.598 -10.686  1.00  0.00     0.037 A 
BRANCH  55  69
ATOM     69  C   UNL     1       2.778  -5.429 -10.521  1.00  0.00     0.064 A 
ATOM     70  C   UNL     1       3.512  -4.635  -9.627  1.00  0.00     0.173 A 
ATOM     71  C   UNL     1       2.760  -5.045 -11.872  1.00  0.00     0.173 A 
ATOM     72  F   UNL     1       3.557  -4.951  -8.324  1.00  0.00    -0.203 F 
ATOM     73  C   UNL     1       4.181  -3.493 -10.064  1.00  0.00     0.198 A 
ATOM     74  C   UNL     1       3.457  -3.921 -12.311  1.00  0.00     0.198 A 
ATOM     75  F   UNL     1       2.086  -5.774 -12.774  1.00  0.00    -0.203 F 
ATOM     76  F   UNL     1       4.838  -2.726  -9.182  1.00  0.00    -0.200 F 
ATOM     77  C   UNL     1       4.161  -3.143 -11.405  1.00  0.00     0.200 A 
ATOM     78  F   UNL     1       3.453  -3.596 -13.611  1.00  0.00    -0.200 F 
ATOM     79  F   UNL     1       4.817  -2.051 -11.825  1.00  0.00    -0.200 F 
ENDBRANCH  55  69
BRANCH  56  80
ATOM     80  C   UNL     1      -1.676 -13.587  -7.072  1.00  0.00     0.064 A 
ATOM     81  C   UNL     1      -0.979 -14.389  -6.158  1.00  0.00     0.173 A 
ATOM     82  C   UNL     1      -2.983 -13.967  -7.411  1.00  0.00     0.173 A 
ATOM     83  F   UNL     1       0.285 -14.084  -5.829  1.00  0.00    -0.203 F 
ATOM     84  C   UNL     1      -1.568 -15.521  -5.600  1.00  0.00     0.198 A 
ATOM     85  C   UNL     1      -3.582 -15.081  -6.828  1.00  0.00     0.198 A 
ATOM     86  F   UNL     1      -3.689 -13.236  -8.286  1.00  0.00    -0.203 F 
ATOM     87  F   UNL     1      -0.870 -16.287  -4.751  1.00  0.00    -0.200 F 
ATOM     88  C   UNL     1      -2.873 -15.858  -5.925  1.00  0.00     0.200 A 
ATOM     89  F   UNL     1      -4.849 -15.394  -7.133  1.00  0.00    -0.200 F 
ATOM     90  F   UNL     1      -3.447 -16.935  -5.371  1.00  0.00    -0.200 F 
ENDBRANCH  56  80
BRANCH  68  91
ATOM     91  C   UNL     1       3.679 -12.524 -11.410  1.00  0.00     0.064 A 
ATOM     92  C   UNL     1       3.262 -13.287 -12.511  1.00  0.00     0.173 A 
ATOM     93  C   UNL     1       5.027 -12.613 -11.027  1.00  0.00     0.173 A 
ATOM     94  F   UNL     1       1.982 -13.251 -12.912  1.00  0.00    -0.203 F 
ATOM     95  C   UNL     1       4.154 -14.118 -13.187  1.00  0.00     0.198 A 
ATOM     96  C   UNL     1       5.922 -13.422 -11.723  1.00  0.00     0.198 A 
ATOM     97  F   UNL     1       5.482 -11.901  -9.985  1.00  0.00    -0.203 F 
ATOM     98  F   UNL     1       3.722 -14.870 -14.210  1.00  0.00    -0.200 F 
ATOM     99  C   UNL     1       5.483 -14.178 -12.799  1.00  0.00     0.200 A 
ATOM    100  F   UNL     1       7.210 -13.466 -11.355  1.00  0.00    -0.200 F 
ATOM    101  F   UNL     1       6.341 -14.970 -13.457  1.00  0.00    -0.200 F 
ENDBRANCH  68  91
ENDBRANCH  42  43
ENDBRANCH  34  37
ENDBRANCH  32  33
ENDBRANCH  31  32
ENDBRANCH  30  31
ENDBRANCH   1  30
TORSDOF 15
