REMARK SMILES COC(=O)CCN(C)C(=O)NCc1ccc(C(=O)NCCCCCCNC(=O)c2ccc(-c3c4nc(c(-c5c(F)c(F)c(F)c(F)c5F)c5ccc([nH]5)c(-c5c(F)c(F)c(F)c(F)c5F)c5nc(c(-c6c(F)c(F)c(F)c(F)c6F)c6ccc3[nH]6)C=C5)C=C4)cc2)o1
REMARK SMILES IDX 20 1 19 2 17 3 18 4 16 6 13 7 14 8 92 9 15 10 12 11 11 12
REMARK SMILES IDX 9 13 10 14 7 16 8 17 6 18 5 19 3 20 4 21 2 22 1 23 21 24
REMARK SMILES IDX 22 25 23 26 24 27 25 28 26 29 27 30 28 32 29 33 30 34 91 35
REMARK SMILES IDX 31 36 90 37 32 38 33 39 34 40 84 41 35 42 89 43 83 44 85 45
REMARK SMILES IDX 36 46 88 47 82 48 81 49 37 51 69 52 49 53 68 54 50 55 53 56
REMARK SMILES IDX 67 57 86 58 51 59 52 60 66 62 87 63 54 64 38 65 39 66 47 67
REMARK SMILES IDX 40 68 41 69 45 70 48 71 42 72 43 73 46 74 44 75 70 76 71 77
REMARK SMILES IDX 79 78 72 79 73 80 77 81 80 82 74 83 75 84 78 85 76 86 55 87
REMARK SMILES IDX 56 88 64 89 57 90 58 91 62 92 65 93 59 94 60 95 63 96 61 97
REMARK H PARENT 19 5 11 15 26 31 85 50 53 61
REMARK Flexibility Score: inf
ROOT
ATOM      1  C   UNL     1       2.063  -8.788  -4.910  1.00  0.00     0.116 C 
ENDROOT
BRANCH   1   2
ATOM      2  N   UNL     1       0.825  -8.851  -4.168  1.00  0.00    -0.349 N 
ATOM      3  C   UNL     1       0.052  -7.873  -3.591  1.00  0.00     0.286 C 
ATOM      4  O   UNL     1      -0.975  -8.272  -3.036  1.00  0.00    -0.266 OA
ATOM      5  H   UNL     1       0.471  -9.762  -4.055  1.00  0.00     0.163 HD
BRANCH   3   6
ATOM      6  C   UNL     1       0.417  -6.470  -3.654  1.00  0.00     0.191 A 
ATOM      7  C   UNL     1      -0.038  -4.325  -3.357  1.00  0.00     0.124 A 
ATOM      8  C   UNL     1       1.234  -4.380  -3.879  1.00  0.00     0.048 A 
ATOM      9  O   UNL     1      -0.549  -5.577  -3.248  1.00  0.00    -0.454 OA
ATOM     10  C   UNL     1       1.548  -5.750  -4.000  1.00  0.00     0.056 A 
BRANCH   7  11
ATOM     11  C   UNL     1      -0.864  -3.214  -2.824  1.00  0.00     0.193 C 
BRANCH  11  12
ATOM     12  N   UNL     1       0.063  -2.247  -2.281  1.00  0.00    -0.331 N 
ATOM     13  C   UNL     1       0.752  -1.209  -2.773  1.00  0.00     0.317 C 
ATOM     14  O   UNL     1       1.749  -0.888  -2.119  1.00  0.00    -0.249 OA
ATOM     15  H   UNL     1       0.227  -2.384  -1.320  1.00  0.00     0.165 HD
BRANCH  13  16
ATOM     16  N   UNL     1       0.359  -0.501  -3.873  1.00  0.00    -0.327 N 
ATOM     17  C   UNL     1      -0.678  -0.863  -4.824  1.00  0.00     0.148 C 
BRANCH  16  18
ATOM     18  C   UNL     1       0.916   0.856  -4.004  1.00  0.00     0.132 C 
BRANCH  18  19
ATOM     19  C   UNL     1       0.199   1.870  -3.114  1.00  0.00     0.144 C 
BRANCH  19  20
ATOM     20  C   UNL     1       0.750   1.845  -1.710  1.00  0.00     0.307 C 
ATOM     21  O   UNL     1       1.757   2.450  -1.365  1.00  0.00    -0.252 OA
BRANCH  20  22
ATOM     22  O   UNL     1      -0.008   1.042  -0.913  1.00  0.00    -0.469 OA
ATOM     23  C   UNL     1       0.615   0.661   0.317  1.00  0.00     0.282 C 
ENDBRANCH  20  22
ENDBRANCH  19  20
ENDBRANCH  18  19
ENDBRANCH  16  18
ENDBRANCH  13  16
ENDBRANCH  11  12
ENDBRANCH   7  11
ENDBRANCH   3   6
ENDBRANCH   1   2
BRANCH   1  24
ATOM     24  C   UNL     1       3.235  -9.259  -4.050  1.00  0.00     0.021 C 
BRANCH  24  25
ATOM     25  C   UNL     1       3.343 -10.789  -3.977  1.00  0.00     0.002 C 
BRANCH  25  26
ATOM     26  C   UNL     1       3.515 -11.488  -5.333  1.00  0.00     0.002 C 
BRANCH  26  27
ATOM     27  C   UNL     1       4.659 -10.947  -6.196  1.00  0.00     0.021 C 
BRANCH  27  28
ATOM     28  C   UNL     1       6.037 -11.088  -5.559  1.00  0.00     0.116 C 
BRANCH  28  29
ATOM     29  N   UNL     1       6.410 -12.483  -5.395  1.00  0.00    -0.352 N 
ATOM     30  C   UNL     1       7.528 -13.139  -5.844  1.00  0.00     0.251 C 
ATOM     31  H   UNL     1       5.771 -13.036  -4.890  1.00  0.00     0.163 HD
ATOM     32  O   UNL     1       7.585 -14.363  -5.815  1.00  0.00    -0.269 OA
BRANCH  30  33
ATOM     33  C   UNL     1       8.666 -12.361  -6.374  1.00  0.00     0.039 A 
ATOM     34  C   UNL     1       9.284 -12.780  -7.555  1.00  0.00     0.014 A 
ATOM     35  C   UNL     1       9.130 -11.230  -5.696  1.00  0.00     0.014 A 
ATOM     36  C   UNL     1      10.341 -12.037  -8.082  1.00  0.00     0.010 A 
ATOM     37  C   UNL     1      10.137 -10.453  -6.258  1.00  0.00     0.010 A 
ATOM     38  C   UNL     1      10.759 -10.855  -7.450  1.00  0.00    -0.014 A 
BRANCH  38  39
ATOM     39  C   UNL     1      11.862 -10.032  -8.001  1.00  0.00     0.031 A 
ATOM     40  C   UNL     1      13.139  -9.878  -7.224  1.00  0.00     0.074 A 
ATOM     41  C   UNL     1      11.687  -9.366  -9.158  1.00  0.00     0.049 A 
ATOM     42  N   UNL     1      14.178  -9.124  -7.476  1.00  0.00    -0.248 NA
ATOM     43  C   UNL     1      13.248 -10.654  -5.979  1.00  0.00     0.031 C 
ATOM     44  C   UNL     1      10.480  -9.408  -9.983  1.00  0.00     0.029 A 
ATOM     45  N   UNL     1      12.523  -8.512  -9.832  1.00  0.00    -0.354 N 
ATOM     46  C   UNL     1      15.052  -9.319  -6.415  1.00  0.00     0.074 A 
ATOM     47  C   UNL     1      14.400 -10.222  -5.490  1.00  0.00     0.031 C 
ATOM     48  C   UNL     1      10.658  -8.627 -11.061  1.00  0.00     0.029 A 
ATOM     49  C   UNL     1      11.975  -8.001 -10.983  1.00  0.00     0.049 A 
ATOM     50  H   UNL     1      13.429  -8.286  -9.521  1.00  0.00     0.167 HD
ATOM     51  C   UNL     1      16.293  -8.808  -6.238  1.00  0.00     0.037 A 
ATOM     52  C   UNL     1      12.476  -7.119 -11.868  1.00  0.00     0.037 A 
ATOM     53  C   UNL     1      16.947  -7.933  -7.175  1.00  0.00     0.049 A 
ATOM     54  C   UNL     1      13.856  -6.561 -11.647  1.00  0.00     0.074 A 
ATOM     55  C   UNL     1      18.225  -7.405  -7.118  1.00  0.00     0.029 A 
ATOM     56  N   UNL     1      16.368  -7.456  -8.342  1.00  0.00    -0.354 N 
ATOM     57  N   UNL     1      14.697  -6.797 -10.670  1.00  0.00    -0.248 NA
ATOM     58  C   UNL     1      14.358  -5.619 -12.657  1.00  0.00     0.031 C 
ATOM     59  C   UNL     1      18.404  -6.575  -8.229  1.00  0.00     0.029 A 
ATOM     60  C   UNL     1      17.257  -6.625  -9.005  1.00  0.00     0.049 A 
ATOM     61  H   UNL     1      15.460  -7.675  -8.654  1.00  0.00     0.167 HD
ATOM     62  C   UNL     1      15.837  -6.061 -10.961  1.00  0.00     0.074 A 
ATOM     63  C   UNL     1      15.583  -5.375 -12.211  1.00  0.00     0.031 C 
ATOM     64  C   UNL     1      16.991  -5.963 -10.257  1.00  0.00     0.037 A 
BRANCH  51  65
ATOM     65  C   UNL     1      17.024  -9.185  -4.981  1.00  0.00     0.064 A 
ATOM     66  C   UNL     1      17.494 -10.490  -4.766  1.00  0.00     0.173 A 
ATOM     67  C   UNL     1      17.276  -8.226  -3.989  1.00  0.00     0.173 A 
ATOM     68  F   UNL     1      17.268 -11.448  -5.678  1.00  0.00    -0.203 F 
ATOM     69  C   UNL     1      18.157 -10.828  -3.589  1.00  0.00     0.198 A 
ATOM     70  C   UNL     1      17.968  -8.560  -2.828  1.00  0.00     0.198 A 
ATOM     71  F   UNL     1      16.854  -6.962  -4.146  1.00  0.00    -0.203 F 
ATOM     72  F   UNL     1      18.545 -12.094  -3.381  1.00  0.00    -0.200 F 
ATOM     73  C   UNL     1      18.398  -9.862  -2.624  1.00  0.00     0.200 A 
ATOM     74  F   UNL     1      18.212  -7.623  -1.901  1.00  0.00    -0.200 F 
ATOM     75  F   UNL     1      19.039 -10.189  -1.493  1.00  0.00    -0.200 F 
ENDBRANCH  51  65
BRANCH  52  76
ATOM     76  C   UNL     1      11.678  -6.732 -13.060  1.00  0.00     0.064 A 
ATOM     77  C   UNL     1      12.051  -7.160 -14.341  1.00  0.00     0.173 A 
ATOM     78  C   UNL     1      10.528  -5.938 -12.945  1.00  0.00     0.173 A 
ATOM     79  F   UNL     1      13.154  -7.906 -14.503  1.00  0.00    -0.203 F 
ATOM     80  C   UNL     1      11.313  -6.794 -15.466  1.00  0.00     0.198 A 
ATOM     81  C   UNL     1       9.776  -5.595 -14.067  1.00  0.00     0.198 A 
ATOM     82  F   UNL     1      10.125  -5.508 -11.740  1.00  0.00    -0.203 F 
ATOM     83  F   UNL     1      11.715  -7.184 -16.683  1.00  0.00    -0.200 F 
ATOM     84  C   UNL     1      10.174  -6.017 -15.327  1.00  0.00     0.200 A 
ATOM     85  F   UNL     1       8.667  -4.856 -13.928  1.00  0.00    -0.200 F 
ATOM     86  F   UNL     1       9.461  -5.671 -16.407  1.00  0.00    -0.200 F 
ENDBRANCH  52  76
BRANCH  64  87
ATOM     87  C   UNL     1      18.086  -5.119 -10.842  1.00  0.00     0.064 A 
ATOM     88  C   UNL     1      18.011  -3.719 -10.855  1.00  0.00     0.173 A 
ATOM     89  C   UNL     1      19.247  -5.722 -11.351  1.00  0.00     0.173 A 
ATOM     90  F   UNL     1      16.916  -3.097 -10.394  1.00  0.00    -0.203 F 
ATOM     91  C   UNL     1      19.051  -2.953 -11.376  1.00  0.00     0.198 A 
ATOM     92  C   UNL     1      20.296  -4.952 -11.844  1.00  0.00     0.198 A 
ATOM     93  F   UNL     1      19.369  -7.058 -11.355  1.00  0.00    -0.203 F 
ATOM     94  F   UNL     1      18.941  -1.618 -11.418  1.00  0.00    -0.200 F 
ATOM     95  C   UNL     1      20.195  -3.569 -11.862  1.00  0.00     0.200 A 
ATOM     96  F   UNL     1      21.406  -5.548 -12.301  1.00  0.00    -0.200 F 
ATOM     97  F   UNL     1      21.198  -2.830 -12.353  1.00  0.00    -0.200 F 
ENDBRANCH  64  87
ENDBRANCH  38  39
ENDBRANCH  30  33
ENDBRANCH  28  29
ENDBRANCH  27  28
ENDBRANCH  26  27
ENDBRANCH  25  26
ENDBRANCH  24  25
ENDBRANCH   1  24
TORSDOF 20
