REMARK SMILES O=C(C[C@H]([NH2+]Cc1ccco1)C(=O)NCCCCCCNC(=O)c1ccc(-c2c3nc(c(-c4c(F)c(F)c(F)c(F)c4F)c4ccc([nH]4)c(-c4c(F)c(F)c(F)c(F)c4F)c4nc(c(-c5c(F)c(F)c(F)c(F)c5F)c5ccc2[nH]5)C=C4)C=C3)cc1)Nc1ccc(O)cc1
REMARK SMILES IDX 16 1 15 2 14 3 12 4 13 5 4 7 3 8 2 9 1 10 87 11 88 13 89 14
REMARK SMILES IDX 94 15 90 16 93 17 91 18 92 19 5 21 6 24 7 25 8 26 11 27 9 28
REMARK SMILES IDX 10 29 17 30 18 31 19 32 20 33 21 34 22 35 23 37 24 38 25 39
REMARK SMILES IDX 86 40 26 41 85 42 27 43 28 44 29 45 79 46 30 47 84 48 78 49
REMARK SMILES IDX 80 50 31 51 83 52 77 53 76 54 32 56 64 57 44 58 63 59 45 60
REMARK SMILES IDX 48 61 62 62 81 63 46 64 47 65 61 67 82 68 49 69 33 70 34 71
REMARK SMILES IDX 42 72 35 73 36 74 40 75 43 76 37 77 38 78 41 79 39 80 65 81
REMARK SMILES IDX 66 82 74 83 67 84 68 85 72 86 75 87 69 88 70 89 73 90 71 91
REMARK SMILES IDX 50 92 51 93 59 94 52 95 53 96 57 97 60 98 54 99 55 100
REMARK SMILES IDX 58 101 56 102
REMARK H PARENT 14 6 87 12 92 20 5 22 5 23 21 36 80 55 48 66
REMARK Flexibility Score: inf
ROOT
ATOM      1  C   UNL     1       5.263  -1.869  -3.177  1.00  0.00     0.021 C 
ENDROOT
BRANCH   1   2
ATOM      2  C   UNL     1       5.604  -0.729  -2.219  1.00  0.00     0.116 C 
BRANCH   2   3
ATOM      3  N   UNL     1       5.350   0.566  -2.827  1.00  0.00    -0.351 N 
ATOM      4  C   UNL     1       4.488   1.551  -2.444  1.00  0.00     0.278 C 
ATOM      5  O   UNL     1       4.396   2.558  -3.151  1.00  0.00    -0.268 OA
ATOM      6  H   UNL     1       5.878   0.761  -3.635  1.00  0.00     0.163 HD
BRANCH   4   7
ATOM      7  C   UNL     1       3.699   1.451  -1.124  1.00  0.00     0.282 C 
BRANCH   7   8
ATOM      8  C   UNL     1       4.694   1.600   0.041  1.00  0.00     0.175 C 
BRANCH   8   9
ATOM      9  C   UNL     1       4.277   0.944   1.338  1.00  0.00     0.230 C 
ATOM     10  O   UNL     1       5.030   0.156   1.903  1.00  0.00    -0.274 OA
ATOM     11  N   UNL     1       3.013   1.317   1.762  1.00  0.00    -0.326 N 
ATOM     12  H   UNL     1       2.515   1.932   1.177  1.00  0.00     0.169 HD
BRANCH  11  13
ATOM     13  C   UNL     1       2.365   0.907   2.943  1.00  0.00     0.041 A 
ATOM     14  C   UNL     1       0.991   1.158   3.042  1.00  0.00     0.030 A 
ATOM     15  C   UNL     1       3.022   0.288   4.009  1.00  0.00     0.030 A 
ATOM     16  C   UNL     1       0.282   0.774   4.183  1.00  0.00     0.048 A 
ATOM     17  C   UNL     1       2.318  -0.081   5.159  1.00  0.00     0.048 A 
ATOM     18  C   UNL     1       0.952   0.161   5.233  1.00  0.00     0.115 A 
BRANCH  18  19
ATOM     19  O   UNL     1       0.227  -0.190   6.332  1.00  0.00    -0.508 OA
ATOM     20  H   UNL     1      -0.694  -0.018   6.361  1.00  0.00     0.293 HD
ENDBRANCH  18  19
ENDBRANCH  11  13
ENDBRANCH   8   9
ENDBRANCH   7   8
BRANCH   7  21
ATOM     21  N   UNL     1       2.861   0.232  -1.115  1.00  0.00    -0.329 N 
ATOM     22  H   UNL     1       2.644  -0.011  -0.149  1.00  0.00     0.347 HD
ATOM     23  H   UNL     1       3.386  -0.512  -1.576  1.00  0.00     0.347 HD
BRANCH  21  24
ATOM     24  C   UNL     1       1.605   0.419  -1.850  1.00  0.00     0.337 C 
BRANCH  24  25
ATOM     25  C   UNL     1       0.786  -0.826  -1.828  1.00  0.00     0.157 A 
ATOM     26  C   UNL     1       1.018  -2.126  -1.422  1.00  0.00     0.052 A 
ATOM     27  O   UNL     1      -0.492  -0.711  -2.294  1.00  0.00    -0.463 OA
ATOM     28  C   UNL     1      -0.180  -2.841  -1.655  1.00  0.00     0.042 A 
ATOM     29  C   UNL     1      -1.067  -1.937  -2.190  1.00  0.00     0.195 A 
ENDBRANCH  24  25
ENDBRANCH  21  24
ENDBRANCH   7  21
ENDBRANCH   4   7
ENDBRANCH   2   3
ENDBRANCH   1   2
BRANCH   1  30
ATOM     30  C   UNL     1       6.182  -1.956  -4.403  1.00  0.00     0.002 C 
BRANCH  30  31
ATOM     31  C   UNL     1       7.677  -2.092  -4.092  1.00  0.00     0.002 C 
BRANCH  31  32
ATOM     32  C   UNL     1       8.049  -3.257  -3.172  1.00  0.00     0.021 C 
BRANCH  32  33
ATOM     33  C   UNL     1       7.628  -4.632  -3.679  1.00  0.00     0.116 C 
BRANCH  33  34
ATOM     34  N   UNL     1       8.286  -4.986  -4.928  1.00  0.00    -0.352 N 
ATOM     35  C   UNL     1       8.989  -6.118  -5.252  1.00  0.00     0.251 C 
ATOM     36  H   UNL     1       8.216  -4.315  -5.645  1.00  0.00     0.163 HD
ATOM     37  O   UNL     1       9.627  -6.168  -6.303  1.00  0.00    -0.269 OA
BRANCH  35  38
ATOM     38  C   UNL     1       9.004  -7.274  -4.332  1.00  0.00     0.039 A 
ATOM     39  C   UNL     1      10.217  -7.922  -4.083  1.00  0.00     0.014 A 
ATOM     40  C   UNL     1       7.830  -7.727  -3.723  1.00  0.00     0.014 A 
ATOM     41  C   UNL     1      10.264  -8.985  -3.179  1.00  0.00     0.010 A 
ATOM     42  C   UNL     1       7.890  -8.739  -2.768  1.00  0.00     0.010 A 
ATOM     43  C   UNL     1       9.107  -9.380  -2.487  1.00  0.00    -0.014 A 
BRANCH  43  44
ATOM     44  C   UNL     1       9.155 -10.454  -1.461  1.00  0.00     0.031 A 
ATOM     45  C   UNL     1       8.387 -11.731  -1.662  1.00  0.00     0.074 A 
ATOM     46  C   UNL     1       9.838 -10.250  -0.317  1.00  0.00     0.049 A 
ATOM     47  N   UNL     1       8.250 -12.751  -0.852  1.00  0.00    -0.248 NA
ATOM     48  C   UNL     1       7.654 -11.872  -2.930  1.00  0.00     0.031 C 
ATOM     49  C   UNL     1      10.578  -9.033   0.021  1.00  0.00     0.029 A 
ATOM     50  N   UNL     1      10.007 -11.056   0.783  1.00  0.00    -0.354 N 
ATOM     51  C   UNL     1       7.403 -13.640  -1.502  1.00  0.00     0.074 A 
ATOM     52  C   UNL     1       7.022 -13.024  -2.753  1.00  0.00     0.031 C 
ATOM     53  C   UNL     1      11.131  -9.176   1.235  1.00  0.00     0.029 A 
ATOM     54  C   UNL     1      10.755 -10.477   1.780  1.00  0.00     0.049 A 
ATOM     55  H   UNL     1       9.629 -11.962   0.850  1.00  0.00     0.167 HD
ATOM     56  C   UNL     1       6.997 -14.867  -1.097  1.00  0.00     0.037 A 
ATOM     57  C   UNL     1      11.086 -10.937   3.002  1.00  0.00     0.037 A 
ATOM     58  C   UNL     1       7.408 -15.492   0.133  1.00  0.00     0.049 A 
ATOM     59  C   UNL     1      10.630 -12.310   3.418  1.00  0.00     0.074 A 
ATOM     60  C   UNL     1       7.116 -16.765   0.591  1.00  0.00     0.029 A 
ATOM     61  N   UNL     1       8.194 -14.888   1.103  1.00  0.00    -0.354 N 
ATOM     62  N   UNL     1       9.901 -13.176   2.758  1.00  0.00    -0.248 NA
ATOM     63  C   UNL     1      11.051 -12.774   4.748  1.00  0.00     0.031 C 
ATOM     64  C   UNL     1       7.679 -16.912   1.862  1.00  0.00     0.029 A 
ATOM     65  C   UNL     1       8.373 -15.753   2.170  1.00  0.00     0.049 A 
ATOM     66  H   UNL     1       8.570 -13.980   1.042  1.00  0.00     0.167 HD
ATOM     67  C   UNL     1       9.802 -14.294   3.574  1.00  0.00     0.074 A 
ATOM     68  C   UNL     1      10.560 -14.005   4.772  1.00  0.00     0.031 C 
ATOM     69  C   UNL     1       9.142 -15.457   3.352  1.00  0.00     0.037 A 
BRANCH  56  70
ATOM     70  C   UNL     1       6.060 -15.628  -1.989  1.00  0.00     0.064 A 
ATOM     71  C   UNL     1       6.483 -16.173  -3.210  1.00  0.00     0.173 A 
ATOM     72  C   UNL     1       4.740 -15.878  -1.581  1.00  0.00     0.173 A 
ATOM     73  F   UNL     1       7.731 -15.956  -3.651  1.00  0.00    -0.203 F 
ATOM     74  C   UNL     1       5.615 -16.925  -3.998  1.00  0.00     0.198 A 
ATOM     75  C   UNL     1       3.885 -16.655  -2.357  1.00  0.00     0.198 A 
ATOM     76  F   UNL     1       4.287 -15.386  -0.419  1.00  0.00    -0.203 F 
ATOM     77  F   UNL     1       6.030 -17.405  -5.179  1.00  0.00    -0.200 F 
ATOM     78  C   UNL     1       4.320 -17.174  -3.567  1.00  0.00     0.200 A 
ATOM     79  F   UNL     1       2.639 -16.907  -1.931  1.00  0.00    -0.200 F 
ATOM     80  F   UNL     1       3.492 -17.912  -4.318  1.00  0.00    -0.200 F 
ENDBRANCH  56  70
BRANCH  57  81
ATOM     81  C   UNL     1      11.897 -10.095   3.922  1.00  0.00     0.064 A 
ATOM     82  C   UNL     1      13.206 -10.459   4.272  1.00  0.00     0.173 A 
ATOM     83  C   UNL     1      11.372  -8.927   4.493  1.00  0.00     0.173 A 
ATOM     84  F   UNL     1      13.746 -11.579   3.770  1.00  0.00    -0.203 F 
ATOM     85  C   UNL     1      13.945  -9.704   5.181  1.00  0.00     0.198 A 
ATOM     86  C   UNL     1      12.124  -8.155   5.376  1.00  0.00     0.198 A 
ATOM     87  F   UNL     1      10.127  -8.531   4.188  1.00  0.00    -0.203 F 
ATOM     88  F   UNL     1      15.170 -10.108   5.544  1.00  0.00    -0.200 F 
ATOM     89  C   UNL     1      13.405  -8.550   5.729  1.00  0.00     0.200 A 
ATOM     90  F   UNL     1      11.604  -7.032   5.891  1.00  0.00    -0.200 F 
ATOM     91  F   UNL     1      14.115  -7.826   6.605  1.00  0.00    -0.200 F 
ENDBRANCH  57  81
BRANCH  69  92
ATOM     92  C   UNL     1       9.243 -16.522   4.405  1.00  0.00     0.064 A 
ATOM     93  C   UNL     1       8.602 -16.396   5.647  1.00  0.00     0.173 A 
ATOM     94  C   UNL     1       9.956 -17.704   4.151  1.00  0.00     0.173 A 
ATOM     95  F   UNL     1       7.920 -15.280   5.944  1.00  0.00    -0.203 F 
ATOM     96  C   UNL     1       8.695 -17.402   6.605  1.00  0.00     0.198 A 
ATOM     97  C   UNL     1      10.018 -18.721   5.098  1.00  0.00     0.198 A 
ATOM     98  F   UNL     1      10.580 -17.878   2.976  1.00  0.00    -0.203 F 
ATOM     99  F   UNL     1       8.117 -17.239   7.803  1.00  0.00    -0.200 F 
ATOM    100  C   UNL     1       9.395 -18.567   6.327  1.00  0.00     0.200 A 
ATOM    101  F   UNL     1      10.682 -19.852   4.821  1.00  0.00    -0.200 F 
ATOM    102  F   UNL     1       9.475 -19.538   7.247  1.00  0.00    -0.200 F 
ENDBRANCH  69  92
ENDBRANCH  43  44
ENDBRANCH  35  38
ENDBRANCH  33  34
ENDBRANCH  32  33
ENDBRANCH  31  32
ENDBRANCH  30  31
ENDBRANCH   1  30
TORSDOF 20
