REMARK SMILES O=C(NCCCCCCNC(=O)[C@@H]1C=C[C@@H](NC(=O)c2c[nH]c(=O)[nH]2)C1)c1ccc(-c2c3nc(c(-c4c(F)c(F)c(F)c(F)c4F)c4ccc([nH]4)c(-c4c(F)c(F)c(F)c(F)c4F)c4nc(c(-c5c(F)c(F)c(F)c(F)c5F)c5ccc2[nH]5)C=C4)C=C3)cc1
REMARK SMILES IDX 6 1 5 2 4 3 3 4 1 5 2 6 27 8 28 9 89 10 29 11 88 12 30 13
REMARK SMILES IDX 31 14 32 15 82 16 33 17 87 18 81 19 83 20 34 21 86 22 80 23
REMARK SMILES IDX 79 24 35 26 67 27 47 28 66 29 48 30 51 31 65 32 84 33 49 34
REMARK SMILES IDX 50 35 64 37 85 38 52 39 36 40 37 41 45 42 38 43 39 44 43 45
REMARK SMILES IDX 46 46 40 47 41 48 44 49 42 50 68 51 69 52 77 53 70 54 71 55
REMARK SMILES IDX 75 56 78 57 72 58 73 59 76 60 74 61 53 62 54 63 62 64 55 65
REMARK SMILES IDX 56 66 60 67 63 68 57 69 58 70 61 71 59 72 7 73 8 74 9 75
REMARK SMILES IDX 10 76 11 77 12 79 13 80 14 81 26 82 15 83 16 84 17 85 18 86
REMARK SMILES IDX 19 88 20 89 21 90 25 91 22 92 23 93 24 96
REMARK H PARENT 3 7 83 25 51 36 10 78 17 87 25 94 22 95
REMARK Flexibility Score: inf
ROOT
ATOM      1  C   UNL     1      13.079  -8.738  -7.226  1.00  0.00     0.002 C 
ENDROOT
BRANCH   1   2
ATOM      2  C   UNL     1      13.742  -9.314  -5.975  1.00  0.00     0.021 C 
BRANCH   2   3
ATOM      3  C   UNL     1      13.429 -10.782  -5.727  1.00  0.00     0.116 C 
BRANCH   3   4
ATOM      4  N   UNL     1      13.966 -11.644  -6.770  1.00  0.00    -0.352 N 
ATOM      5  O   UNL     1      15.376 -13.161  -7.672  1.00  0.00    -0.269 OA
ATOM      6  C   UNL     1      14.878 -12.665  -6.667  1.00  0.00     0.251 C 
ATOM      7  H   UNL     1      13.627 -11.469  -7.678  1.00  0.00     0.163 HD
BRANCH   6   8
ATOM      8  C   UNL     1      15.270 -13.151  -5.328  1.00  0.00     0.039 A 
ATOM      9  C   UNL     1      14.300 -13.352  -4.346  1.00  0.00     0.014 A 
ATOM     10  C   UNL     1      16.618 -13.384  -5.046  1.00  0.00     0.014 A 
ATOM     11  C   UNL     1      14.690 -13.609  -3.040  1.00  0.00     0.010 A 
ATOM     12  C   UNL     1      16.999 -13.756  -3.753  1.00  0.00     0.010 A 
ATOM     13  C   UNL     1      16.041 -13.833  -2.730  1.00  0.00    -0.014 A 
BRANCH  13  14
ATOM     14  C   UNL     1      16.407 -14.195  -1.336  1.00  0.00     0.031 A 
ATOM     15  C   UNL     1      17.304 -13.317  -0.509  1.00  0.00     0.074 A 
ATOM     16  C   UNL     1      15.879 -15.315  -0.805  1.00  0.00     0.049 A 
ATOM     17  N   UNL     1      17.692 -13.472   0.733  1.00  0.00    -0.248 NA
ATOM     18  C   UNL     1      17.848 -12.116  -1.159  1.00  0.00     0.031 C 
ATOM     19  C   UNL     1      15.001 -16.248  -1.516  1.00  0.00     0.029 A 
ATOM     20  N   UNL     1      15.976 -15.847   0.454  1.00  0.00    -0.354 N 
ATOM     21  C   UNL     1      18.542 -12.408   1.004  1.00  0.00     0.074 A 
ATOM     22  C   UNL     1      18.638 -11.628  -0.212  1.00  0.00     0.031 C 
ATOM     23  C   UNL     1      14.588 -17.198  -0.666  1.00  0.00     0.029 A 
ATOM     24  C   UNL     1      15.232 -16.989   0.624  1.00  0.00     0.049 A 
ATOM     25  H   UNL     1      16.526 -15.450   1.168  1.00  0.00     0.167 HD
ATOM     26  C   UNL     1      19.177 -12.108   2.164  1.00  0.00     0.037 A 
ATOM     27  C   UNL     1      15.094 -17.790   1.696  1.00  0.00     0.037 A 
ATOM     28  C   UNL     1      19.055 -12.880   3.376  1.00  0.00     0.049 A 
ATOM     29  C   UNL     1      15.832 -17.446   2.957  1.00  0.00     0.074 A 
ATOM     30  C   UNL     1      19.618 -12.633   4.617  1.00  0.00     0.029 A 
ATOM     31  N   UNL     1      18.325 -14.054   3.498  1.00  0.00    -0.354 N 
ATOM     32  N   UNL     1      16.600 -16.415   3.213  1.00  0.00    -0.248 NA
ATOM     33  C   UNL     1      15.684 -18.381   4.079  1.00  0.00     0.031 C 
ATOM     34  C   UNL     1      19.284 -13.691   5.469  1.00  0.00     0.029 A 
ATOM     35  C   UNL     1      18.451 -14.560   4.784  1.00  0.00     0.049 A 
ATOM     36  H   UNL     1      17.796 -14.468   2.778  1.00  0.00     0.167 HD
ATOM     37  C   UNL     1      17.003 -16.559   4.533  1.00  0.00     0.074 A 
ATOM     38  C   UNL     1      16.377 -17.768   5.028  1.00  0.00     0.031 C 
ATOM     39  C   UNL     1      17.818 -15.762   5.267  1.00  0.00     0.037 A 
BRANCH  26  40
ATOM     40  C   UNL     1      20.090 -10.913   2.174  1.00  0.00     0.064 A 
ATOM     41  C   UNL     1      19.604  -9.600   2.074  1.00  0.00     0.173 A 
ATOM     42  C   UNL     1      21.475 -11.085   2.328  1.00  0.00     0.173 A 
ATOM     43  F   UNL     1      18.290  -9.376   1.925  1.00  0.00    -0.203 F 
ATOM     44  C   UNL     1      20.471  -8.509   2.092  1.00  0.00     0.198 A 
ATOM     45  C   UNL     1      22.336  -9.991   2.381  1.00  0.00     0.198 A 
ATOM     46  F   UNL     1      21.996 -12.316   2.441  1.00  0.00    -0.203 F 
ATOM     47  F   UNL     1      19.989  -7.268   1.943  1.00  0.00    -0.200 F 
ATOM     48  C   UNL     1      21.835  -8.705   2.252  1.00  0.00     0.200 A 
ATOM     49  F   UNL     1      23.651 -10.182   2.557  1.00  0.00    -0.200 F 
ATOM     50  F   UNL     1      22.667  -7.654   2.278  1.00  0.00    -0.200 F 
ENDBRANCH  26  40
BRANCH  27  51
ATOM     51  C   UNL     1      14.218 -18.988   1.619  1.00  0.00     0.064 A 
ATOM     52  C   UNL     1      13.043 -19.070   2.378  1.00  0.00     0.173 A 
ATOM     53  C   UNL     1      14.535 -20.072   0.786  1.00  0.00     0.173 A 
ATOM     54  F   UNL     1      12.704 -18.067   3.201  1.00  0.00    -0.203 F 
ATOM     55  C   UNL     1      12.231 -20.201   2.325  1.00  0.00     0.198 A 
ATOM     56  C   UNL     1      13.703 -21.186   0.707  1.00  0.00     0.198 A 
ATOM     57  F   UNL     1      15.644 -20.039   0.033  1.00  0.00    -0.203 F 
ATOM     58  F   UNL     1      11.140 -20.276   3.100  1.00  0.00    -0.200 F 
ATOM     59  C   UNL     1      12.558 -21.255   1.485  1.00  0.00     0.200 A 
ATOM     60  F   UNL     1      14.012 -22.192  -0.122  1.00  0.00    -0.200 F 
ATOM     61  F   UNL     1      11.773 -22.339   1.429  1.00  0.00    -0.200 F 
ENDBRANCH  27  51
BRANCH  39  62
ATOM     62  C   UNL     1      18.035 -16.147   6.704  1.00  0.00     0.064 A 
ATOM     63  C   UNL     1      18.764 -17.290   7.065  1.00  0.00     0.173 A 
ATOM     64  C   UNL     1      17.512 -15.351   7.735  1.00  0.00     0.173 A 
ATOM     65  F   UNL     1      19.271 -18.096   6.119  1.00  0.00    -0.203 F 
ATOM     66  C   UNL     1      18.926 -17.643   8.402  1.00  0.00     0.198 A 
ATOM     67  C   UNL     1      17.709 -15.686   9.071  1.00  0.00     0.198 A 
ATOM     68  F   UNL     1      16.812 -14.243   7.446  1.00  0.00    -0.203 F 
ATOM     69  F   UNL     1      19.567 -18.776   8.721  1.00  0.00    -0.200 F 
ATOM     70  C   UNL     1      18.405 -16.838   9.403  1.00  0.00     0.200 A 
ATOM     71  F   UNL     1      17.219 -14.897  10.037  1.00  0.00    -0.200 F 
ATOM     72  F   UNL     1      18.564 -17.178  10.690  1.00  0.00    -0.200 F 
ENDBRANCH  39  62
ENDBRANCH  13  14
ENDBRANCH   6   8
ENDBRANCH   3   4
ENDBRANCH   2   3
ENDBRANCH   1   2
BRANCH   1  73
ATOM     73  C   UNL     1      11.547  -8.833  -7.254  1.00  0.00     0.002 C 
BRANCH  73  74
ATOM     74  C   UNL     1      10.840  -8.311  -6.000  1.00  0.00     0.021 C 
BRANCH  74  75
ATOM     75  C   UNL     1      11.185  -6.866  -5.659  1.00  0.00     0.116 C 
BRANCH  75  76
ATOM     76  N   UNL     1      10.482  -5.930  -6.511  1.00  0.00    -0.356 N 
ATOM     77  C   UNL     1       9.434  -5.087  -6.354  1.00  0.00     0.227 C 
ATOM     78  H   UNL     1      10.854  -5.899  -7.422  1.00  0.00     0.163 HD
ATOM     79  O   UNL     1       9.082  -4.492  -7.383  1.00  0.00    -0.274 OA
BRANCH  77  80
ATOM     80  C   UNL     1       8.711  -4.770  -5.035  1.00  0.00     0.103 C 
ATOM     81  C   UNL     1       9.080  -3.368  -4.603  1.00  0.00    -0.016 C 
ATOM     82  C   UNL     1       8.986  -5.536  -3.747  1.00  0.00     0.047 C 
ATOM     83  C   UNL     1       9.850  -3.371  -3.505  1.00  0.00    -0.006 C 
ATOM     84  C   UNL     1      10.148  -4.770  -3.096  1.00  0.00     0.106 C 
BRANCH  84  85
ATOM     85  N   UNL     1      10.186  -4.907  -1.665  1.00  0.00    -0.344 N 
ATOM     86  C   UNL     1      11.179  -5.447  -0.898  1.00  0.00     0.269 C 
ATOM     87  H   UNL     1       9.400  -4.570  -1.178  1.00  0.00     0.164 HD
ATOM     88  O   UNL     1      10.947  -5.779   0.263  1.00  0.00    -0.268 OA
BRANCH  86  89
ATOM     89  C   UNL     1      12.519  -5.695  -1.488  1.00  0.00     0.124 A 
ATOM     90  C   UNL     1      13.274  -4.900  -2.263  1.00  0.00     0.119 A 
ATOM     91  N   UNL     1      13.232  -6.843  -1.225  1.00  0.00    -0.302 N 
ATOM     92  N   UNL     1      14.452  -5.548  -2.541  1.00  0.00    -0.312 N 
ATOM     93  C   UNL     1      14.458  -6.789  -1.891  1.00  0.00     0.323 A 
ATOM     94  H   UNL     1      12.926  -7.586  -0.656  1.00  0.00     0.172 HD
ATOM     95  H   UNL     1      15.176  -5.197  -3.108  1.00  0.00     0.171 HD
ATOM     96  O   UNL     1      15.336  -7.634  -1.919  1.00  0.00    -0.248 OA
ENDBRANCH  86  89
ENDBRANCH  84  85
ENDBRANCH  77  80
ENDBRANCH  75  76
ENDBRANCH  74  75
ENDBRANCH  73  74
ENDBRANCH   1  73
TORSDOF 15
