REMARK SMILES C[NH2+][C@]1(C(=O)NCCCCCCNC(=O)c2ccc(-c3c4nc(c(-c5c(F)c(F)c(F)c(F)c5F)c5ccc([nH]5)c(-c5c(F)c(F)c(F)c(F)c5F)c5nc(c(-c6c(F)c(F)c(F)c(F)c6F)c6ccc3[nH]6)C=C5)C=C4)cc2)CCC[C@@H](Sc2nncs2)C1
REMARK SMILES IDX 9 1 8 2 7 3 6 4 4 5 5 6 3 8 79 9 89 10 80 11 82 12 81 13
REMARK SMILES IDX 2 14 1 15 83 18 84 19 85 20 88 21 86 22 87 23 10 24 11 25
REMARK SMILES IDX 12 26 13 27 14 28 15 30 16 31 17 32 78 33 18 34 77 35 19 36
REMARK SMILES IDX 20 37 21 38 71 39 22 40 76 41 70 42 72 43 23 44 75 45 69 46
REMARK SMILES IDX 68 47 24 49 56 50 36 51 55 52 37 53 40 54 54 55 73 56 38 57
REMARK SMILES IDX 39 58 53 60 74 61 41 62 25 63 26 64 34 65 27 66 28 67 32 68
REMARK SMILES IDX 35 69 29 70 30 71 33 72 31 73 57 74 58 75 66 76 59 77 60 78
REMARK SMILES IDX 64 79 67 80 61 81 62 82 65 83 63 84 42 85 43 86 51 87 44 88
REMARK SMILES IDX 45 89 49 90 52 91 46 92 47 93 50 94 48 95
REMARK H PARENT 6 7 2 16 2 17 13 29 72 48 40 59
REMARK Flexibility Score: inf
ROOT
ATOM      1  C   UNL     1       2.741   0.150   2.317  1.00  0.00     0.002 C 
ENDROOT
BRANCH   1   2
ATOM      2  C   UNL     1       1.252  -0.175   2.168  1.00  0.00     0.021 C 
BRANCH   2   3
ATOM      3  C   UNL     1       0.531   0.591   1.065  1.00  0.00     0.116 C 
BRANCH   3   4
ATOM      4  N   UNL     1       1.005   0.234  -0.259  1.00  0.00    -0.351 N 
ATOM      5  C   UNL     1       0.332  -0.004  -1.420  1.00  0.00     0.281 C 
ATOM      6  O   UNL     1       1.030  -0.298  -2.401  1.00  0.00    -0.268 OA
ATOM      7  H   UNL     1       1.983   0.150  -0.332  1.00  0.00     0.163 HD
BRANCH   5   8
ATOM      8  C   UNL     1      -1.250  -0.009  -1.523  1.00  0.00     0.176 C 
ATOM      9  C   UNL     1      -1.733  -1.254  -0.734  1.00  0.00     0.079 C 
ATOM     10  C   UNL     1      -1.826   1.347  -1.029  1.00  0.00     0.094 C 
ATOM     11  C   UNL     1      -3.187  -1.221  -0.275  1.00  0.00     0.008 C 
ATOM     12  C   UNL     1      -3.261   1.286  -0.492  1.00  0.00     0.061 C 
ATOM     13  C   UNL     1      -3.527   0.088   0.421  1.00  0.00     0.015 C 
BRANCH   8  14
ATOM     14  N   UNL     1      -1.537  -0.080  -2.989  1.00  0.00    -0.336 N 
ATOM     15  C   UNL     1      -2.772  -0.676  -3.447  1.00  0.00     0.331 C 
ATOM     16  H   UNL     1      -1.522   0.877  -3.341  1.00  0.00     0.346 HD
ATOM     17  H   UNL     1      -0.820  -0.715  -3.342  1.00  0.00     0.346 HD
ENDBRANCH   8  14
BRANCH  12  18
ATOM     18  S   UNL     1      -3.770   2.876   0.282  1.00  0.00    -0.090 SA
BRANCH  18  19
ATOM     19  C   UNL     1      -3.083   2.774   1.885  1.00  0.00     0.174 A 
ATOM     20  N   UNL     1      -1.813   2.509   2.105  1.00  0.00    -0.132 NA
ATOM     21  S   UNL     1      -4.013   2.987   3.311  1.00  0.00    -0.094 S 
ATOM     22  N   UNL     1      -1.517   2.430   3.453  1.00  0.00    -0.146 NA
ATOM     23  C   UNL     1      -2.579   2.667   4.194  1.00  0.00     0.203 A 
ENDBRANCH  18  19
ENDBRANCH  12  18
ENDBRANCH   5   8
ENDBRANCH   3   4
ENDBRANCH   2   3
ENDBRANCH   1   2
BRANCH   1  24
ATOM     24  C   UNL     1       3.083   1.630   2.521  1.00  0.00     0.002 C 
BRANCH  24  25
ATOM     25  C   UNL     1       2.340   2.332   3.659  1.00  0.00     0.021 C 
BRANCH  25  26
ATOM     26  C   UNL     1       2.443   1.656   5.021  1.00  0.00     0.116 C 
BRANCH  26  27
ATOM     27  N   UNL     1       3.811   1.583   5.507  1.00  0.00    -0.352 N 
ATOM     28  C   UNL     1       4.325   1.949   6.726  1.00  0.00     0.251 C 
ATOM     29  H   UNL     1       4.464   1.216   4.869  1.00  0.00     0.163 HD
ATOM     30  O   UNL     1       5.537   1.957   6.909  1.00  0.00    -0.269 OA
BRANCH  28  31
ATOM     31  C   UNL     1       3.417   2.362   7.818  1.00  0.00     0.039 A 
ATOM     32  C   UNL     1       3.740   3.498   8.565  1.00  0.00     0.014 A 
ATOM     33  C   UNL     1       2.262   1.633   8.114  1.00  0.00     0.014 A 
ATOM     34  C   UNL     1       2.875   3.937   9.569  1.00  0.00     0.010 A 
ATOM     35  C   UNL     1       1.366   2.111   9.067  1.00  0.00     0.010 A 
ATOM     36  C   UNL     1       1.663   3.267   9.806  1.00  0.00    -0.014 A 
BRANCH  36  37
ATOM     37  C   UNL     1       0.697   3.763  10.819  1.00  0.00     0.031 A 
ATOM     38  C   UNL     1       0.372   2.931  12.028  1.00  0.00     0.074 A 
ATOM     39  C   UNL     1       0.069   4.938  10.621  1.00  0.00     0.049 A 
ATOM     40  N   UNL     1      -0.490   3.163  12.986  1.00  0.00    -0.248 NA
ATOM     41  C   UNL     1       1.091   1.655  12.165  1.00  0.00     0.031 C 
ATOM     42  C   UNL     1       0.267   5.818   9.468  1.00  0.00     0.029 A 
ATOM     43  N   UNL     1      -0.871   5.591  11.379  1.00  0.00    -0.354 N 
ATOM     44  C   UNL     1      -0.423   2.062  13.830  1.00  0.00     0.074 A 
ATOM     45  C   UNL     1       0.520   1.136  13.242  1.00  0.00     0.031 C 
ATOM     46  C   UNL     1      -0.508   6.905   9.606  1.00  0.00     0.029 A 
ATOM     47  C   UNL     1      -1.288   6.782  10.834  1.00  0.00     0.049 A 
ATOM     48  H   UNL     1      -1.214   5.240  12.232  1.00  0.00     0.167 HD
ATOM     49  C   UNL     1      -1.071   1.853  15.001  1.00  0.00     0.037 A 
ATOM     50  C   UNL     1      -2.201   7.669  11.272  1.00  0.00     0.037 A 
ATOM     51  C   UNL     1      -1.994   2.786  15.594  1.00  0.00     0.049 A 
ATOM     52  C   UNL     1      -2.920   7.405  12.568  1.00  0.00     0.074 A 
ATOM     53  C   UNL     1      -2.661   2.691  16.803  1.00  0.00     0.029 A 
ATOM     54  N   UNL     1      -2.383   3.987  15.018  1.00  0.00    -0.354 N 
ATOM     55  N   UNL     1      -2.800   6.391  13.389  1.00  0.00    -0.248 NA
ATOM     56  C   UNL     1      -3.896   8.415  13.001  1.00  0.00     0.031 C 
ATOM     57  C   UNL     1      -3.493   3.808  16.934  1.00  0.00     0.029 A 
ATOM     58  C   UNL     1      -3.301   4.629  15.834  1.00  0.00     0.049 A 
ATOM     59  H   UNL     1      -2.056   4.332  14.156  1.00  0.00     0.167 HD
ATOM     60  C   UNL     1      -3.659   6.653  14.448  1.00  0.00     0.074 A 
ATOM     61  C   UNL     1      -4.284   7.930  14.172  1.00  0.00     0.031 C 
ATOM     62  C   UNL     1      -3.909   5.904  15.550  1.00  0.00     0.037 A 
BRANCH  49  63
ATOM     63  C   UNL     1      -0.805   0.563  15.723  1.00  0.00     0.064 A 
ATOM     64  C   UNL     1       0.436   0.296  16.323  1.00  0.00     0.173 A 
ATOM     65  C   UNL     1      -1.814  -0.404  15.851  1.00  0.00     0.173 A 
ATOM     66  F   UNL     1       1.438   1.182  16.222  1.00  0.00    -0.203 F 
ATOM     67  C   UNL     1       0.666  -0.901  16.995  1.00  0.00     0.198 A 
ATOM     68  C   UNL     1      -1.591  -1.586  16.552  1.00  0.00     0.198 A 
ATOM     69  F   UNL     1      -3.021  -0.199  15.303  1.00  0.00    -0.203 F 
ATOM     70  F   UNL     1       1.875  -1.155  17.514  1.00  0.00    -0.200 F 
ATOM     71  C   UNL     1      -0.349  -1.838  17.115  1.00  0.00     0.200 A 
ATOM     72  F   UNL     1      -2.578  -2.484  16.680  1.00  0.00    -0.200 F 
ATOM     73  F   UNL     1      -0.129  -2.987  17.769  1.00  0.00    -0.200 F 
ENDBRANCH  49  63
BRANCH  50  74
ATOM     74  C   UNL     1      -2.476   8.902  10.487  1.00  0.00     0.064 A 
ATOM     75  C   UNL     1      -2.111  10.164  10.975  1.00  0.00     0.173 A 
ATOM     76  C   UNL     1      -3.118   8.845   9.241  1.00  0.00     0.173 A 
ATOM     77  F   UNL     1      -1.514  10.271  12.172  1.00  0.00    -0.203 F 
ATOM     78  C   UNL     1      -2.398  11.324  10.259  1.00  0.00     0.198 A 
ATOM     79  C   UNL     1      -3.376  10.004   8.511  1.00  0.00     0.198 A 
ATOM     80  F   UNL     1      -3.484   7.662   8.726  1.00  0.00    -0.203 F 
ATOM     81  F   UNL     1      -2.083  12.521  10.774  1.00  0.00    -0.200 F 
ATOM     82  C   UNL     1      -3.025  11.243   9.025  1.00  0.00     0.200 A 
ATOM     83  F   UNL     1      -3.969   9.920   7.312  1.00  0.00    -0.200 F 
ATOM     84  F   UNL     1      -3.299  12.359   8.336  1.00  0.00    -0.200 F 
ENDBRANCH  50  74
BRANCH  62  85
ATOM     85  C   UNL     1      -4.870   6.462  16.560  1.00  0.00     0.064 A 
ATOM     86  C   UNL     1      -6.247   6.544  16.303  1.00  0.00     0.173 A 
ATOM     87  C   UNL     1      -4.411   6.883  17.818  1.00  0.00     0.173 A 
ATOM     88  F   UNL     1      -6.734   6.168  15.111  1.00  0.00    -0.203 F 
ATOM     89  C   UNL     1      -7.124   7.053  17.257  1.00  0.00     0.198 A 
ATOM     90  C   UNL     1      -5.295   7.361  18.781  1.00  0.00     0.198 A 
ATOM     91  F   UNL     1      -3.106   6.819  18.118  1.00  0.00    -0.203 F 
ATOM     92  F   UNL     1      -8.428   7.170  16.970  1.00  0.00    -0.200 F 
ATOM     93  C   UNL     1      -6.649   7.453  18.497  1.00  0.00     0.200 A 
ATOM     94  F   UNL     1      -4.837   7.732  19.984  1.00  0.00    -0.200 F 
ATOM     95  F   UNL     1      -7.497   7.935  19.417  1.00  0.00    -0.200 F 
ENDBRANCH  62  85
ENDBRANCH  36  37
ENDBRANCH  28  31
ENDBRANCH  26  27
ENDBRANCH  25  26
ENDBRANCH  24  25
ENDBRANCH   1  24
TORSDOF 16
