REMARK SMILES Cc1n[nH]cc1CNC(=O)NC[C@H](CC(C)C)C(=O)NCCCCCCNC(=O)c1ccc(-c2c3nc(c(-c4c(F)c(F)c(F)c(F)c4F)c4ccc([nH]4)c(-c4c(F)c(F)c(F)c(F)c4F)c4nc(c(-c5c(F)c(F)c(F)c(F)c5F)c5ccc2[nH]5)C=C4)C=C3)cc1
REMARK SMILES IDX 22 1 21 2 20 3 18 4 19 5 13 7 12 8 11 9 8 10 9 11 10 13 7 15
REMARK SMILES IDX 6 16 1 17 2 18 3 19 4 20 5 21 14 23 15 24 16 25 17 26 23 27
REMARK SMILES IDX 24 28 25 29 26 30 27 31 28 32 29 34 30 35 31 36 92 37 32 38
REMARK SMILES IDX 91 39 33 40 34 41 35 42 85 43 36 44 90 45 84 46 86 47 37 48
REMARK SMILES IDX 89 49 83 50 82 51 38 53 70 54 50 55 69 56 51 57 54 58 68 59
REMARK SMILES IDX 87 60 52 61 53 62 67 64 88 65 55 66 39 67 40 68 48 69 41 70
REMARK SMILES IDX 42 71 46 72 49 73 43 74 44 75 47 76 45 77 71 78 72 79 80 80
REMARK SMILES IDX 73 81 74 82 78 83 81 84 75 85 76 86 79 87 77 88 56 89 57 90
REMARK SMILES IDX 65 91 58 92 59 93 63 94 66 95 60 96 61 97 64 98 62 99
REMARK H PARENT 20 6 8 12 11 14 4 22 27 33 86 52 54 63
REMARK Flexibility Score: inf
ROOT
ATOM      1  C   UNL     1      -1.614   2.094   4.940  1.00  0.00     0.021 C 
ENDROOT
BRANCH   1   2
ATOM      2  C   UNL     1      -1.240   3.576   4.832  1.00  0.00     0.116 C 
BRANCH   2   3
ATOM      3  N   UNL     1       0.107   3.771   4.330  1.00  0.00    -0.356 N 
ATOM      4  C   UNL     1       0.593   4.382   3.217  1.00  0.00     0.224 C 
ATOM      5  O   UNL     1       1.822   4.375   3.084  1.00  0.00    -0.275 OA
ATOM      6  H   UNL     1       0.805   3.386   4.907  1.00  0.00     0.163 HD
BRANCH   4   7
ATOM      7  C   UNL     1      -0.276   5.052   2.146  1.00  0.00     0.098 C 
BRANCH   7   8
ATOM      8  C   UNL     1      -1.119   6.218   2.686  1.00  0.00     0.131 C 
BRANCH   8   9
ATOM      9  N   UNL     1      -2.162   6.664   1.779  1.00  0.00    -0.337 N 
ATOM     10  N   UNL     1      -4.160   7.031   3.002  1.00  0.00    -0.334 N 
ATOM     11  C   UNL     1      -3.414   7.108   1.902  1.00  0.00     0.315 C 
ATOM     12  H   UNL     1      -4.988   7.557   2.923  1.00  0.00     0.165 HD
ATOM     13  O   UNL     1      -3.929   7.623   0.906  1.00  0.00    -0.249 OA
ATOM     14  H   UNL     1      -1.872   6.632   0.839  1.00  0.00     0.165 HD
BRANCH  10  15
ATOM     15  C   UNL     1      -4.059   6.371   4.280  1.00  0.00     0.157 C 
BRANCH  15  16
ATOM     16  C   UNL     1      -4.199   7.345   5.394  1.00  0.00     0.012 A 
ATOM     17  C   UNL     1      -4.495   5.696   7.400  1.00  0.00     0.069 C 
ATOM     18  C   UNL     1      -4.398   7.033   6.771  1.00  0.00     0.064 A 
ATOM     19  N   UNL     1      -4.497   8.132   7.526  1.00  0.00    -0.181 NA
ATOM     20  N   UNL     1      -4.346   9.140   6.656  1.00  0.00    -0.285 N 
ATOM     21  C   UNL     1      -4.152   8.724   5.374  1.00  0.00     0.111 A 
ATOM     22  H   UNL     1      -4.372  10.089   6.918  1.00  0.00     0.189 HD
ENDBRANCH  15  16
ENDBRANCH  10  15
ENDBRANCH   8   9
ENDBRANCH   7   8
BRANCH   7  23
ATOM     23  C   UNL     1      -0.860   4.075   1.094  1.00  0.00     0.018 C 
BRANCH  23  24
ATOM     24  C   UNL     1      -1.870   2.991   1.498  1.00  0.00    -0.017 C 
ATOM     25  C   UNL     1      -3.275   3.523   1.763  1.00  0.00     0.007 C 
ATOM     26  C   UNL     1      -1.962   1.917   0.406  1.00  0.00     0.007 C 
ENDBRANCH  23  24
ENDBRANCH   7  23
ENDBRANCH   4   7
ENDBRANCH   2   3
ENDBRANCH   1   2
BRANCH   1  27
ATOM     27  C   UNL     1      -1.652   1.533   6.362  1.00  0.00     0.002 C 
BRANCH  27  28
ATOM     28  C   UNL     1      -2.697   2.150   7.298  1.00  0.00     0.002 C 
BRANCH  28  29
ATOM     29  C   UNL     1      -4.138   2.182   6.776  1.00  0.00     0.021 C 
BRANCH  29  30
ATOM     30  C   UNL     1      -4.738   0.828   6.407  1.00  0.00     0.116 C 
BRANCH  30  31
ATOM     31  N   UNL     1      -4.838  -0.059   7.553  1.00  0.00    -0.352 N 
ATOM     32  C   UNL     1      -5.920  -0.461   8.290  1.00  0.00     0.251 C 
ATOM     33  H   UNL     1      -3.979  -0.436   7.852  1.00  0.00     0.163 HD
ATOM     34  O   UNL     1      -5.729  -1.040   9.364  1.00  0.00    -0.269 OA
BRANCH  32  35
ATOM     35  C   UNL     1      -7.311  -0.218   7.843  1.00  0.00     0.039 A 
ATOM     36  C   UNL     1      -8.282   0.076   8.808  1.00  0.00     0.014 A 
ATOM     37  C   UNL     1      -7.694  -0.361   6.508  1.00  0.00     0.014 A 
ATOM     38  C   UNL     1      -9.616   0.267   8.432  1.00  0.00     0.010 A 
ATOM     39  C   UNL     1      -9.009  -0.095   6.121  1.00  0.00     0.010 A 
ATOM     40  C   UNL     1      -9.988   0.207   7.080  1.00  0.00    -0.014 A 
BRANCH  40  41
ATOM     41  C   UNL     1     -11.396   0.425   6.654  1.00  0.00     0.031 A 
ATOM     42  C   UNL     1     -12.172  -0.690   6.003  1.00  0.00     0.074 A 
ATOM     43  C   UNL     1     -11.961   1.640   6.796  1.00  0.00     0.049 A 
ATOM     44  N   UNL     1     -13.373  -0.671   5.481  1.00  0.00    -0.248 NA
ATOM     45  C   UNL     1     -11.497  -1.993   5.902  1.00  0.00     0.031 C 
ATOM     46  C   UNL     1     -11.308   2.813   7.378  1.00  0.00     0.029 A 
ATOM     47  N   UNL     1     -13.210   2.092   6.449  1.00  0.00    -0.354 N 
ATOM     48  C   UNL     1     -13.583  -1.944   4.966  1.00  0.00     0.074 A 
ATOM     49  C   UNL     1     -12.372  -2.700   5.202  1.00  0.00     0.031 C 
ATOM     50  C   UNL     1     -12.167   3.845   7.366  1.00  0.00     0.029 A 
ATOM     51  C   UNL     1     -13.417   3.418   6.742  1.00  0.00     0.049 A 
ATOM     52  H   UNL     1     -13.893   1.521   6.029  1.00  0.00     0.167 HD
ATOM     53  C   UNL     1     -14.692  -2.443   4.367  1.00  0.00     0.037 A 
ATOM     54  C   UNL     1     -14.489   4.204   6.526  1.00  0.00     0.037 A 
ATOM     55  C   UNL     1     -15.913  -1.706   4.176  1.00  0.00     0.049 A 
ATOM     56  C   UNL     1     -15.711   3.621   5.869  1.00  0.00     0.074 A 
ATOM     57  C   UNL     1     -17.115  -2.149   3.651  1.00  0.00     0.029 A 
ATOM     58  N   UNL     1     -16.090  -0.371   4.507  1.00  0.00    -0.354 N 
ATOM     59  N   UNL     1     -15.918   2.400   5.441  1.00  0.00    -0.248 NA
ATOM     60  C   UNL     1     -16.851   4.527   5.669  1.00  0.00     0.031 C 
ATOM     61  C   UNL     1     -18.007  -1.071   3.628  1.00  0.00     0.029 A 
ATOM     62  C   UNL     1     -17.374   0.031   4.179  1.00  0.00     0.049 A 
ATOM     63  H   UNL     1     -15.404   0.205   4.915  1.00  0.00     0.167 HD
ATOM     64  C   UNL     1     -17.216   2.382   4.949  1.00  0.00     0.074 A 
ATOM     65  C   UNL     1     -17.754   3.712   5.142  1.00  0.00     0.031 C 
ATOM     66  C   UNL     1     -17.900   1.355   4.388  1.00  0.00     0.037 A 
BRANCH  53  67
ATOM     67  C   UNL     1     -14.639  -3.861   3.876  1.00  0.00     0.064 A 
ATOM     68  C   UNL     1     -14.630  -4.948   4.761  1.00  0.00     0.173 A 
ATOM     69  C   UNL     1     -14.643  -4.135   2.499  1.00  0.00     0.173 A 
ATOM     70  F   UNL     1     -14.616  -4.740   6.086  1.00  0.00    -0.203 F 
ATOM     71  C   UNL     1     -14.598  -6.258   4.288  1.00  0.00     0.198 A 
ATOM     72  C   UNL     1     -14.639  -5.446   2.030  1.00  0.00     0.198 A 
ATOM     73  F   UNL     1     -14.658  -3.132   1.609  1.00  0.00    -0.203 F 
ATOM     74  F   UNL     1     -14.544  -7.280   5.153  1.00  0.00    -0.200 F 
ATOM     75  C   UNL     1     -14.610  -6.506   2.923  1.00  0.00     0.200 A 
ATOM     76  F   UNL     1     -14.663  -5.684   0.711  1.00  0.00    -0.200 F 
ATOM     77  F   UNL     1     -14.587  -7.766   2.470  1.00  0.00    -0.200 F 
ENDBRANCH  53  67
BRANCH  54  78
ATOM     78  C   UNL     1     -14.468   5.625   6.959  1.00  0.00     0.064 A 
ATOM     79  C   UNL     1     -15.253   6.057   8.037  1.00  0.00     0.173 A 
ATOM     80  C   UNL     1     -13.672   6.577   6.306  1.00  0.00     0.173 A 
ATOM     81  F   UNL     1     -16.047   5.186   8.677  1.00  0.00    -0.203 F 
ATOM     82  C   UNL     1     -15.258   7.392   8.434  1.00  0.00     0.198 A 
ATOM     83  C   UNL     1     -13.658   7.907   6.721  1.00  0.00     0.198 A 
ATOM     84  F   UNL     1     -12.901   6.213   5.272  1.00  0.00    -0.203 F 
ATOM     85  F   UNL     1     -16.052   7.787   9.439  1.00  0.00    -0.200 F 
ATOM     86  C   UNL     1     -14.457   8.315   7.779  1.00  0.00     0.200 A 
ATOM     87  F   UNL     1     -12.874   8.794   6.094  1.00  0.00    -0.200 F 
ATOM     88  F   UNL     1     -14.460   9.599   8.163  1.00  0.00    -0.200 F 
ENDBRANCH  54  78
BRANCH  66  89
ATOM     89  C   UNL     1     -19.318   1.618   3.976  1.00  0.00     0.064 A 
ATOM     90  C   UNL     1     -19.624   2.393   2.848  1.00  0.00     0.173 A 
ATOM     91  C   UNL     1     -20.382   1.053   4.696  1.00  0.00     0.173 A 
ATOM     92  F   UNL     1     -18.642   2.966   2.137  1.00  0.00    -0.203 F 
ATOM     93  C   UNL     1     -20.946   2.611   2.469  1.00  0.00     0.198 A 
ATOM     94  C   UNL     1     -21.701   1.251   4.298  1.00  0.00     0.198 A 
ATOM     95  F   UNL     1     -20.140   0.299   5.779  1.00  0.00    -0.203 F 
ATOM     96  F   UNL     1     -21.218   3.390   1.413  1.00  0.00    -0.200 F 
ATOM     97  C   UNL     1     -21.982   2.035   3.189  1.00  0.00     0.200 A 
ATOM     98  F   UNL     1     -22.700   0.684   4.988  1.00  0.00    -0.200 F 
ATOM     99  F   UNL     1     -23.253   2.241   2.818  1.00  0.00    -0.200 F 
ENDBRANCH  66  89
ENDBRANCH  40  41
ENDBRANCH  32  35
ENDBRANCH  30  31
ENDBRANCH  29  30
ENDBRANCH  28  29
ENDBRANCH  27  28
ENDBRANCH   1  27
TORSDOF 19
