REMARK SMILES C[C@@H]1[C@@H](C(=O)NCCCCCCNC(=O)c2ccc(-c3c4nc(c(-c5c(F)c(F)c(F)c(F)c5F)c5ccc([nH]5)c(-c5c(F)c(F)c(F)c(F)c5F)c5nc(c(-c6c(F)c(F)c(F)c(F)c6F)c6ccc3[nH]6)C=C5)C=C4)cc2)CC[N@@H+]1CC(=O)N(C)C1CC1
REMARK SMILES IDX 8 1 7 2 6 3 4 4 5 5 3 7 1 8 2 9 81 10 79 11 80 12 82 14
REMARK SMILES IDX 83 15 84 16 85 17 86 18 87 19 88 20 89 21 9 22 10 23 11 24
REMARK SMILES IDX 12 25 13 26 14 27 15 29 16 30 17 31 78 32 18 33 77 34 19 35
REMARK SMILES IDX 20 36 21 37 71 38 22 39 76 40 70 41 72 42 23 43 75 44 69 45
REMARK SMILES IDX 68 46 24 48 56 49 36 50 55 51 37 52 40 53 54 54 73 55 38 56
REMARK SMILES IDX 39 57 53 59 74 60 41 61 25 62 26 63 34 64 27 65 28 66 32 67
REMARK SMILES IDX 35 68 29 69 30 70 33 71 31 72 57 73 58 74 66 75 59 76 60 77
REMARK SMILES IDX 64 78 67 79 61 80 62 81 65 82 63 83 42 84 43 85 51 86 44 87
REMARK SMILES IDX 45 88 49 89 52 90 46 91 47 92 50 93 48 94
REMARK H PARENT 6 6 81 13 13 28 72 47 40 58
REMARK Flexibility Score: inf
ROOT
ATOM      1  C   UNL     1      -2.989   4.362  -1.476  1.00  0.00     0.021 C 
ENDROOT
BRANCH   1   2
ATOM      2  C   UNL     1      -2.621   2.957  -1.012  1.00  0.00     0.116 C 
BRANCH   2   3
ATOM      3  N   UNL     1      -2.080   2.156  -2.088  1.00  0.00    -0.356 N 
ATOM      4  C   UNL     1      -1.158   1.159  -2.045  1.00  0.00     0.229 C 
ATOM      5  O   UNL     1      -0.868   0.625  -3.115  1.00  0.00    -0.275 OA
ATOM      6  H   UNL     1      -2.432   2.364  -2.983  1.00  0.00     0.163 HD
BRANCH   4   7
ATOM      7  C   UNL     1      -0.492   0.817  -0.719  1.00  0.00     0.142 C 
ATOM      8  C   UNL     1       1.955   0.243  -0.720  1.00  0.00     0.076 C 
ATOM      9  C   UNL     1       0.546  -0.314  -0.887  1.00  0.00     0.194 C 
ATOM     10  N   UNL     1       0.103  -1.416  -0.026  1.00  0.00    -0.324 N 
ATOM     11  C   UNL     1      -1.458   0.300   0.344  1.00  0.00     0.081 C 
ATOM     12  C   UNL     1      -1.301  -1.204   0.300  1.00  0.00     0.263 C 
ATOM     13  H   UNL     1       0.232  -2.250  -0.599  1.00  0.00     0.348 HD
BRANCH  10  14
ATOM     14  C   UNL     1       0.951  -1.946   1.043  1.00  0.00     0.364 C 
BRANCH  14  15
ATOM     15  C   UNL     1       0.994  -1.089   2.317  1.00  0.00     0.277 C 
ATOM     16  O   UNL     1      -0.029  -0.971   3.007  1.00  0.00    -0.268 OA
BRANCH  15  17
ATOM     17  N   UNL     1       2.174  -0.452   2.692  1.00  0.00    -0.338 N 
ATOM     18  C   UNL     1       3.497  -0.666   2.115  1.00  0.00     0.147 C 
BRANCH  17  19
ATOM     19  C   UNL     1       2.117   0.431   3.839  1.00  0.00     0.085 C 
ATOM     20  C   UNL     1       2.911   1.706   3.952  1.00  0.00     0.027 C 
ATOM     21  C   UNL     1       1.433   1.771   3.724  1.00  0.00     0.027 C 
ENDBRANCH  17  19
ENDBRANCH  15  17
ENDBRANCH  14  15
ENDBRANCH  10  14
ENDBRANCH   4   7
ENDBRANCH   2   3
ENDBRANCH   1   2
BRANCH   1  22
ATOM     22  C   UNL     1      -3.921   4.420  -2.693  1.00  0.00     0.002 C 
BRANCH  22  23
ATOM     23  C   UNL     1      -5.173   3.540  -2.614  1.00  0.00     0.002 C 
BRANCH  23  24
ATOM     24  C   UNL     1      -6.065   3.778  -1.395  1.00  0.00     0.021 C 
BRANCH  24  25
ATOM     25  C   UNL     1      -6.449   5.232  -1.160  1.00  0.00     0.116 C 
BRANCH  25  26
ATOM     26  N   UNL     1      -7.121   5.820  -2.305  1.00  0.00    -0.352 N 
ATOM     27  C   UNL     1      -8.268   6.567  -2.348  1.00  0.00     0.251 C 
ATOM     28  H   UNL     1      -6.689   5.660  -3.175  1.00  0.00     0.163 HD
ATOM     29  O   UNL     1      -8.782   6.849  -3.424  1.00  0.00    -0.269 OA
BRANCH  27  30
ATOM     30  C   UNL     1      -8.900   7.014  -1.089  1.00  0.00     0.039 A 
ATOM     31  C   UNL     1     -10.287   6.917  -0.970  1.00  0.00     0.014 A 
ATOM     32  C   UNL     1      -8.137   7.537  -0.040  1.00  0.00     0.014 A 
ATOM     33  C   UNL     1     -10.906   7.309   0.217  1.00  0.00     0.010 A 
ATOM     34  C   UNL     1      -8.745   7.849   1.171  1.00  0.00     0.010 A 
ATOM     35  C   UNL     1     -10.138   7.755   1.306  1.00  0.00    -0.014 A 
BRANCH  35  36
ATOM     36  C   UNL     1     -10.789   8.147   2.580  1.00  0.00     0.031 A 
ATOM     37  C   UNL     1     -10.717   9.570   3.059  1.00  0.00     0.074 A 
ATOM     38  C   UNL     1     -11.420   7.213   3.317  1.00  0.00     0.049 A 
ATOM     39  N   UNL     1     -11.218  10.104   4.145  1.00  0.00    -0.248 NA
ATOM     40  C   UNL     1      -9.963  10.515   2.221  1.00  0.00     0.031 C 
ATOM     41  C   UNL     1     -11.513   5.792   2.979  1.00  0.00     0.029 A 
ATOM     42  N   UNL     1     -12.105   7.319   4.501  1.00  0.00    -0.354 N 
ATOM     43  C   UNL     1     -10.835  11.438   4.121  1.00  0.00     0.074 A 
ATOM     44  C   UNL     1     -10.007  11.621   2.949  1.00  0.00     0.031 C 
ATOM     45  C   UNL     1     -12.242   5.165   3.915  1.00  0.00     0.029 A 
ATOM     46  C   UNL     1     -12.636   6.130   4.937  1.00  0.00     0.049 A 
ATOM     47  H   UNL     1     -12.206   8.166   4.991  1.00  0.00     0.167 HD
ATOM     48  C   UNL     1     -11.169  12.428   4.982  1.00  0.00     0.037 A 
ATOM     49  C   UNL     1     -13.358   5.852   6.038  1.00  0.00     0.037 A 
ATOM     50  C   UNL     1     -12.009  12.244   6.136  1.00  0.00     0.049 A 
ATOM     51  C   UNL     1     -13.702   6.968   6.987  1.00  0.00     0.074 A 
ATOM     52  C   UNL     1     -12.454  13.193   7.040  1.00  0.00     0.029 A 
ATOM     53  N   UNL     1     -12.529  11.025   6.547  1.00  0.00    -0.354 N 
ATOM     54  N   UNL     1     -13.401   8.242   6.913  1.00  0.00    -0.248 NA
ATOM     55  C   UNL     1     -14.496   6.609   8.171  1.00  0.00     0.031 C 
ATOM     56  C   UNL     1     -13.196  12.539   8.029  1.00  0.00     0.029 A 
ATOM     57  C   UNL     1     -13.266  11.193   7.709  1.00  0.00     0.049 A 
ATOM     58  H   UNL     1     -12.395  10.168   6.082  1.00  0.00     0.167 HD
ATOM     59  C   UNL     1     -13.988   8.839   8.020  1.00  0.00     0.074 A 
ATOM     60  C   UNL     1     -14.682   7.791   8.739  1.00  0.00     0.031 C 
ATOM     61  C   UNL     1     -13.953  10.138   8.410  1.00  0.00     0.037 A 
BRANCH  48  62
ATOM     62  C   UNL     1     -10.625  13.802   4.708  1.00  0.00     0.064 A 
ATOM     63  C   UNL     1     -11.055  14.559   3.606  1.00  0.00     0.173 A 
ATOM     64  C   UNL     1      -9.690  14.385   5.576  1.00  0.00     0.173 A 
ATOM     65  F   UNL     1     -11.940  14.045   2.738  1.00  0.00    -0.203 F 
ATOM     66  C   UNL     1     -10.547  15.833   3.368  1.00  0.00     0.198 A 
ATOM     67  C   UNL     1      -9.209  15.673   5.353  1.00  0.00     0.198 A 
ATOM     68  F   UNL     1      -9.248  13.709   6.647  1.00  0.00    -0.203 F 
ATOM     69  F   UNL     1     -10.934  16.514   2.280  1.00  0.00    -0.200 F 
ATOM     70  C   UNL     1      -9.631  16.392   4.245  1.00  0.00     0.200 A 
ATOM     71  F   UNL     1      -8.334  16.217   6.210  1.00  0.00    -0.200 F 
ATOM     72  F   UNL     1      -9.149  17.622   4.019  1.00  0.00    -0.200 F 
ENDBRANCH  48  62
BRANCH  49  73
ATOM     73  C   UNL     1     -13.825   4.463   6.292  1.00  0.00     0.064 A 
ATOM     74  C   UNL     1     -15.188   4.139   6.238  1.00  0.00     0.173 A 
ATOM     75  C   UNL     1     -12.923   3.436   6.606  1.00  0.00     0.173 A 
ATOM     76  F   UNL     1     -16.092   5.090   5.962  1.00  0.00    -0.203 F 
ATOM     77  C   UNL     1     -15.633   2.847   6.513  1.00  0.00     0.198 A 
ATOM     78  C   UNL     1     -13.366   2.137   6.848  1.00  0.00     0.198 A 
ATOM     79  F   UNL     1     -11.608   3.691   6.665  1.00  0.00    -0.203 F 
ATOM     80  F   UNL     1     -16.946   2.578   6.506  1.00  0.00    -0.200 F 
ATOM     81  C   UNL     1     -14.721   1.846   6.812  1.00  0.00     0.200 A 
ATOM     82  F   UNL     1     -12.480   1.170   7.122  1.00  0.00    -0.200 F 
ATOM     83  F   UNL     1     -15.149   0.604   7.075  1.00  0.00    -0.200 F 
ENDBRANCH  49  73
BRANCH  61  84
ATOM     84  C   UNL     1     -14.712  10.502   9.654  1.00  0.00     0.064 A 
ATOM     85  C   UNL     1     -14.285  10.090  10.925  1.00  0.00     0.173 A 
ATOM     86  C   UNL     1     -15.863  11.301   9.575  1.00  0.00     0.173 A 
ATOM     87  F   UNL     1     -13.199   9.313  11.054  1.00  0.00    -0.203 F 
ATOM     88  C   UNL     1     -15.001  10.438  12.068  1.00  0.00     0.198 A 
ATOM     89  C   UNL     1     -16.556  11.677  10.722  1.00  0.00     0.198 A 
ATOM     90  F   UNL     1     -16.310  11.729   8.384  1.00  0.00    -0.203 F 
ATOM     91  F   UNL     1     -14.606   9.986  13.266  1.00  0.00    -0.200 F 
ATOM     92  C   UNL     1     -16.130  11.237  11.966  1.00  0.00     0.200 A 
ATOM     93  F   UNL     1     -17.637  12.462  10.624  1.00  0.00    -0.200 F 
ATOM     94  F   UNL     1     -16.813  11.577  13.068  1.00  0.00    -0.200 F 
ENDBRANCH  61  84
ENDBRANCH  35  36
ENDBRANCH  27  30
ENDBRANCH  25  26
ENDBRANCH  24  25
ENDBRANCH  23  24
ENDBRANCH  22  23
ENDBRANCH   1  22
TORSDOF 17
