REMARK SMILES Cc1c(CC(=O)NCCCCCCNC(=O)c2ccc(-c3c4nc(c(-c5c(F)c(F)c(F)c(F)c5F)c5ccc([nH]5)c(-c5c(F)c(F)c(F)c(F)c5F)c5nc(c(-c6c(F)c(F)c(F)c(F)c6F)c6ccc3[nH]6)C=C5)C=C4)cc2)cc(-c2ccc(S(C)(=O)=O)cc2)n1-c1cccc(F)c1
REMARK SMILES IDX 10 1 9 2 8 3 7 4 5 5 6 6 4 8 3 9 1 10 2 11 92 12 80 13 81 14
REMARK SMILES IDX 93 15 94 16 99 17 95 18 97 19 96 20 98 21 82 22 83 23 91 24
REMARK SMILES IDX 84 25 90 26 85 27 86 28 87 29 88 30 89 31 11 32 12 33 13 34
REMARK SMILES IDX 14 35 15 36 16 38 17 39 18 40 79 41 19 42 78 43 20 44 21 45
REMARK SMILES IDX 22 46 72 47 23 48 77 49 71 50 73 51 24 52 76 53 70 54 69 55
REMARK SMILES IDX 25 57 57 58 37 59 56 60 38 61 41 62 55 63 74 64 39 65 40 66
REMARK SMILES IDX 54 68 75 69 42 70 26 71 27 72 35 73 28 74 29 75 33 76 36 77
REMARK SMILES IDX 30 78 31 79 34 80 32 81 58 82 59 83 67 84 60 85 61 86 65 87
REMARK SMILES IDX 68 88 62 89 63 90 66 91 64 92 43 93 44 94 52 95 45 96 46 97
REMARK SMILES IDX 50 98 53 99 47 100 48 101 51 102 49 103
REMARK H PARENT 7 7 14 37 73 56 41 67
REMARK Flexibility Score: inf
ROOT
ATOM      1  C   UNL     1       4.698  -0.972  -4.022  1.00  0.00     0.002 C 
ENDROOT
BRANCH   1   2
ATOM      2  C   UNL     1       3.170  -0.861  -3.959  1.00  0.00     0.021 C 
BRANCH   2   3
ATOM      3  C   UNL     1       2.434  -2.202  -3.919  1.00  0.00     0.116 C 
BRANCH   3   4
ATOM      4  N   UNL     1       2.489  -2.807  -2.601  1.00  0.00    -0.356 N 
ATOM      5  C   UNL     1       1.537  -2.841  -1.620  1.00  0.00     0.224 C 
ATOM      6  O   UNL     1       1.829  -3.368  -0.543  1.00  0.00    -0.275 OA
ATOM      7  H   UNL     1       3.335  -3.260  -2.381  1.00  0.00     0.163 HD
BRANCH   5   8
ATOM      8  C   UNL     1       0.141  -2.298  -1.873  1.00  0.00     0.137 C 
BRANCH   8   9
ATOM      9  C   UNL     1       0.106  -0.818  -2.079  1.00  0.00    -0.017 A 
ATOM     10  C   UNL     1       1.081   0.069   0.151  1.00  0.00     0.065 C 
ATOM     11  C   UNL     1       0.556   0.196  -1.240  1.00  0.00     0.024 A 
ATOM     12  N   UNL     1       0.381   1.417  -1.888  1.00  0.00    -0.313 N 
ATOM     13  C   UNL     1      -0.441  -0.195  -3.218  1.00  0.00     0.033 A 
ATOM     14  C   UNL     1      -0.223   1.159  -3.115  1.00  0.00     0.053 A 
BRANCH  12  15
ATOM     15  C   UNL     1       0.774   2.705  -1.414  1.00  0.00     0.049 A 
ATOM     16  C   UNL     1      -0.100   3.799  -1.531  1.00  0.00     0.027 A 
ATOM     17  C   UNL     1       2.061   2.897  -0.903  1.00  0.00     0.065 A 
ATOM     18  C   UNL     1       0.315   5.077  -1.147  1.00  0.00     0.005 A 
ATOM     19  C   UNL     1       2.462   4.179  -0.538  1.00  0.00     0.125 A 
ATOM     20  C   UNL     1       1.604   5.269  -0.655  1.00  0.00     0.039 A 
ATOM     21  F   UNL     1       3.709   4.374  -0.090  1.00  0.00    -0.207 F 
ENDBRANCH  12  15
BRANCH  14  22
ATOM     22  C   UNL     1      -0.485   2.133  -4.159  1.00  0.00    -0.001 A 
ATOM     23  C   UNL     1       0.557   2.898  -4.696  1.00  0.00     0.011 A 
ATOM     24  C   UNL     1      -1.797   2.275  -4.627  1.00  0.00     0.011 A 
ATOM     25  C   UNL     1       0.268   3.866  -5.643  1.00  0.00     0.021 A 
ATOM     26  C   UNL     1      -2.094   3.238  -5.571  1.00  0.00     0.021 A 
ATOM     27  C   UNL     1      -1.065   4.044  -6.035  1.00  0.00     0.067 A 
BRANCH  27  28
ATOM     28  S   UNL     1      -1.474   5.411  -7.058  1.00  0.00     0.175 S 
ATOM     29  C   UNL     1      -0.819   6.761  -6.081  1.00  0.00     0.163 C 
ATOM     30  O   UNL     1      -0.724   5.192  -8.275  1.00  0.00    -0.224 OA
ATOM     31  O   UNL     1      -2.914   5.553  -7.084  1.00  0.00    -0.224 OA
ENDBRANCH  27  28
ENDBRANCH  14  22
ENDBRANCH   8   9
ENDBRANCH   5   8
ENDBRANCH   3   4
ENDBRANCH   2   3
ENDBRANCH   1   2
BRANCH   1  32
ATOM     32  C   UNL     1       5.286  -1.526  -5.327  1.00  0.00     0.002 C 
BRANCH  32  33
ATOM     33  C   UNL     1       4.725  -0.974  -6.653  1.00  0.00     0.021 C 
BRANCH  33  34
ATOM     34  C   UNL     1       4.532   0.552  -6.775  1.00  0.00     0.116 C 
BRANCH  34  35
ATOM     35  N   UNL     1       5.571   1.227  -7.527  1.00  0.00    -0.352 N 
ATOM     36  C   UNL     1       5.548   2.490  -8.089  1.00  0.00     0.251 C 
ATOM     37  H   UNL     1       6.404   0.719  -7.655  1.00  0.00     0.163 HD
ATOM     38  O   UNL     1       6.598   2.965  -8.519  1.00  0.00    -0.269 OA
BRANCH  36  39
ATOM     39  C   UNL     1       4.284   3.284  -8.252  1.00  0.00     0.039 A 
ATOM     40  C   UNL     1       3.426   2.967  -9.295  1.00  0.00     0.014 A 
ATOM     41  C   UNL     1       4.087   4.519  -7.604  1.00  0.00     0.014 A 
ATOM     42  C   UNL     1       2.399   3.870  -9.667  1.00  0.00     0.010 A 
ATOM     43  C   UNL     1       3.079   5.461  -8.025  1.00  0.00     0.010 A 
ATOM     44  C   UNL     1       2.227   5.182  -9.104  1.00  0.00    -0.014 A 
BRANCH  44  45
ATOM     45  C   UNL     1       1.521   6.221 -10.044  1.00  0.00     0.031 A 
ATOM     46  C   UNL     1       2.244   6.086 -11.332  1.00  0.00     0.074 A 
ATOM     47  C   UNL     1       0.606   7.258 -10.020  1.00  0.00     0.049 A 
ATOM     48  N   UNL     1       3.543   6.223 -11.367  1.00  0.00    -0.248 NA
ATOM     49  C   UNL     1       1.648   5.501 -12.528  1.00  0.00     0.031 C 
ATOM     50  C   UNL     1       0.029   7.898  -8.845  1.00  0.00     0.029 A 
ATOM     51  N   UNL     1      -0.070   7.976 -11.035  1.00  0.00    -0.354 N 
ATOM     52  C   UNL     1       3.878   6.092 -12.688  1.00  0.00     0.074 A 
ATOM     53  C   UNL     1       2.745   5.401 -13.285  1.00  0.00     0.031 C 
ATOM     54  C   UNL     1      -1.054   8.661  -9.149  1.00  0.00     0.029 A 
ATOM     55  C   UNL     1      -1.185   8.758 -10.594  1.00  0.00     0.049 A 
ATOM     56  H   UNL     1       0.207   7.939 -11.979  1.00  0.00     0.167 HD
ATOM     57  C   UNL     1       4.605   7.127 -13.201  1.00  0.00     0.037 A 
ATOM     58  C   UNL     1      -2.075   9.550 -11.291  1.00  0.00     0.037 A 
ATOM     59  C   UNL     1       3.829   7.961 -14.074  1.00  0.00     0.049 A 
ATOM     60  C   UNL     1      -1.345  10.019 -12.471  1.00  0.00     0.074 A 
ATOM     61  C   UNL     1       2.956   7.699 -15.109  1.00  0.00     0.029 A 
ATOM     62  N   UNL     1       3.551   9.239 -13.640  1.00  0.00    -0.354 N 
ATOM     63  N   UNL     1      -0.470  10.975 -12.383  1.00  0.00    -0.248 NA
ATOM     64  C   UNL     1      -1.599   9.516 -13.813  1.00  0.00     0.031 C 
ATOM     65  C   UNL     1       1.897   8.621 -14.944  1.00  0.00     0.029 A 
ATOM     66  C   UNL     1       2.274   9.589 -14.021  1.00  0.00     0.049 A 
ATOM     67  H   UNL     1       4.170   9.814 -13.136  1.00  0.00     0.167 HD
ATOM     68  C   UNL     1       0.280  10.795 -13.496  1.00  0.00     0.074 A 
ATOM     69  C   UNL     1      -0.602  10.143 -14.443  1.00  0.00     0.031 C 
ATOM     70  C   UNL     1       1.615  10.655 -13.303  1.00  0.00     0.037 A 
BRANCH  57  71
ATOM     71  C   UNL     1       5.675   7.623 -12.270  1.00  0.00     0.064 A 
ATOM     72  C   UNL     1       6.999   7.231 -12.487  1.00  0.00     0.173 A 
ATOM     73  C   UNL     1       5.393   8.333 -11.083  1.00  0.00     0.173 A 
ATOM     74  F   UNL     1       7.334   6.598 -13.621  1.00  0.00    -0.203 F 
ATOM     75  C   UNL     1       7.986   7.487 -11.536  1.00  0.00     0.198 A 
ATOM     76  C   UNL     1       6.367   8.536 -10.112  1.00  0.00     0.198 A 
ATOM     77  F   UNL     1       4.164   8.830 -10.860  1.00  0.00    -0.203 F 
ATOM     78  F   UNL     1       9.254   7.125 -11.777  1.00  0.00    -0.200 F 
ATOM     79  C   UNL     1       7.663   8.108 -10.336  1.00  0.00     0.200 A 
ATOM     80  F   UNL     1       6.046   9.148  -8.962  1.00  0.00    -0.200 F 
ATOM     81  F   UNL     1       8.607   8.313  -9.407  1.00  0.00    -0.200 F 
ENDBRANCH  57  71
BRANCH  58  82
ATOM     82  C   UNL     1      -3.391  10.304 -11.131  1.00  0.00     0.064 A 
ATOM     83  C   UNL     1      -3.597  11.564 -11.774  1.00  0.00     0.173 A 
ATOM     84  C   UNL     1      -4.568   9.655 -10.738  1.00  0.00     0.173 A 
ATOM     85  F   UNL     1      -2.567  12.332 -12.155  1.00  0.00    -0.203 F 
ATOM     86  C   UNL     1      -4.859  12.056 -12.121  1.00  0.00     0.198 A 
ATOM     87  C   UNL     1      -5.845  10.174 -11.052  1.00  0.00     0.198 A 
ATOM     88  F   UNL     1      -4.506   8.461 -10.135  1.00  0.00    -0.203 F 
ATOM     89  F   UNL     1      -4.965  13.177 -12.851  1.00  0.00    -0.200 F 
ATOM     90  C   UNL     1      -5.987  11.349 -11.777  1.00  0.00     0.200 A 
ATOM     91  F   UNL     1      -6.947   9.491 -10.712  1.00  0.00    -0.200 F 
ATOM     92  F   UNL     1      -7.196  11.779 -12.168  1.00  0.00    -0.200 F 
ENDBRANCH  58  82
BRANCH  70  93
ATOM     93  C   UNL     1       2.255  11.516 -12.213  1.00  0.00     0.064 A 
ATOM     94  C   UNL     1       1.799  11.708 -10.883  1.00  0.00     0.173 A 
ATOM     95  C   UNL     1       3.388  12.261 -12.572  1.00  0.00     0.173 A 
ATOM     96  F   UNL     1       0.820  10.969 -10.345  1.00  0.00    -0.203 F 
ATOM     97  C   UNL     1       2.370  12.660 -10.031  1.00  0.00     0.198 A 
ATOM     98  C   UNL     1       3.996  13.163 -11.697  1.00  0.00     0.198 A 
ATOM     99  F   UNL     1       3.935  12.102 -13.787  1.00  0.00    -0.203 F 
ATOM    100  F   UNL     1       1.855  12.863  -8.808  1.00  0.00    -0.200 F 
ATOM    101  C   UNL     1       3.469  13.387 -10.440  1.00  0.00     0.200 A 
ATOM    102  F   UNL     1       5.101  13.816 -12.083  1.00  0.00    -0.200 F 
ATOM    103  F   UNL     1       4.031  14.284  -9.618  1.00  0.00    -0.200 F 
ENDBRANCH  70  93
ENDBRANCH  44  45
ENDBRANCH  36  39
ENDBRANCH  34  35
ENDBRANCH  33  34
ENDBRANCH  32  33
ENDBRANCH   1  32
TORSDOF 17
