REMARK SMILES CCCCCCNC(=O)Oc1cccc(-c2ccc([C@@H](C)C(=O)NCCCCCCNC(=O)c3ccc(-c4c5nc(c(-c6c(F)c(F)c(F)c(F)c6F)c6ccc([nH]6)c(-c6c(F)c(F)c(F)c(F)c6F)c6nc(c(-c7c(F)c(F)c(F)c(F)c7F)c7ccc4[nH]7)C=C6)C=C5)cc3)cc2C)c1
REMARK SMILES IDX 22 1 23 2 24 3 20 5 21 6 19 7 16 8 17 9 98 10 18 11 97 12
REMARK SMILES IDX 99 13 15 14 11 15 12 16 100 17 13 18 14 19 10 20 8 21 7 22
REMARK SMILES IDX 9 24 6 25 5 26 4 27 3 28 2 29 1 30 25 31 26 32 27 33 28 34
REMARK SMILES IDX 29 35 30 36 31 37 32 38 33 40 34 41 35 42 96 43 36 44 95 45
REMARK SMILES IDX 37 46 38 47 39 48 89 49 40 50 94 51 88 52 90 53 41 54 93 55
REMARK SMILES IDX 87 56 86 57 42 59 74 60 54 61 73 62 55 63 58 64 72 65 91 66
REMARK SMILES IDX 56 67 57 68 71 70 92 71 59 72 43 73 44 74 52 75 45 76 46 77
REMARK SMILES IDX 50 78 53 79 47 80 48 81 51 82 49 83 75 84 76 85 84 86 77 87
REMARK SMILES IDX 78 88 82 89 85 90 79 91 80 92 83 93 81 94 60 95 61 96 69 97
REMARK SMILES IDX 62 98 63 99 67 100 70 101 64 102 65 103 68 104 66 105
REMARK H PARENT 24 4 7 23 31 39 90 58 58 69
REMARK Flexibility Score: inf
ROOT
ATOM      1  C   UNL     1      -3.373  11.616  -7.915  1.00  0.00     0.227 C 
ATOM      2  O   UNL     1      -2.460  11.081  -8.558  1.00  0.00    -0.274 OA
ATOM      3  N   UNL     1      -3.071  12.799  -7.316  1.00  0.00    -0.356 N 
ATOM      4  H   UNL     1      -2.174  13.142  -7.530  1.00  0.00     0.163 HD
ENDROOT
BRANCH   1   5
ATOM      5  C   UNL     1      -4.756  10.949  -7.853  1.00  0.00     0.105 C 
ATOM      6  C   UNL     1      -5.896  11.805  -8.401  1.00  0.00     0.023 C 
BRANCH   5   7
ATOM      7  C   UNL     1      -5.040  10.235  -6.540  1.00  0.00    -0.036 A 
ATOM      8  C   UNL     1      -5.339   8.843  -4.059  1.00  0.00    -0.015 A 
ATOM      9  C   UNL     1      -5.653  10.207  -4.190  1.00  0.00     0.009 A 
ATOM     10  C   UNL     1      -4.970   8.149  -5.231  1.00  0.00    -0.043 A 
ATOM     11  C   UNL     1      -5.549  10.877  -5.413  1.00  0.00     0.005 A 
ATOM     12  C   UNL     1      -4.773   8.862  -6.433  1.00  0.00     0.008 A 
ATOM     13  C   UNL     1      -4.775   6.655  -5.291  1.00  0.00     0.045 C 
BRANCH   8  14
ATOM     14  C   UNL     1      -5.395   8.221  -2.717  1.00  0.00    -0.014 A 
ATOM     15  C   UNL     1      -4.397   6.856  -0.969  1.00  0.00     0.133 A 
ATOM     16  C   UNL     1      -5.515   7.024  -0.158  1.00  0.00     0.047 A 
ATOM     17  C   UNL     1      -4.323   7.456  -2.227  1.00  0.00     0.056 A 
ATOM     18  C   UNL     1      -6.570   7.811  -0.609  1.00  0.00     0.004 A 
ATOM     19  C   UNL     1      -6.514   8.394  -1.879  1.00  0.00     0.009 A 
BRANCH  15  20
ATOM     20  O   UNL     1      -3.434   5.928  -0.536  1.00  0.00    -0.410 OA
BRANCH  20  21
ATOM     21  C   UNL     1      -2.087   6.248  -0.616  1.00  0.00     0.412 C 
ATOM     22  N   UNL     1      -1.271   5.182  -0.350  1.00  0.00    -0.321 N 
ATOM     23  H   UNL     1      -0.302   5.355  -0.363  1.00  0.00     0.167 HD
ATOM     24  O   UNL     1      -1.624   7.349  -0.882  1.00  0.00    -0.224 OA
BRANCH  22  25
ATOM     25  C   UNL     1      -1.685   3.824  -0.053  1.00  0.00     0.119 C 
BRANCH  25  26
ATOM     26  C   UNL     1      -1.088   2.813  -1.032  1.00  0.00     0.021 C 
BRANCH  26  27
ATOM     27  C   UNL     1       0.441   2.698  -0.993  1.00  0.00     0.002 C 
BRANCH  27  28
ATOM     28  C   UNL     1       1.040   2.319   0.366  1.00  0.00    -0.000 C 
BRANCH  28  29
ATOM     29  C   UNL     1       0.554   0.992   0.952  1.00  0.00    -0.003 C 
ATOM     30  C   UNL     1       0.919  -0.214   0.100  1.00  0.00     0.004 C 
ENDBRANCH  28  29
ENDBRANCH  27  28
ENDBRANCH  26  27
ENDBRANCH  25  26
ENDBRANCH  22  25
ENDBRANCH  20  21
ENDBRANCH  15  20
ENDBRANCH   8  14
ENDBRANCH   5   7
ENDBRANCH   1   5
BRANCH   3  31
ATOM     31  C   UNL     1      -3.830  13.644  -6.419  1.00  0.00     0.116 C 
BRANCH  31  32
ATOM     32  C   UNL     1      -3.386  13.465  -4.966  1.00  0.00     0.021 C 
BRANCH  32  33
ATOM     33  C   UNL     1      -2.253  14.405  -4.542  1.00  0.00     0.002 C 
BRANCH  33  34
ATOM     34  C   UNL     1      -2.602  15.899  -4.574  1.00  0.00     0.002 C 
BRANCH  34  35
ATOM     35  C   UNL     1      -3.848  16.302  -3.779  1.00  0.00     0.021 C 
BRANCH  35  36
ATOM     36  C   UNL     1      -3.785  15.979  -2.288  1.00  0.00     0.116 C 
BRANCH  36  37
ATOM     37  N   UNL     1      -2.719  16.708  -1.621  1.00  0.00    -0.352 N 
ATOM     38  C   UNL     1      -2.784  17.612  -0.591  1.00  0.00     0.251 C 
ATOM     39  H   UNL     1      -1.812  16.526  -1.959  1.00  0.00     0.163 HD
ATOM     40  O   UNL     1      -1.806  18.298  -0.309  1.00  0.00    -0.269 OA
BRANCH  38  41
ATOM     41  C   UNL     1      -4.035  17.770   0.181  1.00  0.00     0.039 A 
ATOM     42  C   UNL     1      -4.465  19.057   0.515  1.00  0.00     0.014 A 
ATOM     43  C   UNL     1      -4.760  16.654   0.608  1.00  0.00     0.014 A 
ATOM     44  C   UNL     1      -5.651  19.227   1.232  1.00  0.00     0.010 A 
ATOM     45  C   UNL     1      -5.975  16.826   1.264  1.00  0.00     0.010 A 
ATOM     46  C   UNL     1      -6.429  18.114   1.589  1.00  0.00    -0.014 A 
BRANCH  46  47
ATOM     47  C   UNL     1      -7.715  18.274   2.312  1.00  0.00     0.031 A 
ATOM     48  C   UNL     1      -7.865  17.752   3.712  1.00  0.00     0.074 A 
ATOM     49  C   UNL     1      -8.765  18.834   1.683  1.00  0.00     0.049 A 
ATOM     50  N   UNL     1      -8.923  17.743   4.485  1.00  0.00    -0.248 NA
ATOM     51  C   UNL     1      -6.675  17.134   4.314  1.00  0.00     0.031 C 
ATOM     52  C   UNL     1      -8.755  19.342   0.311  1.00  0.00     0.029 A 
ATOM     53  N   UNL     1     -10.048  19.061   2.113  1.00  0.00    -0.354 N 
ATOM     54  C   UNL     1      -8.529  17.106   5.654  1.00  0.00     0.074 A 
ATOM     55  C   UNL     1      -7.154  16.695   5.469  1.00  0.00     0.031 C 
ATOM     56  C   UNL     1      -9.964  19.848   0.021  1.00  0.00     0.029 A 
ATOM     57  C   UNL     1     -10.844  19.667   1.173  1.00  0.00     0.049 A 
ATOM     58  H   UNL     1     -10.367  18.814   3.011  1.00  0.00     0.167 HD
ATOM     59  C   UNL     1      -9.242  16.903   6.788  1.00  0.00     0.037 A 
ATOM     60  C   UNL     1     -12.137  20.033   1.233  1.00  0.00     0.037 A 
ATOM     61  C   UNL     1     -10.604  17.331   6.974  1.00  0.00     0.049 A 
ATOM     62  C   UNL     1     -12.914  19.785   2.496  1.00  0.00     0.074 A 
ATOM     63  C   UNL     1     -11.397  17.228   8.104  1.00  0.00     0.029 A 
ATOM     64  N   UNL     1     -11.379  17.943   5.998  1.00  0.00    -0.354 N 
ATOM     65  N   UNL     1     -12.515  19.240   3.619  1.00  0.00    -0.248 NA
ATOM     66  C   UNL     1     -14.321  20.206   2.499  1.00  0.00     0.031 C 
ATOM     67  C   UNL     1     -12.664  17.736   7.797  1.00  0.00     0.029 A 
ATOM     68  C   UNL     1     -12.648  18.200   6.492  1.00  0.00     0.049 A 
ATOM     69  H   UNL     1     -11.072  18.161   5.089  1.00  0.00     0.167 HD
ATOM     70  C   UNL     1     -13.609  19.277   4.472  1.00  0.00     0.074 A 
ATOM     71  C   UNL     1     -14.688  19.907   3.738  1.00  0.00     0.031 C 
ATOM     72  C   UNL     1     -13.710  18.830   5.748  1.00  0.00     0.037 A 
BRANCH  59  73
ATOM     73  C   UNL     1      -8.556  16.179   7.911  1.00  0.00     0.064 A 
ATOM     74  C   UNL     1      -7.498  16.763   8.626  1.00  0.00     0.173 A 
ATOM     75  C   UNL     1      -8.961  14.887   8.280  1.00  0.00     0.173 A 
ATOM     76  F   UNL     1      -7.065  17.992   8.307  1.00  0.00    -0.203 F 
ATOM     77  C   UNL     1      -6.845  16.064   9.638  1.00  0.00     0.198 A 
ATOM     78  C   UNL     1      -8.326  14.204   9.314  1.00  0.00     0.198 A 
ATOM     79  F   UNL     1      -9.971  14.285   7.635  1.00  0.00    -0.203 F 
ATOM     80  F   UNL     1      -5.796  16.619  10.263  1.00  0.00    -0.200 F 
ATOM     81  C   UNL     1      -7.261  14.788   9.984  1.00  0.00     0.200 A 
ATOM     82  F   UNL     1      -8.738  12.976   9.656  1.00  0.00    -0.200 F 
ATOM     83  F   UNL     1      -6.630  14.116  10.956  1.00  0.00    -0.200 F 
ENDBRANCH  59  73
BRANCH  60  84
ATOM     84  C   UNL     1     -12.762  20.717   0.072  1.00  0.00     0.064 A 
ATOM     85  C   UNL     1     -13.071  22.083   0.132  1.00  0.00     0.173 A 
ATOM     86  C   UNL     1     -13.040  20.034  -1.120  1.00  0.00     0.173 A 
ATOM     87  F   UNL     1     -12.841  22.773   1.259  1.00  0.00    -0.203 F 
ATOM     88  C   UNL     1     -13.642  22.739  -0.956  1.00  0.00     0.198 A 
ATOM     89  C   UNL     1     -13.589  20.697  -2.216  1.00  0.00     0.198 A 
ATOM     90  F   UNL     1     -12.758  18.728  -1.227  1.00  0.00    -0.203 F 
ATOM     91  F   UNL     1     -13.956  24.038  -0.863  1.00  0.00    -0.200 F 
ATOM     92  C   UNL     1     -13.894  22.047  -2.131  1.00  0.00     0.200 A 
ATOM     93  F   UNL     1     -13.818  20.029  -3.354  1.00  0.00    -0.200 F 
ATOM     94  F   UNL     1     -14.434  22.681  -3.181  1.00  0.00    -0.200 F 
ENDBRANCH  60  84
BRANCH  72  95
ATOM     95  C   UNL     1     -15.024  19.036   6.444  1.00  0.00     0.064 A 
ATOM     96  C   UNL     1     -16.158  18.281   6.113  1.00  0.00     0.173 A 
ATOM     97  C   UNL     1     -15.139  19.975   7.481  1.00  0.00     0.173 A 
ATOM     98  F   UNL     1     -16.104  17.382   5.118  1.00  0.00    -0.203 F 
ATOM     99  C   UNL     1     -17.366  18.476   6.778  1.00  0.00     0.198 A 
ATOM    100  C   UNL     1     -16.340  20.147   8.162  1.00  0.00     0.198 A 
ATOM    101  F   UNL     1     -14.081  20.719   7.839  1.00  0.00    -0.203 F 
ATOM    102  F   UNL     1     -18.450  17.776   6.414  1.00  0.00    -0.200 F 
ATOM    103  C   UNL     1     -17.454  19.402   7.806  1.00  0.00     0.200 A 
ATOM    104  F   UNL     1     -16.420  21.034   9.164  1.00  0.00    -0.200 F 
ATOM    105  F   UNL     1     -18.616  19.584   8.449  1.00  0.00    -0.200 F 
ENDBRANCH  72  95
ENDBRANCH  46  47
ENDBRANCH  38  41
ENDBRANCH  36  37
ENDBRANCH  35  36
ENDBRANCH  34  35
ENDBRANCH  33  34
ENDBRANCH  32  33
ENDBRANCH  31  32
ENDBRANCH   3  31
TORSDOF 22
