REMARK SMILES CNC(=O)c1ccc(Cl)cc1NC(=O)[C@H]1[C@@H](C(=O)NCCCCCCNC(=O)c2ccc(-c3c4nc(c(-c5c(F)c(F)c(F)c(F)c5F)c5ccc([nH]5)c(-c5c(F)c(F)c(F)c(F)c5F)c5nc(c(-c6c(F)c(F)c(F)c(F)c6F)c6ccc3[nH]6)C=C5)C=C4)cc2)[C@H]2C=C[C@@H]1C2
REMARK SMILES IDX 22 1 21 2 20 3 19 4 17 5 18 6 16 8 15 9 95 10 92 11 94 12
REMARK SMILES IDX 96 13 93 14 13 15 12 16 14 18 11 19 5 20 6 21 7 22 10 23
REMARK SMILES IDX 8 24 9 25 3 26 1 27 2 28 4 30 23 31 24 32 25 33 26 34 27 35
REMARK SMILES IDX 28 37 29 38 30 39 91 40 31 41 90 42 32 43 33 44 34 45 84 46
REMARK SMILES IDX 35 47 89 48 83 49 85 50 36 51 88 52 82 53 81 54 37 56 69 57
REMARK SMILES IDX 49 58 68 59 50 60 53 61 67 62 86 63 51 64 52 65 66 67 87 68
REMARK SMILES IDX 54 69 38 70 39 71 47 72 40 73 41 74 45 75 48 76 42 77 43 78
REMARK SMILES IDX 46 79 44 80 70 81 71 82 79 83 72 84 73 85 77 86 80 87 74 88
REMARK SMILES IDX 75 89 78 90 76 91 55 92 56 93 64 94 57 95 58 96 62 97 65 98
REMARK SMILES IDX 59 99 60 100 63 101 61 102
REMARK H PARENT 19 7 12 17 2 29 26 36 85 55 53 66
REMARK Flexibility Score: inf
ROOT
ATOM      1  C   UNL     1      -3.563  -0.095   8.231  1.00  0.00     0.002 C 
ENDROOT
BRANCH   1   2
ATOM      2  C   UNL     1      -2.135  -0.515   7.902  1.00  0.00     0.021 C 
BRANCH   2   3
ATOM      3  C   UNL     1      -1.743  -0.645   6.426  1.00  0.00     0.116 C 
BRANCH   3   4
ATOM      4  N   UNL     1      -2.164   0.402   5.503  1.00  0.00    -0.356 N 
ATOM      5  C   UNL     1      -1.368   1.327   4.873  1.00  0.00     0.224 C 
ATOM      6  O   UNL     1      -1.572   1.587   3.689  1.00  0.00    -0.275 OA
ATOM      7  H   UNL     1      -3.128   0.451   5.309  1.00  0.00     0.163 HD
BRANCH   5   8
ATOM      8  C   UNL     1      -0.211   1.907   5.625  1.00  0.00     0.098 C 
ATOM      9  C   UNL     1      -0.406   2.359   7.070  1.00  0.00     0.099 C 
ATOM     10  C   UNL     1       0.778   3.377   7.250  1.00  0.00     0.025 C 
ATOM     11  C   UNL     1       0.657   3.059   5.039  1.00  0.00     0.025 C 
ATOM     12  C   UNL     1       0.297   4.674   6.675  1.00  0.00    -0.027 C 
ATOM     13  C   UNL     1       1.760   3.021   6.121  1.00  0.00     0.017 C 
ATOM     14  C   UNL     1       0.149   4.464   5.358  1.00  0.00    -0.027 C 
BRANCH   9  15
ATOM     15  C   UNL     1      -1.683   2.913   7.733  1.00  0.00     0.228 C 
ATOM     16  N   UNL     1      -2.951   3.155   7.339  1.00  0.00    -0.325 N 
ATOM     17  H   UNL     1      -3.468   3.332   8.158  1.00  0.00     0.169 HD
ATOM     18  O   UNL     1      -1.543   3.129   8.959  1.00  0.00    -0.274 OA
BRANCH  16  19
ATOM     19  C   UNL     1      -3.865   3.264   6.256  1.00  0.00     0.055 A 
ATOM     20  C   UNL     1      -5.261   3.270   6.561  1.00  0.00     0.063 A 
ATOM     21  C   UNL     1      -6.240   3.572   5.599  1.00  0.00     0.017 A 
ATOM     22  C   UNL     1      -5.885   3.654   4.267  1.00  0.00     0.021 A 
ATOM     23  C   UNL     1      -3.536   3.433   4.916  1.00  0.00     0.047 A 
ATOM     24  C   UNL     1      -4.541   3.538   3.929  1.00  0.00     0.043 A 
ATOM     25  Cl  UNL     1      -4.130   3.518   2.256  1.00  0.00    -0.084 Cl
BRANCH  20  26
ATOM     26  C   UNL     1      -5.772   2.874   7.898  1.00  0.00     0.253 C 
ATOM     27  C   UNL     1      -7.369   1.129   6.935  1.00  0.00     0.143 C 
ATOM     28  N   UNL     1      -6.790   1.947   7.987  1.00  0.00    -0.355 N 
ATOM     29  H   UNL     1      -7.176   1.823   8.884  1.00  0.00     0.163 HD
ATOM     30  O   UNL     1      -5.257   3.342   8.908  1.00  0.00    -0.269 OA
ENDBRANCH  20  26
ENDBRANCH  16  19
ENDBRANCH   9  15
ENDBRANCH   5   8
ENDBRANCH   3   4
ENDBRANCH   2   3
ENDBRANCH   1   2
BRANCH   1  31
ATOM     31  C   UNL     1      -4.681  -0.954   7.661  1.00  0.00     0.002 C 
BRANCH  31  32
ATOM     32  C   UNL     1      -4.617  -2.430   8.011  1.00  0.00     0.021 C 
BRANCH  32  33
ATOM     33  C   UNL     1      -4.623  -2.715   9.506  1.00  0.00     0.116 C 
BRANCH  33  34
ATOM     34  N   UNL     1      -5.902  -2.428  10.143  1.00  0.00    -0.352 N 
ATOM     35  C   UNL     1      -6.628  -3.232  10.997  1.00  0.00     0.251 C 
ATOM     36  H   UNL     1      -6.297  -1.550   9.938  1.00  0.00     0.163 HD
ATOM     37  O   UNL     1      -7.749  -2.923  11.358  1.00  0.00    -0.269 OA
BRANCH  35  38
ATOM     38  C   UNL     1      -6.024  -4.512  11.432  1.00  0.00     0.039 A 
ATOM     39  C   UNL     1      -6.743  -5.696  11.265  1.00  0.00     0.014 A 
ATOM     40  C   UNL     1      -4.711  -4.538  11.910  1.00  0.00     0.014 A 
ATOM     41  C   UNL     1      -6.111  -6.920  11.498  1.00  0.00     0.010 A 
ATOM     42  C   UNL     1      -4.057  -5.756  12.046  1.00  0.00     0.010 A 
ATOM     43  C   UNL     1      -4.749  -6.960  11.844  1.00  0.00    -0.014 A 
BRANCH  43  44
ATOM     44  C   UNL     1      -4.028  -8.249  12.007  1.00  0.00     0.031 A 
ATOM     45  C   UNL     1      -3.428  -8.605  13.339  1.00  0.00     0.074 A 
ATOM     46  C   UNL     1      -3.847  -9.059  10.945  1.00  0.00     0.049 A 
ATOM     47  N   UNL     1      -2.702  -9.643  13.671  1.00  0.00    -0.248 NA
ATOM     48  C   UNL     1      -3.641  -7.649  14.437  1.00  0.00     0.031 C 
ATOM     49  C   UNL     1      -4.328  -8.798   9.588  1.00  0.00     0.029 A 
ATOM     50  N   UNL     1      -3.200 -10.265  10.840  1.00  0.00    -0.354 N 
ATOM     51  C   UNL     1      -2.356  -9.451  15.001  1.00  0.00     0.074 A 
ATOM     52  C   UNL     1      -2.897  -8.171  15.400  1.00  0.00     0.031 C 
ATOM     53  C   UNL     1      -3.990  -9.828   8.795  1.00  0.00     0.029 A 
ATOM     54  C   UNL     1      -3.236 -10.803   9.576  1.00  0.00     0.049 A 
ATOM     55  H   UNL     1      -2.752 -10.704  11.599  1.00  0.00     0.167 HD
ATOM     56  C   UNL     1      -1.672 -10.279  15.826  1.00  0.00     0.037 A 
ATOM     57  C   UNL     1      -2.718 -11.954   9.104  1.00  0.00     0.037 A 
ATOM     58  C   UNL     1      -1.170 -11.570  15.436  1.00  0.00     0.049 A 
ATOM     59  C   UNL     1      -1.970 -12.862  10.044  1.00  0.00     0.074 A 
ATOM     60  C   UNL     1      -0.536 -12.520  16.217  1.00  0.00     0.029 A 
ATOM     61  N   UNL     1      -1.246 -12.090  14.153  1.00  0.00    -0.354 N 
ATOM     62  N   UNL     1      -1.722 -12.708  11.322  1.00  0.00    -0.248 NA
ATOM     63  C   UNL     1      -1.435 -14.107   9.475  1.00  0.00     0.031 C 
ATOM     64  C   UNL     1      -0.183 -13.595  15.394  1.00  0.00     0.029 A 
ATOM     65  C   UNL     1      -0.646 -13.339  14.114  1.00  0.00     0.049 A 
ATOM     66  H   UNL     1      -1.663 -11.639  13.384  1.00  0.00     0.167 HD
ATOM     67  C   UNL     1      -1.036 -13.849  11.717  1.00  0.00     0.074 A 
ATOM     68  C   UNL     1      -0.917 -14.691  10.546  1.00  0.00     0.031 C 
ATOM     69  C   UNL     1      -0.549 -14.170  12.941  1.00  0.00     0.037 A 
BRANCH  56  70
ATOM     70  C   UNL     1      -1.431  -9.814  17.233  1.00  0.00     0.064 A 
ATOM     71  C   UNL     1      -2.479  -9.689  18.159  1.00  0.00     0.173 A 
ATOM     72  C   UNL     1      -0.132  -9.514  17.670  1.00  0.00     0.173 A 
ATOM     73  F   UNL     1      -3.742  -9.951  17.790  1.00  0.00    -0.203 F 
ATOM     74  C   UNL     1      -2.240  -9.248  19.458  1.00  0.00     0.198 A 
ATOM     75  C   UNL     1       0.108  -9.106  18.980  1.00  0.00     0.198 A 
ATOM     76  F   UNL     1       0.907  -9.621  16.828  1.00  0.00    -0.203 F 
ATOM     77  F   UNL     1      -3.264  -9.082  20.306  1.00  0.00    -0.200 F 
ATOM     78  C   UNL     1      -0.946  -8.965  19.869  1.00  0.00     0.200 A 
ATOM     79  F   UNL     1       1.360  -8.846  19.380  1.00  0.00    -0.200 F 
ATOM     80  F   UNL     1      -0.717  -8.547  21.122  1.00  0.00    -0.200 F 
ENDBRANCH  56  70
BRANCH  57  81
ATOM     81  C   UNL     1      -2.921 -12.336   7.681  1.00  0.00     0.064 A 
ATOM     82  C   UNL     1      -3.745 -13.419   7.341  1.00  0.00     0.173 A 
ATOM     83  C   UNL     1      -2.293 -11.643   6.637  1.00  0.00     0.173 A 
ATOM     84  F   UNL     1      -4.352 -14.127   8.305  1.00  0.00    -0.203 F 
ATOM     85  C   UNL     1      -3.914 -13.809   6.014  1.00  0.00     0.198 A 
ATOM     86  C   UNL     1      -2.485 -12.016   5.308  1.00  0.00     0.198 A 
ATOM     87  F   UNL     1      -1.499 -10.597   6.907  1.00  0.00    -0.203 F 
ATOM     88  F   UNL     1      -4.668 -14.877   5.722  1.00  0.00    -0.200 F 
ATOM     89  C   UNL     1      -3.288 -13.103   4.997  1.00  0.00     0.200 A 
ATOM     90  F   UNL     1      -1.890 -11.322   4.327  1.00  0.00    -0.200 F 
ATOM     91  F   UNL     1      -3.452 -13.476   3.721  1.00  0.00    -0.200 F 
ENDBRANCH  57  81
BRANCH  69  92
ATOM     92  C   UNL     1       0.119 -15.507  13.088  1.00  0.00     0.064 A 
ATOM     93  C   UNL     1       1.376 -15.770  12.526  1.00  0.00     0.173 A 
ATOM     94  C   UNL     1      -0.492 -16.523  13.840  1.00  0.00     0.173 A 
ATOM     95  F   UNL     1       1.994 -14.837  11.787  1.00  0.00    -0.203 F 
ATOM     96  C   UNL     1       1.986 -17.012  12.688  1.00  0.00     0.198 A 
ATOM     97  C   UNL     1       0.135 -17.751  14.027  1.00  0.00     0.198 A 
ATOM     98  F   UNL     1      -1.691 -16.319  14.405  1.00  0.00    -0.203 F 
ATOM     99  F   UNL     1       3.164 -17.259  12.100  1.00  0.00    -0.200 F 
ATOM    100  C   UNL     1       1.369 -17.997  13.445  1.00  0.00     0.200 A 
ATOM    101  F   UNL     1      -0.455 -18.697  14.771  1.00  0.00    -0.200 F 
ATOM    102  F   UNL     1       1.962 -19.189  13.607  1.00  0.00    -0.200 F 
ENDBRANCH  69  92
ENDBRANCH  43  44
ENDBRANCH  35  38
ENDBRANCH  33  34
ENDBRANCH  32  33
ENDBRANCH  31  32
ENDBRANCH   1  31
TORSDOF 16
