REMARK SMILES CCOc1ccc2[nH]c(C)c/c(=N\c3cccc(C(=O)NCCCCCCNC(=O)c4ccc(-c5c6nc(c(-c7c(F)c(F)c(F)c(F)c7F)c7ccc([nH]7)c(-c7c(F)c(F)c(F)c(F)c7F)c7nc(c(-c8c(F)c(F)c(F)c(F)c8F)c8ccc5[nH]8)C=C7)C=C6)cc4)c3)c2c1
REMARK SMILES IDX 24 1 23 2 22 3 21 4 19 5 20 6 18 8 14 9 15 10 94 11 16 12
REMARK SMILES IDX 17 13 13 14 4 15 5 16 96 17 6 18 95 19 7 20 12 21 8 22 11 23
REMARK SMILES IDX 9 24 10 26 3 27 2 28 1 29 25 30 26 31 27 32 28 33 29 34
REMARK SMILES IDX 30 36 31 37 32 38 93 39 33 40 92 41 34 42 35 43 36 44 86 45
REMARK SMILES IDX 37 46 91 47 85 48 87 49 38 50 90 51 84 52 83 53 39 55 71 56
REMARK SMILES IDX 51 57 70 58 52 59 55 60 69 61 88 62 53 63 54 64 68 66 89 67
REMARK SMILES IDX 56 68 40 69 41 70 49 71 42 72 43 73 47 74 50 75 44 76 45 77
REMARK SMILES IDX 48 78 46 79 72 80 73 81 81 82 74 83 75 84 79 85 82 86 76 87
REMARK SMILES IDX 77 88 80 89 78 90 57 91 58 92 66 93 59 94 60 95 64 96 67 97
REMARK SMILES IDX 61 98 62 99 65 100 63 101
REMARK H PARENT 21 7 8 25 28 35 87 54 55 65
REMARK Flexibility Score: inf
ROOT
ATOM      1  C   UNL     1       4.740   7.477   6.074  1.00  0.00     0.002 C 
ENDROOT
BRANCH   1   2
ATOM      2  C   UNL     1       5.038   6.895   4.692  1.00  0.00     0.021 C 
BRANCH   2   3
ATOM      3  C   UNL     1       4.484   7.629   3.477  1.00  0.00     0.116 C 
BRANCH   3   4
ATOM      4  N   UNL     1       4.907   9.009   3.352  1.00  0.00    -0.352 N 
ATOM      5  C   UNL     1       5.150   9.789   2.242  1.00  0.00     0.251 C 
ATOM      6  O   UNL     1       5.489  10.958   2.428  1.00  0.00    -0.269 OA
ATOM      7  H   UNL     1       5.044   9.471   4.210  1.00  0.00     0.163 HD
BRANCH   5   8
ATOM      8  C   UNL     1       5.081   9.271   0.844  1.00  0.00     0.041 A 
ATOM      9  C   UNL     1       4.430   7.621  -0.814  1.00  0.00     0.064 A 
ATOM     10  C   UNL     1       5.180   8.289  -1.786  1.00  0.00     0.028 A 
ATOM     11  C   UNL     1       4.295   8.187   0.455  1.00  0.00     0.042 A 
ATOM     12  C   UNL     1       5.901   9.433  -1.444  1.00  0.00     0.003 A 
ATOM     13  C   UNL     1       5.876   9.902  -0.127  1.00  0.00     0.014 A 
BRANCH   9  14
ATOM     14  N   UNL     1       3.881   6.344  -1.020  1.00  0.00    -0.248 NA
ATOM     15  C   UNL     1       2.225   2.406  -1.077  1.00  0.00     0.120 A 
ATOM     16  C   UNL     1       3.062   1.346  -1.420  1.00  0.00     0.048 A 
ATOM     17  C   UNL     1       2.724   3.707  -1.003  1.00  0.00     0.059 A 
ATOM     18  C   UNL     1       4.423   1.567  -1.618  1.00  0.00     0.030 A 
ATOM     19  C   UNL     1       4.091   3.933  -1.213  1.00  0.00     0.027 A 
ATOM     20  C   UNL     1       4.951   2.856  -1.504  1.00  0.00     0.048 A 
ATOM     21  C   UNL     1       4.677   5.312  -1.106  1.00  0.00     0.075 A 
ATOM     22  N   UNL     1       6.328   3.059  -1.646  1.00  0.00    -0.359 N 
ATOM     23  C   UNL     1       6.183   5.366  -1.096  1.00  0.00     0.050 A 
ATOM     24  C   UNL     1       6.908   4.278  -1.401  1.00  0.00     0.014 A 
ATOM     25  H   UNL     1       6.896   2.307  -1.929  1.00  0.00     0.166 HD
ATOM     26  C   UNL     1       8.407   4.353  -1.498  1.00  0.00     0.064 C 
BRANCH  15  27
ATOM     27  O   UNL     1       0.883   2.198  -0.915  1.00  0.00    -0.494 OA
BRANCH  27  28
ATOM     28  C   UNL     1       0.558   1.558   0.327  1.00  0.00     0.226 C 
ATOM     29  C   UNL     1       0.474   0.045   0.184  1.00  0.00     0.049 C 
ENDBRANCH  27  28
ENDBRANCH  15  27
ENDBRANCH   9  14
ENDBRANCH   5   8
ENDBRANCH   3   4
ENDBRANCH   2   3
ENDBRANCH   1   2
BRANCH   1  30
ATOM     30  C   UNL     1       3.282   7.789   6.413  1.00  0.00     0.002 C 
BRANCH  30  31
ATOM     31  C   UNL     1       2.254   6.688   6.159  1.00  0.00     0.021 C 
BRANCH  31  32
ATOM     32  C   UNL     1       2.572   5.310   6.727  1.00  0.00     0.116 C 
BRANCH  32  33
ATOM     33  N   UNL     1       2.620   5.261   8.178  1.00  0.00    -0.352 N 
ATOM     34  C   UNL     1       2.031   4.358   9.039  1.00  0.00     0.251 C 
ATOM     35  H   UNL     1       3.147   5.972   8.607  1.00  0.00     0.163 HD
ATOM     36  O   UNL     1       2.126   4.498  10.248  1.00  0.00    -0.269 OA
BRANCH  34  37
ATOM     37  C   UNL     1       1.225   3.243   8.487  1.00  0.00     0.039 A 
ATOM     38  C   UNL     1       1.709   2.445   7.449  1.00  0.00     0.014 A 
ATOM     39  C   UNL     1      -0.063   3.034   8.990  1.00  0.00     0.014 A 
ATOM     40  C   UNL     1       0.846   1.573   6.790  1.00  0.00     0.010 A 
ATOM     41  C   UNL     1      -0.905   2.103   8.375  1.00  0.00     0.010 A 
ATOM     42  C   UNL     1      -0.478   1.411   7.230  1.00  0.00    -0.014 A 
BRANCH  42  43
ATOM     43  C   UNL     1      -1.421   0.563   6.454  1.00  0.00     0.031 A 
ATOM     44  C   UNL     1      -2.602   1.183   5.753  1.00  0.00     0.074 A 
ATOM     45  C   UNL     1      -1.193  -0.758   6.336  1.00  0.00     0.049 A 
ATOM     46  N   UNL     1      -3.549   0.605   5.057  1.00  0.00    -0.248 NA
ATOM     47  C   UNL     1      -2.738   2.646   5.846  1.00  0.00     0.031 C 
ATOM     48  C   UNL     1      -0.073  -1.476   6.943  1.00  0.00     0.029 A 
ATOM     49  N   UNL     1      -1.883  -1.729   5.654  1.00  0.00    -0.354 N 
ATOM     50  C   UNL     1      -4.404   1.625   4.655  1.00  0.00     0.074 A 
ATOM     51  C   UNL     1      -3.876   2.857   5.199  1.00  0.00     0.031 C 
ATOM     52  C   UNL     1      -0.130  -2.766   6.578  1.00  0.00     0.029 A 
ATOM     53  C   UNL     1      -1.321  -2.977   5.760  1.00  0.00     0.049 A 
ATOM     54  H   UNL     1      -2.701  -1.548   5.138  1.00  0.00     0.167 HD
ATOM     55  C   UNL     1      -5.520   1.542   3.893  1.00  0.00     0.037 A 
ATOM     56  C   UNL     1      -1.730  -4.163   5.271  1.00  0.00     0.037 A 
ATOM     57  C   UNL     1      -6.030   0.321   3.324  1.00  0.00     0.049 A 
ATOM     58  C   UNL     1      -2.995  -4.234   4.465  1.00  0.00     0.074 A 
ATOM     59  C   UNL     1      -7.137   0.145   2.511  1.00  0.00     0.029 A 
ATOM     60  N   UNL     1      -5.464  -0.931   3.505  1.00  0.00    -0.354 N 
ATOM     61  N   UNL     1      -3.797  -3.264   4.099  1.00  0.00    -0.248 NA
ATOM     62  C   UNL     1      -3.420  -5.567   4.016  1.00  0.00     0.031 C 
ATOM     63  C   UNL     1      -7.262  -1.220   2.231  1.00  0.00     0.029 A 
ATOM     64  C   UNL     1      -6.210  -1.888   2.836  1.00  0.00     0.049 A 
ATOM     65  H   UNL     1      -4.652  -1.114   4.031  1.00  0.00     0.167 HD
ATOM     66  C   UNL     1      -4.819  -3.866   3.378  1.00  0.00     0.074 A 
ATOM     67  C   UNL     1      -4.521  -5.283   3.334  1.00  0.00     0.031 C 
ATOM     68  C   UNL     1      -5.910  -3.296   2.812  1.00  0.00     0.037 A 
BRANCH  55  69
ATOM     69  C   UNL     1      -6.283   2.807   3.630  1.00  0.00     0.064 A 
ATOM     70  C   UNL     1      -5.810   3.778   2.736  1.00  0.00     0.173 A 
ATOM     71  C   UNL     1      -7.532   3.021   4.232  1.00  0.00     0.173 A 
ATOM     72  F   UNL     1      -4.615   3.626   2.145  1.00  0.00    -0.203 F 
ATOM     73  C   UNL     1      -6.553   4.925   2.466  1.00  0.00     0.198 A 
ATOM     74  C   UNL     1      -8.284   4.157   3.941  1.00  0.00     0.198 A 
ATOM     75  F   UNL     1      -8.032   2.119   5.090  1.00  0.00    -0.203 F 
ATOM     76  F   UNL     1      -6.067   5.855   1.632  1.00  0.00    -0.200 F 
ATOM     77  C   UNL     1      -7.792   5.109   3.062  1.00  0.00     0.200 A 
ATOM     78  F   UNL     1      -9.485   4.328   4.510  1.00  0.00    -0.200 F 
ATOM     79  F   UNL     1      -8.511   6.207   2.791  1.00  0.00    -0.200 F 
ENDBRANCH  55  69
BRANCH  56  80
ATOM     80  C   UNL     1      -0.927  -5.381   5.545  1.00  0.00     0.064 A 
ATOM     81  C   UNL     1      -0.196  -6.004   4.526  1.00  0.00     0.173 A 
ATOM     82  C   UNL     1      -0.854  -5.929   6.834  1.00  0.00     0.173 A 
ATOM     83  F   UNL     1      -0.254  -5.528   3.274  1.00  0.00    -0.203 F 
ATOM     84  C   UNL     1       0.580  -7.132   4.786  1.00  0.00     0.198 A 
ATOM     85  C   UNL     1      -0.058  -7.041   7.098  1.00  0.00     0.198 A 
ATOM     86  F   UNL     1      -1.536  -5.367   7.843  1.00  0.00    -0.203 F 
ATOM     87  F   UNL     1       1.250  -7.725   3.789  1.00  0.00    -0.200 F 
ATOM     88  C   UNL     1       0.655  -7.644   6.073  1.00  0.00     0.200 A 
ATOM     89  F   UNL     1       0.023  -7.524   8.345  1.00  0.00    -0.200 F 
ATOM     90  F   UNL     1       1.414  -8.719   6.324  1.00  0.00    -0.200 F 
ENDBRANCH  56  80
BRANCH  68  91
ATOM     91  C   UNL     1      -6.868  -4.204   2.100  1.00  0.00     0.064 A 
ATOM     92  C   UNL     1      -7.730  -5.052   2.809  1.00  0.00     0.173 A 
ATOM     93  C   UNL     1      -6.958  -4.192   0.700  1.00  0.00     0.173 A 
ATOM     94  F   UNL     1      -7.669  -5.110   4.148  1.00  0.00    -0.203 F 
ATOM     95  C   UNL     1      -8.638  -5.869   2.141  1.00  0.00     0.198 A 
ATOM     96  C   UNL     1      -7.885  -4.992   0.037  1.00  0.00     0.198 A 
ATOM     97  F   UNL     1      -6.158  -3.394  -0.022  1.00  0.00    -0.203 F 
ATOM     98  F   UNL     1      -9.427  -6.700   2.837  1.00  0.00    -0.200 F 
ATOM     99  C   UNL     1      -8.720  -5.833   0.757  1.00  0.00     0.200 A 
ATOM    100  F   UNL     1      -7.969  -4.949  -1.300  1.00  0.00    -0.200 F 
ATOM    101  F   UNL     1      -9.599  -6.615   0.116  1.00  0.00    -0.200 F 
ENDBRANCH  68  91
ENDBRANCH  42  43
ENDBRANCH  34  37
ENDBRANCH  32  33
ENDBRANCH  31  32
ENDBRANCH  30  31
ENDBRANCH   1  30
TORSDOF 16
