REMARK SMILES C[C@H]1[C@H](C(=O)NCCCCCCNC(=O)c2ccc(-c3c4nc(c(-c5c(F)c(F)c(F)c(F)c5F)c5ccc([nH]5)c(-c5c(F)c(F)c(F)c(F)c5F)c5nc(c(-c6c(F)c(F)c(F)c(F)c6F)c6ccc3[nH]6)C=C5)C=C4)cc2)CCN1S(=O)(=O)C(F)(F)F
REMARK SMILES IDX 9 1 8 2 7 3 6 4 4 5 5 6 3 8 1 9 2 10 81 11 79 12 80 13 82 14
REMARK SMILES IDX 83 15 84 16 85 17 86 18 87 19 88 20 10 21 11 22 12 23 13 24
REMARK SMILES IDX 14 25 15 27 16 28 17 29 78 30 18 31 77 32 19 33 20 34 21 35
REMARK SMILES IDX 71 36 22 37 76 38 70 39 72 40 23 41 75 42 69 43 68 44 24 46
REMARK SMILES IDX 56 47 36 48 55 49 37 50 40 51 54 52 73 53 38 54 39 55 53 57
REMARK SMILES IDX 74 58 41 59 25 60 26 61 34 62 27 63 28 64 32 65 35 66 29 67
REMARK SMILES IDX 30 68 33 69 31 70 57 71 58 72 66 73 59 74 60 75 64 76 67 77
REMARK SMILES IDX 61 78 62 79 65 80 63 81 42 82 43 83 51 84 44 85 45 86 49 87
REMARK SMILES IDX 52 88 46 89 47 90 50 91 48 92
REMARK H PARENT 6 7 13 26 72 45 40 56
REMARK Flexibility Score: inf
ROOT
ATOM      1  C   UNL     1      -0.226   1.382   5.463  1.00  0.00     0.002 C 
ENDROOT
BRANCH   1   2
ATOM      2  C   UNL     1      -0.035   0.668   4.124  1.00  0.00     0.021 C 
BRANCH   2   3
ATOM      3  C   UNL     1      -0.968   1.162   3.019  1.00  0.00     0.116 C 
BRANCH   3   4
ATOM      4  N   UNL     1      -0.400   2.262   2.267  1.00  0.00    -0.356 N 
ATOM      5  C   UNL     1      -0.017   2.336   0.963  1.00  0.00     0.224 C 
ATOM      6  O   UNL     1       0.427   3.417   0.565  1.00  0.00    -0.275 OA
ATOM      7  H   UNL     1      -0.269   3.090   2.783  1.00  0.00     0.163 HD
BRANCH   5   8
ATOM      8  C   UNL     1      -0.102   1.154   0.002  1.00  0.00     0.098 C 
ATOM      9  C   UNL     1       2.048  -0.130  -0.312  1.00  0.00     0.026 C 
ATOM     10  C   UNL     1       0.727  -0.055   0.456  1.00  0.00     0.082 C 
ATOM     11  N   UNL     1      -0.067  -1.272   0.105  1.00  0.00    -0.190 NA
ATOM     12  C   UNL     1      -1.501   0.624  -0.263  1.00  0.00     0.032 C 
ATOM     13  C   UNL     1      -1.279  -0.833  -0.642  1.00  0.00     0.104 C 
BRANCH  11  14
ATOM     14  S   UNL     1      -0.341  -2.497   1.271  1.00  0.00     0.314 S 
ATOM     15  O   UNL     1      -1.265  -1.928   2.241  1.00  0.00    -0.203 OA
ATOM     16  O   UNL     1      -0.775  -3.657   0.513  1.00  0.00    -0.203 OA
BRANCH  14  17
ATOM     17  C   UNL     1       1.300  -2.850   2.115  1.00  0.00     0.511 C 
ATOM     18  F   UNL     1       2.155  -3.553   1.325  1.00  0.00    -0.155 F 
ATOM     19  F   UNL     1       1.950  -1.708   2.484  1.00  0.00    -0.155 F 
ATOM     20  F   UNL     1       1.125  -3.569   3.262  1.00  0.00    -0.155 F 
ENDBRANCH  14  17
ENDBRANCH  11  14
ENDBRANCH   5   8
ENDBRANCH   3   4
ENDBRANCH   2   3
ENDBRANCH   1   2
BRANCH   1  21
ATOM     21  C   UNL     1      -1.627   1.252   6.075  1.00  0.00     0.002 C 
BRANCH  21  22
ATOM     22  C   UNL     1      -2.152  -0.179   6.233  1.00  0.00     0.021 C 
BRANCH  22  23
ATOM     23  C   UNL     1      -1.282  -1.094   7.091  1.00  0.00     0.116 C 
BRANCH  23  24
ATOM     24  N   UNL     1      -1.119  -0.582   8.442  1.00  0.00    -0.352 N 
ATOM     25  C   UNL     1      -1.454  -1.143   9.647  1.00  0.00     0.251 C 
ATOM     26  H   UNL     1      -0.702   0.308   8.501  1.00  0.00     0.163 HD
ATOM     27  O   UNL     1      -1.431  -0.462  10.668  1.00  0.00    -0.269 OA
BRANCH  25  28
ATOM     28  C   UNL     1      -1.854  -2.564   9.727  1.00  0.00     0.039 A 
ATOM     29  C   UNL     1      -2.931  -2.916  10.546  1.00  0.00     0.014 A 
ATOM     30  C   UNL     1      -1.149  -3.553   9.036  1.00  0.00     0.014 A 
ATOM     31  C   UNL     1      -3.335  -4.250  10.629  1.00  0.00     0.010 A 
ATOM     32  C   UNL     1      -1.593  -4.873   9.066  1.00  0.00     0.010 A 
ATOM     33  C   UNL     1      -2.687  -5.235   9.867  1.00  0.00    -0.014 A 
BRANCH  33  34
ATOM     34  C   UNL     1      -3.143  -6.647   9.892  1.00  0.00     0.031 A 
ATOM     35  C   UNL     1      -2.252  -7.722  10.448  1.00  0.00     0.074 A 
ATOM     36  C   UNL     1      -4.336  -6.969   9.357  1.00  0.00     0.049 A 
ATOM     37  N   UNL     1      -2.445  -9.017  10.497  1.00  0.00    -0.248 NA
ATOM     38  C   UNL     1      -0.960  -7.288  11.001  1.00  0.00     0.031 C 
ATOM     39  C   UNL     1      -5.271  -6.022   8.749  1.00  0.00     0.029 A 
ATOM     40  N   UNL     1      -4.962  -8.184   9.229  1.00  0.00    -0.354 N 
ATOM     41  C   UNL     1      -1.299  -9.549  11.071  1.00  0.00     0.074 A 
ATOM     42  C   UNL     1      -0.393  -8.446  11.307  1.00  0.00     0.031 C 
ATOM     43  C   UNL     1      -6.359  -6.688   8.329  1.00  0.00     0.029 A 
ATOM     44  C   UNL     1      -6.183  -8.110   8.604  1.00  0.00     0.049 A 
ATOM     45  H   UNL     1      -4.572  -9.028   9.553  1.00  0.00     0.167 HD
ATOM     46  C   UNL     1      -1.035 -10.839  11.391  1.00  0.00     0.037 A 
ATOM     47  C   UNL     1      -7.057  -9.082   8.283  1.00  0.00     0.037 A 
ATOM     48  C   UNL     1      -1.948 -11.931  11.173  1.00  0.00     0.049 A 
ATOM     49  C   UNL     1      -6.735 -10.508   8.639  1.00  0.00     0.074 A 
ATOM     50  C   UNL     1      -1.799 -13.262  11.519  1.00  0.00     0.029 A 
ATOM     51  N   UNL     1      -3.181 -11.816  10.548  1.00  0.00    -0.354 N 
ATOM     52  N   UNL     1      -5.678 -10.991   9.245  1.00  0.00    -0.248 NA
ATOM     53  C   UNL     1      -7.731 -11.523   8.271  1.00  0.00     0.031 C 
ATOM     54  C   UNL     1      -2.921 -13.962  11.062  1.00  0.00     0.029 A 
ATOM     55  C   UNL     1      -3.792 -13.058  10.476  1.00  0.00     0.049 A 
ATOM     56  H   UNL     1      -3.565 -10.976  10.206  1.00  0.00     0.167 HD
ATOM     57  C   UNL     1      -5.891 -12.358   9.353  1.00  0.00     0.074 A 
ATOM     58  C   UNL     1      -7.187 -12.626   8.765  1.00  0.00     0.031 C 
ATOM     59  C   UNL     1      -5.085 -13.307   9.891  1.00  0.00     0.037 A 
BRANCH  46  60
ATOM     60  C   UNL     1       0.298 -11.140  12.014  1.00  0.00     0.064 A 
ATOM     61  C   UNL     1       0.610 -10.727  13.318  1.00  0.00     0.173 A 
ATOM     62  C   UNL     1       1.262 -11.879  11.312  1.00  0.00     0.173 A 
ATOM     63  F   UNL     1      -0.273 -10.009  14.028  1.00  0.00    -0.203 F 
ATOM     64  C   UNL     1       1.849 -11.016  13.885  1.00  0.00     0.198 A 
ATOM     65  C   UNL     1       2.488 -12.193  11.894  1.00  0.00     0.198 A 
ATOM     66  F   UNL     1       1.013 -12.305  10.065  1.00  0.00    -0.203 F 
ATOM     67  F   UNL     1       2.143 -10.567  15.113  1.00  0.00    -0.200 F 
ATOM     68  C   UNL     1       2.784 -11.754  13.175  1.00  0.00     0.200 A 
ATOM     69  F   UNL     1       3.386 -12.918  11.212  1.00  0.00    -0.200 F 
ATOM     70  F   UNL     1       3.973 -12.036  13.725  1.00  0.00    -0.200 F 
ENDBRANCH  46  60
BRANCH  47  71
ATOM     71  C   UNL     1      -8.333  -8.736   7.606  1.00  0.00     0.064 A 
ATOM     72  C   UNL     1      -9.557  -8.848   8.280  1.00  0.00     0.173 A 
ATOM     73  C   UNL     1      -8.358  -8.288   6.277  1.00  0.00     0.173 A 
ATOM     74  F   UNL     1      -9.585  -9.292   9.545  1.00  0.00    -0.203 F 
ATOM     75  C   UNL     1     -10.759  -8.543   7.646  1.00  0.00     0.198 A 
ATOM     76  C   UNL     1      -9.559  -7.957   5.652  1.00  0.00     0.198 A 
ATOM     77  F   UNL     1      -7.214  -8.160   5.590  1.00  0.00    -0.203 F 
ATOM     78  F   UNL     1     -11.918  -8.701   8.300  1.00  0.00    -0.200 F 
ATOM     79  C   UNL     1     -10.759  -8.092   6.335  1.00  0.00     0.200 A 
ATOM     80  F   UNL     1      -9.553  -7.508   4.390  1.00  0.00    -0.200 F 
ATOM     81  F   UNL     1     -11.915  -7.794   5.726  1.00  0.00    -0.200 F 
ENDBRANCH  47  71
BRANCH  59  82
ATOM     82  C   UNL     1      -5.595 -14.719   9.894  1.00  0.00     0.064 A 
ATOM     83  C   UNL     1      -5.676 -15.474   8.715  1.00  0.00     0.173 A 
ATOM     84  C   UNL     1      -5.970 -15.335  11.098  1.00  0.00     0.173 A 
ATOM     85  F   UNL     1      -5.345 -14.925   7.537  1.00  0.00    -0.203 F 
ATOM     86  C   UNL     1      -6.138 -16.788   8.738  1.00  0.00     0.198 A 
ATOM     87  C   UNL     1      -6.402 -16.658  11.120  1.00  0.00     0.198 A 
ATOM     88  F   UNL     1      -5.904 -14.658  12.254  1.00  0.00    -0.203 F 
ATOM     89  F   UNL     1      -6.253 -17.475   7.593  1.00  0.00    -0.200 F 
ATOM     90  C   UNL     1      -6.493 -17.381   9.940  1.00  0.00     0.200 A 
ATOM     91  F   UNL     1      -6.733 -17.234  12.285  1.00  0.00    -0.200 F 
ATOM     92  F   UNL     1      -6.931 -18.647   9.961  1.00  0.00    -0.200 F 
ENDBRANCH  59  82
ENDBRANCH  33  34
ENDBRANCH  25  28
ENDBRANCH  23  24
ENDBRANCH  22  23
ENDBRANCH  21  22
ENDBRANCH   1  21
TORSDOF 15
