REMARK SMILES O=C(Nc1nc(C2CC2)cs1)N[C@@H]1C=C[C@@H](C(=O)NCCCCCCNC(=O)c2ccc(-c3c4nc(c(-c5c(F)c(F)c(F)c(F)c5F)c5ccc([nH]5)c(-c5c(F)c(F)c(F)c(F)c5F)c5nc(c(-c6c(F)c(F)c(F)c(F)c6F)c6ccc3[nH]6)C=C5)C=C4)cc2)C1
REMARK SMILES IDX 22 1 21 2 20 3 19 4 17 5 18 6 16 8 13 9 14 10 92 11 15 12
REMARK SMILES IDX 12 13 1 14 2 15 3 16 4 19 5 20 11 21 6 22 10 23 7 24 8 25
REMARK SMILES IDX 9 26 23 27 24 28 25 29 26 30 27 31 28 33 29 34 30 35 91 36
REMARK SMILES IDX 31 37 90 38 32 39 33 40 34 41 84 42 35 43 89 44 83 45 85 46
REMARK SMILES IDX 36 47 88 48 82 49 81 50 37 52 69 53 49 54 68 55 50 56 53 57
REMARK SMILES IDX 67 58 86 59 51 60 52 61 66 63 87 64 54 65 38 66 39 67 47 68
REMARK SMILES IDX 40 69 41 70 45 71 48 72 42 73 43 74 46 75 44 76 70 77 71 78
REMARK SMILES IDX 79 79 72 80 73 81 77 82 80 83 74 84 75 85 78 86 76 87 55 88
REMARK SMILES IDX 56 89 64 90 57 91 58 92 62 93 65 94 59 95 60 96 63 97 61 98
REMARK H PARENT 19 7 3 17 12 18 26 32 85 51 53 62
REMARK Flexibility Score: inf
ROOT
ATOM      1  C   UNL     1       7.465  -4.023   2.924  1.00  0.00     0.002 C 
ENDROOT
BRANCH   1   2
ATOM      2  C   UNL     1       6.256  -3.286   2.337  1.00  0.00     0.021 C 
BRANCH   2   3
ATOM      3  C   UNL     1       5.300  -4.183   1.555  1.00  0.00     0.116 C 
BRANCH   3   4
ATOM      4  N   UNL     1       4.613  -5.102   2.437  1.00  0.00    -0.356 N 
ATOM      5  C   UNL     1       3.285  -5.318   2.638  1.00  0.00     0.227 C 
ATOM      6  O   UNL     1       2.979  -6.163   3.486  1.00  0.00    -0.274 OA
ATOM      7  H   UNL     1       5.207  -5.667   2.982  1.00  0.00     0.163 HD
BRANCH   5   8
ATOM      8  C   UNL     1       2.204  -4.568   1.859  1.00  0.00     0.103 C 
ATOM      9  C   UNL     1       2.027  -2.435   0.656  1.00  0.00     0.107 C 
ATOM     10  C   UNL     1       2.213  -3.583  -0.280  1.00  0.00    -0.006 C 
ATOM     11  C   UNL     1       2.196  -3.046   2.060  1.00  0.00     0.047 C 
ATOM     12  C   UNL     1       2.321  -4.747   0.372  1.00  0.00    -0.016 C 
BRANCH   9  13
ATOM     13  N   UNL     1       0.754  -1.791   0.433  1.00  0.00    -0.332 N 
ATOM     14  O   UNL     1      -0.636  -3.539   0.936  1.00  0.00    -0.248 OA
ATOM     15  C   UNL     1      -0.464  -2.353   0.663  1.00  0.00     0.321 C 
ATOM     16  N   UNL     1      -1.537  -1.524   0.707  1.00  0.00    -0.284 N 
ATOM     17  H   UNL     1      -2.407  -1.937   0.909  1.00  0.00     0.174 HD
ATOM     18  H   UNL     1       0.769  -0.870   0.085  1.00  0.00     0.165 HD
BRANCH  16  19
ATOM     19  C   UNL     1      -1.532  -0.179   0.501  1.00  0.00     0.191 A 
ATOM     20  N   UNL     1      -0.618   0.561  -0.080  1.00  0.00    -0.225 NA
ATOM     21  S   UNL     1      -2.888   0.625   1.149  1.00  0.00    -0.105 S 
ATOM     22  C   UNL     1      -1.005   1.887   0.019  1.00  0.00     0.057 A 
ATOM     23  C   UNL     1      -2.162   2.122   0.735  1.00  0.00     0.092 A 
BRANCH  22  24
ATOM     24  C   UNL     1      -0.228   3.024  -0.630  1.00  0.00     0.039 C 
ATOM     25  C   UNL     1       1.150   2.765  -1.193  1.00  0.00     0.011 C 
ATOM     26  C   UNL     1      -0.002   2.946  -2.125  1.00  0.00     0.011 C 
ENDBRANCH  22  24
ENDBRANCH  16  19
ENDBRANCH   9  13
ENDBRANCH   5   8
ENDBRANCH   3   4
ENDBRANCH   2   3
ENDBRANCH   1   2
BRANCH   1  27
ATOM     27  C   UNL     1       8.325  -4.773   1.902  1.00  0.00     0.002 C 
BRANCH  27  28
ATOM     28  C   UNL     1       8.808  -3.928   0.722  1.00  0.00     0.021 C 
BRANCH  28  29
ATOM     29  C   UNL     1       9.612  -2.696   1.116  1.00  0.00     0.116 C 
BRANCH  29  30
ATOM     30  N   UNL     1      10.858  -3.041   1.784  1.00  0.00    -0.352 N 
ATOM     31  C   UNL     1      12.133  -2.625   1.496  1.00  0.00     0.251 C 
ATOM     32  H   UNL     1      10.774  -3.658   2.546  1.00  0.00     0.163 HD
ATOM     33  O   UNL     1      13.101  -3.148   2.038  1.00  0.00    -0.269 OA
BRANCH  31  34
ATOM     34  C   UNL     1      12.334  -1.552   0.502  1.00  0.00     0.039 A 
ATOM     35  C   UNL     1      13.283  -1.729  -0.507  1.00  0.00     0.014 A 
ATOM     36  C   UNL     1      11.562  -0.388   0.552  1.00  0.00     0.014 A 
ATOM     37  C   UNL     1      13.411  -0.764  -1.508  1.00  0.00     0.010 A 
ATOM     38  C   UNL     1      11.634   0.531  -0.487  1.00  0.00     0.010 A 
ATOM     39  C   UNL     1      12.561   0.353  -1.527  1.00  0.00    -0.014 A 
BRANCH  39  40
ATOM     40  C   UNL     1      12.615   1.347  -2.628  1.00  0.00     0.031 A 
ATOM     41  C   UNL     1      12.974   2.776  -2.339  1.00  0.00     0.074 A 
ATOM     42  C   UNL     1      12.249   0.982  -3.872  1.00  0.00     0.049 A 
ATOM     43  N   UNL     1      12.983   3.809  -3.143  1.00  0.00    -0.248 NA
ATOM     44  C   UNL     1      13.336   3.092  -0.949  1.00  0.00     0.031 C 
ATOM     45  C   UNL     1      11.819  -0.359  -4.265  1.00  0.00     0.029 A 
ATOM     46  N   UNL     1      12.157   1.715  -5.029  1.00  0.00    -0.354 N 
ATOM     47  C   UNL     1      13.329   4.897  -2.353  1.00  0.00     0.074 A 
ATOM     48  C   UNL     1      13.462   4.409  -0.998  1.00  0.00     0.031 C 
ATOM     49  C   UNL     1      11.519  -0.358  -5.573  1.00  0.00     0.029 A 
ATOM     50  C   UNL     1      11.695   0.992  -6.101  1.00  0.00     0.049 A 
ATOM     51  H   UNL     1      12.399   2.668  -5.084  1.00  0.00     0.167 HD
ATOM     52  C   UNL     1      13.537   6.182  -2.729  1.00  0.00     0.037 A 
ATOM     53  C   UNL     1      11.428   1.377  -7.363  1.00  0.00     0.037 A 
ATOM     54  C   UNL     1      13.418   6.655  -4.084  1.00  0.00     0.049 A 
ATOM     55  C   UNL     1      11.674   2.804  -7.764  1.00  0.00     0.074 A 
ATOM     56  C   UNL     1      13.685   7.917  -4.585  1.00  0.00     0.029 A 
ATOM     57  N   UNL     1      12.983   5.885  -5.154  1.00  0.00    -0.354 N 
ATOM     58  N   UNL     1      12.085   3.810  -7.030  1.00  0.00    -0.248 NA
ATOM     59  C   UNL     1      11.429   3.149  -9.171  1.00  0.00     0.031 C 
ATOM     60  C   UNL     1      13.351   7.927  -5.944  1.00  0.00     0.029 A 
ATOM     61  C   UNL     1      12.940   6.654  -6.307  1.00  0.00     0.049 A 
ATOM     62  H   UNL     1      12.741   4.932  -5.102  1.00  0.00     0.167 HD
ATOM     63  C   UNL     1      12.170   4.900  -7.886  1.00  0.00     0.074 A 
ATOM     64  C   UNL     1      11.780   4.428  -9.199  1.00  0.00     0.031 C 
ATOM     65  C   UNL     1      12.541   6.174  -7.608  1.00  0.00     0.037 A 
BRANCH  52  66
ATOM     66  C   UNL     1      13.897   7.165  -1.650  1.00  0.00     0.064 A 
ATOM     67  C   UNL     1      15.110   7.086  -0.947  1.00  0.00     0.173 A 
ATOM     68  C   UNL     1      13.011   8.199  -1.308  1.00  0.00     0.173 A 
ATOM     69  F   UNL     1      15.991   6.113  -1.226  1.00  0.00    -0.203 F 
ATOM     70  C   UNL     1      15.398   7.969   0.092  1.00  0.00     0.198 A 
ATOM     71  C   UNL     1      13.320   9.104  -0.295  1.00  0.00     0.198 A 
ATOM     72  F   UNL     1      11.841   8.329  -1.951  1.00  0.00    -0.203 F 
ATOM     73  F   UNL     1      16.527   7.823   0.799  1.00  0.00    -0.200 F 
ATOM     74  C   UNL     1      14.505   8.979   0.414  1.00  0.00     0.200 A 
ATOM     75  F   UNL     1      12.462  10.089   0.005  1.00  0.00    -0.200 F 
ATOM     76  F   UNL     1      14.780   9.824   1.417  1.00  0.00    -0.200 F 
ENDBRANCH  52  66
BRANCH  53  77
ATOM     77  C   UNL     1      10.914   0.376  -8.334  1.00  0.00     0.064 A 
ATOM     78  C   UNL     1      11.721  -0.103  -9.374  1.00  0.00     0.173 A 
ATOM     79  C   UNL     1       9.621  -0.155  -8.212  1.00  0.00     0.173 A 
ATOM     80  F   UNL     1      12.958   0.388  -9.542  1.00  0.00    -0.203 F 
ATOM     81  C   UNL     1      11.252  -1.071 -10.260  1.00  0.00     0.198 A 
ATOM     82  C   UNL     1       9.164  -1.142  -9.081  1.00  0.00     0.198 A 
ATOM     83  F   UNL     1       8.813   0.265  -7.227  1.00  0.00    -0.203 F 
ATOM     84  F   UNL     1      12.034  -1.492 -11.264  1.00  0.00    -0.200 F 
ATOM     85  C   UNL     1       9.978  -1.597 -10.107  1.00  0.00     0.200 A 
ATOM     86  F   UNL     1       7.939  -1.661  -8.918  1.00  0.00    -0.200 F 
ATOM     87  F   UNL     1       9.535  -2.541 -10.948  1.00  0.00    -0.200 F 
ENDBRANCH  53  77
BRANCH  65  88
ATOM     88  C   UNL     1      12.570   7.150  -8.751  1.00  0.00     0.064 A 
ATOM     89  C   UNL     1      11.393   7.619  -9.352  1.00  0.00     0.173 A 
ATOM     90  C   UNL     1      13.793   7.656  -9.219  1.00  0.00     0.173 A 
ATOM     91  F   UNL     1      10.199   7.156  -8.952  1.00  0.00    -0.203 F 
ATOM     92  C   UNL     1      11.440   8.540 -10.396  1.00  0.00     0.198 A 
ATOM     93  C   UNL     1      13.835   8.602 -10.240  1.00  0.00     0.198 A 
ATOM     94  F   UNL     1      14.948   7.246  -8.675  1.00  0.00    -0.203 F 
ATOM     95  F   UNL     1      10.306   8.938 -10.988  1.00  0.00    -0.200 F 
ATOM     96  C   UNL     1      12.659   9.037 -10.833  1.00  0.00     0.200 A 
ATOM     97  F   UNL     1      15.013   9.093 -10.649  1.00  0.00    -0.200 F 
ATOM     98  F   UNL     1      12.702   9.931 -11.830  1.00  0.00    -0.200 F 
ENDBRANCH  65  88
ENDBRANCH  39  40
ENDBRANCH  31  34
ENDBRANCH  29  30
ENDBRANCH  28  29
ENDBRANCH  27  28
ENDBRANCH   1  27
TORSDOF 16
