REMARK SMILES CCCC(O)(CCC)[C@@]1(C)CC[C@@H](C(=O)NCCCCCCNC(=O)c2ccc(-c3c4nc(c(-c5c(F)c(F)c(F)c(F)c5F)c5ccc([nH]5)c(-c5c(F)c(F)c(F)c(F)c5F)c5nc(c(-c6c(F)c(F)c(F)c(F)c6F)c6ccc3[nH]6)C=C5)C=C4)cc2)C(C)(C)O1
REMARK SMILES IDX 19 1 18 2 17 3 16 4 14 5 15 6 13 8 9 9 10 10 11 11 92 12
REMARK SMILES IDX 12 13 89 14 90 15 91 16 4 17 3 18 2 19 1 20 5 21 6 23 7 24
REMARK SMILES IDX 8 25 20 26 21 27 22 28 23 29 24 30 25 32 26 33 27 34 88 35
REMARK SMILES IDX 28 36 87 37 29 38 30 39 31 40 81 41 32 42 86 43 80 44 82 45
REMARK SMILES IDX 33 46 85 47 79 48 78 49 34 51 66 52 46 53 65 54 47 55 50 56
REMARK SMILES IDX 64 57 83 58 48 59 49 60 63 62 84 63 51 64 35 65 36 66 44 67
REMARK SMILES IDX 37 68 38 69 42 70 45 71 39 72 40 73 43 74 41 75 67 76 68 77
REMARK SMILES IDX 76 78 69 79 70 80 74 81 77 82 71 83 72 84 75 85 73 86 52 87
REMARK SMILES IDX 53 88 61 89 54 90 55 91 59 92 62 93 56 94 57 95 60 96 58 97
REMARK H PARENT 16 7 5 22 23 31 82 50 50 61
REMARK Flexibility Score: inf
ROOT
ATOM      1  C   UNL     1      -4.072   4.124   5.977  1.00  0.00     0.002 C 
ENDROOT
BRANCH   1   2
ATOM      2  C   UNL     1      -2.785   3.766   5.239  1.00  0.00     0.021 C 
BRANCH   2   3
ATOM      3  C   UNL     1      -2.945   3.586   3.729  1.00  0.00     0.116 C 
BRANCH   3   4
ATOM      4  N   UNL     1      -2.881   4.850   3.020  1.00  0.00    -0.356 N 
ATOM      5  C   UNL     1      -2.016   5.330   2.087  1.00  0.00     0.226 C 
ATOM      6  O   UNL     1      -2.197   6.497   1.722  1.00  0.00    -0.275 OA
ATOM      7  H   UNL     1      -3.599   5.479   3.259  1.00  0.00     0.163 HD
BRANCH   5   8
ATOM      8  C   UNL     1      -0.853   4.525   1.493  1.00  0.00     0.110 C 
ATOM      9  C   UNL     1       1.069   2.236   1.360  1.00  0.00     0.095 C 
ATOM     10  C   UNL     1       2.330   1.936   0.511  1.00  0.00     0.045 C 
ATOM     11  C   UNL     1      -0.088   2.424   0.350  1.00  0.00     0.039 C 
ATOM     12  O   UNL     1       1.401   3.504   1.952  1.00  0.00    -0.366 OA
ATOM     13  C   UNL     1      -1.282   3.209   0.862  1.00  0.00     0.019 C 
ATOM     14  C   UNL     1       0.433   4.483   2.355  1.00  0.00     0.075 C 
ATOM     15  C   UNL     1       0.224   4.374   3.862  1.00  0.00     0.043 C 
ATOM     16  C   UNL     1       1.185   5.826   2.163  1.00  0.00     0.043 C 
BRANCH   9  17
ATOM     17  C   UNL     1       0.845   1.072   2.440  1.00  0.00     0.093 C 
BRANCH  17  18
ATOM     18  C   UNL     1       1.117  -0.395   1.938  1.00  0.00     0.038 C 
BRANCH  18  19
ATOM     19  C   UNL     1       0.180  -1.071   0.919  1.00  0.00    -0.000 C 
ATOM     20  C   UNL     1       0.697  -1.102  -0.512  1.00  0.00     0.004 C 
ENDBRANCH  18  19
ENDBRANCH  17  18
BRANCH  17  21
ATOM     21  O   UNL     1      -0.525   1.105   2.909  1.00  0.00    -0.387 OA
ATOM     22  H   UNL     1      -0.660   0.401   3.562  1.00  0.00     0.211 HD
ENDBRANCH  17  21
BRANCH  17  23
ATOM     23  C   UNL     1       1.645   1.245   3.781  1.00  0.00     0.038 C 
BRANCH  23  24
ATOM     24  C   UNL     1       3.174   1.249   3.798  1.00  0.00    -0.000 C 
ATOM     25  C   UNL     1       3.797   2.638   3.753  1.00  0.00     0.004 C 
ENDBRANCH  23  24
ENDBRANCH  17  23
ENDBRANCH   9  17
ENDBRANCH   5   8
ENDBRANCH   3   4
ENDBRANCH   2   3
ENDBRANCH   1   2
BRANCH   1  26
ATOM     26  C   UNL     1      -5.146   3.034   5.971  1.00  0.00     0.002 C 
BRANCH  26  27
ATOM     27  C   UNL     1      -4.687   1.649   6.439  1.00  0.00     0.021 C 
BRANCH  27  28
ATOM     28  C   UNL     1      -3.978   1.619   7.792  1.00  0.00     0.116 C 
BRANCH  28  29
ATOM     29  N   UNL     1      -4.802   2.169   8.854  1.00  0.00    -0.352 N 
ATOM     30  C   UNL     1      -5.265   1.581  10.002  1.00  0.00     0.251 C 
ATOM     31  H   UNL     1      -5.068   3.109   8.731  1.00  0.00     0.163 HD
ATOM     32  O   UNL     1      -6.120   2.140  10.680  1.00  0.00    -0.269 OA
BRANCH  30  33
ATOM     33  C   UNL     1      -4.746   0.262  10.420  1.00  0.00     0.039 A 
ATOM     34  C   UNL     1      -5.653  -0.704  10.862  1.00  0.00     0.014 A 
ATOM     35  C   UNL     1      -3.376  -0.013  10.406  1.00  0.00     0.014 A 
ATOM     36  C   UNL     1      -5.190  -1.965  11.241  1.00  0.00     0.010 A 
ATOM     37  C   UNL     1      -2.921  -1.291  10.720  1.00  0.00     0.010 A 
ATOM     38  C   UNL     1      -3.824  -2.277  11.145  1.00  0.00    -0.014 A 
BRANCH  38  39
ATOM     39  C   UNL     1      -3.337  -3.640  11.470  1.00  0.00     0.031 A 
ATOM     40  C   UNL     1      -2.432  -3.869  12.646  1.00  0.00     0.074 A 
ATOM     41  C   UNL     1      -3.674  -4.667  10.668  1.00  0.00     0.049 A 
ATOM     42  N   UNL     1      -1.907  -4.988  13.081  1.00  0.00    -0.248 NA
ATOM     43  C   UNL     1      -2.042  -2.683  13.422  1.00  0.00     0.031 C 
ATOM     44  C   UNL     1      -4.491  -4.558   9.458  1.00  0.00     0.029 A 
ATOM     45  N   UNL     1      -3.368  -6.002  10.743  1.00  0.00    -0.354 N 
ATOM     46  C   UNL     1      -1.119  -4.638  14.169  1.00  0.00     0.074 A 
ATOM     47  C   UNL     1      -1.192  -3.199  14.297  1.00  0.00     0.031 C 
ATOM     48  C   UNL     1      -4.642  -5.777   8.919  1.00  0.00     0.029 A 
ATOM     49  C   UNL     1      -3.911  -6.748   9.727  1.00  0.00     0.049 A 
ATOM     50  H   UNL     1      -2.811  -6.388  11.458  1.00  0.00     0.167 HD
ATOM     51  C   UNL     1      -0.418  -5.448  14.999  1.00  0.00     0.037 A 
ATOM     52  C   UNL     1      -3.832  -8.068   9.477  1.00  0.00     0.037 A 
ATOM     53  C   UNL     1      -0.365  -6.882  14.877  1.00  0.00     0.049 A 
ATOM     54  C   UNL     1      -3.067  -8.949  10.425  1.00  0.00     0.074 A 
ATOM     55  C   UNL     1       0.250  -7.798  15.712  1.00  0.00     0.029 A 
ATOM     56  N   UNL     1      -0.946  -7.608  13.847  1.00  0.00    -0.354 N 
ATOM     57  N   UNL     1      -2.401  -8.620  11.505  1.00  0.00    -0.248 NA
ATOM     58  C   UNL     1      -3.054 -10.387  10.125  1.00  0.00     0.031 C 
ATOM     59  C   UNL     1       0.085  -9.074  15.159  1.00  0.00     0.029 A 
ATOM     60  C   UNL     1      -0.678  -8.959  14.008  1.00  0.00     0.049 A 
ATOM     61  H   UNL     1      -1.470  -7.221  13.109  1.00  0.00     0.167 HD
ATOM     62  C   UNL     1      -1.903  -9.807  12.024  1.00  0.00     0.074 A 
ATOM     63  C   UNL     1      -2.365 -10.868  11.150  1.00  0.00     0.031 C 
ATOM     64  C   UNL     1      -1.133 -10.001  13.123  1.00  0.00     0.037 A 
BRANCH  51  65
ATOM     65  C   UNL     1       0.353  -4.796  16.112  1.00  0.00     0.064 A 
ATOM     66  C   UNL     1      -0.293  -4.180  17.195  1.00  0.00     0.173 A 
ATOM     67  C   UNL     1       1.756  -4.805  16.106  1.00  0.00     0.173 A 
ATOM     68  F   UNL     1      -1.633  -4.135  17.245  1.00  0.00    -0.203 F 
ATOM     69  C   UNL     1       0.436  -3.565  18.210  1.00  0.00     0.198 A 
ATOM     70  C   UNL     1       2.482  -4.216  17.140  1.00  0.00     0.198 A 
ATOM     71  F   UNL     1       2.426  -5.385  15.099  1.00  0.00    -0.203 F 
ATOM     72  F   UNL     1      -0.205  -2.934  19.204  1.00  0.00    -0.200 F 
ATOM     73  C   UNL     1       1.821  -3.589  18.185  1.00  0.00     0.200 A 
ATOM     74  F   UNL     1       3.821  -4.251  17.120  1.00  0.00    -0.200 F 
ATOM     75  F   UNL     1       2.522  -2.998  19.163  1.00  0.00    -0.200 F 
ENDBRANCH  51  65
BRANCH  52  76
ATOM     76  C   UNL     1      -4.531  -8.633   8.295  1.00  0.00     0.064 A 
ATOM     77  C   UNL     1      -5.678  -9.423   8.447  1.00  0.00     0.173 A 
ATOM     78  C   UNL     1      -4.085  -8.371   6.992  1.00  0.00     0.173 A 
ATOM     79  F   UNL     1      -6.131  -9.716   9.675  1.00  0.00    -0.203 F 
ATOM     80  C   UNL     1      -6.347  -9.940   7.340  1.00  0.00     0.198 A 
ATOM     81  C   UNL     1      -4.770  -8.867   5.884  1.00  0.00     0.198 A 
ATOM     82  F   UNL     1      -2.996  -7.613   6.793  1.00  0.00    -0.203 F 
ATOM     83  F   UNL     1      -7.422 -10.720   7.513  1.00  0.00    -0.200 F 
ATOM     84  C   UNL     1      -5.897  -9.655   6.059  1.00  0.00     0.200 A 
ATOM     85  F   UNL     1      -4.341  -8.575   4.649  1.00  0.00    -0.200 F 
ATOM     86  F   UNL     1      -6.548 -10.142   4.994  1.00  0.00    -0.200 F 
ENDBRANCH  52  76
BRANCH  64  87
ATOM     87  C   UNL     1      -0.750 -11.417  13.445  1.00  0.00     0.064 A 
ATOM     88  C   UNL     1       0.175 -12.123  12.662  1.00  0.00     0.173 A 
ATOM     89  C   UNL     1      -1.297 -12.066  14.562  1.00  0.00     0.173 A 
ATOM     90  F   UNL     1       0.714 -11.552  11.574  1.00  0.00    -0.203 F 
ATOM     91  C   UNL     1       0.513 -13.439  12.966  1.00  0.00     0.198 A 
ATOM     92  C   UNL     1      -0.933 -13.371  14.881  1.00  0.00     0.198 A 
ATOM     93  F   UNL     1      -2.181 -11.433  15.347  1.00  0.00    -0.203 F 
ATOM     94  F   UNL     1       1.357 -14.113  12.172  1.00  0.00    -0.200 F 
ATOM     95  C   UNL     1      -0.036 -14.060  14.079  1.00  0.00     0.200 A 
ATOM     96  F   UNL     1      -1.455 -13.965  15.963  1.00  0.00    -0.200 F 
ATOM     97  F   UNL     1       0.292 -15.325  14.371  1.00  0.00    -0.200 F 
ENDBRANCH  64  87
ENDBRANCH  38  39
ENDBRANCH  30  33
ENDBRANCH  28  29
ENDBRANCH  27  28
ENDBRANCH  26  27
ENDBRANCH   1  26
TORSDOF 19
