REMARK SMILES Cc1cc(=O)n2cc(-c3ccccc3)nc2n1[C@H](C)C(=O)NCCCCCCNC(=O)c1ccc(-c2c3nc(c(-c4c(F)c(F)c(F)c(F)c4F)c4ccc([nH]4)c(-c4c(F)c(F)c(F)c(F)c4F)c4nc(c(-c5c(F)c(F)c(F)c(F)c5F)c5ccc2[nH]5)C=C4)C=C3)cc1
REMARK SMILES IDX 25 1 24 2 23 3 22 4 20 5 21 6 18 8 19 9 17 10 1 11 2 12 3 13
REMARK SMILES IDX 4 14 16 15 5 16 6 17 15 18 7 19 8 20 9 21 10 22 14 23 11 24
REMARK SMILES IDX 13 25 12 26 26 27 27 28 28 29 29 30 30 31 31 33 32 34 33 35
REMARK SMILES IDX 94 36 34 37 93 38 35 39 36 40 37 41 87 42 38 43 92 44 86 45
REMARK SMILES IDX 88 46 39 47 91 48 85 49 84 50 40 52 72 53 52 54 71 55 53 56
REMARK SMILES IDX 56 57 70 58 89 59 54 60 55 61 69 63 90 64 57 65 41 66 42 67
REMARK SMILES IDX 50 68 43 69 44 70 48 71 51 72 45 73 46 74 49 75 47 76 73 77
REMARK SMILES IDX 74 78 82 79 75 80 76 81 80 82 83 83 77 84 78 85 81 86 79 87
REMARK SMILES IDX 58 88 59 89 67 90 60 91 61 92 65 93 68 94 62 95 63 96 66 97
REMARK SMILES IDX 64 98
REMARK H PARENT 22 7 29 32 88 51 56 62
REMARK Flexibility Score: inf
ROOT
ATOM      1  C   UNL     1      -2.798  -4.778   4.370  1.00  0.00     0.002 C 
ENDROOT
BRANCH   1   2
ATOM      2  C   UNL     1      -1.804  -3.624   4.261  1.00  0.00     0.021 C 
BRANCH   2   3
ATOM      3  C   UNL     1      -0.552  -3.936   3.453  1.00  0.00     0.116 C 
BRANCH   3   4
ATOM      4  N   UNL     1      -0.832  -4.139   2.051  1.00  0.00    -0.354 N 
ATOM      5  C   UNL     1      -0.234  -3.552   0.974  1.00  0.00     0.242 C 
ATOM      6  O   UNL     1      -0.676  -3.836  -0.145  1.00  0.00    -0.273 OA
ATOM      7  H   UNL     1      -1.547  -4.784   1.846  1.00  0.00     0.163 HD
BRANCH   5   8
ATOM      8  C   UNL     1       0.945  -2.561   1.134  1.00  0.00     0.176 C 
ATOM      9  C   UNL     1       0.432  -1.225   1.682  1.00  0.00     0.042 C 
BRANCH   8  10
ATOM     10  N   UNL     1       2.149  -3.241   1.747  1.00  0.00    -0.303 N 
ATOM     11  C   UNL     1       2.377  -4.726  -0.319  1.00  0.00     0.065 C 
ATOM     12  C   UNL     1       2.831  -4.280   1.055  1.00  0.00     0.024 A 
ATOM     13  C   UNL     1       3.892  -4.919   1.581  1.00  0.00     0.093 A 
ATOM     14  C   UNL     1       4.396  -4.566   2.920  1.00  0.00     0.259 A 
ATOM     15  C   UNL     1       2.596  -2.885   3.001  1.00  0.00     0.218 A 
ATOM     16  O   UNL     1       5.332  -5.110   3.470  1.00  0.00    -0.269 OA
ATOM     17  N   UNL     1       3.692  -3.542   3.542  1.00  0.00    -0.251 N 
ATOM     18  N   UNL     1       2.126  -2.013   3.868  1.00  0.00    -0.212 NA
ATOM     19  C   UNL     1       3.923  -3.010   4.792  1.00  0.00     0.127 A 
ATOM     20  C   UNL     1       2.948  -2.062   4.962  1.00  0.00     0.091 A 
BRANCH  20  21
ATOM     21  C   UNL     1       2.772  -1.223   6.124  1.00  0.00     0.002 A 
ATOM     22  C   UNL     1       3.766  -0.312   6.499  1.00  0.00     0.010 A 
ATOM     23  C   UNL     1       1.580  -1.283   6.856  1.00  0.00     0.010 A 
ATOM     24  C   UNL     1       3.566   0.533   7.593  1.00  0.00     0.001 A 
ATOM     25  C   UNL     1       1.388  -0.446   7.957  1.00  0.00     0.001 A 
ATOM     26  C   UNL     1       2.379   0.465   8.322  1.00  0.00     0.000 A 
ENDBRANCH  20  21
ENDBRANCH   8  10
ENDBRANCH   5   8
ENDBRANCH   3   4
ENDBRANCH   2   3
ENDBRANCH   1   2
BRANCH   1  27
ATOM     27  C   UNL     1      -2.225  -6.104   4.888  1.00  0.00     0.002 C 
BRANCH  27  28
ATOM     28  C   UNL     1      -1.440  -6.040   6.206  1.00  0.00     0.021 C 
BRANCH  28  29
ATOM     29  C   UNL     1      -2.259  -5.544   7.386  1.00  0.00     0.116 C 
BRANCH  29  30
ATOM     30  N   UNL     1      -3.340  -6.459   7.740  1.00  0.00    -0.352 N 
ATOM     31  C   UNL     1      -4.250  -6.335   8.768  1.00  0.00     0.251 C 
ATOM     32  H   UNL     1      -3.431  -7.261   7.177  1.00  0.00     0.163 HD
ATOM     33  O   UNL     1      -4.886  -7.298   9.178  1.00  0.00    -0.269 OA
BRANCH  31  34
ATOM     34  C   UNL     1      -4.443  -5.008   9.374  1.00  0.00     0.039 A 
ATOM     35  C   UNL     1      -4.516  -4.853  10.761  1.00  0.00     0.014 A 
ATOM     36  C   UNL     1      -4.519  -3.908   8.524  1.00  0.00     0.014 A 
ATOM     37  C   UNL     1      -4.590  -3.568  11.291  1.00  0.00     0.010 A 
ATOM     38  C   UNL     1      -4.451  -2.642   9.048  1.00  0.00     0.010 A 
ATOM     39  C   UNL     1      -4.540  -2.465  10.427  1.00  0.00    -0.014 A 
BRANCH  39  40
ATOM     40  C   UNL     1      -4.487  -1.105  10.956  1.00  0.00     0.031 A 
ATOM     41  C   UNL     1      -3.359  -0.815  11.890  1.00  0.00     0.074 A 
ATOM     42  C   UNL     1      -5.260  -0.121  10.448  1.00  0.00     0.049 A 
ATOM     43  N   UNL     1      -3.427  -0.344  13.093  1.00  0.00    -0.248 NA
ATOM     44  C   UNL     1      -1.991  -1.162  11.470  1.00  0.00     0.031 C 
ATOM     45  C   UNL     1      -6.208  -0.189   9.329  1.00  0.00     0.029 A 
ATOM     46  N   UNL     1      -5.263   1.202  10.756  1.00  0.00    -0.354 N 
ATOM     47  C   UNL     1      -2.113  -0.198  13.538  1.00  0.00     0.074 A 
ATOM     48  C   UNL     1      -1.278  -0.825  12.547  1.00  0.00     0.031 C 
ATOM     49  C   UNL     1      -6.490   1.060   8.899  1.00  0.00     0.029 A 
ATOM     50  C   UNL     1      -5.881   2.010   9.810  1.00  0.00     0.049 A 
ATOM     51  H   UNL     1      -4.861   1.559  11.581  1.00  0.00     0.167 HD
ATOM     52  C   UNL     1      -1.805   0.589  14.607  1.00  0.00     0.037 A 
ATOM     53  C   UNL     1      -5.855   3.364   9.761  1.00  0.00     0.037 A 
ATOM     54  C   UNL     1      -2.972   0.878  15.397  1.00  0.00     0.049 A 
ATOM     55  C   UNL     1      -5.481   3.842  11.117  1.00  0.00     0.074 A 
ATOM     56  C   UNL     1      -3.865   0.102  16.110  1.00  0.00     0.029 A 
ATOM     57  N   UNL     1      -3.588   2.094  15.230  1.00  0.00    -0.354 N 
ATOM     58  N   UNL     1      -6.250   3.712  12.163  1.00  0.00    -0.248 NA
ATOM     59  C   UNL     1      -4.065   4.027  11.400  1.00  0.00     0.031 C 
ATOM     60  C   UNL     1      -5.136   0.701  15.875  1.00  0.00     0.029 A 
ATOM     61  C   UNL     1      -4.930   1.842  15.098  1.00  0.00     0.049 A 
ATOM     62  H   UNL     1      -3.152   2.976  15.209  1.00  0.00     0.167 HD
ATOM     63  C   UNL     1      -5.388   3.368  13.193  1.00  0.00     0.074 A 
ATOM     64  C   UNL     1      -4.048   3.659  12.684  1.00  0.00     0.031 C 
ATOM     65  C   UNL     1      -5.808   2.605  14.244  1.00  0.00     0.037 A 
BRANCH  52  66
ATOM     66  C   UNL     1      -0.519   1.355  14.780  1.00  0.00     0.064 A 
ATOM     67  C   UNL     1      -0.245   1.986  16.011  1.00  0.00     0.173 A 
ATOM     68  C   UNL     1       0.303   1.742  13.700  1.00  0.00     0.173 A 
ATOM     69  F   UNL     1      -0.976   1.707  17.101  1.00  0.00    -0.203 F 
ATOM     70  C   UNL     1       0.726   2.984  16.130  1.00  0.00     0.198 A 
ATOM     71  C   UNL     1       1.306   2.701  13.835  1.00  0.00     0.198 A 
ATOM     72  F   UNL     1       0.095   1.295  12.456  1.00  0.00    -0.203 F 
ATOM     73  F   UNL     1       0.866   3.643  17.288  1.00  0.00    -0.200 F 
ATOM     74  C   UNL     1       1.496   3.345  15.040  1.00  0.00     0.200 A 
ATOM     75  F   UNL     1       2.029   3.050  12.762  1.00  0.00    -0.200 F 
ATOM     76  F   UNL     1       2.384   4.344  15.133  1.00  0.00    -0.200 F 
ENDBRANCH  52  66
BRANCH  53  77
ATOM     77  C   UNL     1      -5.859   4.238   8.563  1.00  0.00     0.064 A 
ATOM     78  C   UNL     1      -6.140   5.610   8.664  1.00  0.00     0.173 A 
ATOM     79  C   UNL     1      -5.336   3.797   7.330  1.00  0.00     0.173 A 
ATOM     80  F   UNL     1      -6.598   6.121   9.816  1.00  0.00    -0.203 F 
ATOM     81  C   UNL     1      -5.892   6.490   7.604  1.00  0.00     0.198 A 
ATOM     82  C   UNL     1      -5.098   4.674   6.271  1.00  0.00     0.198 A 
ATOM     83  F   UNL     1      -4.958   2.522   7.158  1.00  0.00    -0.203 F 
ATOM     84  F   UNL     1      -6.117   7.802   7.759  1.00  0.00    -0.200 F 
ATOM     85  C   UNL     1      -5.363   6.023   6.412  1.00  0.00     0.200 A 
ATOM     86  F   UNL     1      -4.553   4.213   5.136  1.00  0.00    -0.200 F 
ATOM     87  F   UNL     1      -5.072   6.873   5.418  1.00  0.00    -0.200 F 
ENDBRANCH  53  77
BRANCH  65  88
ATOM     88  C   UNL     1      -7.279   2.319  14.376  1.00  0.00     0.064 A 
ATOM     89  C   UNL     1      -8.019   1.579  13.436  1.00  0.00     0.173 A 
ATOM     90  C   UNL     1      -7.914   2.631  15.585  1.00  0.00     0.173 A 
ATOM     91  F   UNL     1      -7.460   1.151  12.300  1.00  0.00    -0.203 F 
ATOM     92  C   UNL     1      -9.336   1.198  13.683  1.00  0.00     0.198 A 
ATOM     93  C   UNL     1      -9.218   2.218  15.846  1.00  0.00     0.198 A 
ATOM     94  F   UNL     1      -7.241   3.284  16.546  1.00  0.00    -0.203 F 
ATOM     95  F   UNL     1     -10.015   0.491  12.767  1.00  0.00    -0.200 F 
ATOM     96  C   UNL     1      -9.931   1.509  14.893  1.00  0.00     0.200 A 
ATOM     97  F   UNL     1      -9.771   2.475  17.040  1.00  0.00    -0.200 F 
ATOM     98  F   UNL     1     -11.179   1.096  15.155  1.00  0.00    -0.200 F 
ENDBRANCH  65  88
ENDBRANCH  39  40
ENDBRANCH  31  34
ENDBRANCH  29  30
ENDBRANCH  28  29
ENDBRANCH  27  28
ENDBRANCH   1  27
TORSDOF 15
