REMARK SMILES [NH3+]CCOCC(=O)N[C@H](C(=O)NCCCCCCNC(=O)c1ccc(-c2c3nc(c(-c4c(F)c(F)c(F)c(F)c4F)c4ccc([nH]4)c(-c4c(F)c(F)c(F)c(F)c4F)c4nc(c(-c5c(F)c(F)c(F)c(F)c5F)c5ccc2[nH]5)C=C4)C=C3)cc1)C1CCCCC1
REMARK SMILES IDX 13 1 12 2 10 3 11 4 9 6 8 7 6 8 7 9 5 11 4 12 3 13 2 14 1 15
REMARK SMILES IDX 85 19 86 20 90 21 87 22 89 23 88 24 14 25 15 26 16 27 17 28
REMARK SMILES IDX 18 29 19 30 20 31 21 33 22 34 23 35 84 36 24 37 83 38 25 39
REMARK SMILES IDX 26 40 27 41 77 42 28 43 82 44 76 45 78 46 29 47 81 48 75 49
REMARK SMILES IDX 74 50 30 52 62 53 42 54 61 55 43 56 46 57 60 58 79 59 44 60
REMARK SMILES IDX 45 61 59 63 80 64 47 65 31 66 32 67 40 68 33 69 34 70 38 71
REMARK SMILES IDX 41 72 35 73 36 74 39 75 37 76 63 77 64 78 72 79 65 80 66 81
REMARK SMILES IDX 70 82 73 83 67 84 68 85 71 86 69 87 48 88 49 89 57 90 50 91
REMARK SMILES IDX 51 92 55 93 58 94 52 95 53 96 56 97 54 98
REMARK H PARENT 12 5 8 10 1 16 1 17 1 18 19 32 78 51 46 62
REMARK Flexibility Score: inf
ROOT
ATOM      1  C   UNL     1       5.130   5.366   0.287  1.00  0.00     0.116 C 
ENDROOT
BRANCH   1   2
ATOM      2  N   UNL     1       4.875   4.131  -0.426  1.00  0.00    -0.354 N 
ATOM      3  C   UNL     1       3.760   3.767  -1.131  1.00  0.00     0.242 C 
ATOM      4  O   UNL     1       3.840   2.792  -1.880  1.00  0.00    -0.273 OA
ATOM      5  H   UNL     1       5.600   3.466  -0.400  1.00  0.00     0.163 HD
BRANCH   3   6
ATOM      6  C   UNL     1       2.482   4.638  -1.080  1.00  0.00     0.174 C 
BRANCH   6   7
ATOM      7  N   UNL     1       2.208   5.126   0.287  1.00  0.00    -0.342 N 
ATOM      8  C   UNL     1       2.188   4.469   1.481  1.00  0.00     0.246 C 
ATOM      9  O   UNL     1       1.950   5.142   2.492  1.00  0.00    -0.272 OA
ATOM     10  H   UNL     1       2.006   6.088   0.346  1.00  0.00     0.164 HD
BRANCH   8  11
ATOM     11  C   UNL     1       2.479   2.967   1.606  1.00  0.00     0.260 C 
BRANCH  11  12
ATOM     12  O   UNL     1       1.353   2.114   1.578  1.00  0.00    -0.366 OA
BRANCH  12  13
ATOM     13  C   UNL     1       0.333   2.423   2.527  1.00  0.00     0.222 C 
BRANCH  13  14
ATOM     14  C   UNL     1       0.650   1.984   3.967  1.00  0.00     0.287 C 
BRANCH  14  15
ATOM     15  N   UNL     1       1.635   2.799   4.684  1.00  0.00    -0.356 N 
ATOM     16  H   UNL     1       1.770   2.423   5.622  1.00  0.00     0.344 HD
ATOM     17  H   UNL     1       1.300   3.760   4.747  1.00  0.00     0.344 HD
ATOM     18  H   UNL     1       2.522   2.781   4.180  1.00  0.00     0.344 HD
ENDBRANCH  14  15
ENDBRANCH  13  14
ENDBRANCH  12  13
ENDBRANCH  11  12
ENDBRANCH   8  11
ENDBRANCH   6   7
BRANCH   6  19
ATOM     19  C   UNL     1       2.570   5.785  -2.187  1.00  0.00     0.021 C 
ATOM     20  C   UNL     1       2.054   7.164  -1.720  1.00  0.00     0.006 C 
ATOM     21  C   UNL     1       3.966   5.932  -2.854  1.00  0.00     0.006 C 
ATOM     22  C   UNL     1       2.196   8.259  -2.778  1.00  0.00     0.000 C 
ATOM     23  C   UNL     1       4.101   7.074  -3.853  1.00  0.00     0.000 C 
ATOM     24  C   UNL     1       3.639   8.387  -3.244  1.00  0.00     0.000 C 
ENDBRANCH   6  19
ENDBRANCH   3   6
ENDBRANCH   1   2
BRANCH   1  25
ATOM     25  C   UNL     1       5.747   5.121   1.651  1.00  0.00     0.021 C 
BRANCH  25  26
ATOM     26  C   UNL     1       7.240   4.798   1.568  1.00  0.00     0.002 C 
BRANCH  26  27
ATOM     27  C   UNL     1       8.060   5.760   0.696  1.00  0.00     0.002 C 
BRANCH  27  28
ATOM     28  C   UNL     1       7.829   7.249   0.979  1.00  0.00     0.021 C 
BRANCH  28  29
ATOM     29  C   UNL     1       8.031   7.635   2.434  1.00  0.00     0.116 C 
BRANCH  29  30
ATOM     30  N   UNL     1       9.359   7.273   2.892  1.00  0.00    -0.352 N 
ATOM     31  C   UNL     1      10.336   8.086   3.399  1.00  0.00     0.251 C 
ATOM     32  H   UNL     1       9.588   6.317   2.828  1.00  0.00     0.163 HD
ATOM     33  O   UNL     1      11.494   7.700   3.481  1.00  0.00    -0.269 OA
BRANCH  31  34
ATOM     34  C   UNL     1       9.962   9.439   3.845  1.00  0.00     0.039 A 
ATOM     35  C   UNL     1      10.769  10.519   3.488  1.00  0.00     0.014 A 
ATOM     36  C   UNL     1       8.809   9.629   4.614  1.00  0.00     0.014 A 
ATOM     37  C   UNL     1      10.404  11.803   3.885  1.00  0.00     0.010 A 
ATOM     38  C   UNL     1       8.401  10.915   4.933  1.00  0.00     0.010 A 
ATOM     39  C   UNL     1       9.209  12.010   4.594  1.00  0.00    -0.014 A 
BRANCH  39  40
ATOM     40  C   UNL     1       8.807  13.363   5.042  1.00  0.00     0.031 A 
ATOM     41  C   UNL     1       8.715  13.656   6.513  1.00  0.00     0.074 A 
ATOM     42  C   UNL     1       8.472  14.296   4.133  1.00  0.00     0.049 A 
ATOM     43  N   UNL     1       8.304  14.742   7.118  1.00  0.00    -0.248 NA
ATOM     44  C   UNL     1       9.107  12.572   7.429  1.00  0.00     0.031 C 
ATOM     45  C   UNL     1       8.489  14.107   2.682  1.00  0.00     0.029 A 
ATOM     46  N   UNL     1       8.041  15.587   4.296  1.00  0.00    -0.354 N 
ATOM     47  C   UNL     1       8.374  14.463   8.476  1.00  0.00     0.074 A 
ATOM     48  C   UNL     1       8.804  13.090   8.609  1.00  0.00     0.031 C 
ATOM     49  C   UNL     1       8.108  15.249   2.087  1.00  0.00     0.029 A 
ATOM     50  C   UNL     1       7.779  16.233   3.114  1.00  0.00     0.049 A 
ATOM     51  H   UNL     1       7.930  16.011   5.178  1.00  0.00     0.167 HD
ATOM     52  C   UNL     1       8.128  15.291   9.519  1.00  0.00     0.037 A 
ATOM     53  C   UNL     1       7.314  17.476   2.889  1.00  0.00     0.037 A 
ATOM     54  C   UNL     1       7.723  16.663   9.374  1.00  0.00     0.049 A 
ATOM     55  C   UNL     1       7.029  18.370   4.067  1.00  0.00     0.074 A 
ATOM     56  C   UNL     1       7.494  17.605  10.361  1.00  0.00     0.029 A 
ATOM     57  N   UNL     1       7.482  17.288   8.158  1.00  0.00    -0.354 N 
ATOM     58  N   UNL     1       7.158  18.119   5.348  1.00  0.00    -0.248 NA
ATOM     59  C   UNL     1       6.541  19.722   3.767  1.00  0.00     0.031 C 
ATOM     60  C   UNL     1       7.061  18.783   9.746  1.00  0.00     0.029 A 
ATOM     61  C   UNL     1       7.084  18.598   8.372  1.00  0.00     0.049 A 
ATOM     62  H   UNL     1       7.579  16.864   7.275  1.00  0.00     0.167 HD
ATOM     63  C   UNL     1       6.805  19.291   6.004  1.00  0.00     0.074 A 
ATOM     64  C   UNL     1       6.465  20.255   4.978  1.00  0.00     0.031 C 
ATOM     65  C   UNL     1       6.768  19.547   7.335  1.00  0.00     0.037 A 
BRANCH  52  66
ATOM     66  C   UNL     1       8.289  14.732  10.904  1.00  0.00     0.064 A 
ATOM     67  C   UNL     1       9.547  14.374  11.415  1.00  0.00     0.173 A 
ATOM     68  C   UNL     1       7.175  14.575  11.742  1.00  0.00     0.173 A 
ATOM     69  F   UNL     1      10.645  14.491  10.651  1.00  0.00    -0.203 F 
ATOM     70  C   UNL     1       9.679  13.851  12.698  1.00  0.00     0.198 A 
ATOM     71  C   UNL     1       7.315  14.085  13.038  1.00  0.00     0.198 A 
ATOM     72  F   UNL     1       5.950  14.905  11.308  1.00  0.00    -0.203 F 
ATOM     73  F   UNL     1      10.883  13.463  13.142  1.00  0.00    -0.200 F 
ATOM     74  C   UNL     1       8.564  13.714  13.511  1.00  0.00     0.200 A 
ATOM     75  F   UNL     1       6.239  13.969  13.828  1.00  0.00    -0.200 F 
ATOM     76  F   UNL     1       8.693  13.218  14.750  1.00  0.00    -0.200 F 
ENDBRANCH  52  66
BRANCH  53  77
ATOM     77  C   UNL     1       7.112  17.955   1.497  1.00  0.00     0.064 A 
ATOM     78  C   UNL     1       7.917  18.970   0.960  1.00  0.00     0.173 A 
ATOM     79  C   UNL     1       6.111  17.416   0.676  1.00  0.00     0.173 A 
ATOM     80  F   UNL     1       8.878  19.529   1.711  1.00  0.00    -0.203 F 
ATOM     81  C   UNL     1       7.711  19.446  -0.333  1.00  0.00     0.198 A 
ATOM     82  C   UNL     1       5.926  17.870  -0.628  1.00  0.00     0.198 A 
ATOM     83  F   UNL     1       5.319  16.436   1.136  1.00  0.00    -0.203 F 
ATOM     84  F   UNL     1       8.461  20.453  -0.801  1.00  0.00    -0.200 F 
ATOM     85  C   UNL     1       6.719  18.892  -1.128  1.00  0.00     0.200 A 
ATOM     86  F   UNL     1       4.979  17.319  -1.400  1.00  0.00    -0.200 F 
ATOM     87  F   UNL     1       6.523  19.348  -2.373  1.00  0.00    -0.200 F 
ENDBRANCH  53  77
BRANCH  65  88
ATOM     88  C   UNL     1       6.401  20.939   7.761  1.00  0.00     0.064 A 
ATOM     89  C   UNL     1       5.095  21.434   7.632  1.00  0.00     0.173 A 
ATOM     90  C   UNL     1       7.363  21.770   8.356  1.00  0.00     0.173 A 
ATOM     91  F   UNL     1       4.142  20.685   7.057  1.00  0.00    -0.203 F 
ATOM     92  C   UNL     1       4.773  22.720   8.060  1.00  0.00     0.198 A 
ATOM     93  C   UNL     1       7.029  23.040   8.815  1.00  0.00     0.198 A 
ATOM     94  F   UNL     1       8.625  21.341   8.510  1.00  0.00    -0.203 F 
ATOM     95  F   UNL     1       3.531  23.191   7.883  1.00  0.00    -0.200 F 
ATOM     96  C   UNL     1       5.737  23.517   8.660  1.00  0.00     0.200 A 
ATOM     97  F   UNL     1       7.958  23.802   9.410  1.00  0.00    -0.200 F 
ATOM     98  F   UNL     1       5.421  24.748   9.083  1.00  0.00    -0.200 F 
ENDBRANCH  65  88
ENDBRANCH  39  40
ENDBRANCH  31  34
ENDBRANCH  29  30
ENDBRANCH  28  29
ENDBRANCH  27  28
ENDBRANCH  26  27
ENDBRANCH  25  26
ENDBRANCH   1  25
TORSDOF 20
