REMARK SMILES COc1ccc(NC2=[NH+]C(=O)/C(=C\c3ccccc3C(=O)NCCCCCCNC(=O)c3ccc(-c4c5nc(c(-c6c(F)c(F)c(F)c(F)c6F)c6ccc([nH]6)c(-c6c(F)c(F)c(F)c(F)c6F)c6nc(c(-c7c(F)c(F)c(F)c(F)c7F)c7ccc4[nH]7)C=C6)C=C5)cc3)S2)cc1
REMARK SMILES IDX 25 1 24 2 23 3 22 4 20 5 21 6 19 8 14 9 15 10 16 11 18 12
REMARK SMILES IDX 17 13 13 14 7 15 8 16 9 18 95 19 10 20 12 22 11 23 6 24 3 25
REMARK SMILES IDX 4 26 97 27 5 28 96 29 2 30 1 31 26 32 27 33 28 34 29 35
REMARK SMILES IDX 30 36 31 38 32 39 33 40 94 41 34 42 93 43 35 44 36 45 37 46
REMARK SMILES IDX 87 47 38 48 92 49 86 50 88 51 39 52 91 53 85 54 84 55 40 57
REMARK SMILES IDX 72 58 52 59 71 60 53 61 56 62 70 63 89 64 54 65 55 66 69 68
REMARK SMILES IDX 90 69 57 70 41 71 42 72 50 73 43 74 44 75 48 76 51 77 45 78
REMARK SMILES IDX 46 79 49 80 47 81 73 82 74 83 82 84 75 85 76 86 80 87 83 88
REMARK SMILES IDX 77 89 78 90 81 91 79 92 58 93 59 94 67 95 60 96 61 97 65 98
REMARK SMILES IDX 68 99 62 100 63 101 66 102 64 103
REMARK H PARENT 22 7 7 17 9 21 29 37 88 56 56 67
REMARK Flexibility Score: inf
ROOT
ATOM      1  C   UNL     1      -2.897   5.618   1.639  1.00  0.00     0.002 C 
ENDROOT
BRANCH   1   2
ATOM      2  C   UNL     1      -3.490   6.798   2.415  1.00  0.00     0.021 C 
BRANCH   2   3
ATOM      3  C   UNL     1      -2.570   7.994   2.643  1.00  0.00     0.116 C 
BRANCH   3   4
ATOM      4  N   UNL     1      -2.107   8.631   1.431  1.00  0.00    -0.352 N 
ATOM      5  C   UNL     1      -1.742   9.941   1.220  1.00  0.00     0.251 C 
ATOM      6  O   UNL     1      -1.518  10.305   0.068  1.00  0.00    -0.269 OA
ATOM      7  H   UNL     1      -2.044   8.044   0.643  1.00  0.00     0.163 HD
BRANCH   5   8
ATOM      8  C   UNL     1      -1.732  10.939   2.326  1.00  0.00     0.047 A 
ATOM      9  C   UNL     1      -1.127  10.787   3.590  1.00  0.00    -0.011 A 
ATOM     10  C   UNL     1      -1.385  11.774   4.567  1.00  0.00     0.009 A 
ATOM     11  C   UNL     1      -2.133  12.918   4.278  1.00  0.00     0.001 A 
ATOM     12  C   UNL     1      -2.429  12.129   2.029  1.00  0.00     0.014 A 
ATOM     13  C   UNL     1      -2.626  13.113   2.997  1.00  0.00     0.001 A 
BRANCH   9  14
ATOM     14  C   UNL     1      -0.285   9.672   4.067  1.00  0.00     0.032 C 
ATOM     15  N   UNL     1       2.590   5.908   2.546  1.00  0.00    -0.235 N 
ATOM     16  C   UNL     1       2.051   7.160   2.576  1.00  0.00     0.322 C 
ATOM     17  H   UNL     1       3.263   5.709   3.237  1.00  0.00     0.313 HD
ATOM     18  N   UNL     1       1.856   8.017   1.633  1.00  0.00    -0.199 N 
ATOM     19  S   UNL     1       1.501   7.655   4.173  1.00  0.00     0.006 SA
ATOM     20  C   UNL     1       1.282   9.189   2.086  1.00  0.00     0.346 C 
ATOM     21  H   UNL     1       2.091   7.854   0.691  1.00  0.00     0.316 HD
ATOM     22  C   UNL     1       0.707   9.011   3.451  1.00  0.00     0.110 C 
ATOM     23  O   UNL     1       1.293  10.258   1.497  1.00  0.00    -0.240 OA
BRANCH  15  24
ATOM     24  C   UNL     1       2.300   4.867   1.646  1.00  0.00     0.125 A 
ATOM     25  C   UNL     1       1.517   2.610   0.130  1.00  0.00     0.119 A 
ATOM     26  C   UNL     1       1.107   3.893  -0.234  1.00  0.00     0.051 A 
ATOM     27  C   UNL     1       2.404   2.466   1.190  1.00  0.00     0.051 A 
ATOM     28  C   UNL     1       1.511   5.015   0.504  1.00  0.00     0.055 A 
ATOM     29  C   UNL     1       2.795   3.585   1.934  1.00  0.00     0.055 A 
BRANCH  25  30
ATOM     30  O   UNL     1       0.987   1.593  -0.614  1.00  0.00    -0.497 OA
ATOM     31  C   UNL     1       1.197   0.271  -0.124  1.00  0.00     0.278 C 
ENDBRANCH  25  30
ENDBRANCH  15  24
ENDBRANCH   9  14
ENDBRANCH   5   8
ENDBRANCH   3   4
ENDBRANCH   2   3
ENDBRANCH   1   2
BRANCH   1  32
ATOM     32  C   UNL     1      -1.484   5.183   2.024  1.00  0.00     0.002 C 
BRANCH  32  33
ATOM     33  C   UNL     1      -1.252   4.763   3.472  1.00  0.00     0.021 C 
BRANCH  33  34
ATOM     34  C   UNL     1      -2.010   3.523   3.923  1.00  0.00     0.116 C 
BRANCH  34  35
ATOM     35  N   UNL     1      -1.669   2.324   3.172  1.00  0.00    -0.352 N 
ATOM     36  C   UNL     1      -1.346   1.061   3.608  1.00  0.00     0.251 C 
ATOM     37  H   UNL     1      -1.669   2.435   2.194  1.00  0.00     0.163 HD
ATOM     38  O   UNL     1      -1.007   0.200   2.800  1.00  0.00    -0.269 OA
BRANCH  36  39
ATOM     39  C   UNL     1      -1.357   0.732   5.052  1.00  0.00     0.039 A 
ATOM     40  C   UNL     1      -0.340  -0.085   5.560  1.00  0.00     0.014 A 
ATOM     41  C   UNL     1      -2.352   1.209   5.906  1.00  0.00     0.014 A 
ATOM     42  C   UNL     1      -0.281  -0.356   6.929  1.00  0.00     0.010 A 
ATOM     43  C   UNL     1      -2.237   1.022   7.279  1.00  0.00     0.010 A 
ATOM     44  C   UNL     1      -1.206   0.230   7.806  1.00  0.00    -0.014 A 
BRANCH  44  45
ATOM     45  C   UNL     1      -1.136   0.011   9.273  1.00  0.00     0.031 A 
ATOM     46  C   UNL     1      -2.284  -0.652   9.985  1.00  0.00     0.074 A 
ATOM     47  C   UNL     1      -0.083   0.478   9.973  1.00  0.00     0.049 A 
ATOM     48  N   UNL     1      -2.475  -0.831  11.267  1.00  0.00    -0.248 NA
ATOM     49  C   UNL     1      -3.385  -1.145   9.142  1.00  0.00     0.031 C 
ATOM     50  C   UNL     1       1.065   1.185   9.404  1.00  0.00     0.029 A 
ATOM     51  N   UNL     1       0.186   0.439  11.318  1.00  0.00    -0.354 N 
ATOM     52  C   UNL     1      -3.726  -1.424  11.383  1.00  0.00     0.074 A 
ATOM     53  C   UNL     1      -4.273  -1.523  10.048  1.00  0.00     0.031 C 
ATOM     54  C   UNL     1       1.927   1.490  10.388  1.00  0.00     0.029 A 
ATOM     55  C   UNL     1       1.375   1.036  11.660  1.00  0.00     0.049 A 
ATOM     56  H   UNL     1      -0.417   0.023  11.976  1.00  0.00     0.167 HD
ATOM     57  C   UNL     1      -4.349  -1.871  12.499  1.00  0.00     0.037 A 
ATOM     58  C   UNL     1       1.950   1.202  12.867  1.00  0.00     0.037 A 
ATOM     59  C   UNL     1      -3.777  -1.814  13.817  1.00  0.00     0.049 A 
ATOM     60  C   UNL     1       1.250   0.671  14.088  1.00  0.00     0.074 A 
ATOM     61  C   UNL     1      -4.292  -2.301  15.005  1.00  0.00     0.029 A 
ATOM     62  N   UNL     1      -2.550  -1.240  14.117  1.00  0.00    -0.354 N 
ATOM     63  N   UNL     1       0.095   0.058  14.178  1.00  0.00    -0.248 NA
ATOM     64  C   UNL     1       1.937   0.848  15.375  1.00  0.00     0.031 C 
ATOM     65  C   UNL     1      -3.394  -1.989  16.030  1.00  0.00     0.029 A 
ATOM     66  C   UNL     1      -2.297  -1.348  15.475  1.00  0.00     0.049 A 
ATOM     67  H   UNL     1      -1.948  -0.818  13.463  1.00  0.00     0.167 HD
ATOM     68  C   UNL     1      -0.071  -0.249  15.522  1.00  0.00     0.074 A 
ATOM     69  C   UNL     1       1.109   0.233  16.208  1.00  0.00     0.031 C 
ATOM     70  C   UNL     1      -1.108  -0.872  16.134  1.00  0.00     0.037 A 
BRANCH  57  71
ATOM     71  C   UNL     1      -5.717  -2.470  12.336  1.00  0.00     0.064 A 
ATOM     72  C   UNL     1      -5.910  -3.700  11.688  1.00  0.00     0.173 A 
ATOM     73  C   UNL     1      -6.847  -1.819  12.853  1.00  0.00     0.173 A 
ATOM     74  F   UNL     1      -4.865  -4.358  11.164  1.00  0.00    -0.203 F 
ATOM     75  C   UNL     1      -7.186  -4.237  11.532  1.00  0.00     0.198 A 
ATOM     76  C   UNL     1      -8.117  -2.374  12.724  1.00  0.00     0.198 A 
ATOM     77  F   UNL     1      -6.720  -0.643  13.486  1.00  0.00    -0.203 F 
ATOM     78  F   UNL     1      -7.350  -5.383  10.857  1.00  0.00    -0.200 F 
ATOM     79  C   UNL     1      -8.287  -3.577  12.055  1.00  0.00     0.200 A 
ATOM     80  F   UNL     1      -9.180  -1.741  13.241  1.00  0.00    -0.200 F 
ATOM     81  F   UNL     1      -9.514  -4.096  11.907  1.00  0.00    -0.200 F 
ENDBRANCH  57  71
BRANCH  58  82
ATOM     82  C   UNL     1       3.274   1.870  12.975  1.00  0.00     0.064 A 
ATOM     83  C   UNL     1       4.419   1.139  13.320  1.00  0.00     0.173 A 
ATOM     84  C   UNL     1       3.425   3.243  12.734  1.00  0.00     0.173 A 
ATOM     85  F   UNL     1       4.322  -0.173  13.578  1.00  0.00    -0.203 F 
ATOM     86  C   UNL     1       5.661   1.760  13.442  1.00  0.00     0.198 A 
ATOM     87  C   UNL     1       4.672   3.857  12.828  1.00  0.00     0.198 A 
ATOM     88  F   UNL     1       2.362   3.986  12.392  1.00  0.00    -0.203 F 
ATOM     89  F   UNL     1       6.731   1.044  13.815  1.00  0.00    -0.200 F 
ATOM     90  C   UNL     1       5.788   3.117  13.190  1.00  0.00     0.200 A 
ATOM     91  F   UNL     1       4.794   5.166  12.568  1.00  0.00    -0.200 F 
ATOM     92  F   UNL     1       6.983   3.712  13.300  1.00  0.00    -0.200 F 
ENDBRANCH  58  82
BRANCH  70  93
ATOM     93  C   UNL     1      -0.996  -1.101  17.612  1.00  0.00     0.064 A 
ATOM     94  C   UNL     1      -1.119  -0.049  18.530  1.00  0.00     0.173 A 
ATOM     95  C   UNL     1      -0.806  -2.397  18.115  1.00  0.00     0.173 A 
ATOM     96  F   UNL     1      -1.286   1.210  18.096  1.00  0.00    -0.203 F 
ATOM     97  C   UNL     1      -1.035  -0.283  19.900  1.00  0.00     0.198 A 
ATOM     98  C   UNL     1      -0.752  -2.631  19.485  1.00  0.00     0.198 A 
ATOM     99  F   UNL     1      -0.689  -3.437  17.276  1.00  0.00    -0.203 F 
ATOM    100  F   UNL     1      -1.111   0.743  20.758  1.00  0.00    -0.200 F 
ATOM    101  C   UNL     1      -0.859  -1.574  20.376  1.00  0.00     0.200 A 
ATOM    102  F   UNL     1      -0.595  -3.881  19.944  1.00  0.00    -0.200 F 
ATOM    103  F   UNL     1      -0.786  -1.798  21.695  1.00  0.00    -0.200 F 
ENDBRANCH  70  93
ENDBRANCH  44  45
ENDBRANCH  36  39
ENDBRANCH  34  35
ENDBRANCH  33  34
ENDBRANCH  32  33
ENDBRANCH   1  32
TORSDOF 16
