REMARK SMILES [NH3+][C@H](C(=O)NCCCCCCNC(=O)c1ccc(-c2c3nc(c(-c4c(F)c(F)c(F)c(F)c4F)c4ccc([nH]4)c(-c4c(F)c(F)c(F)c(F)c4F)c4nc(c(-c5c(F)c(F)c(F)c(F)c5F)c5ccc2[nH]5)C=C4)C=C3)cc1)c1cc(F)c(F)c(F)c1F
REMARK SMILES IDX 9 1 8 2 7 3 6 4 5 5 3 6 4 7 2 9 1 10 78 14 79 15 86 16 80 17
REMARK SMILES IDX 84 18 87 19 81 20 82 21 85 22 83 23 10 24 11 25 12 26 13 27
REMARK SMILES IDX 14 29 15 30 16 31 77 32 17 33 76 34 18 35 19 36 20 37 70 38
REMARK SMILES IDX 21 39 75 40 69 41 71 42 22 43 74 44 68 45 67 46 23 48 55 49
REMARK SMILES IDX 35 50 54 51 36 52 39 53 53 54 72 55 37 56 38 57 52 59 73 60
REMARK SMILES IDX 40 61 24 62 25 63 33 64 26 65 27 66 31 67 34 68 28 69 29 70
REMARK SMILES IDX 32 71 30 72 56 73 57 74 65 75 58 76 59 77 63 78 66 79 60 80
REMARK SMILES IDX 61 81 64 82 62 83 41 84 42 85 50 86 43 87 44 88 48 89 51 90
REMARK SMILES IDX 45 91 46 92 49 93 47 94
REMARK H PARENT 5 8 1 11 1 12 1 13 12 28 71 47 39 58
REMARK Flexibility Score: inf
ROOT
ATOM      1  C   UNL     1       0.800   5.193   0.689  1.00  0.00     0.002 C 
ENDROOT
BRANCH   1   2
ATOM      2  C   UNL     1      -0.175   4.049   0.991  1.00  0.00     0.002 C 
BRANCH   2   3
ATOM      3  C   UNL     1      -0.482   3.123  -0.191  1.00  0.00     0.021 C 
BRANCH   3   4
ATOM      4  C   UNL     1       0.732   2.361  -0.723  1.00  0.00     0.116 C 
BRANCH   4   5
ATOM      5  N   UNL     1       1.077   1.252   0.146  1.00  0.00    -0.351 N 
ATOM      6  C   UNL     1       0.882  -0.091  -0.023  1.00  0.00     0.283 C 
ATOM      7  O   UNL     1       1.201  -0.840   0.905  1.00  0.00    -0.268 OA
ATOM      8  H   UNL     1       1.521   1.505   0.988  1.00  0.00     0.163 HD
BRANCH   6   9
ATOM      9  C   UNL     1       0.314  -0.643  -1.360  1.00  0.00     0.305 C 
BRANCH   9  10
ATOM     10  N   UNL     1       1.017  -1.897  -1.706  1.00  0.00    -0.343 N 
ATOM     11  H   UNL     1       0.647  -2.263  -2.583  1.00  0.00     0.345 HD
ATOM     12  H   UNL     1       0.874  -2.582  -0.965  1.00  0.00     0.345 HD
ATOM     13  H   UNL     1       2.014  -1.710  -1.809  1.00  0.00     0.345 HD
ENDBRANCH   9  10
BRANCH   9  14
ATOM     14  C   UNL     1      -1.194  -0.808  -1.295  1.00  0.00     0.061 A 
ATOM     15  C   UNL     1      -2.027   0.256  -1.685  1.00  0.00     0.056 A 
ATOM     16  C   UNL     1      -1.812  -1.967  -0.798  1.00  0.00     0.171 A 
ATOM     17  C   UNL     1      -3.411   0.166  -1.550  1.00  0.00     0.162 A 
ATOM     18  C   UNL     1      -3.201  -2.064  -0.705  1.00  0.00     0.198 A 
ATOM     19  F   UNL     1      -1.070  -3.009  -0.394  1.00  0.00    -0.203 F 
ATOM     20  F   UNL     1      -4.165   1.223  -1.881  1.00  0.00    -0.204 F 
ATOM     21  C   UNL     1      -4.000  -0.992  -1.068  1.00  0.00     0.197 A 
ATOM     22  F   UNL     1      -3.763  -3.193  -0.250  1.00  0.00    -0.200 F 
ATOM     23  F   UNL     1      -5.332  -1.067  -0.946  1.00  0.00    -0.200 F 
ENDBRANCH   9  14
ENDBRANCH   6   9
ENDBRANCH   4   5
ENDBRANCH   3   4
ENDBRANCH   2   3
ENDBRANCH   1   2
BRANCH   1  24
ATOM     24  C   UNL     1       0.431   6.073  -0.508  1.00  0.00     0.021 C 
BRANCH  24  25
ATOM     25  C   UNL     1      -0.947   6.725  -0.429  1.00  0.00     0.116 C 
BRANCH  25  26
ATOM     26  N   UNL     1      -1.059   7.643   0.692  1.00  0.00    -0.352 N 
ATOM     27  C   UNL     1      -1.389   8.974   0.701  1.00  0.00     0.251 C 
ATOM     28  H   UNL     1      -0.869   7.252   1.575  1.00  0.00     0.163 HD
ATOM     29  O   UNL     1      -1.248   9.637   1.728  1.00  0.00    -0.269 OA
BRANCH  27  30
ATOM     30  C   UNL     1      -1.898   9.624  -0.524  1.00  0.00     0.039 A 
ATOM     31  C   UNL     1      -1.396  10.879  -0.880  1.00  0.00     0.014 A 
ATOM     32  C   UNL     1      -2.880   9.014  -1.308  1.00  0.00     0.014 A 
ATOM     33  C   UNL     1      -1.836  11.495  -2.054  1.00  0.00     0.010 A 
ATOM     34  C   UNL     1      -3.269   9.597  -2.512  1.00  0.00     0.010 A 
ATOM     35  C   UNL     1      -2.753  10.845  -2.895  1.00  0.00    -0.014 A 
BRANCH  35  36
ATOM     36  C   UNL     1      -3.185  11.455  -4.178  1.00  0.00     0.031 A 
ATOM     37  C   UNL     1      -4.617  11.866  -4.376  1.00  0.00     0.074 A 
ATOM     38  C   UNL     1      -2.302  11.578  -5.187  1.00  0.00     0.049 A 
ATOM     39  N   UNL     1      -5.200  12.352  -5.443  1.00  0.00    -0.248 NA
ATOM     40  C   UNL     1      -5.520  11.682  -3.230  1.00  0.00     0.031 C 
ATOM     41  C   UNL     1      -0.897  11.175  -5.133  1.00  0.00     0.029 A 
ATOM     42  N   UNL     1      -2.459  12.069  -6.459  1.00  0.00    -0.354 N 
ATOM     43  C   UNL     1      -6.536  12.516  -5.103  1.00  0.00     0.074 A 
ATOM     44  C   UNL     1      -6.689  12.031  -3.748  1.00  0.00     0.031 C 
ATOM     45  C   UNL     1      -0.315  11.452  -6.311  1.00  0.00     0.029 A 
ATOM     46  C   UNL     1      -1.313  12.019  -7.213  1.00  0.00     0.049 A 
ATOM     47  H   UNL     1      -3.313  12.422  -6.799  1.00  0.00     0.167 HD
ATOM     48  C   UNL     1      -7.539  13.044  -5.845  1.00  0.00     0.037 A 
ATOM     49  C   UNL     1      -1.093  12.385  -8.491  1.00  0.00     0.037 A 
ATOM     50  C   UNL     1      -7.377  13.549  -7.183  1.00  0.00     0.049 A 
ATOM     51  C   UNL     1      -2.224  12.964  -9.295  1.00  0.00     0.074 A 
ATOM     52  C   UNL     1      -8.316  14.163  -7.994  1.00  0.00     0.029 A 
ATOM     53  N   UNL     1      -6.197  13.495  -7.910  1.00  0.00    -0.354 N 
ATOM     54  N   UNL     1      -3.467  13.178  -8.940  1.00  0.00    -0.248 NA
ATOM     55  C   UNL     1      -1.919  13.358 -10.678  1.00  0.00     0.031 C 
ATOM     56  C   UNL     1      -7.716  14.439  -9.227  1.00  0.00     0.029 A 
ATOM     57  C   UNL     1      -6.390  14.042  -9.168  1.00  0.00     0.049 A 
ATOM     58  H   UNL     1      -5.347  13.122  -7.580  1.00  0.00     0.167 HD
ATOM     59  C   UNL     1      -4.086  13.754 -10.041  1.00  0.00     0.074 A 
ATOM     60  C   UNL     1      -3.076  13.869 -11.074  1.00  0.00     0.031 C 
ATOM     61  C   UNL     1      -5.374  14.152 -10.184  1.00  0.00     0.037 A 
BRANCH  48  62
ATOM     62  C   UNL     1      -8.904  13.101  -5.221  1.00  0.00     0.064 A 
ATOM     63  C   UNL     1      -9.193  13.973  -4.160  1.00  0.00     0.173 A 
ATOM     64  C   UNL     1      -9.943  12.293  -5.707  1.00  0.00     0.173 A 
ATOM     65  F   UNL     1      -8.232  14.759  -3.651  1.00  0.00    -0.203 F 
ATOM     66  C   UNL     1     -10.460  14.008  -3.585  1.00  0.00     0.198 A 
ATOM     67  C   UNL     1     -11.218  12.354  -5.150  1.00  0.00     0.198 A 
ATOM     68  F   UNL     1      -9.724  11.447  -6.724  1.00  0.00    -0.203 F 
ATOM     69  F   UNL     1     -10.697  14.809  -2.537  1.00  0.00    -0.200 F 
ATOM     70  C   UNL     1     -11.473  13.204  -4.085  1.00  0.00     0.200 A 
ATOM     71  F   UNL     1     -12.200  11.585  -5.642  1.00  0.00    -0.200 F 
ATOM     72  F   UNL     1     -12.694  13.241  -3.533  1.00  0.00    -0.200 F 
ENDBRANCH  48  62
BRANCH  49  73
ATOM     73  C   UNL     1       0.264  12.240  -9.077  1.00  0.00     0.064 A 
ATOM     74  C   UNL     1       1.049  13.368  -9.355  1.00  0.00     0.173 A 
ATOM     75  C   UNL     1       0.807  10.979  -9.363  1.00  0.00     0.173 A 
ATOM     76  F   UNL     1       0.564  14.595  -9.118  1.00  0.00    -0.203 F 
ATOM     77  C   UNL     1       2.320  13.241  -9.912  1.00  0.00     0.198 A 
ATOM     78  C   UNL     1       2.088  10.852  -9.894  1.00  0.00     0.198 A 
ATOM     79  F   UNL     1       0.098   9.869  -9.109  1.00  0.00    -0.203 F 
ATOM     80  F   UNL     1       3.033  14.336 -10.204  1.00  0.00    -0.200 F 
ATOM     81  C   UNL     1       2.841  11.983 -10.175  1.00  0.00     0.200 A 
ATOM     82  F   UNL     1       2.595   9.635 -10.133  1.00  0.00    -0.200 F 
ATOM     83  F   UNL     1       4.066  11.860 -10.703  1.00  0.00    -0.200 F 
ENDBRANCH  49  73
BRANCH  61  84
ATOM     84  C   UNL     1      -5.759  14.776 -11.494  1.00  0.00     0.064 A 
ATOM     85  C   UNL     1      -5.885  14.012 -12.663  1.00  0.00     0.173 A 
ATOM     86  C   UNL     1      -6.043  16.148 -11.571  1.00  0.00     0.173 A 
ATOM     87  F   UNL     1      -5.609  12.699 -12.645  1.00  0.00    -0.203 F 
ATOM     88  C   UNL     1      -6.258  14.604 -13.867  1.00  0.00     0.198 A 
ATOM     89  C   UNL     1      -6.443  16.730 -12.769  1.00  0.00     0.198 A 
ATOM     90  F   UNL     1      -5.942  16.921 -10.479  1.00  0.00    -0.203 F 
ATOM     91  F   UNL     1      -6.327  13.863 -14.982  1.00  0.00    -0.200 F 
ATOM     92  C   UNL     1      -6.544  15.960 -13.918  1.00  0.00     0.200 A 
ATOM     93  F   UNL     1      -6.731  18.039 -12.814  1.00  0.00    -0.200 F 
ATOM     94  F   UNL     1      -6.910  16.526 -15.076  1.00  0.00    -0.200 F 
ENDBRANCH  61  84
ENDBRANCH  35  36
ENDBRANCH  27  30
ENDBRANCH  25  26
ENDBRANCH  24  25
ENDBRANCH   1  24
TORSDOF 15
