REMARK SMILES CC1=C(C)C(=O)N(C[C@H](CC(C)C)C(=O)NCCCCCCNC(=O)c2ccc(-c3c4nc(c(-c5c(F)c(F)c(F)c(F)c5F)c5ccc([nH]5)c(-c5c(F)c(F)c(F)c(F)c5F)c5nc(c(-c6c(F)c(F)c(F)c(F)c6F)c6ccc3[nH]6)C=C5)C=C4)cc2)C1=O
REMARK SMILES IDX 19 1 18 2 17 3 16 4 14 5 15 6 9 8 8 9 7 10 1 11 2 12 3 13
REMARK SMILES IDX 89 14 4 15 5 16 90 17 6 18 10 19 11 20 12 21 13 22 20 23
REMARK SMILES IDX 21 24 22 25 23 26 24 27 25 29 26 30 27 31 88 32 28 33 87 34
REMARK SMILES IDX 29 35 30 36 31 37 81 38 32 39 86 40 80 41 82 42 33 43 85 44
REMARK SMILES IDX 79 45 78 46 34 48 66 49 46 50 65 51 47 52 50 53 64 54 83 55
REMARK SMILES IDX 48 56 49 57 63 59 84 60 51 61 35 62 36 63 44 64 37 65 38 66
REMARK SMILES IDX 42 67 45 68 39 69 40 70 43 71 41 72 67 73 68 74 76 75 69 76
REMARK SMILES IDX 70 77 74 78 77 79 71 80 72 81 75 82 73 83 52 84 53 85 61 86
REMARK SMILES IDX 54 87 55 88 59 89 62 90 56 91 57 92 60 93 58 94
REMARK H PARENT 16 7 23 28 82 47 50 58
REMARK Flexibility Score: inf
ROOT
ATOM      1  C   UNL     1      -5.260   2.121   8.070  1.00  0.00     0.002 C 
ENDROOT
BRANCH   1   2
ATOM      2  C   UNL     1      -4.202   2.146   6.968  1.00  0.00     0.021 C 
BRANCH   2   3
ATOM      3  C   UNL     1      -4.623   1.515   5.640  1.00  0.00     0.116 C 
BRANCH   3   4
ATOM      4  N   UNL     1      -4.958   2.505   4.640  1.00  0.00    -0.356 N 
ATOM      5  C   UNL     1      -4.360   2.856   3.475  1.00  0.00     0.224 C 
ATOM      6  O   UNL     1      -4.913   3.758   2.834  1.00  0.00    -0.275 OA
ATOM      7  H   UNL     1      -5.773   3.018   4.843  1.00  0.00     0.163 HD
BRANCH   5   8
ATOM      8  C   UNL     1      -3.052   2.251   2.942  1.00  0.00     0.099 C 
BRANCH   8   9
ATOM      9  C   UNL     1      -3.044   0.717   2.710  1.00  0.00     0.142 C 
BRANCH   9  10
ATOM     10  N   UNL     1      -2.044  -0.061   3.419  1.00  0.00    -0.274 N 
ATOM     11  C   UNL     1       1.408  -0.890   4.352  1.00  0.00     0.051 C 
ATOM     12  C   UNL     1      -0.059  -0.897   4.154  1.00  0.00     0.023 C 
ATOM     13  C   UNL     1      -1.017  -1.401   4.941  1.00  0.00     0.023 C 
ATOM     14  C   UNL     1      -0.727  -0.122   3.094  1.00  0.00     0.256 C 
ATOM     15  C   UNL     1      -0.908  -2.127   6.226  1.00  0.00     0.051 C 
ATOM     16  C   UNL     1      -2.311  -0.976   4.386  1.00  0.00     0.256 C 
ATOM     17  O   UNL     1      -0.157   0.370   2.137  1.00  0.00    -0.269 OA
ATOM     18  O   UNL     1      -3.391  -1.367   4.790  1.00  0.00    -0.269 OA
ENDBRANCH   9  10
ENDBRANCH   8   9
BRANCH   8  19
ATOM     19  C   UNL     1      -1.780   3.018   3.388  1.00  0.00     0.018 C 
BRANCH  19  20
ATOM     20  C   UNL     1      -1.513   3.315   4.876  1.00  0.00    -0.017 C 
ATOM     21  C   UNL     1      -1.028   2.119   5.684  1.00  0.00     0.007 C 
ATOM     22  C   UNL     1      -0.440   4.407   5.003  1.00  0.00     0.007 C 
ENDBRANCH  19  20
ENDBRANCH   8  19
ENDBRANCH   5   8
ENDBRANCH   3   4
ENDBRANCH   2   3
ENDBRANCH   1   2
BRANCH   1  23
ATOM     23  C   UNL     1      -5.661   0.730   8.574  1.00  0.00     0.002 C 
BRANCH  23  24
ATOM     24  C   UNL     1      -4.515  -0.200   8.988  1.00  0.00     0.021 C 
BRANCH  24  25
ATOM     25  C   UNL     1      -3.531   0.369  10.009  1.00  0.00     0.116 C 
BRANCH  25  26
ATOM     26  N   UNL     1      -4.180   0.760  11.248  1.00  0.00    -0.352 N 
ATOM     27  C   UNL     1      -4.061   0.252  12.516  1.00  0.00     0.251 C 
ATOM     28  H   UNL     1      -4.807   1.514  11.164  1.00  0.00     0.163 HD
ATOM     29  O   UNL     1      -4.851   0.600  13.389  1.00  0.00    -0.269 OA
BRANCH  27  30
ATOM     30  C   UNL     1      -2.998  -0.722  12.848  1.00  0.00     0.039 A 
ATOM     31  C   UNL     1      -3.324  -1.820  13.650  1.00  0.00     0.014 A 
ATOM     32  C   UNL     1      -1.677  -0.528  12.433  1.00  0.00     0.014 A 
ATOM     33  C   UNL     1      -2.340  -2.751  13.993  1.00  0.00     0.010 A 
ATOM     34  C   UNL     1      -0.709  -1.488  12.725  1.00  0.00     0.010 A 
ATOM     35  C   UNL     1      -1.029  -2.606  13.512  1.00  0.00    -0.014 A 
BRANCH  35  36
ATOM     36  C   UNL     1       0.014  -3.617  13.820  1.00  0.00     0.031 A 
ATOM     37  C   UNL     1       1.198  -3.257  14.671  1.00  0.00     0.074 A 
ATOM     38  C   UNL     1      -0.071  -4.843  13.270  1.00  0.00     0.049 A 
ATOM     39  N   UNL     1       2.235  -3.986  14.999  1.00  0.00    -0.248 NA
ATOM     40  C   UNL     1       1.236  -1.886  15.200  1.00  0.00     0.031 C 
ATOM     41  C   UNL     1      -1.138  -5.293  12.376  1.00  0.00     0.029 A 
ATOM     42  N   UNL     1       0.765  -5.927  13.366  1.00  0.00    -0.354 N 
ATOM     43  C   UNL     1       3.058  -3.158  15.751  1.00  0.00     0.074 A 
ATOM     44  C   UNL     1       2.420  -1.859  15.796  1.00  0.00     0.031 C 
ATOM     45  C   UNL     1      -0.897  -6.562  12.011  1.00  0.00     0.029 A 
ATOM     46  C   UNL     1       0.353  -7.005  12.622  1.00  0.00     0.049 A 
ATOM     47  H   UNL     1       1.582  -5.932  13.915  1.00  0.00     0.167 HD
ATOM     48  C   UNL     1       4.229  -3.459  16.363  1.00  0.00     0.037 A 
ATOM     49  C   UNL     1       0.922  -8.212  12.444  1.00  0.00     0.037 A 
ATOM     50  C   UNL     1       4.841  -4.762  16.345  1.00  0.00     0.049 A 
ATOM     51  C   UNL     1       2.202  -8.536  13.162  1.00  0.00     0.074 A 
ATOM     52  C   UNL     1       5.973  -5.194  17.014  1.00  0.00     0.029 A 
ATOM     53  N   UNL     1       4.375  -5.844  15.612  1.00  0.00    -0.354 N 
ATOM     54  N   UNL     1       2.925  -7.773  13.945  1.00  0.00    -0.248 NA
ATOM     55  C   UNL     1       2.739  -9.892  12.981  1.00  0.00     0.031 C 
ATOM     56  C   UNL     1       6.218  -6.523  16.649  1.00  0.00     0.029 A 
ATOM     57  C   UNL     1       5.213  -6.934  15.788  1.00  0.00     0.049 A 
ATOM     58  H   UNL     1       3.567  -5.838  15.049  1.00  0.00     0.167 HD
ATOM     59  C   UNL     1       3.993  -8.557  14.362  1.00  0.00     0.074 A 
ATOM     60  C   UNL     1       3.812  -9.862  13.760  1.00  0.00     0.031 C 
ATOM     61  C   UNL     1       5.028  -8.223  15.172  1.00  0.00     0.037 A 
BRANCH  48  62
ATOM     62  C   UNL     1       4.929  -2.354  17.099  1.00  0.00     0.064 A 
ATOM     63  C   UNL     1       4.418  -1.818  18.291  1.00  0.00     0.173 A 
ATOM     64  C   UNL     1       6.140  -1.836  16.615  1.00  0.00     0.173 A 
ATOM     65  F   UNL     1       3.259  -2.271  18.792  1.00  0.00    -0.203 F 
ATOM     66  C   UNL     1       5.072  -0.780  18.950  1.00  0.00     0.198 A 
ATOM     67  C   UNL     1       6.808  -0.818  17.293  1.00  0.00     0.198 A 
ATOM     68  F   UNL     1       6.678  -2.316  15.484  1.00  0.00    -0.203 F 
ATOM     69  F   UNL     1       4.535  -0.246  20.056  1.00  0.00    -0.200 F 
ATOM     70  C   UNL     1       6.268  -0.284  18.453  1.00  0.00     0.200 A 
ATOM     71  F   UNL     1       7.970  -0.348  16.818  1.00  0.00    -0.200 F 
ATOM     72  F   UNL     1       6.896   0.715  19.088  1.00  0.00    -0.200 F 
ENDBRANCH  48  62
BRANCH  49  73
ATOM     73  C   UNL     1       0.260  -9.207  11.563  1.00  0.00     0.064 A 
ATOM     74  C   UNL     1      -0.391 -10.325  12.100  1.00  0.00     0.173 A 
ATOM     75  C   UNL     1       0.234  -9.038  10.171  1.00  0.00     0.173 A 
ATOM     76  F   UNL     1      -0.376 -10.536  13.424  1.00  0.00    -0.203 F 
ATOM     77  C   UNL     1      -1.039 -11.243  11.276  1.00  0.00     0.198 A 
ATOM     78  C   UNL     1      -0.434  -9.944   9.350  1.00  0.00     0.198 A 
ATOM     79  F   UNL     1       0.837  -7.979   9.611  1.00  0.00    -0.203 F 
ATOM     80  F   UNL     1      -1.631 -12.319  11.812  1.00  0.00    -0.200 F 
ATOM     81  C   UNL     1      -1.067 -11.047   9.903  1.00  0.00     0.200 A 
ATOM     82  F   UNL     1      -0.473  -9.743   8.026  1.00  0.00    -0.200 F 
ATOM     83  F   UNL     1      -1.703 -11.923   9.113  1.00  0.00    -0.200 F 
ENDBRANCH  49  73
BRANCH  61  84
ATOM     84  C   UNL     1       6.044  -9.290  15.459  1.00  0.00     0.064 A 
ATOM     85  C   UNL     1       6.965  -9.704  14.486  1.00  0.00     0.173 A 
ATOM     86  C   UNL     1       6.121  -9.877  16.730  1.00  0.00     0.173 A 
ATOM     87  F   UNL     1       6.922  -9.184  13.250  1.00  0.00    -0.203 F 
ATOM     88  C   UNL     1       7.913 -10.684  14.770  1.00  0.00     0.198 A 
ATOM     89  C   UNL     1       7.087 -10.837  17.019  1.00  0.00     0.198 A 
ATOM     90  F   UNL     1       5.265  -9.512  17.697  1.00  0.00    -0.203 F 
ATOM     91  F   UNL     1       8.756 -11.096  13.812  1.00  0.00    -0.200 F 
ATOM     92  C   UNL     1       7.978 -11.244  16.037  1.00  0.00     0.200 A 
ATOM     93  F   UNL     1       7.155 -11.369  18.247  1.00  0.00    -0.200 F 
ATOM     94  F   UNL     1       8.895 -12.183  16.310  1.00  0.00    -0.200 F 
ENDBRANCH  61  84
ENDBRANCH  35  36
ENDBRANCH  27  30
ENDBRANCH  25  26
ENDBRANCH  24  25
ENDBRANCH  23  24
ENDBRANCH   1  23
TORSDOF 17
