REMARK SMILES CCn1cnc(S(=O)(=O)N2CCC(C)(C(=O)NCCCCCCNC(=O)c3ccc(-c4c5nc(c(-c6c(F)c(F)c(F)c(F)c6F)c6ccc([nH]6)c(-c6c(F)c(F)c(F)c(F)c6F)c6nc(c(-c7c(F)c(F)c(F)c(F)c7F)c7ccc4[nH]7)C=C6)C=C5)cc3)CC2)c1
REMARK SMILES IDX 20 1 19 2 18 3 17 4 15 5 16 6 13 8 10 9 11 10 91 11 12 12
REMARK SMILES IDX 90 13 14 14 7 15 8 16 9 17 6 18 3 19 4 20 92 21 5 22 2 23
REMARK SMILES IDX 1 24 21 25 22 26 23 27 24 28 25 29 26 31 27 32 28 33 89 34
REMARK SMILES IDX 29 35 88 36 30 37 31 38 32 39 82 40 33 41 87 42 81 43 83 44
REMARK SMILES IDX 34 45 86 46 80 47 79 48 35 50 67 51 47 52 66 53 48 54 51 55
REMARK SMILES IDX 65 56 84 57 49 58 50 59 64 61 85 62 52 63 36 64 37 65 45 66
REMARK SMILES IDX 38 67 39 68 43 69 46 70 40 71 41 72 44 73 42 74 68 75 69 76
REMARK SMILES IDX 77 77 70 78 71 79 75 80 78 81 72 82 73 83 76 84 74 85 53 86
REMARK SMILES IDX 54 87 62 88 55 89 56 90 60 91 63 92 57 93 58 94 61 95 59 96
REMARK H PARENT 17 7 24 30 83 49 51 60
REMARK Flexibility Score: inf
ROOT
ATOM      1  C   UNL     1      -5.263  -3.229   0.672  1.00  0.00     0.002 C 
ENDROOT
BRANCH   1   2
ATOM      2  C   UNL     1      -4.294  -2.648  -0.358  1.00  0.00     0.021 C 
BRANCH   2   3
ATOM      3  C   UNL     1      -2.925  -2.355   0.242  1.00  0.00     0.116 C 
BRANCH   3   4
ATOM      4  N   UNL     1      -2.229  -3.601   0.548  1.00  0.00    -0.356 N 
ATOM      5  C   UNL     1      -1.037  -4.098   0.099  1.00  0.00     0.226 C 
ATOM      6  O   UNL     1      -0.728  -5.241   0.435  1.00  0.00    -0.275 OA
ATOM      7  H   UNL     1      -2.698  -4.184   1.188  1.00  0.00     0.163 HD
BRANCH   5   8
ATOM      8  C   UNL     1      -0.124  -3.220  -0.767  1.00  0.00     0.049 C 
ATOM      9  N   UNL     1       0.794  -4.044  -3.414  1.00  0.00    -0.196 NA
ATOM     10  C   UNL     1      -0.637  -3.893  -3.216  1.00  0.00     0.103 C 
ATOM     11  C   UNL     1       1.457  -4.697  -2.287  1.00  0.00     0.103 C 
ATOM     12  C   UNL     1      -0.869  -2.892  -2.100  1.00  0.00     0.033 C 
ATOM     13  C   UNL     1       1.266  -3.909  -0.998  1.00  0.00     0.033 C 
ATOM     14  C   UNL     1       0.166  -1.952   0.091  1.00  0.00     0.022 C 
BRANCH   9  15
ATOM     15  S   UNL     1       1.607  -3.120  -4.576  1.00  0.00     0.262 S 
ATOM     16  O   UNL     1       0.768  -3.095  -5.754  1.00  0.00    -0.205 OA
ATOM     17  O   UNL     1       2.990  -3.556  -4.621  1.00  0.00    -0.205 OA
BRANCH  15  18
ATOM     18  C   UNL     1       1.714  -1.426  -4.101  1.00  0.00     0.188 A 
ATOM     19  N   UNL     1       1.628   0.419  -2.919  1.00  0.00    -0.336 N 
ATOM     20  C   UNL     1       1.615   0.726  -4.250  1.00  0.00     0.201 A 
ATOM     21  C   UNL     1       1.855  -0.927  -2.823  1.00  0.00     0.129 A 
ATOM     22  N   UNL     1       1.623  -0.361  -4.991  1.00  0.00    -0.224 NA
BRANCH  19  23
ATOM     23  C   UNL     1       1.189   1.297  -1.851  1.00  0.00     0.120 C 
ATOM     24  C   UNL     1       1.999   1.238  -0.564  1.00  0.00     0.027 C 
ENDBRANCH  19  23
ENDBRANCH  15  18
ENDBRANCH   9  15
ENDBRANCH   5   8
ENDBRANCH   3   4
ENDBRANCH   2   3
ENDBRANCH   1   2
BRANCH   1  25
ATOM     25  C   UNL     1      -5.420  -2.383   1.945  1.00  0.00     0.002 C 
BRANCH  25  26
ATOM     26  C   UNL     1      -5.777  -0.905   1.719  1.00  0.00     0.021 C 
BRANCH  26  27
ATOM     27  C   UNL     1      -7.087  -0.717   0.974  1.00  0.00     0.116 C 
BRANCH  27  28
ATOM     28  N   UNL     1      -8.210  -1.290   1.706  1.00  0.00    -0.352 N 
ATOM     29  C   UNL     1      -9.530  -1.369   1.327  1.00  0.00     0.251 C 
ATOM     30  H   UNL     1      -7.996  -1.671   2.589  1.00  0.00     0.163 HD
ATOM     31  O   UNL     1     -10.414  -1.553   2.155  1.00  0.00    -0.269 OA
BRANCH  29  32
ATOM     32  C   UNL     1      -9.863  -1.225  -0.097  1.00  0.00     0.039 A 
ATOM     33  C   UNL     1     -10.970  -0.474  -0.497  1.00  0.00     0.014 A 
ATOM     34  C   UNL     1      -9.036  -1.839  -1.036  1.00  0.00     0.014 A 
ATOM     35  C   UNL     1     -11.196  -0.294  -1.856  1.00  0.00     0.010 A 
ATOM     36  C   UNL     1      -9.168  -1.532  -2.366  1.00  0.00     0.010 A 
ATOM     37  C   UNL     1     -10.278  -0.811  -2.786  1.00  0.00    -0.014 A 
BRANCH  37  38
ATOM     38  C   UNL     1     -10.417  -0.506  -4.204  1.00  0.00     0.031 A 
ATOM     39  C   UNL     1     -10.519   0.947  -4.511  1.00  0.00     0.074 A 
ATOM     40  C   UNL     1     -10.274  -1.432  -5.177  1.00  0.00     0.049 A 
ATOM     41  N   UNL     1     -11.524   1.574  -5.026  1.00  0.00    -0.248 NA
ATOM     42  C   UNL     1      -9.425   1.832  -4.077  1.00  0.00     0.031 C 
ATOM     43  C   UNL     1      -9.869  -2.837  -5.061  1.00  0.00     0.029 A 
ATOM     44  N   UNL     1     -10.387  -1.270  -6.522  1.00  0.00    -0.354 N 
ATOM     45  C   UNL     1     -11.131   2.904  -5.147  1.00  0.00     0.074 A 
ATOM     46  C   UNL     1      -9.900   3.033  -4.412  1.00  0.00     0.031 C 
ATOM     47  C   UNL     1      -9.549  -3.322  -6.282  1.00  0.00     0.029 A 
ATOM     48  C   UNL     1      -9.893  -2.326  -7.278  1.00  0.00     0.049 A 
ATOM     49  H   UNL     1     -10.786  -0.467  -6.929  1.00  0.00     0.167 HD
ATOM     50  C   UNL     1     -11.743   3.738  -6.033  1.00  0.00     0.037 A 
ATOM     51  C   UNL     1      -9.759  -2.361  -8.627  1.00  0.00     0.037 A 
ATOM     52  C   UNL     1     -13.025   3.220  -6.436  1.00  0.00     0.049 A 
ATOM     53  C   UNL     1     -10.654  -1.314  -9.183  1.00  0.00     0.074 A 
ATOM     54  C   UNL     1     -14.188   2.901  -5.759  1.00  0.00     0.029 A 
ATOM     55  N   UNL     1     -13.115   2.571  -7.643  1.00  0.00    -0.354 N 
ATOM     56  N   UNL     1     -11.956  -1.372  -9.122  1.00  0.00    -0.248 NA
ATOM     57  C   UNL     1     -10.093   0.015  -9.368  1.00  0.00     0.031 C 
ATOM     58  C   UNL     1     -14.642   1.690  -6.362  1.00  0.00     0.029 A 
ATOM     59  C   UNL     1     -13.783   1.392  -7.420  1.00  0.00     0.049 A 
ATOM     60  H   UNL     1     -12.766   2.890  -8.506  1.00  0.00     0.167 HD
ATOM     61  C   UNL     1     -12.351  -0.077  -8.822  1.00  0.00     0.074 A 
ATOM     62  C   UNL     1     -11.166   0.747  -9.056  1.00  0.00     0.031 C 
ATOM     63  C   UNL     1     -13.505   0.168  -8.135  1.00  0.00     0.037 A 
BRANCH  50  64
ATOM     64  C   UNL     1     -11.034   4.831  -6.791  1.00  0.00     0.064 A 
ATOM     65  C   UNL     1     -11.785   5.744  -7.558  1.00  0.00     0.173 A 
ATOM     66  C   UNL     1      -9.642   4.839  -7.027  1.00  0.00     0.173 A 
ATOM     67  F   UNL     1     -13.119   5.802  -7.437  1.00  0.00    -0.203 F 
ATOM     68  C   UNL     1     -11.191   6.554  -8.531  1.00  0.00     0.198 A 
ATOM     69  C   UNL     1      -9.047   5.686  -7.960  1.00  0.00     0.198 A 
ATOM     70  F   UNL     1      -8.818   3.954  -6.454  1.00  0.00    -0.203 F 
ATOM     71  F   UNL     1     -11.959   7.319  -9.318  1.00  0.00    -0.200 F 
ATOM     72  C   UNL     1      -9.823   6.522  -8.733  1.00  0.00     0.200 A 
ATOM     73  F   UNL     1      -7.722   5.623  -8.155  1.00  0.00    -0.200 F 
ATOM     74  F   UNL     1      -9.259   7.255  -9.701  1.00  0.00    -0.200 F 
ENDBRANCH  50  64
BRANCH  51  75
ATOM     75  C   UNL     1      -8.687  -2.996  -9.429  1.00  0.00     0.064 A 
ATOM     76  C   UNL     1      -8.837  -3.198 -10.811  1.00  0.00     0.173 A 
ATOM     77  C   UNL     1      -7.385  -3.148  -8.912  1.00  0.00     0.173 A 
ATOM     78  F   UNL     1     -10.034  -3.028 -11.390  1.00  0.00    -0.203 F 
ATOM     79  C   UNL     1      -7.745  -3.505 -11.631  1.00  0.00     0.198 A 
ATOM     80  C   UNL     1      -6.298  -3.459  -9.731  1.00  0.00     0.198 A 
ATOM     81  F   UNL     1      -7.126  -2.901  -7.620  1.00  0.00    -0.203 F 
ATOM     82  F   UNL     1      -7.917  -3.627 -12.955  1.00  0.00    -0.200 F 
ATOM     83  C   UNL     1      -6.475  -3.623 -11.092  1.00  0.00     0.200 A 
ATOM     84  F   UNL     1      -5.068  -3.532  -9.201  1.00  0.00    -0.200 F 
ATOM     85  F   UNL     1      -5.419  -3.852 -11.886  1.00  0.00    -0.200 F 
ENDBRANCH  51  75
BRANCH  63  86
ATOM     86  C   UNL     1     -14.453  -0.982  -7.915  1.00  0.00     0.064 A 
ATOM     87  C   UNL     1     -14.138  -2.142  -7.185  1.00  0.00     0.173 A 
ATOM     88  C   UNL     1     -15.781  -0.837  -8.340  1.00  0.00     0.173 A 
ATOM     89  F   UNL     1     -12.922  -2.316  -6.655  1.00  0.00    -0.203 F 
ATOM     90  C   UNL     1     -15.094  -3.127  -6.935  1.00  0.00     0.198 A 
ATOM     91  C   UNL     1     -16.743  -1.802  -8.056  1.00  0.00     0.198 A 
ATOM     92  F   UNL     1     -16.159   0.273  -8.993  1.00  0.00    -0.203 F 
ATOM     93  F   UNL     1     -14.761  -4.229  -6.246  1.00  0.00    -0.200 F 
ATOM     94  C   UNL     1     -16.398  -2.952  -7.364  1.00  0.00     0.200 A 
ATOM     95  F   UNL     1     -18.014  -1.604  -8.431  1.00  0.00    -0.200 F 
ATOM     96  F   UNL     1     -17.328  -3.877  -7.089  1.00  0.00    -0.200 F 
ENDBRANCH  63  86
ENDBRANCH  37  38
ENDBRANCH  29  32
ENDBRANCH  27  28
ENDBRANCH  26  27
ENDBRANCH  25  26
ENDBRANCH   1  25
TORSDOF 16
