REMARK SMILES C[C@](Nc1ccc(S(N)(=O)=O)cc1)(C(=O)NCCCCCCNC(=O)c1ccc(-c2c3nc(c(-c4c(F)c(F)c(F)c(F)c4F)c4ccc([nH]4)c(-c4c(F)c(F)c(F)c(F)c4F)c4nc(c(-c5c(F)c(F)c(F)c(F)c5F)c5ccc2[nH]5)C=C4)C=C3)cc1)C(F)(F)F
REMARK SMILES IDX 18 1 17 2 16 3 14 4 15 5 2 7 1 8 89 9 90 10 91 11 92 12 3 13
REMARK SMILES IDX 4 15 5 16 13 17 6 18 12 19 7 20 8 21 10 22 11 23 9 24 19 27
REMARK SMILES IDX 20 28 21 29 22 30 23 31 24 32 25 34 26 35 27 36 88 37 28 38
REMARK SMILES IDX 87 39 29 40 30 41 31 42 81 43 32 44 86 45 80 46 82 47 33 48
REMARK SMILES IDX 85 49 79 50 78 51 34 53 66 54 46 55 65 56 47 57 50 58 64 59
REMARK SMILES IDX 83 60 48 61 49 62 63 64 84 65 51 66 35 67 36 68 44 69 37 70
REMARK SMILES IDX 38 71 42 72 45 73 39 74 40 75 43 76 41 77 67 78 68 79 76 80
REMARK SMILES IDX 69 81 70 82 74 83 77 84 71 85 72 86 75 87 73 88 52 89 53 90
REMARK SMILES IDX 61 91 54 92 55 93 59 94 62 95 56 96 57 97 60 98 58 99
REMARK H PARENT 16 6 3 14 9 25 9 26 23 33 82 52 50 63
REMARK Flexibility Score: inf
ROOT
ATOM      1  C   UNL     1      -1.527   0.015   2.495  1.00  0.00     0.021 C 
ENDROOT
BRANCH   1   2
ATOM      2  C   UNL     1      -0.965  -1.227   1.803  1.00  0.00     0.116 C 
BRANCH   2   3
ATOM      3  N   UNL     1      -1.536  -1.366   0.477  1.00  0.00    -0.354 N 
ATOM      4  C   UNL     1      -0.973  -1.349  -0.765  1.00  0.00     0.254 C 
ATOM      5  O   UNL     1      -1.782  -1.328  -1.696  1.00  0.00    -0.272 OA
ATOM      6  H   UNL     1      -2.512  -1.496   0.473  1.00  0.00     0.163 HD
BRANCH   4   7
ATOM      7  C   UNL     1       0.567  -1.392  -0.972  1.00  0.00     0.210 C 
ATOM      8  C   UNL     1       1.066  -2.743  -0.427  1.00  0.00     0.055 C 
BRANCH   7   9
ATOM      9  C   UNL     1       0.752  -1.340  -2.513  1.00  0.00     0.420 C 
ATOM     10  F   UNL     1       0.311  -0.176  -3.047  1.00  0.00    -0.168 F 
ATOM     11  F   UNL     1       2.054  -1.454  -2.875  1.00  0.00    -0.168 F 
ATOM     12  F   UNL     1       0.120  -2.362  -3.141  1.00  0.00    -0.168 F 
ENDBRANCH   7   9
BRANCH   7  13
ATOM     13  N   UNL     1       1.184  -0.239  -0.226  1.00  0.00    -0.364 N 
ATOM     14  H   UNL     1       0.574   0.500  -0.002  1.00  0.00     0.161 HD
BRANCH  13  15
ATOM     15  C   UNL     1       2.491  -0.083   0.185  1.00  0.00     0.035 A 
ATOM     16  C   UNL     1       2.746   0.643   1.361  1.00  0.00     0.027 A 
ATOM     17  C   UNL     1       3.587  -0.678  -0.444  1.00  0.00     0.027 A 
ATOM     18  C   UNL     1       4.041   0.773   1.884  1.00  0.00     0.024 A 
ATOM     19  C   UNL     1       4.890  -0.536   0.046  1.00  0.00     0.024 A 
ATOM     20  C   UNL     1       5.111   0.188   1.212  1.00  0.00     0.082 A 
BRANCH  20  21
ATOM     21  S   UNL     1       6.752   0.331   1.851  1.00  0.00     0.238 S 
ATOM     22  O   UNL     1       6.727   0.001   3.259  1.00  0.00    -0.207 OA
ATOM     23  O   UNL     1       7.682  -0.269   0.928  1.00  0.00    -0.207 OA
BRANCH  21  24
ATOM     24  N   UNL     1       7.034   1.983   1.758  1.00  0.00    -0.225 NA
ATOM     25  H   UNL     1       6.402   2.472   2.393  1.00  0.00     0.137 HD
ATOM     26  H   UNL     1       6.871   2.303   0.803  1.00  0.00     0.137 HD
ENDBRANCH  21  24
ENDBRANCH  20  21
ENDBRANCH  13  15
ENDBRANCH   7  13
ENDBRANCH   4   7
ENDBRANCH   2   3
ENDBRANCH   1   2
BRANCH   1  27
ATOM     27  C   UNL     1      -3.042  -0.029   2.742  1.00  0.00     0.002 C 
BRANCH  27  28
ATOM     28  C   UNL     1      -3.535  -1.237   3.546  1.00  0.00     0.002 C 
BRANCH  28  29
ATOM     29  C   UNL     1      -2.849  -1.435   4.898  1.00  0.00     0.021 C 
BRANCH  29  30
ATOM     30  C   UNL     1      -2.948  -0.240   5.839  1.00  0.00     0.116 C 
BRANCH  30  31
ATOM     31  N   UNL     1      -4.320   0.048   6.223  1.00  0.00    -0.352 N 
ATOM     32  C   UNL     1      -4.853   0.213   7.477  1.00  0.00     0.251 C 
ATOM     33  H   UNL     1      -4.957   0.138   5.478  1.00  0.00     0.163 HD
ATOM     34  O   UNL     1      -6.068   0.273   7.631  1.00  0.00    -0.269 OA
BRANCH  32  35
ATOM     35  C   UNL     1      -3.957   0.293   8.649  1.00  0.00     0.039 A 
ATOM     36  C   UNL     1      -4.276  -0.440   9.794  1.00  0.00     0.014 A 
ATOM     37  C   UNL     1      -2.806   1.086   8.619  1.00  0.00     0.014 A 
ATOM     38  C   UNL     1      -3.409  -0.425  10.889  1.00  0.00     0.010 A 
ATOM     39  C   UNL     1      -1.906   1.040   9.680  1.00  0.00     0.010 A 
ATOM     40  C   UNL     1      -2.200   0.287  10.827  1.00  0.00    -0.014 A 
BRANCH  40  41
ATOM     41  C   UNL     1      -1.232   0.257  11.953  1.00  0.00     0.031 A 
ATOM     42  C   UNL     1      -0.905   1.518  12.703  1.00  0.00     0.074 A 
ATOM     43  C   UNL     1      -0.603  -0.894  12.259  1.00  0.00     0.049 A 
ATOM     44  N   UNL     1      -0.043   1.707  13.671  1.00  0.00    -0.248 NA
ATOM     45  C   UNL     1      -1.621   2.735  12.292  1.00  0.00     0.031 C 
ATOM     46  C   UNL     1      -0.802  -2.174  11.577  1.00  0.00     0.029 A 
ATOM     47  N   UNL     1       0.339  -1.173  13.218  1.00  0.00    -0.354 N 
ATOM     48  C   UNL     1      -0.107   3.060  13.974  1.00  0.00     0.074 A 
ATOM     49  C   UNL     1      -1.046   3.657  13.050  1.00  0.00     0.031 C 
ATOM     50  C   UNL     1      -0.027  -3.105  12.155  1.00  0.00     0.029 A 
ATOM     51  C   UNL     1       0.754  -2.482  13.218  1.00  0.00     0.049 A 
ATOM     52  H   UNL     1       0.684  -0.498  13.847  1.00  0.00     0.167 HD
ATOM     53  C   UNL     1       0.541   3.739  14.951  1.00  0.00     0.037 A 
ATOM     54  C   UNL     1       1.669  -3.106  13.985  1.00  0.00     0.037 A 
ATOM     55  C   UNL     1       1.461   3.136  15.881  1.00  0.00     0.049 A 
ATOM     56  C   UNL     1       2.391  -2.324  15.049  1.00  0.00     0.074 A 
ATOM     57  C   UNL     1       2.125   3.725  16.942  1.00  0.00     0.029 A 
ATOM     58  N   UNL     1       1.852   1.805  15.854  1.00  0.00    -0.354 N 
ATOM     59  N   UNL     1       2.269  -1.060  15.376  1.00  0.00    -0.248 NA
ATOM     60  C   UNL     1       3.374  -3.059  15.857  1.00  0.00     0.031 C 
ATOM     61  C   UNL     1       2.959   2.765  17.524  1.00  0.00     0.029 A 
ATOM     62  C   UNL     1       2.770   1.561  16.864  1.00  0.00     0.049 A 
ATOM     63  H   UNL     1       1.526   1.133  15.213  1.00  0.00     0.167 HD
ATOM     64  C   UNL     1       3.132  -0.856  16.444  1.00  0.00     0.074 A 
ATOM     65  C   UNL     1       3.761  -2.131  16.720  1.00  0.00     0.031 C 
ATOM     66  C   UNL     1       3.381   0.284  17.133  1.00  0.00     0.037 A 
BRANCH  53  67
ATOM     67  C   UNL     1       0.278   5.214  15.064  1.00  0.00     0.064 A 
ATOM     68  C   UNL     1      -0.966   5.712  15.482  1.00  0.00     0.173 A 
ATOM     69  C   UNL     1       1.292   6.142  14.782  1.00  0.00     0.173 A 
ATOM     70  F   UNL     1      -1.974   4.869  15.754  1.00  0.00    -0.203 F 
ATOM     71  C   UNL     1      -1.195   7.082  15.579  1.00  0.00     0.198 A 
ATOM     72  C   UNL     1       1.070   7.510  14.913  1.00  0.00     0.198 A 
ATOM     73  F   UNL     1       2.503   5.722  14.385  1.00  0.00    -0.203 F 
ATOM     74  F   UNL     1      -2.408   7.534  15.925  1.00  0.00    -0.200 F 
ATOM     75  C   UNL     1      -0.175   7.980  15.302  1.00  0.00     0.200 A 
ATOM     76  F   UNL     1       2.062   8.376  14.659  1.00  0.00    -0.200 F 
ATOM     77  F   UNL     1      -0.395   9.298  15.402  1.00  0.00    -0.200 F 
ENDBRANCH  53  67
BRANCH  54  78
ATOM     78  C   UNL     1       1.939  -4.555  13.791  1.00  0.00     0.064 A 
ATOM     79  C   UNL     1       1.576  -5.492  14.769  1.00  0.00     0.173 A 
ATOM     80  C   UNL     1       2.571  -5.034  12.634  1.00  0.00     0.173 A 
ATOM     81  F   UNL     1       0.986  -5.082  15.902  1.00  0.00    -0.203 F 
ATOM     82  C   UNL     1       1.856  -6.847  14.609  1.00  0.00     0.198 A 
ATOM     83  C   UNL     1       2.823  -6.393  12.461  1.00  0.00     0.198 A 
ATOM     84  F   UNL     1       2.934  -4.181  11.664  1.00  0.00    -0.203 F 
ATOM     85  F   UNL     1       1.543  -7.713  15.582  1.00  0.00    -0.200 F 
ATOM     86  C   UNL     1       2.474  -7.298  13.452  1.00  0.00     0.200 A 
ATOM     87  F   UNL     1       3.406  -6.826  11.334  1.00  0.00    -0.200 F 
ATOM     88  F   UNL     1       2.741  -8.601  13.297  1.00  0.00    -0.200 F 
ENDBRANCH  54  78
BRANCH  66  89
ATOM     89  C   UNL     1       4.345   0.199  18.282  1.00  0.00     0.064 A 
ATOM     90  C   UNL     1       5.721   0.013  18.081  1.00  0.00     0.173 A 
ATOM     91  C   UNL     1       3.888   0.343  19.602  1.00  0.00     0.173 A 
ATOM     92  F   UNL     1       6.207  -0.145  16.841  1.00  0.00    -0.203 F 
ATOM     93  C   UNL     1       6.599  -0.054  19.160  1.00  0.00     0.198 A 
ATOM     94  C   UNL     1       4.773   0.309  20.675  1.00  0.00     0.198 A 
ATOM     95  F   UNL     1       2.583   0.530  19.849  1.00  0.00    -0.203 F 
ATOM     96  F   UNL     1       7.902  -0.284  18.947  1.00  0.00    -0.200 F 
ATOM     97  C   UNL     1       6.126   0.103  20.454  1.00  0.00     0.200 A 
ATOM     98  F   UNL     1       4.317   0.477  21.924  1.00  0.00    -0.200 F 
ATOM     99  F   UNL     1       6.975   0.047  21.490  1.00  0.00    -0.200 F 
ENDBRANCH  66  89
ENDBRANCH  40  41
ENDBRANCH  32  35
ENDBRANCH  30  31
ENDBRANCH  29  30
ENDBRANCH  28  29
ENDBRANCH  27  28
ENDBRANCH   1  27
TORSDOF 18
