REMARK SMILES CCN(CC)c1ccc(NC(=O)c2ccc(OC)cc2)cc1C(=O)NCCCCCCNC(=O)c1ccc(-c2c3nc(c(-c4c(F)c(F)c(F)c(F)c4F)c4ccc([nH]4)c(-c4c(F)c(F)c(F)c(F)c4F)c4nc(c(-c5c(F)c(F)c(F)c(F)c5F)c5ccc2[nH]5)C=C4)C=C3)cc1
REMARK SMILES IDX 28 1 27 2 26 3 25 4 23 5 24 6 22 8 6 9 7 10 8 11 21 12 9 13
REMARK SMILES IDX 3 14 2 15 1 16 4 17 5 18 10 19 11 20 12 22 13 23 14 24 20 25
REMARK SMILES IDX 15 26 19 27 16 28 17 29 18 30 29 31 30 32 31 33 32 34 33 35
REMARK SMILES IDX 34 37 35 38 36 39 97 40 37 41 96 42 38 43 39 44 40 45 90 46
REMARK SMILES IDX 41 47 95 48 89 49 91 50 42 51 94 52 88 53 87 54 43 56 75 57
REMARK SMILES IDX 55 58 74 59 56 60 59 61 73 62 92 63 57 64 58 65 72 67 93 68
REMARK SMILES IDX 60 69 44 70 45 71 53 72 46 73 47 74 51 75 54 76 48 77 49 78
REMARK SMILES IDX 52 79 50 80 76 81 77 82 85 83 78 84 79 85 83 86 86 87 80 88
REMARK SMILES IDX 81 89 84 90 82 91 61 92 62 93 70 94 63 95 64 96 68 97 71 98
REMARK SMILES IDX 65 99 66 100 69 101 67 102
REMARK H PARENT 25 7 10 21 32 36 91 55 59 66
REMARK Flexibility Score: inf
ROOT
ATOM      1  C   UNL     1      -1.717   0.191  -1.687  1.00  0.00     0.002 C 
ENDROOT
BRANCH   1   2
ATOM      2  C   UNL     1      -1.005   1.549  -1.653  1.00  0.00     0.021 C 
BRANCH   2   3
ATOM      3  C   UNL     1       0.272   1.629  -0.829  1.00  0.00     0.116 C 
BRANCH   3   4
ATOM      4  N   UNL     1       1.420   0.868  -1.247  1.00  0.00    -0.352 N 
ATOM      5  C   UNL     1       2.683   0.844  -0.669  1.00  0.00     0.253 C 
ATOM      6  O   UNL     1       3.493   0.033  -1.125  1.00  0.00    -0.269 OA
ATOM      7  H   UNL     1       1.295   0.294  -2.038  1.00  0.00     0.163 HD
BRANCH   5   8
ATOM      8  C   UNL     1       3.148   1.808   0.400  1.00  0.00     0.065 A 
ATOM      9  C   UNL     1       2.375   2.380   1.436  1.00  0.00     0.050 A 
ATOM     10  C   UNL     1       2.921   3.512   2.050  1.00  0.00     0.029 A 
ATOM     11  C   UNL     1       4.195   3.979   1.783  1.00  0.00     0.028 A 
ATOM     12  C   UNL     1       4.529   2.171   0.300  1.00  0.00     0.042 A 
ATOM     13  C   UNL     1       5.077   3.199   1.076  1.00  0.00     0.042 A 
BRANCH   9  14
ATOM     14  N   UNL     1       1.151   1.925   1.921  1.00  0.00    -0.371 N 
BRANCH  14  15
ATOM     15  C   UNL     1       1.064   0.649   2.661  1.00  0.00     0.113 C 
ATOM     16  C   UNL     1       1.514  -0.593   1.904  1.00  0.00     0.027 C 
ENDBRANCH  14  15
BRANCH  14  17
ATOM     17  C   UNL     1       0.045   2.897   2.076  1.00  0.00     0.113 C 
ATOM     18  C   UNL     1      -0.030   3.635   3.401  1.00  0.00     0.027 C 
ENDBRANCH  14  17
ENDBRANCH   9  14
BRANCH  13  19
ATOM     19  N   UNL     1       6.473   3.396   1.136  1.00  0.00    -0.322 N 
ATOM     20  C   UNL     1       7.257   4.140   2.014  1.00  0.00     0.255 C 
ATOM     21  H   UNL     1       6.981   2.925   0.436  1.00  0.00     0.170 HD
ATOM     22  O   UNL     1       8.468   4.243   1.818  1.00  0.00    -0.269 OA
BRANCH  20  23
ATOM     23  C   UNL     1       6.685   4.833   3.199  1.00  0.00     0.040 A 
ATOM     24  C   UNL     1       6.783   6.226   3.261  1.00  0.00     0.017 A 
ATOM     25  C   UNL     1       5.966   4.143   4.186  1.00  0.00     0.017 A 
ATOM     26  C   UNL     1       6.061   6.930   4.231  1.00  0.00     0.047 A 
ATOM     27  C   UNL     1       5.221   4.858   5.139  1.00  0.00     0.047 A 
ATOM     28  C   UNL     1       5.238   6.255   5.139  1.00  0.00     0.118 A 
BRANCH  28  29
ATOM     29  O   UNL     1       4.512   7.063   5.970  1.00  0.00    -0.497 OA
ATOM     30  C   UNL     1       3.346   6.493   6.556  1.00  0.00     0.278 C 
ENDBRANCH  28  29
ENDBRANCH  20  23
ENDBRANCH  13  19
ENDBRANCH   5   8
ENDBRANCH   3   4
ENDBRANCH   2   3
ENDBRANCH   1   2
BRANCH   1  31
ATOM     31  C   UNL     1      -1.974  -0.553  -0.369  1.00  0.00     0.002 C 
BRANCH  31  32
ATOM     32  C   UNL     1      -2.752   0.150   0.745  1.00  0.00     0.021 C 
BRANCH  32  33
ATOM     33  C   UNL     1      -4.067   0.826   0.375  1.00  0.00     0.116 C 
BRANCH  33  34
ATOM     34  N   UNL     1      -5.008  -0.065  -0.272  1.00  0.00    -0.352 N 
ATOM     35  C   UNL     1      -6.363  -0.212  -0.116  1.00  0.00     0.251 C 
ATOM     36  H   UNL     1      -4.606  -0.667  -0.939  1.00  0.00     0.163 HD
ATOM     37  O   UNL     1      -6.935  -1.108  -0.731  1.00  0.00    -0.269 OA
BRANCH  35  38
ATOM     38  C   UNL     1      -7.151   0.653   0.800  1.00  0.00     0.039 A 
ATOM     39  C   UNL     1      -8.223   0.068   1.484  1.00  0.00     0.014 A 
ATOM     40  C   UNL     1      -6.903   2.018   0.963  1.00  0.00     0.014 A 
ATOM     41  C   UNL     1      -9.004   0.829   2.357  1.00  0.00     0.010 A 
ATOM     42  C   UNL     1      -7.638   2.764   1.893  1.00  0.00     0.010 A 
ATOM     43  C   UNL     1      -8.699   2.178   2.599  1.00  0.00    -0.014 A 
BRANCH  43  44
ATOM     44  C   UNL     1      -9.482   2.959   3.596  1.00  0.00     0.031 A 
ATOM     45  C   UNL     1     -10.321   4.136   3.172  1.00  0.00     0.074 A 
ATOM     46  C   UNL     1      -9.435   2.604   4.896  1.00  0.00     0.049 A 
ATOM     47  N   UNL     1     -11.084   4.913   3.902  1.00  0.00    -0.248 NA
ATOM     48  C   UNL     1     -10.288   4.501   1.748  1.00  0.00     0.031 C 
ATOM     49  C   UNL     1      -8.625   1.514   5.444  1.00  0.00     0.029 A 
ATOM     50  N   UNL     1     -10.084   3.115   5.994  1.00  0.00    -0.354 N 
ATOM     51  C   UNL     1     -11.627   5.846   3.027  1.00  0.00     0.074 A 
ATOM     52  C   UNL     1     -11.055   5.582   1.724  1.00  0.00     0.031 C 
ATOM     53  C   UNL     1      -8.853   1.414   6.763  1.00  0.00     0.029 A 
ATOM     54  C   UNL     1      -9.794   2.454   7.163  1.00  0.00     0.049 A 
ATOM     55  H   UNL     1     -10.699   3.882   5.947  1.00  0.00     0.167 HD
ATOM     56  C   UNL     1     -12.543   6.812   3.278  1.00  0.00     0.037 A 
ATOM     57  C   UNL     1     -10.238   2.662   8.418  1.00  0.00     0.037 A 
ATOM     58  C   UNL     1     -13.119   7.072   4.574  1.00  0.00     0.049 A 
ATOM     59  C   UNL     1     -11.236   3.762   8.668  1.00  0.00     0.074 A 
ATOM     60  C   UNL     1     -14.068   8.018   4.923  1.00  0.00     0.029 A 
ATOM     61  N   UNL     1     -12.801   6.381   5.733  1.00  0.00    -0.354 N 
ATOM     62  N   UNL     1     -11.787   4.593   7.817  1.00  0.00    -0.248 NA
ATOM     63  C   UNL     1     -11.684   3.943  10.056  1.00  0.00     0.031 C 
ATOM     64  C   UNL     1     -14.293   7.928   6.301  1.00  0.00     0.029 A 
ATOM     65  C   UNL     1     -13.525   6.889   6.801  1.00  0.00     0.049 A 
ATOM     66  H   UNL     1     -12.156   5.639   5.789  1.00  0.00     0.167 HD
ATOM     67  C   UNL     1     -12.668   5.369   8.559  1.00  0.00     0.074 A 
ATOM     68  C   UNL     1     -12.600   4.890   9.922  1.00  0.00     0.031 C 
ATOM     69  C   UNL     1     -13.456   6.394   8.151  1.00  0.00     0.037 A 
BRANCH  56  70
ATOM     70  C   UNL     1     -13.008   7.654   2.123  1.00  0.00     0.064 A 
ATOM     71  C   UNL     1     -13.828   7.120   1.117  1.00  0.00     0.173 A 
ATOM     72  C   UNL     1     -12.698   9.021   2.059  1.00  0.00     0.173 A 
ATOM     73  F   UNL     1     -14.146   5.817   1.126  1.00  0.00    -0.203 F 
ATOM     74  C   UNL     1     -14.306   7.919   0.082  1.00  0.00     0.198 A 
ATOM     75  C   UNL     1     -13.203   9.823   1.038  1.00  0.00     0.198 A 
ATOM     76  F   UNL     1     -11.924   9.585   2.998  1.00  0.00    -0.203 F 
ATOM     77  F   UNL     1     -15.059   7.378  -0.887  1.00  0.00    -0.200 F 
ATOM     78  C   UNL     1     -14.003   9.271   0.049  1.00  0.00     0.200 A 
ATOM     79  F   UNL     1     -12.921  11.133   1.016  1.00  0.00    -0.200 F 
ATOM     80  F   UNL     1     -14.479  10.043  -0.939  1.00  0.00    -0.200 F 
ENDBRANCH  56  70
BRANCH  57  81
ATOM     81  C   UNL     1      -9.758   1.811   9.542  1.00  0.00     0.064 A 
ATOM     82  C   UNL     1     -10.638   0.971  10.241  1.00  0.00     0.173 A 
ATOM     83  C   UNL     1      -8.427   1.865   9.979  1.00  0.00     0.173 A 
ATOM     84  F   UNL     1     -11.926   0.898   9.876  1.00  0.00    -0.203 F 
ATOM     85  C   UNL     1     -10.215   0.254  11.359  1.00  0.00     0.198 A 
ATOM     86  C   UNL     1      -7.996   1.118  11.074  1.00  0.00     0.198 A 
ATOM     87  F   UNL     1      -7.541   2.646   9.343  1.00  0.00    -0.203 F 
ATOM     88  F   UNL     1     -11.096  -0.479  12.054  1.00  0.00    -0.200 F 
ATOM     89  C   UNL     1      -8.894   0.327  11.773  1.00  0.00     0.200 A 
ATOM     90  F   UNL     1      -6.714   1.178  11.460  1.00  0.00    -0.200 F 
ATOM     91  F   UNL     1      -8.490  -0.354  12.855  1.00  0.00    -0.200 F 
ENDBRANCH  57  81
BRANCH  69  92
ATOM     92  C   UNL     1     -14.337   7.033   9.187  1.00  0.00     0.064 A 
ATOM     93  C   UNL     1     -13.807   7.799  10.237  1.00  0.00     0.173 A 
ATOM     94  C   UNL     1     -15.731   6.877   9.129  1.00  0.00     0.173 A 
ATOM     95  F   UNL     1     -12.480   7.968  10.346  1.00  0.00    -0.203 F 
ATOM     96  C   UNL     1     -14.634   8.346  11.214  1.00  0.00     0.198 A 
ATOM     97  C   UNL     1     -16.558   7.457  10.087  1.00  0.00     0.198 A 
ATOM     98  F   UNL     1     -16.292   6.163   8.142  1.00  0.00    -0.203 F 
ATOM     99  F   UNL     1     -14.099   9.012  12.246  1.00  0.00    -0.200 F 
ATOM    100  C   UNL     1     -16.009   8.178  11.136  1.00  0.00     0.200 A 
ATOM    101  F   UNL     1     -17.887   7.308  10.001  1.00  0.00    -0.200 F 
ATOM    102  F   UNL     1     -16.803   8.703  12.079  1.00  0.00    -0.200 F 
ENDBRANCH  69  92
ENDBRANCH  43  44
ENDBRANCH  35  38
ENDBRANCH  33  34
ENDBRANCH  32  33
ENDBRANCH  31  32
ENDBRANCH   1  31
TORSDOF 19
