REMARK SMILES O=C(NCCCCCCNC(=O)[C@@H]1CN(C(=O)[C@H]2CC=CCC2)c2ccccc2O1)c1ccc(-c2c3nc(c(-c4c(F)c(F)c(F)c(F)c4F)c4ccc([nH]4)c(-c4c(F)c(F)c(F)c(F)c4F)c4nc(c(-c5c(F)c(F)c(F)c(F)c5F)c5ccc2[nH]5)C=C4)C=C3)cc1
REMARK SMILES IDX 6 1 5 2 4 3 3 4 1 5 2 6 31 8 32 9 93 10 33 11 92 12 34 13
REMARK SMILES IDX 35 14 36 15 86 16 37 17 91 18 85 19 87 20 38 21 90 22 84 23
REMARK SMILES IDX 83 24 39 26 71 27 51 28 70 29 52 30 55 31 69 32 88 33 53 34
REMARK SMILES IDX 54 35 68 37 89 38 56 39 40 40 41 41 49 42 42 43 43 44 47 45
REMARK SMILES IDX 50 46 44 47 45 48 48 49 46 50 72 51 73 52 81 53 74 54 75 55
REMARK SMILES IDX 79 56 82 57 76 58 77 59 80 60 78 61 57 62 58 63 66 64 59 65
REMARK SMILES IDX 60 66 64 67 67 68 61 69 62 70 65 71 63 72 7 73 8 74 9 75
REMARK SMILES IDX 10 76 11 77 12 79 13 80 14 81 30 82 15 83 29 84 24 85 28 86
REMARK SMILES IDX 25 87 27 88 26 89 16 90 17 91 18 92 19 93 23 94 20 95 22 96
REMARK SMILES IDX 21 97
REMARK H PARENT 3 7 87 25 55 36 10 78
REMARK Flexibility Score: inf
ROOT
ATOM      1  C   UNL     1       3.563  -3.558  -1.638  1.00  0.00     0.002 C 
ENDROOT
BRANCH   1   2
ATOM      2  C   UNL     1       4.268  -2.558  -0.719  1.00  0.00     0.021 C 
BRANCH   2   3
ATOM      3  C   UNL     1       4.096  -1.085  -1.059  1.00  0.00     0.116 C 
BRANCH   3   4
ATOM      4  N   UNL     1       2.716  -0.642  -0.949  1.00  0.00    -0.352 N 
ATOM      5  O   UNL     1       0.886   0.292  -0.037  1.00  0.00    -0.269 OA
ATOM      6  C   UNL     1       2.110   0.203  -0.051  1.00  0.00     0.251 C 
ATOM      7  H   UNL     1       2.113  -1.010  -1.635  1.00  0.00     0.163 HD
BRANCH   6   8
ATOM      8  C   UNL     1       2.908   0.992   0.920  1.00  0.00     0.039 A 
ATOM      9  C   UNL     1       4.113   1.592   0.558  1.00  0.00     0.014 A 
ATOM     10  C   UNL     1       2.409   1.177   2.215  1.00  0.00     0.014 A 
ATOM     11  C   UNL     1       4.895   2.224   1.522  1.00  0.00     0.010 A 
ATOM     12  C   UNL     1       3.147   1.904   3.156  1.00  0.00     0.010 A 
ATOM     13  C   UNL     1       4.418   2.401   2.831  1.00  0.00    -0.014 A 
BRANCH  13  14
ATOM     14  C   UNL     1       5.249   3.144   3.818  1.00  0.00     0.031 A 
ATOM     15  C   UNL     1       5.757   2.479   5.069  1.00  0.00     0.074 A 
ATOM     16  C   UNL     1       5.576   4.426   3.562  1.00  0.00     0.049 A 
ATOM     17  N   UNL     1       6.530   2.966   6.009  1.00  0.00    -0.248 NA
ATOM     18  C   UNL     1       5.337   1.090   5.305  1.00  0.00     0.031 C 
ATOM     19  C   UNL     1       5.132   5.190   2.394  1.00  0.00     0.029 A 
ATOM     20  N   UNL     1       6.373   5.308   4.249  1.00  0.00    -0.354 N 
ATOM     21  C   UNL     1       6.671   1.956   6.952  1.00  0.00     0.074 A 
ATOM     22  C   UNL     1       5.876   0.838   6.489  1.00  0.00     0.031 C 
ATOM     23  C   UNL     1       5.705   6.402   2.415  1.00  0.00     0.029 A 
ATOM     24  C   UNL     1       6.504   6.526   3.629  1.00  0.00     0.049 A 
ATOM     25  H   UNL     1       6.808   5.088   5.104  1.00  0.00     0.167 HD
ATOM     26  C   UNL     1       7.403   1.957   8.094  1.00  0.00     0.037 A 
ATOM     27  C   UNL     1       7.184   7.628   3.998  1.00  0.00     0.037 A 
ATOM     28  C   UNL     1       8.205   3.068   8.544  1.00  0.00     0.049 A 
ATOM     29  C   UNL     1       7.969   7.607   5.280  1.00  0.00     0.074 A 
ATOM     30  C   UNL     1       9.016   3.150   9.663  1.00  0.00     0.029 A 
ATOM     31  N   UNL     1       8.290   4.296   7.902  1.00  0.00    -0.354 N 
ATOM     32  N   UNL     1       8.135   6.627   6.134  1.00  0.00    -0.248 NA
ATOM     33  C   UNL     1       8.665   8.847   5.645  1.00  0.00     0.031 C 
ATOM     34  C   UNL     1       9.543   4.444   9.731  1.00  0.00     0.029 A 
ATOM     35  C   UNL     1       9.117   5.149   8.617  1.00  0.00     0.049 A 
ATOM     36  H   UNL     1       7.830   4.527   7.063  1.00  0.00     0.167 HD
ATOM     37  C   UNL     1       8.979   7.120   7.120  1.00  0.00     0.074 A 
ATOM     38  C   UNL     1       9.304   8.481   6.746  1.00  0.00     0.031 C 
ATOM     39  C   UNL     1       9.444   6.499   8.232  1.00  0.00     0.037 A 
BRANCH  26  40
ATOM     40  C   UNL     1       7.356   0.727   8.957  1.00  0.00     0.064 A 
ATOM     41  C   UNL     1       7.941  -0.485   8.558  1.00  0.00     0.173 A 
ATOM     42  C   UNL     1       6.753   0.773  10.225  1.00  0.00     0.173 A 
ATOM     43  F   UNL     1       8.523  -0.589   7.354  1.00  0.00    -0.203 F 
ATOM     44  C   UNL     1       7.896  -1.609   9.380  1.00  0.00     0.198 A 
ATOM     45  C   UNL     1       6.741  -0.344  11.058  1.00  0.00     0.198 A 
ATOM     46  F   UNL     1       6.187   1.907  10.664  1.00  0.00    -0.203 F 
ATOM     47  F   UNL     1       8.417  -2.769   8.954  1.00  0.00    -0.200 F 
ATOM     48  C   UNL     1       7.304  -1.536  10.631  1.00  0.00     0.200 A 
ATOM     49  F   UNL     1       6.182  -0.265  12.274  1.00  0.00    -0.200 F 
ATOM     50  F   UNL     1       7.270  -2.617  11.423  1.00  0.00    -0.200 F 
ENDBRANCH  26  40
BRANCH  27  51
ATOM     51  C   UNL     1       7.159   8.840   3.137  1.00  0.00     0.064 A 
ATOM     52  C   UNL     1       8.317   9.285   2.484  1.00  0.00     0.173 A 
ATOM     53  C   UNL     1       5.982   9.581   2.954  1.00  0.00     0.173 A 
ATOM     54  F   UNL     1       9.472   8.621   2.642  1.00  0.00    -0.203 F 
ATOM     55  C   UNL     1       8.304  10.437   1.701  1.00  0.00     0.198 A 
ATOM     56  C   UNL     1       5.963  10.713   2.143  1.00  0.00     0.198 A 
ATOM     57  F   UNL     1       4.846   9.195   3.552  1.00  0.00    -0.203 F 
ATOM     58  F   UNL     1       9.437  10.870   1.131  1.00  0.00    -0.200 F 
ATOM     59  C   UNL     1       7.126  11.146   1.526  1.00  0.00     0.200 A 
ATOM     60  F   UNL     1       4.817  11.384   1.962  1.00  0.00    -0.200 F 
ATOM     61  F   UNL     1       7.113  12.252   0.770  1.00  0.00    -0.200 F 
ENDBRANCH  27  51
BRANCH  39  62
ATOM     62  C   UNL     1      10.402   7.269   9.097  1.00  0.00     0.064 A 
ATOM     63  C   UNL     1       9.997   8.381   9.849  1.00  0.00     0.173 A 
ATOM     64  C   UNL     1      11.747   6.876   9.181  1.00  0.00     0.173 A 
ATOM     65  F   UNL     1       8.727   8.809   9.793  1.00  0.00    -0.203 F 
ATOM     66  C   UNL     1      10.911   9.094  10.622  1.00  0.00     0.198 A 
ATOM     67  C   UNL     1      12.649   7.568   9.984  1.00  0.00     0.198 A 
ATOM     68  F   UNL     1      12.187   5.814   8.489  1.00  0.00    -0.203 F 
ATOM     69  F   UNL     1      10.515  10.193  11.280  1.00  0.00    -0.200 F 
ATOM     70  C   UNL     1      12.233   8.684  10.694  1.00  0.00     0.200 A 
ATOM     71  F   UNL     1      13.923   7.159  10.065  1.00  0.00    -0.200 F 
ATOM     72  F   UNL     1      13.110   9.370  11.440  1.00  0.00    -0.200 F 
ENDBRANCH  39  62
ENDBRANCH  13  14
ENDBRANCH   6   8
ENDBRANCH   3   4
ENDBRANCH   2   3
ENDBRANCH   1   2
BRANCH   1  73
ATOM     73  C   UNL     1       3.835  -3.430  -3.145  1.00  0.00     0.002 C 
BRANCH  73  74
ATOM     74  C   UNL     1       5.287  -3.639  -3.592  1.00  0.00     0.021 C 
BRANCH  74  75
ATOM     75  C   UNL     1       5.822  -5.047  -3.327  1.00  0.00     0.116 C 
BRANCH  75  76
ATOM     76  N   UNL     1       6.165  -5.795  -4.509  1.00  0.00    -0.353 N 
ATOM     77  C   UNL     1       7.310  -6.428  -4.876  1.00  0.00     0.262 C 
ATOM     78  H   UNL     1       5.439  -5.860  -5.171  1.00  0.00     0.163 HD
ATOM     79  O   UNL     1       7.157  -7.301  -5.745  1.00  0.00    -0.271 OA
BRANCH  77  80
ATOM     80  C   UNL     1       8.745  -6.145  -4.347  1.00  0.00     0.281 C 
ATOM     81  C   UNL     1       9.100  -5.130  -3.272  1.00  0.00     0.181 C 
ATOM     82  O   UNL     1       9.605  -5.908  -5.467  1.00  0.00    -0.477 OA
ATOM     83  N   UNL     1       8.879  -3.738  -3.661  1.00  0.00    -0.304 N 
ATOM     84  C   UNL     1       9.494  -4.611  -5.913  1.00  0.00     0.144 A 
ATOM     85  C   UNL     1       9.120  -3.519  -5.090  1.00  0.00     0.086 A 
ATOM     86  C   UNL     1       9.800  -4.460  -7.272  1.00  0.00     0.049 A 
ATOM     87  C   UNL     1       9.039  -2.273  -5.727  1.00  0.00     0.030 A 
ATOM     88  C   UNL     1       9.710  -3.211  -7.868  1.00  0.00     0.004 A 
ATOM     89  C   UNL     1       9.325  -2.122  -7.097  1.00  0.00     0.002 A 
BRANCH  83  90
ATOM     90  C   UNL     1       8.528  -2.724  -2.763  1.00  0.00     0.230 C 
ATOM     91  O   UNL     1       8.224  -1.585  -3.150  1.00  0.00    -0.274 OA
BRANCH  90  92
ATOM     92  C   UNL     1       8.514  -2.879  -1.203  1.00  0.00     0.083 C 
ATOM     93  C   UNL     1       7.719  -3.949  -0.440  1.00  0.00     0.040 C 
ATOM     94  C   UNL     1       9.885  -2.670  -0.557  1.00  0.00     0.018 C 
ATOM     95  C   UNL     1       8.508  -5.134   0.023  1.00  0.00    -0.030 C 
ATOM     96  C   UNL     1      10.681  -3.959  -0.362  1.00  0.00     0.028 C 
ATOM     97  C   UNL     1       9.847  -5.142   0.035  1.00  0.00    -0.031 C 
ENDBRANCH  90  92
ENDBRANCH  83  90
ENDBRANCH  77  80
ENDBRANCH  75  76
ENDBRANCH  74  75
ENDBRANCH  73  74
ENDBRANCH   1  73
TORSDOF 15
