REMARK SMILES O=C(NCCCCCCNC(=O)c1ccccc1-c1ccc(/C=C2/SC(=S)N(Cc3ccccc3)C2=O)o1)c1ccc(-c2c3nc(c(-c4c(F)c(F)c(F)c(F)c4F)c4ccc([nH]4)c(-c4c(F)c(F)c(F)c(F)c4F)c4nc(c(-c5c(F)c(F)c(F)c(F)c5F)c5ccc2[nH]5)C=C4)C=C3)cc1
REMARK SMILES IDX 7 1 6 2 5 3 4 4 3 5 1 6 2 7 39 9 40 10 101 11 41 12 100 13
REMARK SMILES IDX 42 14 43 15 44 16 94 17 45 18 99 19 93 20 95 21 46 22 98 23
REMARK SMILES IDX 92 24 91 25 47 27 79 28 59 29 78 30 60 31 63 32 77 33 96 34
REMARK SMILES IDX 61 35 62 36 76 38 97 39 64 40 48 41 49 42 57 43 50 44 51 45
REMARK SMILES IDX 55 46 58 47 52 48 53 49 56 50 54 51 80 52 81 53 89 54 82 55
REMARK SMILES IDX 83 56 87 57 90 58 84 59 85 60 88 61 86 62 65 63 66 64 74 65
REMARK SMILES IDX 67 66 68 67 72 68 75 69 69 70 70 71 73 72 71 73 8 74 9 75
REMARK SMILES IDX 10 76 11 77 12 79 13 80 14 81 18 82 15 83 17 84 16 85 19 86
REMARK SMILES IDX 20 87 38 88 21 89 22 90 23 91 24 92 25 93 36 94 26 95 28 96
REMARK SMILES IDX 37 97 27 98 29 99 30 100 31 101 35 102 32 103 34 104 33 105
REMARK H PARENT 3 8 95 26 63 37 10 78
REMARK Flexibility Score: inf
ROOT
ATOM      1  C   UNL     1       4.539  -3.176   2.952  1.00  0.00     0.002 C 
ENDROOT
BRANCH   1   2
ATOM      2  C   UNL     1       4.184  -1.735   3.337  1.00  0.00     0.002 C 
BRANCH   2   3
ATOM      3  C   UNL     1       4.714  -0.643   2.407  1.00  0.00     0.021 C 
BRANCH   3   4
ATOM      4  C   UNL     1       4.376  -0.812   0.930  1.00  0.00     0.116 C 
BRANCH   4   5
ATOM      5  N   UNL     1       2.947  -0.834   0.677  1.00  0.00    -0.352 N 
ATOM      6  O   UNL     1       0.972  -0.154  -0.161  1.00  0.00    -0.269 OA
ATOM      7  C   UNL     1       2.196  -0.080  -0.187  1.00  0.00     0.251 C 
ATOM      8  H   UNL     1       2.440  -1.491   1.207  1.00  0.00     0.163 HD
BRANCH   7   9
ATOM      9  C   UNL     1       2.852   0.846  -1.137  1.00  0.00     0.039 A 
ATOM     10  C   UNL     1       3.965   0.455  -1.888  1.00  0.00     0.014 A 
ATOM     11  C   UNL     1       2.308   2.122  -1.304  1.00  0.00     0.014 A 
ATOM     12  C   UNL     1       4.598   1.373  -2.722  1.00  0.00     0.010 A 
ATOM     13  C   UNL     1       2.903   3.020  -2.191  1.00  0.00     0.010 A 
ATOM     14  C   UNL     1       4.065   2.660  -2.891  1.00  0.00    -0.014 A 
BRANCH  14  15
ATOM     15  C   UNL     1       4.685   3.615  -3.842  1.00  0.00     0.031 A 
ATOM     16  C   UNL     1       5.304   4.890  -3.349  1.00  0.00     0.074 A 
ATOM     17  C   UNL     1       4.636   3.352  -5.160  1.00  0.00     0.049 A 
ATOM     18  N   UNL     1       5.787   5.895  -4.035  1.00  0.00    -0.248 NA
ATOM     19  C   UNL     1       5.378   5.064  -1.891  1.00  0.00     0.031 C 
ATOM     20  C   UNL     1       4.054   2.148  -5.755  1.00  0.00     0.029 A 
ATOM     21  N   UNL     1       5.061   4.086  -6.238  1.00  0.00    -0.354 N 
ATOM     22  C   UNL     1       6.198   6.832  -3.096  1.00  0.00     0.074 A 
ATOM     23  C   UNL     1       5.888   6.284  -1.791  1.00  0.00     0.031 C 
ATOM     24  C   UNL     1       4.154   2.227  -7.090  1.00  0.00     0.029 A 
ATOM     25  C   UNL     1       4.752   3.510  -7.445  1.00  0.00     0.049 A 
ATOM     26  H   UNL     1       5.540   4.942  -6.154  1.00  0.00     0.167 HD
ATOM     27  C   UNL     1       6.782   8.036  -3.308  1.00  0.00     0.037 A 
ATOM     28  C   UNL     1       4.895   3.977  -8.699  1.00  0.00     0.037 A 
ATOM     29  C   UNL     1       7.090   8.567  -4.612  1.00  0.00     0.049 A 
ATOM     30  C   UNL     1       5.511   5.329  -8.912  1.00  0.00     0.074 A 
ATOM     31  C   UNL     1       7.725   9.754  -4.933  1.00  0.00     0.029 A 
ATOM     32  N   UNL     1       6.769   7.948  -5.813  1.00  0.00    -0.354 N 
ATOM     33  N   UNL     1       5.938   6.190  -8.020  1.00  0.00    -0.248 NA
ATOM     34  C   UNL     1       5.668   5.777 -10.302  1.00  0.00     0.031 C 
ATOM     35  C   UNL     1       7.739   9.879  -6.326  1.00  0.00     0.029 A 
ATOM     36  C   UNL     1       7.167   8.743  -6.876  1.00  0.00     0.049 A 
ATOM     37  H   UNL     1       6.325   7.074  -5.896  1.00  0.00     0.167 HD
ATOM     38  C   UNL     1       6.436   7.268  -8.736  1.00  0.00     0.074 A 
ATOM     39  C   UNL     1       6.261   6.953 -10.140  1.00  0.00     0.031 C 
ATOM     40  C   UNL     1       6.994   8.412  -8.270  1.00  0.00     0.037 A 
BRANCH  27  41
ATOM     41  C   UNL     1       7.093   8.877  -2.102  1.00  0.00     0.064 A 
ATOM     42  C   UNL     1       8.096   8.522  -1.188  1.00  0.00     0.173 A 
ATOM     43  C   UNL     1       6.384  10.066  -1.866  1.00  0.00     0.173 A 
ATOM     44  F   UNL     1       8.799   7.393  -1.361  1.00  0.00    -0.203 F 
ATOM     45  C   UNL     1       8.351   9.304  -0.063  1.00  0.00     0.198 A 
ATOM     46  C   UNL     1       6.663  10.861  -0.758  1.00  0.00     0.198 A 
ATOM     47  F   UNL     1       5.421  10.459  -2.713  1.00  0.00    -0.203 F 
ATOM     48  F   UNL     1       9.276   8.914   0.826  1.00  0.00    -0.200 F 
ATOM     49  C   UNL     1       7.638  10.474   0.149  1.00  0.00     0.200 A 
ATOM     50  F   UNL     1       5.984  12.000  -0.564  1.00  0.00    -0.200 F 
ATOM     51  F   UNL     1       7.886  11.226   1.231  1.00  0.00    -0.200 F 
ENDBRANCH  27  41
BRANCH  28  52
ATOM     52  C   UNL     1       4.427   3.145  -9.835  1.00  0.00     0.064 A 
ATOM     53  C   UNL     1       5.338   2.506 -10.685  1.00  0.00     0.173 A 
ATOM     54  C   UNL     1       3.059   2.920 -10.052  1.00  0.00     0.173 A 
ATOM     55  F   UNL     1       6.654   2.704 -10.526  1.00  0.00    -0.203 F 
ATOM     56  C   UNL     1       4.898   1.672 -11.711  1.00  0.00     0.198 A 
ATOM     57  C   UNL     1       2.621   2.065 -11.060  1.00  0.00     0.198 A 
ATOM     58  F   UNL     1       2.148   3.503  -9.258  1.00  0.00    -0.203 F 
ATOM     59  F   UNL     1       5.788   1.087 -12.523  1.00  0.00    -0.200 F 
ATOM     60  C   UNL     1       3.541   1.443 -11.891  1.00  0.00     0.200 A 
ATOM     61  F   UNL     1       1.311   1.832 -11.217  1.00  0.00    -0.200 F 
ATOM     62  F   UNL     1       3.121   0.623 -12.863  1.00  0.00    -0.200 F 
ENDBRANCH  28  52
BRANCH  40  63
ATOM     63  C   UNL     1       7.500   9.398  -9.280  1.00  0.00     0.064 A 
ATOM     64  C   UNL     1       6.629  10.202 -10.028  1.00  0.00     0.173 A 
ATOM     65  C   UNL     1       8.881   9.591  -9.446  1.00  0.00     0.173 A 
ATOM     66  F   UNL     1       5.302  10.044  -9.917  1.00  0.00    -0.203 F 
ATOM     67  C   UNL     1       7.122  11.160 -10.911  1.00  0.00     0.198 A 
ATOM     68  C   UNL     1       9.370  10.566 -10.310  1.00  0.00     0.198 A 
ATOM     69  F   UNL     1       9.755   8.847  -8.751  1.00  0.00    -0.203 F 
ATOM     70  F   UNL     1       6.273  11.899 -11.637  1.00  0.00    -0.200 F 
ATOM     71  C   UNL     1       8.490  11.348 -11.043  1.00  0.00     0.200 A 
ATOM     72  F   UNL     1      10.691  10.755 -10.426  1.00  0.00    -0.200 F 
ATOM     73  F   UNL     1       8.962  12.283 -11.879  1.00  0.00    -0.200 F 
ENDBRANCH  40  63
ENDBRANCH  14  15
ENDBRANCH   7   9
ENDBRANCH   4   5
ENDBRANCH   3   4
ENDBRANCH   2   3
ENDBRANCH   1   2
BRANCH   1  74
ATOM     74  C   UNL     1       6.027  -3.481   2.738  1.00  0.00     0.021 C 
BRANCH  74  75
ATOM     75  C   UNL     1       6.941  -3.105   3.897  1.00  0.00     0.116 C 
BRANCH  75  76
ATOM     76  N   UNL     1       6.650  -3.832   5.118  1.00  0.00    -0.352 N 
ATOM     77  C   UNL     1       7.509  -4.172   6.136  1.00  0.00     0.252 C 
ATOM     78  H   UNL     1       5.716  -4.119   5.233  1.00  0.00     0.163 HD
ATOM     79  O   UNL     1       7.092  -4.780   7.117  1.00  0.00    -0.269 OA
BRANCH  77  80
ATOM     80  C   UNL     1       8.950  -3.850   6.043  1.00  0.00     0.050 A 
ATOM     81  C   UNL     1       9.835  -4.939   6.030  1.00  0.00     0.014 A 
ATOM     82  C   UNL     1       9.440  -2.533   6.000  1.00  0.00     0.030 A 
ATOM     83  C   UNL     1      11.208  -4.722   5.931  1.00  0.00     0.001 A 
ATOM     84  C   UNL     1      10.825  -2.334   5.886  1.00  0.00     0.013 A 
ATOM     85  C   UNL     1      11.702  -3.422   5.851  1.00  0.00     0.001 A 
BRANCH  82  86
ATOM     86  C   UNL     1       8.561  -1.382   6.085  1.00  0.00     0.135 A 
ATOM     87  C   UNL     1       7.546  -1.020   6.940  1.00  0.00     0.051 A 
ATOM     88  O   UNL     1       8.656  -0.485   5.062  1.00  0.00    -0.457 OA
ATOM     89  C   UNL     1       6.974   0.146   6.389  1.00  0.00     0.051 A 
ATOM     90  C   UNL     1       7.688   0.471   5.240  1.00  0.00     0.128 A 
BRANCH  90  91
ATOM     91  C   UNL     1       7.472   1.557   4.351  1.00  0.00     0.068 C 
ATOM     92  C   UNL     1       7.630   2.821   4.759  1.00  0.00     0.084 C 
ATOM     93  S   UNL     1       7.005   4.199   3.943  1.00  0.00    -0.054 SA
ATOM     94  C   UNL     1       8.209   3.245   6.055  1.00  0.00     0.266 C 
ATOM     95  C   UNL     1       7.042   5.167   5.426  1.00  0.00     0.148 C 
ATOM     96  N   UNL     1       7.697   4.471   6.418  1.00  0.00    -0.288 N 
ATOM     97  O   UNL     1       9.053   2.606   6.673  1.00  0.00    -0.268 OA
ATOM     98  S   UNL     1       6.357   6.685   5.502  1.00  0.00    -0.052 S 
BRANCH  96  99
ATOM     99  C   UNL     1       7.944   4.939   7.780  1.00  0.00     0.163 C 
BRANCH  99 100
ATOM    100  C   UNL     1       6.946   4.380   8.779  1.00  0.00    -0.028 A 
ATOM    101  C   UNL     1       6.108   5.240   9.501  1.00  0.00     0.005 A 
ATOM    102  C   UNL     1       6.873   3.001   9.047  1.00  0.00     0.005 A 
ATOM    103  C   UNL     1       5.224   4.734  10.459  1.00  0.00     0.000 A 
ATOM    104  C   UNL     1       5.975   2.495   9.988  1.00  0.00     0.000 A 
ATOM    105  C   UNL     1       5.153   3.363  10.698  1.00  0.00     0.000 A 
ENDBRANCH  99 100
ENDBRANCH  96  99
ENDBRANCH  90  91
ENDBRANCH  82  86
ENDBRANCH  77  80
ENDBRANCH  75  76
ENDBRANCH  74  75
ENDBRANCH   1  74
TORSDOF 17
