REMARK SMILES O=C(NCCCCCCNC(=O)[C@H](CO)NC(=O)[C@H](Cc1c[nH]c2ccccc12)NC(=O)[C@H](Cc1ccc(O)cc1)NC(=O)c1ccc(F)cc1)c1ccc(-c2c3nc(c(-c4c(F)c(F)c(F)c(F)c4F)c4ccc([nH]4)c(-c4c(F)c(F)c(F)c(F)c4F)c4nc(c(-c5c(F)c(F)c(F)c(F)c5F)c5ccc2[nH]5)C=C4)C=C3)cc1
REMARK SMILES IDX 9 1 8 2 7 3 6 4 5 5 4 6 3 7 1 8 2 9 52 11 53 12 114 13 54 14
REMARK SMILES IDX 113 15 55 16 56 17 57 18 107 19 58 20 112 21 106 22 108 23
REMARK SMILES IDX 59 24 111 25 105 26 104 27 60 29 92 30 72 31 91 32 73 33
REMARK SMILES IDX 76 34 90 35 109 36 74 37 75 38 89 40 110 41 77 42 61 43
REMARK SMILES IDX 62 44 70 45 63 46 64 47 68 48 71 49 65 50 66 51 69 52 67 53
REMARK SMILES IDX 93 54 94 55 102 56 95 57 96 58 100 59 103 60 97 61 98 62
REMARK SMILES IDX 101 63 99 64 78 65 79 66 87 67 80 68 81 69 85 70 88 71 82 72
REMARK SMILES IDX 83 73 86 74 84 75 10 76 11 77 12 79 13 80 16 81 17 82 18 84
REMARK SMILES IDX 19 85 30 86 31 87 32 89 33 90 42 91 43 92 44 94 45 95 46 96
REMARK SMILES IDX 51 97 47 98 50 99 48 100 49 101 34 102 35 103 36 104 41 105
REMARK SMILES IDX 37 106 40 107 38 108 39 109 20 111 21 112 22 113 29 114
REMARK SMILES IDX 23 115 24 116 28 117 25 119 27 120 26 121 14 122 15 123
REMARK H PARENT 3 10 108 28 76 39 10 78 16 83 30 88 42 93 39 110 23 118 15 124
REMARK Flexibility Score: inf
ROOT
ATOM      1  C   UNL     1      13.615  -7.638  -3.198  1.00  0.00     0.116 C 
ENDROOT
BRANCH   1   2
ATOM      2  C   UNL     1      14.027  -6.539  -2.220  1.00  0.00     0.021 C 
BRANCH   2   3
ATOM      3  C   UNL     1      14.181  -6.982  -0.758  1.00  0.00     0.002 C 
BRANCH   3   4
ATOM      4  C   UNL     1      15.298  -7.992  -0.453  1.00  0.00     0.002 C 
BRANCH   4   5
ATOM      5  C   UNL     1      16.673  -7.696  -1.056  1.00  0.00     0.021 C 
BRANCH   5   6
ATOM      6  C   UNL     1      17.290  -6.359  -0.662  1.00  0.00     0.116 C 
BRANCH   6   7
ATOM      7  N   UNL     1      17.959  -6.417   0.627  1.00  0.00    -0.352 N 
ATOM      8  O   UNL     1      19.602  -6.738   2.121  1.00  0.00    -0.269 OA
ATOM      9  C   UNL     1      19.290  -6.496   0.952  1.00  0.00     0.251 C 
ATOM     10  H   UNL     1      17.352  -6.395   1.402  1.00  0.00     0.163 HD
BRANCH   9  11
ATOM     11  C   UNL     1      20.368  -6.304  -0.051  1.00  0.00     0.039 A 
ATOM     12  C   UNL     1      20.272  -5.350  -1.065  1.00  0.00     0.014 A 
ATOM     13  C   UNL     1      21.567  -7.015   0.102  1.00  0.00     0.014 A 
ATOM     14  C   UNL     1      21.314  -5.182  -1.977  1.00  0.00     0.010 A 
ATOM     15  C   UNL     1      22.653  -6.775  -0.752  1.00  0.00     0.010 A 
ATOM     16  C   UNL     1      22.536  -5.853  -1.801  1.00  0.00    -0.014 A 
BRANCH  16  17
ATOM     17  C   UNL     1      23.708  -5.451  -2.625  1.00  0.00     0.031 A 
ATOM     18  C   UNL     1      24.367  -6.397  -3.586  1.00  0.00     0.074 A 
ATOM     19  C   UNL     1      24.161  -4.186  -2.510  1.00  0.00     0.049 A 
ATOM     20  N   UNL     1      25.375  -6.178  -4.394  1.00  0.00    -0.248 NA
ATOM     21  C   UNL     1      23.837  -7.766  -3.648  1.00  0.00     0.031 C 
ATOM     22  C   UNL     1      23.616  -3.182  -1.593  1.00  0.00     0.029 A 
ATOM     23  N   UNL     1      25.153  -3.514  -3.180  1.00  0.00    -0.354 N 
ATOM     24  C   UNL     1      25.607  -7.377  -5.052  1.00  0.00     0.074 A 
ATOM     25  C   UNL     1      24.649  -8.332  -4.533  1.00  0.00     0.031 C 
ATOM     26  C   UNL     1      24.223  -2.009  -1.811  1.00  0.00     0.029 A 
ATOM     27  C   UNL     1      25.251  -2.190  -2.829  1.00  0.00     0.049 A 
ATOM     28  H   UNL     1      25.738  -3.941  -3.848  1.00  0.00     0.167 HD
ATOM     29  C   UNL     1      26.532  -7.651  -6.004  1.00  0.00     0.037 A 
ATOM     30  C   UNL     1      26.080  -1.224  -3.267  1.00  0.00     0.037 A 
ATOM     31  C   UNL     1      27.481  -6.694  -6.518  1.00  0.00     0.049 A 
ATOM     32  C   UNL     1      27.108  -1.562  -4.305  1.00  0.00     0.074 A 
ATOM     33  C   UNL     1      28.450  -6.878  -7.490  1.00  0.00     0.029 A 
ATOM     34  N   UNL     1      27.582  -5.374  -6.102  1.00  0.00    -0.354 N 
ATOM     35  N   UNL     1      27.311  -2.700  -4.921  1.00  0.00    -0.248 NA
ATOM     36  C   UNL     1      28.030  -0.489  -4.699  1.00  0.00     0.031 C 
ATOM     37  C   UNL     1      29.162  -5.683  -7.633  1.00  0.00     0.029 A 
ATOM     38  C   UNL     1      28.607  -4.739  -6.785  1.00  0.00     0.049 A 
ATOM     39  H   UNL     1      27.010  -4.952  -5.421  1.00  0.00     0.167 HD
ATOM     40  C   UNL     1      28.380  -2.483  -5.778  1.00  0.00     0.074 A 
ATOM     41  C   UNL     1      28.768  -1.096  -5.619  1.00  0.00     0.031 C 
ATOM     42  C   UNL     1      28.987  -3.359  -6.613  1.00  0.00     0.037 A 
BRANCH  29  43
ATOM     43  C   UNL     1      26.577  -9.046  -6.558  1.00  0.00     0.064 A 
ATOM     44  C   UNL     1      27.658  -9.893  -6.270  1.00  0.00     0.173 A 
ATOM     45  C   UNL     1      25.590  -9.518  -7.435  1.00  0.00     0.173 A 
ATOM     46  F   UNL     1      28.634  -9.488  -5.443  1.00  0.00    -0.203 F 
ATOM     47  C   UNL     1      27.754 -11.157  -6.847  1.00  0.00     0.198 A 
ATOM     48  C   UNL     1      25.676 -10.792  -7.992  1.00  0.00     0.198 A 
ATOM     49  F   UNL     1      24.531  -8.751  -7.735  1.00  0.00    -0.203 F 
ATOM     50  F   UNL     1      28.809 -11.938  -6.579  1.00  0.00    -0.200 F 
ATOM     51  C   UNL     1      26.761 -11.607  -7.705  1.00  0.00     0.200 A 
ATOM     52  F   UNL     1      24.706 -11.233  -8.804  1.00  0.00    -0.200 F 
ATOM     53  F   UNL     1      26.849 -12.827  -8.253  1.00  0.00    -0.200 F 
ENDBRANCH  29  43
BRANCH  30  54
ATOM     54  C   UNL     1      25.948   0.152  -2.724  1.00  0.00     0.064 A 
ATOM     55  C   UNL     1      26.267   0.445  -1.390  1.00  0.00     0.173 A 
ATOM     56  C   UNL     1      25.440   1.190  -3.518  1.00  0.00     0.173 A 
ATOM     57  F   UNL     1      26.750  -0.516  -0.589  1.00  0.00    -0.203 F 
ATOM     58  C   UNL     1      26.052   1.715  -0.861  1.00  0.00     0.198 A 
ATOM     59  C   UNL     1      25.252   2.468  -2.995  1.00  0.00     0.198 A 
ATOM     60  F   UNL     1      25.138   0.963  -4.804  1.00  0.00    -0.203 F 
ATOM     61  F   UNL     1      26.318   1.955   0.430  1.00  0.00    -0.200 F 
ATOM     62  C   UNL     1      25.546   2.726  -1.664  1.00  0.00     0.200 A 
ATOM     63  F   UNL     1      24.783   3.447  -3.779  1.00  0.00    -0.200 F 
ATOM     64  F   UNL     1      25.342   3.949  -1.156  1.00  0.00    -0.200 F 
ENDBRANCH  30  54
BRANCH  42  65
ATOM     65  C   UNL     1      30.133  -2.845  -7.431  1.00  0.00     0.064 A 
ATOM     66  C   UNL     1      29.992  -2.653  -8.813  1.00  0.00     0.173 A 
ATOM     67  C   UNL     1      31.388  -2.599  -6.856  1.00  0.00     0.173 A 
ATOM     68  F   UNL     1      28.812  -2.880  -9.410  1.00  0.00    -0.203 F 
ATOM     69  C   UNL     1      31.070  -2.242  -9.592  1.00  0.00     0.198 A 
ATOM     70  C   UNL     1      32.458  -2.164  -7.634  1.00  0.00     0.198 A 
ATOM     71  F   UNL     1      31.567  -2.753  -5.535  1.00  0.00    -0.203 F 
ATOM     72  F   UNL     1      30.919  -2.090 -10.915  1.00  0.00    -0.200 F 
ATOM     73  C   UNL     1      32.300  -1.995  -9.002  1.00  0.00     0.200 A 
ATOM     74  F   UNL     1      33.639  -1.902  -7.059  1.00  0.00    -0.200 F 
ATOM     75  F   UNL     1      33.334  -1.588  -9.751  1.00  0.00    -0.200 F 
ENDBRANCH  42  65
ENDBRANCH  16  17
ENDBRANCH   9  11
ENDBRANCH   6   7
ENDBRANCH   5   6
ENDBRANCH   4   5
ENDBRANCH   3   4
ENDBRANCH   2   3
ENDBRANCH   1   2
BRANCH   1  76
ATOM     76  N   UNL     1      12.208  -7.992  -3.120  1.00  0.00    -0.354 N 
ATOM     77  C   UNL     1      11.308  -8.197  -4.133  1.00  0.00     0.244 C 
ATOM     78  H   UNL     1      11.849  -8.099  -2.210  1.00  0.00     0.163 HD
ATOM     79  O   UNL     1      10.249  -8.767  -3.861  1.00  0.00    -0.273 OA
BRANCH  77  80
ATOM     80  C   UNL     1      11.663  -7.828  -5.584  1.00  0.00     0.197 C 
BRANCH  80  81
ATOM     81  N   UNL     1      12.072  -9.039  -6.302  1.00  0.00    -0.340 N 
ATOM     82  C   UNL     1      12.864  -9.207  -7.393  1.00  0.00     0.243 C 
ATOM     83  H   UNL     1      11.711  -9.875  -5.928  1.00  0.00     0.164 HD
ATOM     84  O   UNL     1      12.630 -10.216  -8.070  1.00  0.00    -0.273 OA
BRANCH  82  85
ATOM     85  C   UNL     1      14.001  -8.239  -7.810  1.00  0.00     0.175 C 
BRANCH  85  86
ATOM     86  N   UNL     1      14.296  -7.118  -6.903  1.00  0.00    -0.342 N 
ATOM     87  C   UNL     1      14.250  -5.766  -6.901  1.00  0.00     0.243 C 
ATOM     88  H   UNL     1      14.626  -7.452  -6.038  1.00  0.00     0.164 HD
ATOM     89  O   UNL     1      14.638  -5.260  -5.839  1.00  0.00    -0.273 OA
BRANCH  87  90
ATOM     90  C   UNL     1      13.788  -4.864  -8.073  1.00  0.00     0.176 C 
BRANCH  90  91
ATOM     91  N   UNL     1      13.519  -5.602  -9.307  1.00  0.00    -0.340 N 
ATOM     92  C   UNL     1      14.316  -5.941 -10.366  1.00  0.00     0.251 C 
ATOM     93  H   UNL     1      12.589  -5.913  -9.392  1.00  0.00     0.164 HD
ATOM     94  O   UNL     1      13.783  -6.510 -11.321  1.00  0.00    -0.269 OA
BRANCH  92  95
ATOM     95  C   UNL     1      15.782  -5.688 -10.416  1.00  0.00     0.040 A 
ATOM     96  C   UNL     1      16.629  -5.748  -9.303  1.00  0.00     0.017 A 
ATOM     97  C   UNL     1      16.353  -5.500 -11.685  1.00  0.00     0.017 A 
ATOM     98  C   UNL     1      18.010  -5.585  -9.447  1.00  0.00     0.040 A 
ATOM     99  C   UNL     1      17.733  -5.344 -11.831  1.00  0.00     0.040 A 
ATOM    100  C   UNL     1      18.549  -5.383 -10.709  1.00  0.00     0.123 A 
ATOM    101  F   UNL     1      19.873  -5.244 -10.844  1.00  0.00    -0.207 F 
ENDBRANCH  92  95
ENDBRANCH  90  91
BRANCH  90 102
ATOM    102  C   UNL     1      12.529  -4.049  -7.684  1.00  0.00     0.070 C 
BRANCH 102 103
ATOM    103  C   UNL     1      12.712  -2.861  -6.762  1.00  0.00    -0.045 A 
ATOM    104  C   UNL     1      12.718  -3.027  -5.368  1.00  0.00     0.007 A 
ATOM    105  C   UNL     1      12.800  -1.560  -7.280  1.00  0.00     0.007 A 
ATOM    106  C   UNL     1      12.817  -1.928  -4.511  1.00  0.00     0.046 A 
ATOM    107  C   UNL     1      12.881  -0.458  -6.423  1.00  0.00     0.046 A 
ATOM    108  C   UNL     1      12.889  -0.649  -5.048  1.00  0.00     0.115 A 
BRANCH 108 109
ATOM    109  O   UNL     1      12.956   0.453  -4.248  1.00  0.00    -0.508 OA
ATOM    110  H   UNL     1      12.963   0.356  -3.316  1.00  0.00     0.293 HD
ENDBRANCH 108 109
ENDBRANCH 102 103
ENDBRANCH  90 102
ENDBRANCH  87  90
ENDBRANCH  85  86
BRANCH  85 111
ATOM    111  C   UNL     1      15.295  -9.096  -8.010  1.00  0.00     0.072 C 
BRANCH 111 112
ATOM    112  C   UNL     1      16.038  -9.337  -6.715  1.00  0.00    -0.020 A 
ATOM    113  C   UNL     1      17.174  -8.667  -6.298  1.00  0.00     0.087 A 
ATOM    114  C   UNL     1      15.644 -10.190  -5.631  1.00  0.00     0.003 A 
ATOM    115  N   UNL     1      17.441  -9.030  -5.006  1.00  0.00    -0.361 N 
ATOM    116  C   UNL     1      16.493  -9.918  -4.559  1.00  0.00     0.046 A 
ATOM    117  C   UNL     1      14.607 -11.125  -5.437  1.00  0.00     0.010 A 
ATOM    118  H   UNL     1      18.203  -8.702  -4.475  1.00  0.00     0.166 HD
ATOM    119  C   UNL     1      16.320 -10.494  -3.294  1.00  0.00     0.026 A 
ATOM    120  C   UNL     1      14.393 -11.674  -4.169  1.00  0.00     0.001 A 
ATOM    121  C   UNL     1      15.231 -11.350  -3.109  1.00  0.00     0.002 A 
ENDBRANCH 111 112
ENDBRANCH  85 111
ENDBRANCH  82  85
ENDBRANCH  80  81
BRANCH  80 122
ATOM    122  C   UNL     1      10.429  -7.235  -6.285  1.00  0.00     0.191 C 
BRANCH 122 123
ATOM    123  O   UNL     1      10.737  -6.911  -7.649  1.00  0.00    -0.394 OA
ATOM    124  H   UNL     1      11.452  -6.256  -7.672  1.00  0.00     0.210 HD
ENDBRANCH 122 123
ENDBRANCH  80 122
ENDBRANCH  77  80
ENDBRANCH   1  76
TORSDOF 26
