REMARK SMILES CCOC(=O)c1c(-c2cccc3ccccc23)csc1NC(=O)[C@H]1CC=CC[C@H]1C(=O)NCCCCCCNC(=O)c1ccc(-c2c3nc(c(-c4c(F)c(F)c(F)c(F)c4F)c4ccc([nH]4)c(-c4c(F)c(F)c(F)c(F)c4F)c4nc(c(-c5c(F)c(F)c(F)c(F)c5F)c5ccc2[nH]5)C=C4)C=C3)cc1
REMARK SMILES IDX 34 1 33 2 32 3 30 4 31 5 29 7 24 8 25 9 26 10 28 11 27 12
REMARK SMILES IDX 22 13 21 14 23 16 20 17 6 18 7 19 18 20 19 21 4 22 5 23 3 24
REMARK SMILES IDX 2 25 1 26 8 27 9 28 17 29 10 30 12 31 16 32 11 33 13 34
REMARK SMILES IDX 15 35 14 36 35 37 36 38 37 39 38 40 39 41 40 42 41 44 42 45
REMARK SMILES IDX 43 46 104 47 44 48 103 49 45 50 46 51 47 52 97 53 48 54
REMARK SMILES IDX 102 55 96 56 98 57 49 58 101 59 95 60 94 61 50 63 82 64
REMARK SMILES IDX 62 65 81 66 63 67 66 68 80 69 99 70 64 71 65 72 79 74 100 75
REMARK SMILES IDX 67 76 51 77 52 78 60 79 53 80 54 81 58 82 61 83 55 84 56 85
REMARK SMILES IDX 59 86 57 87 83 88 84 89 92 90 85 91 86 92 90 93 93 94 87 95
REMARK SMILES IDX 88 96 91 97 89 98 68 99 69 100 77 101 70 102 71 103 75 104
REMARK SMILES IDX 78 105 72 106 73 107 76 108 74 109
REMARK H PARENT 32 6 21 15 39 43 98 62 66 73
REMARK Flexibility Score: inf
ROOT
ATOM      1  C   UNL     1       6.494   1.969   0.342  1.00  0.00     0.021 C 
ENDROOT
BRANCH   1   2
ATOM      2  C   UNL     1       6.567   1.694   1.844  1.00  0.00     0.116 C 
BRANCH   2   3
ATOM      3  N   UNL     1       7.648   2.454   2.419  1.00  0.00    -0.356 N 
ATOM      4  C   UNL     1       7.641   3.623   3.092  1.00  0.00     0.224 C 
ATOM      5  O   UNL     1       8.727   4.210   3.172  1.00  0.00    -0.275 OA
ATOM      6  H   UNL     1       8.540   2.054   2.300  1.00  0.00     0.163 HD
BRANCH   4   7
ATOM      7  C   UNL     1       6.425   4.192   3.810  1.00  0.00     0.095 C 
ATOM      8  C   UNL     1       5.369   5.014   3.046  1.00  0.00     0.095 C 
ATOM      9  C   UNL     1       4.642   5.934   4.044  1.00  0.00     0.041 C 
ATOM     10  C   UNL     1       4.484   5.351   5.433  1.00  0.00    -0.030 C 
ATOM     11  C   UNL     1       5.831   3.307   4.900  1.00  0.00     0.041 C 
ATOM     12  C   UNL     1       4.967   4.150   5.802  1.00  0.00    -0.030 C 
BRANCH   8  13
ATOM     13  C   UNL     1       4.498   4.323   1.973  1.00  0.00     0.229 C 
ATOM     14  N   UNL     1       3.557   3.351   2.116  1.00  0.00    -0.317 N 
ATOM     15  H   UNL     1       3.426   2.828   1.293  1.00  0.00     0.170 HD
ATOM     16  O   UNL     1       4.765   4.584   0.786  1.00  0.00    -0.274 OA
BRANCH  14  17
ATOM     17  C   UNL     1       2.745   2.928   3.145  1.00  0.00     0.110 A 
ATOM     18  C   UNL     1       2.118   1.696   3.316  1.00  0.00     0.102 A 
ATOM     19  C   UNL     1       1.490   1.621   4.625  1.00  0.00     0.010 A 
ATOM     20  C   UNL     1       1.438   2.878   5.201  1.00  0.00     0.076 A 
ATOM     21  S   UNL     1       1.992   4.077   4.135  1.00  0.00    -0.125 S 
BRANCH  18  22
ATOM     22  C   UNL     1       2.152   0.646   2.307  1.00  0.00     0.341 C 
ATOM     23  O   UNL     1       3.131   0.416   1.610  1.00  0.00    -0.246 OA
BRANCH  22  24
ATOM     24  O   UNL     1       0.929   0.064   2.162  1.00  0.00    -0.462 OA
BRANCH  24  25
ATOM     25  C   UNL     1       0.761  -0.876   1.091  1.00  0.00     0.230 C 
ATOM     26  C   UNL     1       0.810  -0.202  -0.271  1.00  0.00     0.049 C 
ENDBRANCH  24  25
ENDBRANCH  22  24
ENDBRANCH  18  22
BRANCH  19  27
ATOM     27  C   UNL     1       0.878   0.478   5.328  1.00  0.00    -0.009 A 
ATOM     28  C   UNL     1      -0.409   0.677   5.870  1.00  0.00     0.009 A 
ATOM     29  C   UNL     1       1.531  -0.782   5.508  1.00  0.00    -0.010 A 
ATOM     30  C   UNL     1      -1.054  -0.323   6.585  1.00  0.00     0.001 A 
ATOM     31  C   UNL     1       0.829  -1.806   6.205  1.00  0.00    -0.018 A 
ATOM     32  C   UNL     1       2.841  -1.101   5.066  1.00  0.00     0.009 A 
ATOM     33  C   UNL     1      -0.441  -1.558   6.742  1.00  0.00     0.009 A 
ATOM     34  C   UNL     1       1.401  -3.077   6.376  1.00  0.00     0.009 A 
ATOM     35  C   UNL     1       3.394  -2.376   5.236  1.00  0.00     0.001 A 
ATOM     36  C   UNL     1       2.670  -3.366   5.882  1.00  0.00     0.001 A 
ENDBRANCH  19  27
ENDBRANCH  14  17
ENDBRANCH   8  13
ENDBRANCH   4   7
ENDBRANCH   2   3
ENDBRANCH   1   2
BRANCH   1  37
ATOM     37  C   UNL     1       7.537   1.200  -0.478  1.00  0.00     0.002 C 
BRANCH  37  38
ATOM     38  C   UNL     1       7.367  -0.322  -0.470  1.00  0.00     0.002 C 
BRANCH  38  39
ATOM     39  C   UNL     1       5.971  -0.819  -0.854  1.00  0.00     0.021 C 
BRANCH  39  40
ATOM     40  C   UNL     1       5.466  -0.322  -2.206  1.00  0.00     0.116 C 
BRANCH  40  41
ATOM     41  N   UNL     1       6.305  -0.781  -3.301  1.00  0.00    -0.352 N 
ATOM     42  C   UNL     1       5.975  -1.537  -4.395  1.00  0.00     0.251 C 
ATOM     43  H   UNL     1       7.250  -0.509  -3.248  1.00  0.00     0.163 HD
ATOM     44  O   UNL     1       6.852  -2.011  -5.110  1.00  0.00    -0.269 OA
BRANCH  42  45
ATOM     45  C   UNL     1       4.555  -1.795  -4.712  1.00  0.00     0.039 A 
ATOM     46  C   UNL     1       4.168  -3.091  -5.064  1.00  0.00     0.014 A 
ATOM     47  C   UNL     1       3.616  -0.760  -4.694  1.00  0.00     0.014 A 
ATOM     48  C   UNL     1       2.828  -3.360  -5.351  1.00  0.00     0.010 A 
ATOM     49  C   UNL     1       2.271  -1.040  -4.923  1.00  0.00     0.010 A 
ATOM     50  C   UNL     1       1.867  -2.341  -5.259  1.00  0.00    -0.014 A 
BRANCH  50  51
ATOM     51  C   UNL     1       0.433  -2.615  -5.521  1.00  0.00     0.031 A 
ATOM     52  C   UNL     1      -0.245  -2.002  -6.715  1.00  0.00     0.074 A 
ATOM     53  C   UNL     1      -0.272  -3.362  -4.651  1.00  0.00     0.049 A 
ATOM     54  N   UNL     1      -1.502  -2.062  -7.074  1.00  0.00    -0.248 NA
ATOM     55  C   UNL     1       0.598  -1.196  -7.612  1.00  0.00     0.031 C 
ATOM     56  C   UNL     1       0.266  -3.978  -3.437  1.00  0.00     0.029 A 
ATOM     57  N   UNL     1      -1.596  -3.723  -4.649  1.00  0.00    -0.354 N 
ATOM     58  C   UNL     1      -1.605  -1.284  -8.220  1.00  0.00     0.074 A 
ATOM     59  C   UNL     1      -0.292  -0.734  -8.478  1.00  0.00     0.031 C 
ATOM     60  C   UNL     1      -0.714  -4.658  -2.819  1.00  0.00     0.029 A 
ATOM     61  C   UNL     1      -1.954  -4.497  -3.573  1.00  0.00     0.049 A 
ATOM     62  H   UNL     1      -2.229  -3.451  -5.352  1.00  0.00     0.167 HD
ATOM     63  C   UNL     1      -2.693  -1.064  -8.994  1.00  0.00     0.037 A 
ATOM     64  C   UNL     1      -3.149  -5.014  -3.233  1.00  0.00     0.037 A 
ATOM     65  C   UNL     1      -3.988  -1.647  -8.759  1.00  0.00     0.049 A 
ATOM     66  C   UNL     1      -4.338  -4.763  -4.120  1.00  0.00     0.074 A 
ATOM     67  C   UNL     1      -5.133  -1.546  -9.530  1.00  0.00     0.029 A 
ATOM     68  N   UNL     1      -4.307  -2.443  -7.669  1.00  0.00    -0.354 N 
ATOM     69  N   UNL     1      -4.408  -4.080  -5.236  1.00  0.00    -0.248 NA
ATOM     70  C   UNL     1      -5.615  -5.357  -3.699  1.00  0.00     0.031 C 
ATOM     71  C   UNL     1      -6.156  -2.251  -8.887  1.00  0.00     0.029 A 
ATOM     72  C   UNL     1      -5.637  -2.824  -7.737  1.00  0.00     0.049 A 
ATOM     73  H   UNL     1      -3.681  -2.699  -6.954  1.00  0.00     0.167 HD
ATOM     74  C   UNL     1      -5.723  -4.188  -5.667  1.00  0.00     0.074 A 
ATOM     75  C   UNL     1      -6.416  -5.009  -4.697  1.00  0.00     0.031 C 
ATOM     76  C   UNL     1      -6.306  -3.653  -6.768  1.00  0.00     0.037 A 
BRANCH  63  77
ATOM     77  C   UNL     1      -2.534  -0.154 -10.176  1.00  0.00     0.064 A 
ATOM     78  C   UNL     1      -1.825  -0.551 -11.320  1.00  0.00     0.173 A 
ATOM     79  C   UNL     1      -3.139   1.111 -10.184  1.00  0.00     0.173 A 
ATOM     80  F   UNL     1      -1.220  -1.748 -11.357  1.00  0.00    -0.203 F 
ATOM     81  C   UNL     1      -1.710   0.295 -12.420  1.00  0.00     0.198 A 
ATOM     82  C   UNL     1      -3.044   1.944 -11.296  1.00  0.00     0.198 A 
ATOM     83  F   UNL     1      -3.833   1.536  -9.118  1.00  0.00    -0.203 F 
ATOM     84  F   UNL     1      -0.995  -0.090 -13.486  1.00  0.00    -0.200 F 
ATOM     85  C   UNL     1      -2.325   1.538 -12.410  1.00  0.00     0.200 A 
ATOM     86  F   UNL     1      -3.648   3.140 -11.290  1.00  0.00    -0.200 F 
ATOM     87  F   UNL     1      -2.220   2.347 -13.473  1.00  0.00    -0.200 F 
ENDBRANCH  63  77
BRANCH  64  88
ATOM     88  C   UNL     1      -3.278  -5.847  -2.010  1.00  0.00     0.064 A 
ATOM     89  C   UNL     1      -3.503  -7.228  -2.105  1.00  0.00     0.173 A 
ATOM     90  C   UNL     1      -3.190  -5.285  -0.729  1.00  0.00     0.173 A 
ATOM     91  F   UNL     1      -3.615  -7.806  -3.310  1.00  0.00    -0.203 F 
ATOM     92  C   UNL     1      -3.656  -8.011  -0.964  1.00  0.00     0.198 A 
ATOM     93  C   UNL     1      -3.318  -6.074   0.412  1.00  0.00     0.198 A 
ATOM     94  F   UNL     1      -2.969  -3.970  -0.585  1.00  0.00    -0.203 F 
ATOM     95  F   UNL     1      -3.914  -9.321  -1.083  1.00  0.00    -0.200 F 
ATOM     96  C   UNL     1      -3.559  -7.435   0.294  1.00  0.00     0.200 A 
ATOM     97  F   UNL     1      -3.211  -5.516   1.625  1.00  0.00    -0.200 F 
ATOM     98  F   UNL     1      -3.706  -8.189   1.391  1.00  0.00    -0.200 F 
ENDBRANCH  64  88
BRANCH  76  99
ATOM     99  C   UNL     1      -7.753  -3.970  -7.002  1.00  0.00     0.064 A 
ATOM    100  C   UNL     1      -8.766  -3.381  -6.233  1.00  0.00     0.173 A 
ATOM    101  C   UNL     1      -8.130  -4.842  -8.034  1.00  0.00     0.173 A 
ATOM    102  F   UNL     1      -8.453  -2.553  -5.224  1.00  0.00    -0.203 F 
ATOM    103  C   UNL     1     -10.106  -3.671  -6.475  1.00  0.00     0.198 A 
ATOM    104  C   UNL     1      -9.471  -5.109  -8.290  1.00  0.00     0.198 A 
ATOM    105  F   UNL     1      -7.197  -5.427  -8.800  1.00  0.00    -0.203 F 
ATOM    106  F   UNL     1     -11.057  -3.130  -5.701  1.00  0.00    -0.200 F 
ATOM    107  C   UNL     1     -10.457  -4.528  -7.507  1.00  0.00     0.200 A 
ATOM    108  F   UNL     1      -9.810  -5.930  -9.294  1.00  0.00    -0.200 F 
ATOM    109  F   UNL     1     -11.748  -4.801  -7.743  1.00  0.00    -0.200 F 
ENDBRANCH  76  99
ENDBRANCH  50  51
ENDBRANCH  42  45
ENDBRANCH  40  41
ENDBRANCH  39  40
ENDBRANCH  38  39
ENDBRANCH  37  38
ENDBRANCH   1  37
TORSDOF 19
