REMARK SMILES C[C@]([NH3+])(C(=O)N[C@H]1CCCCC[C@@H]1C(=O)NCCCCCCNC(=O)c1ccc(-c2c3nc(c(-c4c(F)c(F)c(F)c(F)c4F)c4ccc([nH]4)c(-c4c(F)c(F)c(F)c(F)c4F)c4nc(c(-c5c(F)c(F)c(F)c(F)c5F)c5ccc2[nH]5)C=C4)C=C3)cc1)C(F)(F)F
REMARK SMILES IDX 18 1 17 2 16 3 14 4 15 5 13 7 7 8 6 9 4 10 5 11 2 13 1 14
REMARK SMILES IDX 89 15 90 16 91 17 92 18 3 19 8 23 9 24 10 25 11 26 12 28
REMARK SMILES IDX 19 30 20 31 21 32 22 33 23 34 24 35 25 37 26 38 27 39 88 40
REMARK SMILES IDX 28 41 87 42 29 43 30 44 31 45 81 46 32 47 86 48 80 49 82 50
REMARK SMILES IDX 33 51 85 52 79 53 78 54 34 56 66 57 46 58 65 59 47 60 50 61
REMARK SMILES IDX 64 62 83 63 48 64 49 65 63 67 84 68 51 69 35 70 36 71 44 72
REMARK SMILES IDX 37 73 38 74 42 75 45 76 39 77 40 78 43 79 41 80 67 81 68 82
REMARK SMILES IDX 76 83 69 84 70 85 74 86 77 87 71 88 72 89 75 90 73 91 52 92
REMARK SMILES IDX 53 93 61 94 54 95 55 96 59 97 62 98 56 99 57 100 60 101
REMARK SMILES IDX 58 102
REMARK H PARENT 16 6 6 12 3 20 3 21 3 22 23 36 82 55 50 66
REMARK Flexibility Score: 90.00
ROOT
ATOM      1  C   UNL     1      -4.327   4.472   2.378  1.00  0.00     0.021 C 
ENDROOT
BRANCH   1   2
ATOM      2  C   UNL     1      -3.646   3.127   2.126  1.00  0.00     0.116 C 
BRANCH   2   3
ATOM      3  N   UNL     1      -3.878   2.691   0.775  1.00  0.00    -0.356 N 
ATOM      4  C   UNL     1      -3.254   2.976  -0.391  1.00  0.00     0.225 C 
ATOM      5  O   UNL     1      -3.828   2.542  -1.396  1.00  0.00    -0.275 OA
ATOM      6  H   UNL     1      -4.634   2.067   0.681  1.00  0.00     0.163 HD
BRANCH   4   7
ATOM      7  C   UNL     1      -1.860   3.633  -0.500  1.00  0.00     0.101 C 
BRANCH   7   8
ATOM      8  C   UNL     1      -0.865   2.494  -0.768  1.00  0.00     0.094 C 
BRANCH   8   9
ATOM      9  N   UNL     1      -0.703   2.017  -2.168  1.00  0.00    -0.347 N 
ATOM     10  C   UNL     1      -0.907   2.393  -3.462  1.00  0.00     0.290 C 
ATOM     11  O   UNL     1      -0.740   1.459  -4.262  1.00  0.00    -0.267 OA
ATOM     12  H   UNL     1      -0.312   1.113  -2.155  1.00  0.00     0.164 HD
BRANCH  10  13
ATOM     13  C   UNL     1      -1.243   3.810  -3.990  1.00  0.00     0.266 C 
ATOM     14  C   UNL     1      -0.167   4.804  -3.562  1.00  0.00     0.100 C 
BRANCH  13  15
ATOM     15  C   UNL     1      -1.220   3.751  -5.544  1.00  0.00     0.453 C 
ATOM     16  F   UNL     1      -2.176   2.938  -6.050  1.00  0.00    -0.164 F 
ATOM     17  F   UNL     1      -1.489   4.994  -6.041  1.00  0.00    -0.164 F 
ATOM     18  F   UNL     1      -0.023   3.392  -6.052  1.00  0.00    -0.164 F 
ENDBRANCH  13  15
BRANCH  13  19
ATOM     19  N   UNL     1      -2.570   4.286  -3.484  1.00  0.00    -0.337 N 
ATOM     20  H   UNL     1      -3.297   3.628  -3.765  1.00  0.00     0.345 HD
ATOM     21  H   UNL     1      -2.774   5.205  -3.876  1.00  0.00     0.345 HD
ATOM     22  H   UNL     1      -2.544   4.348  -2.466  1.00  0.00     0.345 HD
ENDBRANCH  13  19
ENDBRANCH  10  13
ENDBRANCH   8   9
BRANCH   8  23
ATOM     23  C   UNL     1       0.481   2.539  -0.022  1.00  0.00     0.026 C 
BRANCH  23  24
ATOM     24  C   UNL     1       1.410   3.695  -0.356  1.00  0.00     0.002 C 
BRANCH  24  25
ATOM     25  C   UNL     1       1.090   5.002   0.361  1.00  0.00     0.000 C 
BRANCH  25  26
ATOM     26  C   UNL     1      -0.299   5.592   0.151  1.00  0.00     0.001 CG0
ATOM     27  G   UNL     1      -1.454   4.674   0.552  1.00  0.00     0.000 G0
ENDBRANCH  25  26
ENDBRANCH  24  25
ENDBRANCH  23  24
ENDBRANCH   8  23
ENDBRANCH   7   8
BRANCH   7  28
ATOM     28  C   UNL     1      -1.454   4.674   0.552  1.00  0.00     0.015 CG0
ATOM     29  G   UNL     1      -0.299   5.592   0.151  1.00  0.00     0.000 G0
ENDBRANCH   7  28
ENDBRANCH   4   7
ENDBRANCH   2   3
ENDBRANCH   1   2
BRANCH   1  30
ATOM     30  C   UNL     1      -5.851   4.379   2.510  1.00  0.00     0.002 C 
BRANCH  30  31
ATOM     31  C   UNL     1      -6.343   3.425   3.600  1.00  0.00     0.002 C 
BRANCH  31  32
ATOM     32  C   UNL     1      -5.655   3.600   4.955  1.00  0.00     0.021 C 
BRANCH  32  33
ATOM     33  C   UNL     1      -5.756   5.009   5.522  1.00  0.00     0.116 C 
BRANCH  33  34
ATOM     34  N   UNL     1      -7.131   5.360   5.828  1.00  0.00    -0.352 N 
ATOM     35  C   UNL     1      -7.669   5.724   7.036  1.00  0.00     0.251 C 
ATOM     36  H   UNL     1      -7.758   5.334   5.070  1.00  0.00     0.163 HD
ATOM     37  O   UNL     1      -8.882   5.747   7.201  1.00  0.00    -0.269 OA
BRANCH  35  38
ATOM     38  C   UNL     1      -6.761   6.081   8.144  1.00  0.00     0.039 A 
ATOM     39  C   UNL     1      -6.990   5.538   9.409  1.00  0.00     0.014 A 
ATOM     40  C   UNL     1      -5.688   6.951   7.926  1.00  0.00     0.014 A 
ATOM     41  C   UNL     1      -6.115   5.840  10.453  1.00  0.00     0.010 A 
ATOM     42  C   UNL     1      -4.776   7.191   8.947  1.00  0.00     0.010 A 
ATOM     43  C   UNL     1      -4.991   6.651  10.224  1.00  0.00    -0.014 A 
BRANCH  43  44
ATOM     44  C   UNL     1      -4.043   6.972  11.318  1.00  0.00     0.031 A 
ATOM     45  C   UNL     1      -3.909   8.389  11.799  1.00  0.00     0.074 A 
ATOM     46  C   UNL     1      -3.275   5.998  11.842  1.00  0.00     0.049 A 
ATOM     47  N   UNL     1      -3.101   8.886  12.701  1.00  0.00    -0.248 NA
ATOM     48  C   UNL     1      -4.783   9.389  11.162  1.00  0.00     0.031 C 
ATOM     49  C   UNL     1      -3.290   4.594  11.429  1.00  0.00     0.029 A 
ATOM     50  N   UNL     1      -2.327   6.044  12.833  1.00  0.00    -0.354 N 
ATOM     51  C   UNL     1      -3.364  10.249  12.733  1.00  0.00     0.074 A 
ATOM     52  C   UNL     1      -4.360  10.514  11.718  1.00  0.00     0.031 C 
ATOM     53  C   UNL     1      -2.413   3.907  12.179  1.00  0.00     0.029 A 
ATOM     54  C   UNL     1      -1.749   4.827  13.097  1.00  0.00     0.049 A 
ATOM     55  H   UNL     1      -2.085   6.871  13.309  1.00  0.00     0.167 HD
ATOM     56  C   UNL     1      -2.844  11.190  13.555  1.00  0.00     0.037 A 
ATOM     57  C   UNL     1      -0.788   4.495  13.981  1.00  0.00     0.037 A 
ATOM     58  C   UNL     1      -1.868  10.918  14.577  1.00  0.00     0.049 A 
ATOM     59  C   UNL     1      -0.212   5.566  14.868  1.00  0.00     0.074 A 
ATOM     60  C   UNL     1      -1.303  11.792  15.488  1.00  0.00     0.029 A 
ATOM     61  N   UNL     1      -1.312   9.670  14.822  1.00  0.00    -0.354 N 
ATOM     62  N   UNL     1      -0.510   6.841  14.930  1.00  0.00    -0.248 NA
ATOM     63  C   UNL     1       0.831   5.147  15.816  1.00  0.00     0.031 C 
ATOM     64  C   UNL     1      -0.376  11.082  16.258  1.00  0.00     0.029 A 
ATOM     65  C   UNL     1      -0.399   9.755  15.860  1.00  0.00     0.049 A 
ATOM     66  H   UNL     1      -1.535   8.846  14.331  1.00  0.00     0.167 HD
ATOM     67  C   UNL     1       0.281   7.369  15.941  1.00  0.00     0.074 A 
ATOM     68  C   UNL     1       1.062   6.273  16.475  1.00  0.00     0.031 C 
ATOM     69  C   UNL     1       0.357   8.647  16.387  1.00  0.00     0.037 A 
BRANCH  56  70
ATOM     70  C   UNL     1      -3.329  12.601  13.389  1.00  0.00     0.064 A 
ATOM     71  C   UNL     1      -4.637  12.972  13.740  1.00  0.00     0.173 A 
ATOM     72  C   UNL     1      -2.472  13.601  12.905  1.00  0.00     0.173 A 
ATOM     73  F   UNL     1      -5.501  12.052  14.195  1.00  0.00    -0.203 F 
ATOM     74  C   UNL     1      -5.076  14.284  13.586  1.00  0.00     0.198 A 
ATOM     75  C   UNL     1      -2.906  14.918  12.782  1.00  0.00     0.198 A 
ATOM     76  F   UNL     1      -1.212  13.302  12.559  1.00  0.00    -0.203 F 
ATOM     77  F   UNL     1      -6.344  14.603  13.880  1.00  0.00    -0.200 F 
ATOM     78  C   UNL     1      -4.209  15.258  13.114  1.00  0.00     0.200 A 
ATOM     79  F   UNL     1      -2.062  15.860  12.337  1.00  0.00    -0.200 F 
ATOM     80  F   UNL     1      -4.631  16.522  12.973  1.00  0.00    -0.200 F 
ENDBRANCH  56  70
BRANCH  57  81
ATOM     81  C   UNL     1      -0.329   3.086  14.091  1.00  0.00     0.064 A 
ATOM     82  C   UNL     1      -0.606   2.329  15.239  1.00  0.00     0.173 A 
ATOM     83  C   UNL     1       0.407   2.473  13.068  1.00  0.00     0.173 A 
ATOM     84  F   UNL     1      -1.291   2.877  16.253  1.00  0.00    -0.203 F 
ATOM     85  C   UNL     1      -0.141   1.022  15.369  1.00  0.00     0.198 A 
ATOM     86  C   UNL     1       0.847   1.156  13.187  1.00  0.00     0.198 A 
ATOM     87  F   UNL     1       0.694   3.151  11.947  1.00  0.00    -0.203 F 
ATOM     88  F   UNL     1      -0.376   0.340  16.498  1.00  0.00    -0.200 F 
ATOM     89  C   UNL     1       0.581   0.435  14.341  1.00  0.00     0.200 A 
ATOM     90  F   UNL     1       1.532   0.588  12.185  1.00  0.00    -0.200 F 
ATOM     91  F   UNL     1       1.029  -0.821  14.467  1.00  0.00    -0.200 F 
ENDBRANCH  57  81
BRANCH  69  92
ATOM     92  C   UNL     1       1.283   8.920  17.535  1.00  0.00     0.064 A 
ATOM     93  C   UNL     1       2.676   8.903  17.379  1.00  0.00     0.173 A 
ATOM     94  C   UNL     1       0.767   9.238  18.801  1.00  0.00     0.173 A 
ATOM     95  F   UNL     1       3.219   8.590  16.192  1.00  0.00    -0.203 F 
ATOM     96  C   UNL     1       3.520   9.168  18.454  1.00  0.00     0.198 A 
ATOM     97  C   UNL     1       1.612   9.533  19.866  1.00  0.00     0.198 A 
ATOM     98  F   UNL     1      -0.559   9.274  19.001  1.00  0.00    -0.203 F 
ATOM     99  F   UNL     1       4.848   9.098  18.294  1.00  0.00    -0.200 F 
ATOM    100  C   UNL     1       2.987   9.490  19.694  1.00  0.00     0.200 A 
ATOM    101  F   UNL     1       1.096   9.857  21.060  1.00  0.00    -0.200 F 
ATOM    102  F   UNL     1       3.801   9.751  20.726  1.00  0.00    -0.200 F 
ENDBRANCH  69  92
ENDBRANCH  43  44
ENDBRANCH  35  38
ENDBRANCH  33  34
ENDBRANCH  32  33
ENDBRANCH  31  32
ENDBRANCH  30  31
ENDBRANCH   1  30
TORSDOF 17
