REMARK SMILES CC[C@](C)(NC(=O)CCOc1ccc(Cl)c(Cl)c1)C(=O)NCCCCCCNC(=O)c1ccc(-c2c3nc(c(-c4c(F)c(F)c(F)c(F)c4F)c4ccc([nH]4)c(-c4c(F)c(F)c(F)c(F)c4F)c4nc(c(-c5c(F)c(F)c(F)c(F)c5F)c5ccc2[nH]5)C=C4)C=C3)cc1
REMARK SMILES IDX 23 1 22 2 21 3 19 4 20 5 3 7 4 8 2 9 1 10 5 11 6 12 7 14
REMARK SMILES IDX 8 15 9 16 10 17 11 18 12 19 18 20 13 21 16 22 14 23 17 24
REMARK SMILES IDX 15 25 24 26 25 27 26 28 27 29 28 30 29 31 30 33 31 34 32 35
REMARK SMILES IDX 93 36 33 37 92 38 34 39 35 40 36 41 86 42 37 43 91 44 85 45
REMARK SMILES IDX 87 46 38 47 90 48 84 49 83 50 39 52 71 53 51 54 70 55 52 56
REMARK SMILES IDX 55 57 69 58 88 59 53 60 54 61 68 63 89 64 56 65 40 66 41 67
REMARK SMILES IDX 49 68 42 69 43 70 47 71 50 72 44 73 45 74 48 75 46 76 72 77
REMARK SMILES IDX 73 78 81 79 74 80 75 81 79 82 82 83 76 84 77 85 80 86 78 87
REMARK SMILES IDX 57 88 58 89 66 90 59 91 60 92 64 93 67 94 61 95 62 96 65 97
REMARK SMILES IDX 63 98
REMARK H PARENT 21 6 5 13 28 32 87 51 55 62
REMARK Flexibility Score: inf
ROOT
ATOM      1  C   UNL     1       3.225   0.863   6.079  1.00  0.00     0.021 C 
ENDROOT
BRANCH   1   2
ATOM      2  C   UNL     1       2.610   1.819   5.063  1.00  0.00     0.116 C 
BRANCH   2   3
ATOM      3  N   UNL     1       3.202   1.707   3.748  1.00  0.00    -0.354 N 
ATOM      4  C   UNL     1       2.675   1.287   2.567  1.00  0.00     0.245 C 
ATOM      5  O   UNL     1       3.370   1.461   1.561  1.00  0.00    -0.272 OA
ATOM      6  H   UNL     1       4.146   1.981   3.700  1.00  0.00     0.163 HD
BRANCH   4   7
ATOM      7  C   UNL     1       1.228   0.726   2.477  1.00  0.00     0.116 C 
ATOM      8  C   UNL     1       1.040   0.061   1.112  1.00  0.00     0.045 C 
BRANCH   7   9
ATOM      9  C   UNL     1       0.268   1.953   2.571  1.00  0.00     0.035 C 
ATOM     10  C   UNL     1      -1.199   1.665   2.258  1.00  0.00     0.007 C 
ENDBRANCH   7   9
BRANCH   7  11
ATOM     11  N   UNL     1       0.932  -0.216   3.584  1.00  0.00    -0.342 N 
ATOM     12  C   UNL     1       1.554  -1.343   4.028  1.00  0.00     0.224 C 
ATOM     13  H   UNL     1       0.127   0.020   4.099  1.00  0.00     0.164 HD
ATOM     14  O   UNL     1       1.026  -1.940   4.972  1.00  0.00    -0.275 OA
BRANCH  12  15
ATOM     15  C   UNL     1       2.893  -1.798   3.487  1.00  0.00     0.141 C 
BRANCH  15  16
ATOM     16  C   UNL     1       2.891  -3.205   2.889  1.00  0.00     0.239 C 
BRANCH  16  17
ATOM     17  O   UNL     1       2.262  -3.301   1.606  1.00  0.00    -0.493 OA
BRANCH  17  18
ATOM     18  C   UNL     1       0.897  -3.353   1.551  1.00  0.00     0.120 A 
ATOM     19  C   UNL     1       0.051  -3.574   2.632  1.00  0.00     0.048 A 
ATOM     20  C   UNL     1       0.342  -3.075   0.299  1.00  0.00     0.068 A 
ATOM     21  C   UNL     1      -1.318  -3.329   2.517  1.00  0.00     0.026 A 
ATOM     22  C   UNL     1      -1.035  -2.864   0.167  1.00  0.00     0.063 A 
ATOM     23  C   UNL     1      -1.861  -2.945   1.292  1.00  0.00     0.059 A 
ATOM     24  Cl  UNL     1      -1.637  -2.418  -1.389  1.00  0.00    -0.083 Cl
ATOM     25  Cl  UNL     1      -3.538  -2.542   1.250  1.00  0.00    -0.083 Cl
ENDBRANCH  17  18
ENDBRANCH  16  17
ENDBRANCH  15  16
ENDBRANCH  12  15
ENDBRANCH   7  11
ENDBRANCH   4   7
ENDBRANCH   2   3
ENDBRANCH   1   2
BRANCH   1  26
ATOM     26  C   UNL     1       4.751   0.906   6.166  1.00  0.00     0.002 C 
BRANCH  26  27
ATOM     27  C   UNL     1       5.340   2.300   6.386  1.00  0.00     0.002 C 
BRANCH  27  28
ATOM     28  C   UNL     1       4.700   3.091   7.527  1.00  0.00     0.021 C 
BRANCH  28  29
ATOM     29  C   UNL     1       4.669   2.352   8.855  1.00  0.00     0.116 C 
BRANCH  29  30
ATOM     30  N   UNL     1       6.007   2.124   9.366  1.00  0.00    -0.352 N 
ATOM     31  C   UNL     1       6.544   2.553  10.552  1.00  0.00     0.251 C 
ATOM     32  H   UNL     1       6.604   1.596   8.789  1.00  0.00     0.163 HD
ATOM     33  O   UNL     1       7.752   2.511  10.744  1.00  0.00    -0.269 OA
BRANCH  31  34
ATOM     34  C   UNL     1       5.641   3.083  11.593  1.00  0.00     0.039 A 
ATOM     35  C   UNL     1       5.981   4.271  12.239  1.00  0.00     0.014 A 
ATOM     36  C   UNL     1       4.456   2.413  11.915  1.00  0.00     0.014 A 
ATOM     37  C   UNL     1       5.113   4.806  13.190  1.00  0.00     0.010 A 
ATOM     38  C   UNL     1       3.552   2.992  12.797  1.00  0.00     0.010 A 
ATOM     39  C   UNL     1       3.881   4.183  13.459  1.00  0.00    -0.014 A 
BRANCH  39  40
ATOM     40  C   UNL     1       2.941   4.765  14.447  1.00  0.00     0.031 A 
ATOM     41  C   UNL     1       2.611   4.018  15.709  1.00  0.00     0.074 A 
ATOM     42  C   UNL     1       2.363   5.953  14.190  1.00  0.00     0.049 A 
ATOM     43  N   UNL     1       1.834   4.372  16.701  1.00  0.00    -0.248 NA
ATOM     44  C   UNL     1       3.210   2.683  15.865  1.00  0.00     0.031 C 
ATOM     45  C   UNL     1       2.565   6.745  12.976  1.00  0.00     0.029 A 
ATOM     46  N   UNL     1       1.495   6.706  14.939  1.00  0.00    -0.354 N 
ATOM     47  C   UNL     1       1.843   3.303  17.588  1.00  0.00     0.074 A 
ATOM     48  C   UNL     1       2.650   2.264  16.989  1.00  0.00     0.031 C 
ATOM     49  C   UNL     1       1.881   7.895  13.084  1.00  0.00     0.029 A 
ATOM     50  C   UNL     1       1.164   7.904  14.355  1.00  0.00     0.049 A 
ATOM     51  H   UNL     1       1.142   6.416  15.811  1.00  0.00     0.167 HD
ATOM     52  C   UNL     1       1.252   3.208  18.803  1.00  0.00     0.037 A 
ATOM     53  C   UNL     1       0.379   8.901  14.803  1.00  0.00     0.037 A 
ATOM     54  C   UNL     1       0.467   4.256  19.400  1.00  0.00     0.049 A 
ATOM     55  C   UNL     1      -0.273   8.767  16.153  1.00  0.00     0.074 A 
ATOM     56  C   UNL     1      -0.112   4.294  20.656  1.00  0.00     0.029 A 
ATOM     57  N   UNL     1       0.140   5.452  18.774  1.00  0.00    -0.354 N 
ATOM     58  N   UNL     1      -0.183   7.792  17.025  1.00  0.00    -0.248 NA
ATOM     59  C   UNL     1      -1.131   9.879  16.581  1.00  0.00     0.031 C 
ATOM     60  C   UNL     1      -0.843   5.482  20.766  1.00  0.00     0.029 A 
ATOM     61  C   UNL     1      -0.665   6.217  19.604  1.00  0.00     0.049 A 
ATOM     62  H   UNL     1       0.436   5.717  17.874  1.00  0.00     0.167 HD
ATOM     63  C   UNL     1      -0.946   8.184  18.117  1.00  0.00     0.074 A 
ATOM     64  C   UNL     1      -1.474   9.497  17.802  1.00  0.00     0.031 C 
ATOM     65  C   UNL     1      -1.187   7.520  19.274  1.00  0.00     0.037 A 
BRANCH  52  66
ATOM     66  C   UNL     1       1.422   1.919  19.557  1.00  0.00     0.064 A 
ATOM     67  C   UNL     1       2.668   1.512  20.062  1.00  0.00     0.173 A 
ATOM     68  C   UNL     1       0.320   1.082  19.790  1.00  0.00     0.173 A 
ATOM     69  F   UNL     1       3.758   2.266  19.860  1.00  0.00    -0.203 F 
ATOM     70  C   UNL     1       2.810   0.299  20.733  1.00  0.00     0.198 A 
ATOM     71  C   UNL     1       0.458  -0.112  20.492  1.00  0.00     0.198 A 
ATOM     72  F   UNL     1      -0.896   1.423  19.335  1.00  0.00    -0.203 F 
ATOM     73  F   UNL     1       4.021  -0.098  21.147  1.00  0.00    -0.200 F 
ATOM     74  C   UNL     1       1.704  -0.509  20.952  1.00  0.00     0.200 A 
ATOM     75  F   UNL     1      -0.614  -0.884  20.716  1.00  0.00    -0.200 F 
ATOM     76  F   UNL     1       1.842  -1.675  21.599  1.00  0.00    -0.200 F 
ENDBRANCH  52  66
BRANCH  53  77
ATOM     77  C   UNL     1       0.206  10.133  13.991  1.00  0.00     0.064 A 
ATOM     78  C   UNL     1       0.747  11.355  14.417  1.00  0.00     0.173 A 
ATOM     79  C   UNL     1      -0.498  10.120  12.778  1.00  0.00     0.173 A 
ATOM     80  F   UNL     1       1.412  11.422  15.580  1.00  0.00    -0.203 F 
ATOM     81  C   UNL     1       0.574  12.519  13.672  1.00  0.00     0.198 A 
ATOM     82  C   UNL     1      -0.644  11.280  12.018  1.00  0.00     0.198 A 
ATOM     83  F   UNL     1      -1.030   8.977  12.321  1.00  0.00    -0.203 F 
ATOM     84  F   UNL     1       1.064  13.681  14.127  1.00  0.00    -0.200 F 
ATOM     85  C   UNL     1      -0.115  12.479  12.470  1.00  0.00     0.200 A 
ATOM     86  F   UNL     1      -1.296  11.234  10.849  1.00  0.00    -0.200 F 
ATOM     87  F   UNL     1      -0.276  13.598  11.751  1.00  0.00    -0.200 F 
ENDBRANCH  53  77
BRANCH  65  88
ATOM     88  C   UNL     1      -2.037   8.219  20.298  1.00  0.00     0.064 A 
ATOM     89  C   UNL     1      -3.406   8.445  20.094  1.00  0.00     0.173 A 
ATOM     90  C   UNL     1      -1.474   8.659  21.507  1.00  0.00     0.173 A 
ATOM     91  F   UNL     1      -3.991   8.058  18.950  1.00  0.00    -0.203 F 
ATOM     92  C   UNL     1      -4.170   9.122  21.041  1.00  0.00     0.198 A 
ATOM     93  C   UNL     1      -2.249   9.302  22.468  1.00  0.00     0.198 A 
ATOM     94  F   UNL     1      -0.171   8.462  21.759  1.00  0.00    -0.203 F 
ATOM     95  F   UNL     1      -5.460   9.386  20.793  1.00  0.00    -0.200 F 
ATOM     96  C   UNL     1      -3.593   9.544  22.229  1.00  0.00     0.200 A 
ATOM     97  F   UNL     1      -1.693   9.694  23.622  1.00  0.00    -0.200 F 
ATOM     98  F   UNL     1      -4.330  10.195  23.140  1.00  0.00    -0.200 F 
ENDBRANCH  65  88
ENDBRANCH  39  40
ENDBRANCH  31  34
ENDBRANCH  29  30
ENDBRANCH  28  29
ENDBRANCH  27  28
ENDBRANCH  26  27
ENDBRANCH   1  26
TORSDOF 19
