REMARK SMILES CCOc1cnc(C(=O)c2[nH]c3cc(Cl)ccc3c2CC(=O)NCCCCCCNC(=O)c2ccc(-c3c4nc(c(-c5c(F)c(F)c(F)c(F)c5F)c5ccc([nH]5)c(-c5c(F)c(F)c(F)c(F)c5F)c5nc(c(-c6c(F)c(F)c(F)c(F)c6F)c6ccc3[nH]6)C=C5)C=C4)cc2)cc1CC
REMARK SMILES IDX 25 1 24 2 23 3 21 4 22 5 20 7 19 8 10 9 11 10 12 11 18 13
REMARK SMILES IDX 13 14 17 15 14 16 16 17 15 18 8 19 9 20 7 21 4 22 5 23 97 24
REMARK SMILES IDX 6 25 96 26 3 27 2 28 1 29 98 30 99 31 26 32 27 33 28 34
REMARK SMILES IDX 29 35 30 36 31 37 32 39 33 40 34 41 95 42 35 43 94 44 36 45
REMARK SMILES IDX 37 46 38 47 88 48 39 49 93 50 87 51 89 52 40 53 92 54 86 55
REMARK SMILES IDX 85 56 41 58 73 59 53 60 72 61 54 62 57 63 71 64 90 65 55 66
REMARK SMILES IDX 56 67 70 69 91 70 58 71 42 72 43 73 51 74 44 75 45 76 49 77
REMARK SMILES IDX 52 78 46 79 47 80 50 81 48 82 74 83 75 84 83 85 76 86 77 87
REMARK SMILES IDX 81 88 84 89 78 90 79 91 82 92 80 93 59 94 60 95 68 96 61 97
REMARK SMILES IDX 62 98 66 99 69 100 63 101 64 102 67 103 65 104
REMARK H PARENT 23 6 11 12 30 38 89 57 57 68
REMARK Flexibility Score: inf
ROOT
ATOM      1  C   UNL     1      10.894  -2.772   3.151  1.00  0.00     0.021 C 
ENDROOT
BRANCH   1   2
ATOM      2  C   UNL     1      11.224  -2.970   1.671  1.00  0.00     0.116 C 
BRANCH   2   3
ATOM      3  N   UNL     1      10.415  -4.003   1.060  1.00  0.00    -0.356 N 
ATOM      4  C   UNL     1       9.367  -3.889   0.191  1.00  0.00     0.224 C 
ATOM      5  O   UNL     1       8.921  -4.925  -0.309  1.00  0.00    -0.275 OA
ATOM      6  H   UNL     1      10.655  -4.925   1.307  1.00  0.00     0.163 HD
BRANCH   4   7
ATOM      7  C   UNL     1       8.860  -2.525  -0.258  1.00  0.00     0.138 C 
BRANCH   7   8
ATOM      8  C   UNL     1       8.393  -1.617   0.845  1.00  0.00    -0.002 A 
ATOM      9  C   UNL     1       7.314  -1.815   1.700  1.00  0.00     0.093 A 
ATOM     10  N   UNL     1       7.350  -0.808   2.638  1.00  0.00    -0.351 N 
ATOM     11  C   UNL     1       8.250   0.160   2.270  1.00  0.00     0.048 A 
ATOM     12  H   UNL     1       6.806  -0.786   3.458  1.00  0.00     0.167 HD
ATOM     13  C   UNL     1       8.919  -0.314   1.143  1.00  0.00     0.004 A 
ATOM     14  C   UNL     1       8.522   1.407   2.849  1.00  0.00     0.047 A 
ATOM     15  C   UNL     1       9.910   0.504   0.559  1.00  0.00     0.012 A 
ATOM     16  C   UNL     1       9.505   2.195   2.243  1.00  0.00     0.043 A 
ATOM     17  C   UNL     1      10.192   1.757   1.115  1.00  0.00     0.021 A 
ATOM     18  Cl  UNL     1       9.870   3.740   2.909  1.00  0.00    -0.084 Cl
BRANCH   9  19
ATOM     19  C   UNL     1       6.319  -2.879   1.696  1.00  0.00     0.227 C 
ATOM     20  O   UNL     1       6.634  -4.046   1.893  1.00  0.00    -0.285 OA
BRANCH  19  21
ATOM     21  C   UNL     1       4.874  -2.492   1.453  1.00  0.00     0.113 A 
ATOM     22  C   UNL     1       2.215  -1.864   1.125  1.00  0.00     0.140 A 
ATOM     23  C   UNL     1       2.669  -3.169   1.284  1.00  0.00     0.158 A 
ATOM     24  C   UNL     1       3.138  -0.821   1.178  1.00  0.00    -0.002 A 
ATOM     25  N   UNL     1       3.969  -3.503   1.463  1.00  0.00    -0.249 NA
ATOM     26  C   UNL     1       4.494  -1.159   1.272  1.00  0.00     0.040 A 
BRANCH  22  27
ATOM     27  O   UNL     1       0.880  -1.607   1.008  1.00  0.00    -0.492 OA
BRANCH  27  28
ATOM     28  C   UNL     1       0.414  -1.796  -0.336  1.00  0.00     0.226 C 
ATOM     29  C   UNL     1       0.075  -0.447  -0.948  1.00  0.00     0.049 C 
ENDBRANCH  27  28
ENDBRANCH  22  27
BRANCH  24  30
ATOM     30  C   UNL     1       2.728   0.631   1.139  1.00  0.00     0.036 C 
ATOM     31  C   UNL     1       3.282   1.437   2.311  1.00  0.00     0.009 C 
ENDBRANCH  24  30
ENDBRANCH  19  21
ENDBRANCH   9  19
ENDBRANCH   7   8
ENDBRANCH   4   7
ENDBRANCH   2   3
ENDBRANCH   1   2
BRANCH   1  32
ATOM     32  C   UNL     1      11.348  -3.918   4.064  1.00  0.00     0.002 C 
BRANCH  32  33
ATOM     33  C   UNL     1      12.846  -4.241   4.031  1.00  0.00     0.002 C 
BRANCH  33  34
ATOM     34  C   UNL     1      13.784  -3.057   4.283  1.00  0.00     0.021 C 
BRANCH  34  35
ATOM     35  C   UNL     1      13.616  -2.373   5.638  1.00  0.00     0.116 C 
BRANCH  35  36
ATOM     36  N   UNL     1      13.973  -3.244   6.745  1.00  0.00    -0.352 N 
ATOM     37  C   UNL     1      14.826  -3.022   7.797  1.00  0.00     0.251 C 
ATOM     38  H   UNL     1      13.538  -4.128   6.740  1.00  0.00     0.163 HD
ATOM     39  O   UNL     1      15.131  -3.944   8.547  1.00  0.00    -0.269 OA
BRANCH  37  40
ATOM     40  C   UNL     1      15.399  -1.677   8.028  1.00  0.00     0.039 A 
ATOM     41  C   UNL     1      16.756  -1.572   8.352  1.00  0.00     0.014 A 
ATOM     42  C   UNL     1      14.604  -0.528   7.969  1.00  0.00     0.014 A 
ATOM     43  C   UNL     1      17.327  -0.315   8.566  1.00  0.00     0.010 A 
ATOM     44  C   UNL     1      15.185   0.729   8.129  1.00  0.00     0.010 A 
ATOM     45  C   UNL     1      16.550   0.847   8.432  1.00  0.00    -0.014 A 
BRANCH  45  46
ATOM     46  C   UNL     1      17.146   2.194   8.617  1.00  0.00     0.031 A 
ATOM     47  C   UNL     1      16.739   3.046   9.786  1.00  0.00     0.074 A 
ATOM     48  C   UNL     1      18.003   2.676   7.697  1.00  0.00     0.049 A 
ATOM     49  N   UNL     1      17.079   4.278  10.072  1.00  0.00    -0.248 NA
ATOM     50  C   UNL     1      15.807   2.440  10.749  1.00  0.00     0.031 C 
ATOM     51  C   UNL     1      18.447   1.963   6.500  1.00  0.00     0.029 A 
ATOM     52  N   UNL     1      18.643   3.888   7.621  1.00  0.00    -0.354 N 
ATOM     53  C   UNL     1      16.387   4.600  11.231  1.00  0.00     0.074 A 
ATOM     54  C   UNL     1      15.582   3.449  11.578  1.00  0.00     0.031 C 
ATOM     55  C   UNL     1      19.296   2.745   5.813  1.00  0.00     0.029 A 
ATOM     56  C   UNL     1      19.433   4.023   6.506  1.00  0.00     0.049 A 
ATOM     57  H   UNL     1      18.546   4.593   8.301  1.00  0.00     0.167 HD
ATOM     58  C   UNL     1      16.432   5.748  11.950  1.00  0.00     0.037 A 
ATOM     59  C   UNL     1      20.179   5.063   6.088  1.00  0.00     0.037 A 
ATOM     60  C   UNL     1      17.259   6.880  11.625  1.00  0.00     0.049 A 
ATOM     61  C   UNL     1      20.228   6.317   6.915  1.00  0.00     0.074 A 
ATOM     62  C   UNL     1      17.419   8.063  12.325  1.00  0.00     0.029 A 
ATOM     63  N   UNL     1      18.073   6.965  10.505  1.00  0.00    -0.354 N 
ATOM     64  N   UNL     1      19.609   6.592   8.037  1.00  0.00    -0.248 NA
ATOM     65  C   UNL     1      21.084   7.405   6.420  1.00  0.00     0.031 C 
ATOM     66  C   UNL     1      18.307   8.877  11.613  1.00  0.00     0.029 A 
ATOM     67  C   UNL     1      18.727   8.186  10.488  1.00  0.00     0.049 A 
ATOM     68  H   UNL     1      18.170   6.262   9.822  1.00  0.00     0.167 HD
ATOM     69  C   UNL     1      20.017   7.869   8.395  1.00  0.00     0.074 A 
ATOM     70  C   UNL     1      20.946   8.313   7.375  1.00  0.00     0.031 C 
ATOM     71  C   UNL     1      19.655   8.607   9.472  1.00  0.00     0.037 A 
BRANCH  58  72
ATOM     72  C   UNL     1      15.559   5.835  13.166  1.00  0.00     0.064 A 
ATOM     73  C   UNL     1      15.857   5.118  14.334  1.00  0.00     0.173 A 
ATOM     74  C   UNL     1      14.431   6.668  13.174  1.00  0.00     0.173 A 
ATOM     75  F   UNL     1      16.918   4.299  14.371  1.00  0.00    -0.203 F 
ATOM     76  C   UNL     1      15.041   5.212  15.459  1.00  0.00     0.198 A 
ATOM     77  C   UNL     1      13.631   6.779  14.308  1.00  0.00     0.198 A 
ATOM     78  F   UNL     1      14.106   7.378  12.083  1.00  0.00    -0.203 F 
ATOM     79  F   UNL     1      15.320   4.485  16.549  1.00  0.00    -0.200 F 
ATOM     80  C   UNL     1      13.933   6.046  15.447  1.00  0.00     0.200 A 
ATOM     81  F   UNL     1      12.566   7.592  14.299  1.00  0.00    -0.200 F 
ATOM     82  F   UNL     1      13.151   6.138  16.531  1.00  0.00    -0.200 F 
ENDBRANCH  58  72
BRANCH  59  83
ATOM     83  C   UNL     1      20.965   4.949   4.834  1.00  0.00     0.064 A 
ATOM     84  C   UNL     1      22.360   4.819   4.873  1.00  0.00     0.173 A 
ATOM     85  C   UNL     1      20.342   4.962   3.578  1.00  0.00     0.173 A 
ATOM     86  F   UNL     1      22.999   4.824   6.052  1.00  0.00    -0.203 F 
ATOM     87  C   UNL     1      23.105   4.720   3.701  1.00  0.00     0.198 A 
ATOM     88  C   UNL     1      21.087   4.840   2.407  1.00  0.00     0.198 A 
ATOM     89  F   UNL     1      19.009   5.080   3.490  1.00  0.00    -0.203 F 
ATOM     90  F   UNL     1      24.441   4.633   3.764  1.00  0.00    -0.200 F 
ATOM     91  C   UNL     1      22.468   4.725   2.469  1.00  0.00     0.200 A 
ATOM     92  F   UNL     1      20.467   4.835   1.219  1.00  0.00    -0.200 F 
ATOM     93  F   UNL     1      23.185   4.626   1.341  1.00  0.00    -0.200 F 
ENDBRANCH  59  83
BRANCH  71  94
ATOM     94  C   UNL     1      20.287   9.958   9.620  1.00  0.00     0.064 A 
ATOM     95  C   UNL     1      19.891  11.043   8.826  1.00  0.00     0.173 A 
ATOM     96  C   UNL     1      21.272  10.178  10.595  1.00  0.00     0.173 A 
ATOM     97  F   UNL     1      18.965  10.877   7.870  1.00  0.00    -0.203 F 
ATOM     98  C   UNL     1      20.472  12.298   8.990  1.00  0.00     0.198 A 
ATOM     99  C   UNL     1      21.834  11.438  10.771  1.00  0.00     0.198 A 
ATOM    100  F   UNL     1      21.681   9.171  11.381  1.00  0.00    -0.203 F 
ATOM    101  F   UNL     1      20.105  13.313   8.196  1.00  0.00    -0.200 F 
ATOM    102  C   UNL     1      21.438  12.495   9.966  1.00  0.00     0.200 A 
ATOM    103  F   UNL     1      22.762  11.630  11.720  1.00  0.00    -0.200 F 
ATOM    104  F   UNL     1      21.992  13.705  10.126  1.00  0.00    -0.200 F 
ENDBRANCH  71  94
ENDBRANCH  45  46
ENDBRANCH  37  40
ENDBRANCH  35  36
ENDBRANCH  34  35
ENDBRANCH  33  34
ENDBRANCH  32  33
ENDBRANCH   1  32
TORSDOF 19
