REMARK SMILES COC(=O)c1ccccc1-c1ccc(/C=C(\C#N)C(=O)NCCCCCCNC(=O)c2ccc(-c3c4nc(c(-c5c(F)c(F)c(F)c(F)c5F)c5ccc([nH]5)c(-c5c(F)c(F)c(F)c(F)c5F)c5nc(c(-c6c(F)c(F)c(F)c(F)c6F)c6ccc3[nH]6)C=C5)C=C4)cc2)o1
REMARK SMILES IDX 23 1 22 2 21 3 19 4 20 5 16 7 15 8 14 9 11 10 12 11 94 12
REMARK SMILES IDX 13 13 10 14 5 15 6 16 7 17 9 18 8 19 3 20 4 21 2 22 1 23
REMARK SMILES IDX 17 24 18 25 24 26 25 27 26 28 27 29 28 30 29 31 30 33 31 34
REMARK SMILES IDX 32 35 93 36 33 37 92 38 34 39 35 40 36 41 86 42 37 43 91 44
REMARK SMILES IDX 85 45 87 46 38 47 90 48 84 49 83 50 39 52 71 53 51 54 70 55
REMARK SMILES IDX 52 56 55 57 69 58 88 59 53 60 54 61 68 63 89 64 56 65 40 66
REMARK SMILES IDX 41 67 49 68 42 69 43 70 47 71 50 72 44 73 45 74 48 75 46 76
REMARK SMILES IDX 72 77 73 78 81 79 74 80 75 81 79 82 82 83 76 84 77 85 80 86
REMARK SMILES IDX 78 87 57 88 58 89 66 90 59 91 60 92 64 93 67 94 61 95 62 96
REMARK SMILES IDX 65 97 63 98
REMARK H PARENT 21 6 28 32 87 51 55 62
REMARK Flexibility Score: inf
ROOT
ATOM      1  C   UNL     1      -4.682  -4.734  -5.407  1.00  0.00     0.021 C 
ENDROOT
BRANCH   1   2
ATOM      2  C   UNL     1      -5.614  -3.552  -5.150  1.00  0.00     0.116 C 
BRANCH   2   3
ATOM      3  N   UNL     1      -6.015  -3.508  -3.757  1.00  0.00    -0.351 N 
ATOM      4  C   UNL     1      -5.609  -2.771  -2.693  1.00  0.00     0.262 C 
ATOM      5  O   UNL     1      -6.154  -3.030  -1.615  1.00  0.00    -0.268 OA
ATOM      6  H   UNL     1      -6.732  -4.146  -3.538  1.00  0.00     0.163 HD
BRANCH   4   7
ATOM      7  C   UNL     1      -4.586  -1.685  -2.777  1.00  0.00     0.120 C 
ATOM      8  C   UNL     1      -4.440  -0.918  -1.675  1.00  0.00     0.072 C 
BRANCH   8   9
ATOM      9  C   UNL     1      -3.561   0.200  -1.561  1.00  0.00     0.129 A 
ATOM     10  C   UNL     1      -2.026   1.730  -2.092  1.00  0.00     0.135 A 
ATOM     11  C   UNL     1      -2.376   1.979  -0.786  1.00  0.00     0.051 A 
ATOM     12  O   UNL     1      -2.752   0.682  -2.567  1.00  0.00    -0.457 OA
ATOM     13  C   UNL     1      -3.352   1.011  -0.450  1.00  0.00     0.051 A 
BRANCH  10  14
ATOM     14  C   UNL     1      -1.066   2.321  -3.014  1.00  0.00     0.032 A 
ATOM     15  C   UNL     1       0.290   2.501  -2.682  1.00  0.00     0.071 A 
ATOM     16  C   UNL     1       1.155   3.189  -3.549  1.00  0.00     0.016 A 
ATOM     17  C   UNL     1       0.684   3.672  -4.768  1.00  0.00     0.001 A 
ATOM     18  C   UNL     1      -1.514   2.796  -4.257  1.00  0.00     0.013 A 
ATOM     19  C   UNL     1      -0.646   3.467  -5.126  1.00  0.00     0.001 A 
BRANCH  15  20
ATOM     20  C   UNL     1       0.876   1.996  -1.424  1.00  0.00     0.338 C 
ATOM     21  O   UNL     1       1.585   2.670  -0.690  1.00  0.00    -0.246 OA
BRANCH  20  22
ATOM     22  O   UNL     1       0.566   0.688  -1.271  1.00  0.00    -0.465 OA
ATOM     23  C   UNL     1       1.051   0.108  -0.062  1.00  0.00     0.282 C 
ENDBRANCH  20  22
ENDBRANCH  15  20
ENDBRANCH  10  14
ENDBRANCH   8   9
BRANCH   7  24
ATOM     24  C   UNL     1      -3.793  -1.397  -4.041  1.00  0.00     0.105 C 
ATOM     25  N   UNL     1      -3.136  -1.157  -5.090  1.00  0.00    -0.192 NA
ENDBRANCH   7  24
ENDBRANCH   4   7
ENDBRANCH   2   3
ENDBRANCH   1   2
BRANCH   1  26
ATOM     26  C   UNL     1      -5.441  -6.044  -5.651  1.00  0.00     0.002 C 
BRANCH  26  27
ATOM     27  C   UNL     1      -6.415  -6.007  -6.837  1.00  0.00     0.002 C 
BRANCH  27  28
ATOM     28  C   UNL     1      -5.800  -5.538  -8.159  1.00  0.00     0.021 C 
BRANCH  28  29
ATOM     29  C   UNL     1      -4.674  -6.430  -8.668  1.00  0.00     0.116 C 
BRANCH  29  30
ATOM     30  N   UNL     1      -5.150  -7.774  -8.954  1.00  0.00    -0.352 N 
ATOM     31  C   UNL     1      -5.095  -8.485 -10.123  1.00  0.00     0.251 C 
ATOM     32  H   UNL     1      -5.574  -8.241  -8.197  1.00  0.00     0.163 HD
ATOM     33  O   UNL     1      -5.766  -9.503 -10.262  1.00  0.00    -0.269 OA
BRANCH  31  34
ATOM     34  C   UNL     1      -4.224  -8.022 -11.221  1.00  0.00     0.039 A 
ATOM     35  C   UNL     1      -4.707  -8.058 -12.531  1.00  0.00     0.014 A 
ATOM     36  C   UNL     1      -2.922  -7.584 -10.960  1.00  0.00     0.014 A 
ATOM     37  C   UNL     1      -3.897  -7.616 -13.578  1.00  0.00     0.010 A 
ATOM     38  C   UNL     1      -2.141  -7.080 -11.994  1.00  0.00     0.010 A 
ATOM     39  C   UNL     1      -2.616  -7.104 -13.314  1.00  0.00    -0.014 A 
BRANCH  39  40
ATOM     40  C   UNL     1      -1.746  -6.612 -14.409  1.00  0.00     0.031 A 
ATOM     41  C   UNL     1      -0.462  -7.329 -14.724  1.00  0.00     0.074 A 
ATOM     42  C   UNL     1      -2.083  -5.495 -15.079  1.00  0.00     0.049 A 
ATOM     43  N   UNL     1       0.471  -7.017 -15.587  1.00  0.00    -0.248 NA
ATOM     44  C   UNL     1      -0.178  -8.546 -13.947  1.00  0.00     0.031 C 
ATOM     45  C   UNL     1      -3.285  -4.695 -14.839  1.00  0.00     0.029 A 
ATOM     46  N   UNL     1      -1.441  -4.832 -16.094  1.00  0.00    -0.354 N 
ATOM     47  C   UNL     1       1.453  -7.990 -15.449  1.00  0.00     0.074 A 
ATOM     48  C   UNL     1       1.031  -8.870 -14.382  1.00  0.00     0.031 C 
ATOM     49  C   UNL     1      -3.305  -3.662 -15.697  1.00  0.00     0.029 A 
ATOM     50  C   UNL     1      -2.100  -3.706 -16.520  1.00  0.00     0.049 A 
ATOM     51  H   UNL     1      -0.588  -5.136 -16.481  1.00  0.00     0.167 HD
ATOM     52  C   UNL     1       2.590  -8.149 -16.166  1.00  0.00     0.037 A 
ATOM     53  C   UNL     1      -1.764  -2.807 -17.465  1.00  0.00     0.037 A 
ATOM     54  C   UNL     1       2.995  -7.282 -17.241  1.00  0.00     0.049 A 
ATOM     55  C   UNL     1      -0.483  -2.998 -18.233  1.00  0.00     0.074 A 
ATOM     56  C   UNL     1       4.111  -7.377 -18.054  1.00  0.00     0.029 A 
ATOM     57  N   UNL     1       2.292  -6.159 -17.654  1.00  0.00    -0.354 N 
ATOM     58  N   UNL     1       0.410  -3.952 -18.131  1.00  0.00    -0.248 NA
ATOM     59  C   UNL     1      -0.169  -1.989 -19.253  1.00  0.00     0.031 C 
ATOM     60  C   UNL     1       4.104  -6.290 -18.934  1.00  0.00     0.029 A 
ATOM     61  C   UNL     1       2.958  -5.545 -18.702  1.00  0.00     0.049 A 
ATOM     62  H   UNL     1       1.446  -5.846 -17.261  1.00  0.00     0.167 HD
ATOM     63  C   UNL     1       1.372  -3.679 -19.094  1.00  0.00     0.074 A 
ATOM     64  C   UNL     1       0.946  -2.476 -19.780  1.00  0.00     0.031 C 
ATOM     65  C   UNL     1       2.506  -4.361 -19.385  1.00  0.00     0.037 A 
BRANCH  52  66
ATOM     66  C   UNL     1       3.473  -9.312 -15.819  1.00  0.00     0.064 A 
ATOM     67  C   UNL     1       3.088 -10.633 -16.098  1.00  0.00     0.173 A 
ATOM     68  C   UNL     1       4.734  -9.106 -15.239  1.00  0.00     0.173 A 
ATOM     69  F   UNL     1       1.887 -10.885 -16.640  1.00  0.00    -0.203 F 
ATOM     70  C   UNL     1       3.921 -11.704 -15.786  1.00  0.00     0.198 A 
ATOM     71  C   UNL     1       5.577 -10.178 -14.957  1.00  0.00     0.198 A 
ATOM     72  F   UNL     1       5.154  -7.864 -14.957  1.00  0.00    -0.203 F 
ATOM     73  F   UNL     1       3.511 -12.959 -16.020  1.00  0.00    -0.200 F 
ATOM     74  C   UNL     1       5.167 -11.475 -15.224  1.00  0.00     0.200 A 
ATOM     75  F   UNL     1       6.787  -9.955 -14.425  1.00  0.00    -0.200 F 
ATOM     76  F   UNL     1       5.971 -12.507 -14.933  1.00  0.00    -0.200 F 
ENDBRANCH  52  66
BRANCH  53  77
ATOM     77  C   UNL     1      -2.660  -1.659 -17.758  1.00  0.00     0.064 A 
ATOM     78  C   UNL     1      -3.343  -1.576 -18.980  1.00  0.00     0.173 A 
ATOM     79  C   UNL     1      -2.837  -0.614 -16.841  1.00  0.00     0.173 A 
ATOM     80  F   UNL     1      -3.190  -2.542 -19.899  1.00  0.00    -0.203 F 
ATOM     81  C   UNL     1      -4.145  -0.479 -19.285  1.00  0.00     0.198 A 
ATOM     82  C   UNL     1      -3.663   0.469 -17.134  1.00  0.00     0.198 A 
ATOM     83  F   UNL     1      -2.211  -0.647 -15.655  1.00  0.00    -0.203 F 
ATOM     84  F   UNL     1      -4.741  -0.400 -20.482  1.00  0.00    -0.200 F 
ATOM     85  C   UNL     1      -4.308   0.541 -18.360  1.00  0.00     0.200 A 
ATOM     86  F   UNL     1      -3.829   1.447 -16.233  1.00  0.00    -0.200 F 
ATOM     87  F   UNL     1      -5.077   1.598 -18.654  1.00  0.00    -0.200 F 
ENDBRANCH  53  77
BRANCH  65  88
ATOM     88  C   UNL     1       3.340  -3.853 -20.525  1.00  0.00     0.064 A 
ATOM     89  C   UNL     1       4.094  -2.675 -20.421  1.00  0.00     0.173 A 
ATOM     90  C   UNL     1       3.414  -4.578 -21.724  1.00  0.00     0.173 A 
ATOM     91  F   UNL     1       4.044  -1.939 -19.300  1.00  0.00    -0.203 F 
ATOM     92  C   UNL     1       4.871  -2.228 -21.486  1.00  0.00     0.198 A 
ATOM     93  C   UNL     1       4.216  -4.144 -22.776  1.00  0.00     0.198 A 
ATOM     94  F   UNL     1       2.717  -5.715 -21.872  1.00  0.00    -0.203 F 
ATOM     95  F   UNL     1       5.545  -1.075 -21.382  1.00  0.00    -0.200 F 
ATOM     96  C   UNL     1       4.938  -2.966 -22.658  1.00  0.00     0.200 A 
ATOM     97  F   UNL     1       4.290  -4.865 -23.903  1.00  0.00    -0.200 F 
ATOM     98  F   UNL     1       5.692  -2.537 -23.679  1.00  0.00    -0.200 F 
ENDBRANCH  65  88
ENDBRANCH  39  40
ENDBRANCH  31  34
ENDBRANCH  29  30
ENDBRANCH  28  29
ENDBRANCH  27  28
ENDBRANCH  26  27
ENDBRANCH   1  26
TORSDOF 18
