REMARK SMILES O=C(NCCCCCCNC(=O)c1cc(S(=O)(=O)NNC(=O)[C@H]2C=C(c3ccccc3)N=N2)ccc1F)c1ccc(-c2c3nc(c(-c4c(F)c(F)c(F)c(F)c4F)c4ccc([nH]4)c(-c4c(F)c(F)c(F)c(F)c4F)c4nc(c(-c5c(F)c(F)c(F)c(F)c5F)c5ccc2[nH]5)C=C4)C=C3)cc1
REMARK SMILES IDX 8 1 7 2 6 3 5 4 4 5 3 6 1 7 2 8 38 10 39 11 100 12 40 13
REMARK SMILES IDX 99 14 41 15 42 16 43 17 93 18 44 19 98 20 92 21 94 22 45 23
REMARK SMILES IDX 97 24 91 25 90 26 46 28 78 29 58 30 77 31 59 32 62 33 76 34
REMARK SMILES IDX 95 35 60 36 61 37 75 39 96 40 63 41 47 42 48 43 56 44 49 45
REMARK SMILES IDX 50 46 54 47 57 48 51 49 52 50 55 51 53 52 79 53 80 54 88 55
REMARK SMILES IDX 81 56 82 57 86 58 89 59 83 60 84 61 87 62 85 63 64 64 65 65
REMARK SMILES IDX 73 66 66 67 67 68 71 69 74 70 68 71 69 72 72 73 70 74 9 75
REMARK SMILES IDX 10 76 11 77 12 79 13 80 14 81 36 82 15 83 35 84 37 85 34 86
REMARK SMILES IDX 16 87 17 88 18 89 19 90 20 92 21 93 22 95 23 96 24 97 33 98
REMARK SMILES IDX 25 99 32 100 26 101 27 102 31 103 28 104 30 105 29 106
REMARK H PARENT 3 9 94 27 62 38 10 78 19 91 20 94
REMARK Flexibility Score: inf
ROOT
ATOM      1  C   UNL     1      19.534   3.965  11.721  1.00  0.00     0.021 C 
ENDROOT
BRANCH   1   2
ATOM      2  C   UNL     1      20.041   3.896  13.163  1.00  0.00     0.002 C 
BRANCH   2   3
ATOM      3  C   UNL     1      19.040   3.373  14.199  1.00  0.00     0.002 C 
BRANCH   3   4
ATOM      4  C   UNL     1      18.406   2.008  13.900  1.00  0.00     0.021 C 
BRANCH   4   5
ATOM      5  C   UNL     1      19.398   0.875  13.635  1.00  0.00     0.116 C 
BRANCH   5   6
ATOM      6  N   UNL     1      20.340   0.667  14.714  1.00  0.00    -0.352 N 
ATOM      7  O   UNL     1      21.383   0.028  16.547  1.00  0.00    -0.269 OA
ATOM      8  C   UNL     1      20.327   0.001  15.907  1.00  0.00     0.251 C 
ATOM      9  H   UNL     1      21.201   1.116  14.548  1.00  0.00     0.163 HD
BRANCH   8  10
ATOM     10  C   UNL     1      19.163  -0.730  16.491  1.00  0.00     0.039 A 
ATOM     11  C   UNL     1      17.930  -0.940  15.876  1.00  0.00     0.014 A 
ATOM     12  C   UNL     1      19.351  -1.256  17.786  1.00  0.00     0.014 A 
ATOM     13  C   UNL     1      16.914  -1.639  16.535  1.00  0.00     0.010 A 
ATOM     14  C   UNL     1      18.343  -1.962  18.445  1.00  0.00     0.010 A 
ATOM     15  C   UNL     1      17.112  -2.147  17.824  1.00  0.00    -0.014 A 
BRANCH  15  16
ATOM     16  C   UNL     1      16.026  -2.921  18.434  1.00  0.00     0.031 A 
ATOM     17  C   UNL     1      15.635  -4.203  17.767  1.00  0.00     0.074 A 
ATOM     18  C   UNL     1      15.457  -2.644  19.624  1.00  0.00     0.049 A 
ATOM     19  N   UNL     1      14.469  -4.573  17.335  1.00  0.00    -0.248 NA
ATOM     20  C   UNL     1      16.689  -5.210  17.574  1.00  0.00     0.031 C 
ATOM     21  C   UNL     1      15.882  -1.679  20.638  1.00  0.00     0.029 A 
ATOM     22  N   UNL     1      14.390  -3.269  20.209  1.00  0.00    -0.354 N 
ATOM     23  C   UNL     1      14.606  -5.896  16.915  1.00  0.00     0.074 A 
ATOM     24  C   UNL     1      16.005  -6.224  17.044  1.00  0.00     0.031 C 
ATOM     25  C   UNL     1      15.204  -1.916  21.785  1.00  0.00     0.029 A 
ATOM     26  C   UNL     1      14.206  -2.945  21.541  1.00  0.00     0.049 A 
ATOM     27  H   UNL     1      13.804  -3.894  19.725  1.00  0.00     0.167 HD
ATOM     28  C   UNL     1      13.550  -6.691  16.585  1.00  0.00     0.037 A 
ATOM     29  C   UNL     1      13.330  -3.521  22.396  1.00  0.00     0.037 A 
ATOM     30  C   UNL     1      12.349  -5.948  16.347  1.00  0.00     0.049 A 
ATOM     31  C   UNL     1      12.270  -4.188  21.603  1.00  0.00     0.074 A 
ATOM     32  C   UNL     1      11.949  -5.012  15.415  1.00  0.00     0.029 A 
ATOM     33  N   UNL     1      11.378  -5.942  17.314  1.00  0.00    -0.354 N 
ATOM     34  N   UNL     1      11.361  -3.572  20.902  1.00  0.00    -0.248 NA
ATOM     35  C   UNL     1      12.384  -5.619  21.361  1.00  0.00     0.031 C 
ATOM     36  C   UNL     1      11.020  -4.174  16.097  1.00  0.00     0.029 A 
ATOM     37  C   UNL     1      10.923  -4.652  17.405  1.00  0.00     0.049 A 
ATOM     38  H   UNL     1      11.068  -6.714  17.841  1.00  0.00     0.167 HD
ATOM     39  C   UNL     1      11.061  -4.444  19.869  1.00  0.00     0.074 A 
ATOM     40  C   UNL     1      11.603  -5.729  20.285  1.00  0.00     0.031 C 
ATOM     41  C   UNL     1      10.648  -3.982  18.654  1.00  0.00     0.037 A 
BRANCH  28  42
ATOM     42  C   UNL     1      13.547  -8.193  16.662  1.00  0.00     0.064 A 
ATOM     43  C   UNL     1      14.288  -8.903  17.628  1.00  0.00     0.173 A 
ATOM     44  C   UNL     1      12.601  -8.944  15.937  1.00  0.00     0.173 A 
ATOM     45  F   UNL     1      15.125  -8.271  18.463  1.00  0.00    -0.203 F 
ATOM     46  C   UNL     1      14.122 -10.273  17.830  1.00  0.00     0.198 A 
ATOM     47  C   UNL     1      12.405 -10.308  16.174  1.00  0.00     0.198 A 
ATOM     48  F   UNL     1      11.809  -8.353  15.030  1.00  0.00    -0.203 F 
ATOM     49  F   UNL     1      14.852 -10.897  18.765  1.00  0.00    -0.200 F 
ATOM     50  C   UNL     1      13.169 -10.972  17.116  1.00  0.00     0.200 A 
ATOM     51  F   UNL     1      11.438 -10.966  15.519  1.00  0.00    -0.200 F 
ATOM     52  F   UNL     1      12.959 -12.271  17.367  1.00  0.00    -0.200 F 
ENDBRANCH  28  42
BRANCH  29  53
ATOM     53  C   UNL     1      13.472  -3.740  23.852  1.00  0.00     0.064 A 
ATOM     54  C   UNL     1      14.734  -3.962  24.435  1.00  0.00     0.173 A 
ATOM     55  C   UNL     1      12.353  -4.011  24.656  1.00  0.00     0.173 A 
ATOM     56  F   UNL     1      15.858  -3.811  23.719  1.00  0.00    -0.203 F 
ATOM     57  C   UNL     1      14.869  -4.442  25.737  1.00  0.00     0.198 A 
ATOM     58  C   UNL     1      12.489  -4.503  25.957  1.00  0.00     0.198 A 
ATOM     59  F   UNL     1      11.115  -3.867  24.161  1.00  0.00    -0.203 F 
ATOM     60  F   UNL     1      16.090  -4.688  26.232  1.00  0.00    -0.200 F 
ATOM     61  C   UNL     1      13.746  -4.727  26.493  1.00  0.00     0.200 A 
ATOM     62  F   UNL     1      11.398  -4.814  26.671  1.00  0.00    -0.200 F 
ATOM     63  F   UNL     1      13.877  -5.256  27.717  1.00  0.00    -0.200 F 
ENDBRANCH  29  53
BRANCH  41  64
ATOM     64  C   UNL     1      10.183  -2.558  18.564  1.00  0.00     0.064 A 
ATOM     65  C   UNL     1       8.890  -2.305  18.087  1.00  0.00     0.173 A 
ATOM     66  C   UNL     1      11.028  -1.455  18.773  1.00  0.00     0.173 A 
ATOM     67  F   UNL     1       8.062  -3.325  17.810  1.00  0.00    -0.203 F 
ATOM     68  C   UNL     1       8.459  -1.006  17.829  1.00  0.00     0.198 A 
ATOM     69  C   UNL     1      10.581  -0.155  18.549  1.00  0.00     0.198 A 
ATOM     70  F   UNL     1      12.308  -1.626  19.128  1.00  0.00    -0.203 F 
ATOM     71  F   UNL     1       7.239  -0.798  17.314  1.00  0.00    -0.200 F 
ATOM     72  C   UNL     1       9.301   0.068  18.069  1.00  0.00     0.200 A 
ATOM     73  F   UNL     1      11.405   0.883  18.756  1.00  0.00    -0.200 F 
ATOM     74  F   UNL     1       8.890   1.316  17.802  1.00  0.00    -0.200 F 
ENDBRANCH  41  64
ENDBRANCH  15  16
ENDBRANCH   8  10
ENDBRANCH   5   6
ENDBRANCH   4   5
ENDBRANCH   3   4
ENDBRANCH   2   3
ENDBRANCH   1   2
BRANCH   1  75
ATOM     75  C   UNL     1      18.298   4.832  11.505  1.00  0.00     0.116 C 
BRANCH  75  76
ATOM     76  N   UNL     1      18.562   6.246  11.710  1.00  0.00    -0.352 N 
ATOM     77  C   UNL     1      18.299   7.306  10.880  1.00  0.00     0.254 C 
ATOM     78  H   UNL     1      18.990   6.476  12.567  1.00  0.00     0.163 HD
ATOM     79  O   UNL     1      18.665   8.438  11.180  1.00  0.00    -0.269 OA
BRANCH  77  80
ATOM     80  C   UNL     1      17.638   7.088   9.582  1.00  0.00     0.076 A 
ATOM     81  C   UNL     1      18.250   7.592   8.431  1.00  0.00     0.038 A 
ATOM     82  C   UNL     1      16.418   6.423   9.480  1.00  0.00     0.136 A 
ATOM     83  C   UNL     1      17.672   7.349   7.179  1.00  0.00     0.085 A 
ATOM     84  C   UNL     1      15.857   6.157   8.231  1.00  0.00     0.041 A 
ATOM     85  F   UNL     1      15.768   6.001  10.574  1.00  0.00    -0.206 F 
ATOM     86  C   UNL     1      16.497   6.597   7.070  1.00  0.00     0.025 A 
BRANCH  83  87
ATOM     87  S   UNL     1      18.441   8.126   5.781  1.00  0.00     0.257 S 
ATOM     88  O   UNL     1      18.480   9.547   6.065  1.00  0.00    -0.205 OA
ATOM     89  O   UNL     1      19.625   7.362   5.478  1.00  0.00    -0.205 OA
BRANCH  87  90
ATOM     90  N   UNL     1      17.374   7.915   4.482  1.00  0.00    -0.123 NA
ATOM     91  H   UNL     1      17.208   6.912   4.400  1.00  0.00     0.167 HD
BRANCH  90  92
ATOM     92  N   UNL     1      16.078   8.549   4.488  1.00  0.00    -0.275 N 
ATOM     93  C   UNL     1      15.414   9.023   3.388  1.00  0.00     0.265 C 
ATOM     94  H   UNL     1      15.632   8.650   5.360  1.00  0.00     0.186 HD
ATOM     95  O   UNL     1      14.218   9.313   3.524  1.00  0.00    -0.271 OA
BRANCH  93  96
ATOM     96  C   UNL     1      16.145   9.371   2.089  1.00  0.00     0.244 C 
ATOM     97  C   UNL     1      16.491  10.813   2.151  1.00  0.00     0.042 C 
ATOM     98  N   UNL     1      17.479   8.726   1.957  1.00  0.00    -0.171 NA
ATOM     99  C   UNL     1      17.823  10.858   2.128  1.00  0.00     0.091 C 
ATOM    100  N   UNL     1      18.385   9.613   1.981  1.00  0.00    -0.155 NA
BRANCH  99 101
ATOM    101  C   UNL     1      18.608  12.086   2.255  1.00  0.00     0.002 A 
ATOM    102  C   UNL     1      19.610  12.390   1.326  1.00  0.00     0.010 A 
ATOM    103  C   UNL     1      18.370  12.980   3.311  1.00  0.00     0.010 A 
ATOM    104  C   UNL     1      20.338  13.578   1.433  1.00  0.00     0.001 A 
ATOM    105  C   UNL     1      19.103  14.164   3.421  1.00  0.00     0.001 A 
ATOM    106  C   UNL     1      20.083  14.465   2.478  1.00  0.00     0.000 A 
ENDBRANCH  99 101
ENDBRANCH  93  96
ENDBRANCH  90  92
ENDBRANCH  87  90
ENDBRANCH  83  87
ENDBRANCH  77  80
ENDBRANCH  75  76
ENDBRANCH   1  75
TORSDOF 18
