REMARK SMILES CCn1cc(S(=O)(=O)N2CCC(CCc3ccc(C(=O)NCCCCCCNC(=O)c4ccc(-c5c6nc(c(-c7c(F)c(F)c(F)c(F)c7F)c7ccc([nH]7)c(-c7c(F)c(F)c(F)c(F)c7F)c7nc(c(-c8c(F)c(F)c(F)c(F)c8F)c8ccc5[nH]8)C=C7)C=C6)cc4)cc3)CC2)cn1
REMARK SMILES IDX 22 1 21 2 19 3 20 4 18 6 15 7 16 8 95 9 17 10 94 11 14 12
REMARK SMILES IDX 13 13 12 14 9 15 10 16 97 17 11 18 96 19 6 20 7 21 8 22 5 23
REMARK SMILES IDX 3 24 4 25 99 26 98 27 2 28 1 29 23 30 24 31 25 32 26 33
REMARK SMILES IDX 27 34 28 35 29 36 30 38 31 39 32 40 93 41 33 42 92 43 34 44
REMARK SMILES IDX 35 45 36 46 86 47 37 48 91 49 85 50 87 51 38 52 90 53 84 54
REMARK SMILES IDX 83 55 39 57 71 58 51 59 70 60 52 61 55 62 69 63 88 64 53 65
REMARK SMILES IDX 54 66 68 68 89 69 56 70 40 71 41 72 49 73 42 74 43 75 47 76
REMARK SMILES IDX 50 77 44 78 45 79 48 80 46 81 72 82 73 83 81 84 74 85 75 86
REMARK SMILES IDX 79 87 82 88 76 89 77 90 80 91 78 92 57 93 58 94 66 95 59 96
REMARK SMILES IDX 60 97 64 98 67 99 61 100 62 101 65 102 63 103
REMARK H PARENT 21 5 28 37 87 56 55 67
REMARK Flexibility Score: inf
ROOT
ATOM      1  C   UNL     1       1.792   3.323  -3.066  1.00  0.00     0.116 C 
ENDROOT
BRANCH   1   2
ATOM      2  N   UNL     1       2.720   4.439  -3.049  1.00  0.00    -0.352 N 
ATOM      3  C   UNL     1       4.082   4.563  -3.176  1.00  0.00     0.251 C 
ATOM      4  O   UNL     1       4.545   5.702  -3.088  1.00  0.00    -0.269 OA
ATOM      5  H   UNL     1       2.270   5.305  -2.915  1.00  0.00     0.163 HD
BRANCH   3   6
ATOM      6  C   UNL     1       5.013   3.430  -3.446  1.00  0.00     0.039 A 
ATOM      7  C   UNL     1       6.877   1.360  -4.018  1.00  0.00    -0.048 A 
ATOM      8  C   UNL     1       7.252   2.703  -4.127  1.00  0.00     0.004 A 
ATOM      9  C   UNL     1       5.545   1.091  -3.711  1.00  0.00     0.004 A 
ATOM     10  C   UNL     1       6.319   3.724  -3.874  1.00  0.00     0.014 A 
ATOM     11  C   UNL     1       4.671   2.094  -3.308  1.00  0.00     0.014 A 
BRANCH   7  12
ATOM     12  C   UNL     1       7.869   0.234  -4.214  1.00  0.00     0.036 C 
BRANCH  12  13
ATOM     13  C   UNL     1       8.021  -0.734  -3.006  1.00  0.00     0.008 C 
BRANCH  13  14
ATOM     14  C   UNL     1       6.796  -1.612  -2.669  1.00  0.00    -0.008 C 
ATOM     15  N   UNL     1       5.118  -3.950  -2.270  1.00  0.00    -0.198 NA
ATOM     16  C   UNL     1       5.045  -3.199  -3.544  1.00  0.00     0.103 C 
ATOM     17  C   UNL     1       5.663  -3.205  -1.103  1.00  0.00     0.103 C 
ATOM     18  C   UNL     1       6.355  -2.487  -3.848  1.00  0.00     0.020 C 
ATOM     19  C   UNL     1       6.991  -2.518  -1.449  1.00  0.00     0.020 C 
BRANCH  15  20
ATOM     20  S   UNL     1       3.749  -4.928  -1.943  1.00  0.00     0.246 S 
ATOM     21  O   UNL     1       3.947  -5.607  -0.689  1.00  0.00    -0.207 OA
ATOM     22  O   UNL     1       3.386  -5.635  -3.157  1.00  0.00    -0.207 OA
BRANCH  20  23
ATOM     23  C   UNL     1       2.382  -3.937  -1.647  1.00  0.00     0.120 A 
ATOM     24  N   UNL     1       1.014  -2.288  -1.262  1.00  0.00    -0.272 N 
ATOM     25  C   UNL     1       2.294  -2.564  -1.635  1.00  0.00     0.130 A 
ATOM     26  N   UNL     1       0.251  -3.379  -1.084  1.00  0.00    -0.180 NA
ATOM     27  C   UNL     1       1.093  -4.392  -1.331  1.00  0.00     0.156 A 
BRANCH  24  28
ATOM     28  C   UNL     1       0.492  -0.967  -0.979  1.00  0.00     0.141 C 
ATOM     29  C   UNL     1       1.102  -0.395   0.290  1.00  0.00     0.029 C 
ENDBRANCH  24  28
ENDBRANCH  20  23
ENDBRANCH  15  20
ENDBRANCH  13  14
ENDBRANCH  12  13
ENDBRANCH   7  12
ENDBRANCH   3   6
ENDBRANCH   1   2
BRANCH   1  30
ATOM     30  C   UNL     1       1.419   2.910  -1.639  1.00  0.00     0.021 C 
BRANCH  30  31
ATOM     31  C   UNL     1       0.244   3.709  -1.058  1.00  0.00     0.002 C 
BRANCH  31  32
ATOM     32  C   UNL     1      -1.086   3.591  -1.825  1.00  0.00     0.002 C 
BRANCH  32  33
ATOM     33  C   UNL     1      -1.625   2.170  -2.044  1.00  0.00     0.021 C 
BRANCH  33  34
ATOM     34  C   UNL     1      -2.082   1.481  -0.766  1.00  0.00     0.116 C 
BRANCH  34  35
ATOM     35  N   UNL     1      -3.297   2.048  -0.205  1.00  0.00    -0.352 N 
ATOM     36  C   UNL     1      -3.975   1.638   0.924  1.00  0.00     0.251 C 
ATOM     37  H   UNL     1      -3.682   2.816  -0.688  1.00  0.00     0.163 HD
ATOM     38  O   UNL     1      -5.170   1.884   1.050  1.00  0.00    -0.269 OA
BRANCH  36  39
ATOM     39  C   UNL     1      -3.259   0.901   1.986  1.00  0.00     0.039 A 
ATOM     40  C   UNL     1      -3.912  -0.097   2.717  1.00  0.00     0.014 A 
ATOM     41  C   UNL     1      -1.938   1.236   2.284  1.00  0.00     0.014 A 
ATOM     42  C   UNL     1      -3.208  -0.790   3.699  1.00  0.00     0.010 A 
ATOM     43  C   UNL     1      -1.207   0.473   3.167  1.00  0.00     0.010 A 
ATOM     44  C   UNL     1      -1.845  -0.514   3.907  1.00  0.00    -0.014 A 
BRANCH  44  45
ATOM     45  C   UNL     1      -1.048  -1.371   4.784  1.00  0.00     0.031 A 
ATOM     46  C   UNL     1      -1.119  -2.808   4.410  1.00  0.00     0.074 A 
ATOM     47  C   UNL     1      -0.177  -0.911   5.711  1.00  0.00     0.049 A 
ATOM     48  N   UNL     1      -1.695  -3.757   5.069  1.00  0.00    -0.248 NA
ATOM     49  C   UNL     1      -0.647  -3.217   3.077  1.00  0.00     0.031 C 
ATOM     50  C   UNL     1       0.205   0.485   5.955  1.00  0.00     0.029 A 
ATOM     51  N   UNL     1       0.639  -1.595   6.569  1.00  0.00    -0.354 N 
ATOM     52  C   UNL     1      -1.444  -4.923   4.348  1.00  0.00     0.074 A 
ATOM     53  C   UNL     1      -0.995  -4.505   3.050  1.00  0.00     0.031 C 
ATOM     54  C   UNL     1       1.325   0.526   6.710  1.00  0.00     0.029 A 
ATOM     55  C   UNL     1       1.649  -0.822   7.140  1.00  0.00     0.049 A 
ATOM     56  H   UNL     1       0.523  -2.553   6.767  1.00  0.00     0.167 HD
ATOM     57  C   UNL     1      -1.301  -6.104   5.011  1.00  0.00     0.037 A 
ATOM     58  C   UNL     1       2.686  -1.254   7.901  1.00  0.00     0.037 A 
ATOM     59  C   UNL     1      -1.815  -5.981   6.356  1.00  0.00     0.049 A 
ATOM     60  C   UNL     1       2.303  -2.571   8.453  1.00  0.00     0.074 A 
ATOM     61  C   UNL     1      -3.042  -5.778   6.949  1.00  0.00     0.029 A 
ATOM     62  N   UNL     1      -0.860  -5.647   7.277  1.00  0.00    -0.354 N 
ATOM     63  N   UNL     1       1.372  -2.735   9.349  1.00  0.00    -0.248 NA
ATOM     64  C   UNL     1       2.722  -3.779   7.755  1.00  0.00     0.031 C 
ATOM     65  C   UNL     1      -2.775  -5.081   8.168  1.00  0.00     0.029 A 
ATOM     66  C   UNL     1      -1.395  -4.934   8.309  1.00  0.00     0.049 A 
ATOM     67  H   UNL     1       0.091  -5.891   7.205  1.00  0.00     0.167 HD
ATOM     68  C   UNL     1       0.776  -3.931   8.998  1.00  0.00     0.074 A 
ATOM     69  C   UNL     1       1.756  -4.609   8.157  1.00  0.00     0.031 C 
ATOM     70  C   UNL     1      -0.571  -4.092   9.148  1.00  0.00     0.037 A 
BRANCH  57  71
ATOM     71  C   UNL     1      -0.224  -7.138   4.698  1.00  0.00     0.064 A 
ATOM     72  C   UNL     1      -0.163  -8.299   5.502  1.00  0.00     0.173 A 
ATOM     73  C   UNL     1       0.934  -6.882   3.931  1.00  0.00     0.173 A 
ATOM     74  F   UNL     1      -1.195  -8.639   6.289  1.00  0.00    -0.203 F 
ATOM     75  C   UNL     1       0.999  -9.070   5.609  1.00  0.00     0.198 A 
ATOM     76  C   UNL     1       2.075  -7.683   4.005  1.00  0.00     0.198 A 
ATOM     77  F   UNL     1       1.071  -5.791   3.172  1.00  0.00    -0.203 F 
ATOM     78  F   UNL     1       1.054 -10.071   6.499  1.00  0.00    -0.200 F 
ATOM     79  C   UNL     1       2.121  -8.754   4.869  1.00  0.00     0.200 A 
ATOM     80  F   UNL     1       3.164  -7.340   3.302  1.00  0.00    -0.200 F 
ATOM     81  F   UNL     1       3.260  -9.442   5.026  1.00  0.00    -0.200 F 
ENDBRANCH  57  71
BRANCH  58  82
ATOM     82  C   UNL     1       4.064  -0.721   8.048  1.00  0.00     0.064 A 
ATOM     83  C   UNL     1       4.901  -1.149   9.096  1.00  0.00     0.173 A 
ATOM     84  C   UNL     1       4.690  -0.023   6.999  1.00  0.00     0.173 A 
ATOM     85  F   UNL     1       4.396  -1.850  10.122  1.00  0.00    -0.203 F 
ATOM     86  C   UNL     1       6.284  -0.937   9.070  1.00  0.00     0.198 A 
ATOM     87  C   UNL     1       6.071   0.194   6.977  1.00  0.00     0.198 A 
ATOM     88  F   UNL     1       3.993   0.373   5.925  1.00  0.00    -0.203 F 
ATOM     89  F   UNL     1       7.055  -1.431  10.049  1.00  0.00    -0.200 F 
ATOM     90  C   UNL     1       6.869  -0.280   8.002  1.00  0.00     0.200 A 
ATOM     91  F   UNL     1       6.630   0.800   5.920  1.00  0.00    -0.200 F 
ATOM     92  F   UNL     1       8.201  -0.142   7.937  1.00  0.00    -0.200 F 
ENDBRANCH  58  82
BRANCH  70  93
ATOM     93  C   UNL     1      -1.259  -3.220  10.154  1.00  0.00     0.064 A 
ATOM     94  C   UNL     1      -1.353  -1.821  10.080  1.00  0.00     0.173 A 
ATOM     95  C   UNL     1      -1.912  -3.859  11.218  1.00  0.00     0.173 A 
ATOM     96  F   UNL     1      -0.830  -1.143   9.050  1.00  0.00    -0.203 F 
ATOM     97  C   UNL     1      -2.029  -1.096  11.061  1.00  0.00     0.198 A 
ATOM     98  C   UNL     1      -2.622  -3.136  12.169  1.00  0.00     0.198 A 
ATOM     99  F   UNL     1      -1.888  -5.198  11.315  1.00  0.00    -0.203 F 
ATOM    100  F   UNL     1      -2.080   0.243  10.990  1.00  0.00    -0.200 F 
ATOM    101  C   UNL     1      -2.667  -1.754  12.100  1.00  0.00     0.200 A 
ATOM    102  F   UNL     1      -3.273  -3.783  13.146  1.00  0.00    -0.200 F 
ATOM    103  F   UNL     1      -3.343  -1.059  13.025  1.00  0.00    -0.200 F 
ENDBRANCH  70  93
ENDBRANCH  44  45
ENDBRANCH  36  39
ENDBRANCH  34  35
ENDBRANCH  33  34
ENDBRANCH  32  33
ENDBRANCH  31  32
ENDBRANCH  30  31
ENDBRANCH   1  30
TORSDOF 19
