REMARK SMILES [NH3+][C@@]1(C(=O)NCCCCCCNC(=O)c2ccc(-c3c4nc(c(-c5c(F)c(F)c(F)c(F)c5F)c5ccc([nH]5)c(-c5c(F)c(F)c(F)c(F)c5F)c5nc(c(-c6c(F)c(F)c(F)c(F)c6F)c6ccc3[nH]6)C=C5)C=C4)cc2)CC[C@H](Sc2cccs2)C1
REMARK SMILES IDX 8 1 7 2 6 3 5 4 3 5 4 6 2 8 78 9 87 10 79 11 80 12 1 13
REMARK SMILES IDX 81 17 82 18 83 19 86 20 84 21 85 22 9 23 10 24 11 25 12 26
REMARK SMILES IDX 13 27 14 29 15 30 16 31 77 32 17 33 76 34 18 35 19 36 20 37
REMARK SMILES IDX 70 38 21 39 75 40 69 41 71 42 22 43 74 44 68 45 67 46 23 48
REMARK SMILES IDX 55 49 35 50 54 51 36 52 39 53 53 54 72 55 37 56 38 57 52 59
REMARK SMILES IDX 73 60 40 61 24 62 25 63 33 64 26 65 27 66 31 67 34 68 28 69
REMARK SMILES IDX 29 70 32 71 30 72 56 73 57 74 65 75 58 76 59 77 63 78 66 79
REMARK SMILES IDX 60 80 61 81 64 82 62 83 41 84 42 85 50 86 43 87 44 88 48 89
REMARK SMILES IDX 51 90 45 91 46 92 49 93 47 94
REMARK H PARENT 5 7 1 14 1 15 1 16 12 28 71 47 39 58
REMARK Flexibility Score: inf
ROOT
ATOM      1  C   UNL     1       0.152   4.086  -5.224  1.00  0.00     0.002 C 
ENDROOT
BRANCH   1   2
ATOM      2  C   UNL     1       0.675   4.100  -3.790  1.00  0.00     0.021 C 
BRANCH   2   3
ATOM      3  C   UNL     1      -0.136   3.283  -2.793  1.00  0.00     0.116 C 
BRANCH   3   4
ATOM      4  N   UNL     1       0.159   1.871  -2.837  1.00  0.00    -0.351 N 
ATOM      5  C   UNL     1       0.441   0.988  -1.841  1.00  0.00     0.281 C 
ATOM      6  O   UNL     1       0.602  -0.190  -2.191  1.00  0.00    -0.268 OA
ATOM      7  H   UNL     1       0.156   1.481  -3.740  1.00  0.00     0.163 HD
BRANCH   5   8
ATOM      8  C   UNL     1       0.538   1.378  -0.319  1.00  0.00     0.175 C 
ATOM      9  C   UNL     1      -0.820   1.769   0.282  1.00  0.00     0.080 C 
ATOM     10  C   UNL     1       1.502   2.533  -0.008  1.00  0.00     0.094 C 
ATOM     11  C   UNL     1      -0.770   3.272   0.540  1.00  0.00     0.022 C 
ATOM     12  C   UNL     1       0.703   3.574   0.802  1.00  0.00     0.059 C 
BRANCH   8  13
ATOM     13  N   UNL     1       1.017   0.168   0.406  1.00  0.00    -0.345 N 
ATOM     14  H   UNL     1       0.390  -0.614   0.214  1.00  0.00     0.345 HD
ATOM     15  H   UNL     1       1.030   0.355   1.409  1.00  0.00     0.345 HD
ATOM     16  H   UNL     1       1.959  -0.067   0.092  1.00  0.00     0.345 HD
ENDBRANCH   8  13
BRANCH  12  17
ATOM     17  S   UNL     1       1.380   5.231   0.449  1.00  0.00    -0.112 SA
BRANCH  17  18
ATOM     18  C   UNL     1       0.048   6.316   0.111  1.00  0.00     0.060 A 
ATOM     19  C   UNL     1      -1.125   6.486   0.815  1.00  0.00     0.027 A 
ATOM     20  S   UNL     1       0.170   7.452  -1.173  1.00  0.00    -0.137 S 
ATOM     21  C   UNL     1      -1.931   7.541   0.288  1.00  0.00     0.013 A 
ATOM     22  C   UNL     1      -1.335   8.163  -0.785  1.00  0.00     0.066 A 
ENDBRANCH  17  18
ENDBRANCH  12  17
ENDBRANCH   5   8
ENDBRANCH   3   4
ENDBRANCH   2   3
ENDBRANCH   1   2
BRANCH   1  23
ATOM     23  C   UNL     1      -1.316   4.487  -5.409  1.00  0.00     0.002 C 
BRANCH  23  24
ATOM     24  C   UNL     1      -1.766   5.778  -4.716  1.00  0.00     0.021 C 
BRANCH  24  25
ATOM     25  C   UNL     1      -0.954   7.030  -5.034  1.00  0.00     0.116 C 
BRANCH  25  26
ATOM     26  N   UNL     1      -0.916   7.329  -6.453  1.00  0.00    -0.352 N 
ATOM     27  C   UNL     1      -1.149   8.502  -7.120  1.00  0.00     0.251 C 
ATOM     28  H   UNL     1      -0.685   6.565  -7.030  1.00  0.00     0.163 HD
ATOM     29  O   UNL     1      -1.188   8.496  -8.351  1.00  0.00    -0.269 OA
BRANCH  27  30
ATOM     30  C   UNL     1      -1.378   9.772  -6.395  1.00  0.00     0.039 A 
ATOM     31  C   UNL     1      -2.342  10.651  -6.900  1.00  0.00     0.014 A 
ATOM     32  C   UNL     1      -0.623  10.142  -5.277  1.00  0.00     0.014 A 
ATOM     33  C   UNL     1      -2.574  11.876  -6.271  1.00  0.00     0.010 A 
ATOM     34  C   UNL     1      -0.897  11.339  -4.611  1.00  0.00     0.010 A 
ATOM     35  C   UNL     1      -1.867  12.223  -5.109  1.00  0.00    -0.014 A 
BRANCH  35  36
ATOM     36  C   UNL     1      -2.134  13.515  -4.427  1.00  0.00     0.031 A 
ATOM     37  C   UNL     1      -1.093  14.599  -4.405  1.00  0.00     0.074 A 
ATOM     38  C   UNL     1      -3.315  13.706  -3.808  1.00  0.00     0.049 A 
ATOM     39  N   UNL     1      -1.154  15.796  -3.874  1.00  0.00    -0.248 NA
ATOM     40  C   UNL     1       0.195  14.294  -5.047  1.00  0.00     0.031 C 
ATOM     41  C   UNL     1      -4.389  12.715  -3.717  1.00  0.00     0.029 A 
ATOM     42  N   UNL     1      -3.811  14.797  -3.139  1.00  0.00    -0.354 N 
ATOM     43  C   UNL     1       0.084  16.379  -4.109  1.00  0.00     0.074 A 
ATOM     44  C   UNL     1       0.894  15.390  -4.788  1.00  0.00     0.031 C 
ATOM     45  C   UNL     1      -5.426  13.253  -3.056  1.00  0.00     0.029 A 
ATOM     46  C   UNL     1      -5.083  14.615  -2.657  1.00  0.00     0.049 A 
ATOM     47  H   UNL     1      -3.303  15.631  -3.018  1.00  0.00     0.167 HD
ATOM     48  C   UNL     1       0.501  17.632  -3.806  1.00  0.00     0.037 A 
ATOM     49  C   UNL     1      -5.886  15.455  -1.976  1.00  0.00     0.037 A 
ATOM     50  C   UNL     1      -0.313  18.625  -3.152  1.00  0.00     0.049 A 
ATOM     51  C   UNL     1      -5.408  16.849  -1.675  1.00  0.00     0.074 A 
ATOM     52  C   UNL     1       0.002  19.938  -2.850  1.00  0.00     0.029 A 
ATOM     53  N   UNL     1      -1.607  18.410  -2.700  1.00  0.00    -0.354 N 
ATOM     54  N   UNL     1      -4.261  17.411  -1.964  1.00  0.00    -0.248 NA
ATOM     55  C   UNL     1      -6.346  17.730  -0.965  1.00  0.00     0.031 C 
ATOM     56  C   UNL     1      -1.088  20.508  -2.182  1.00  0.00     0.029 A 
ATOM     57  C   UNL     1      -2.098  19.563  -2.108  1.00  0.00     0.049 A 
ATOM     58  H   UNL     1      -2.102  17.564  -2.787  1.00  0.00     0.167 HD
ATOM     59  C   UNL     1      -4.347  18.716  -1.499  1.00  0.00     0.074 A 
ATOM     60  C   UNL     1      -5.667  18.867  -0.922  1.00  0.00     0.031 C 
ATOM     61  C   UNL     1      -3.416  19.700  -1.544  1.00  0.00     0.037 A 
BRANCH  48  62
ATOM     62  C   UNL     1       1.905  18.006  -4.184  1.00  0.00     0.064 A 
ATOM     63  C   UNL     1       2.277  18.201  -5.523  1.00  0.00     0.173 A 
ATOM     64  C   UNL     1       2.879  18.211  -3.196  1.00  0.00     0.173 A 
ATOM     65  F   UNL     1       1.386  18.008  -6.506  1.00  0.00    -0.203 F 
ATOM     66  C   UNL     1       3.580  18.561  -5.860  1.00  0.00     0.198 A 
ATOM     67  C   UNL     1       4.174  18.598  -3.534  1.00  0.00     0.198 A 
ATOM     68  F   UNL     1       2.575  18.045  -1.900  1.00  0.00    -0.203 F 
ATOM     69  F   UNL     1       3.924  18.698  -7.148  1.00  0.00    -0.200 F 
ATOM     70  C   UNL     1       4.525  18.766  -4.865  1.00  0.00     0.200 A 
ATOM     71  F   UNL     1       5.082  18.808  -2.572  1.00  0.00    -0.200 F 
ATOM     72  F   UNL     1       5.776  19.119  -5.191  1.00  0.00    -0.200 F 
ENDBRANCH  48  62
BRANCH  49  73
ATOM     73  C   UNL     1      -7.245  15.012  -1.570  1.00  0.00     0.064 A 
ATOM     74  C   UNL     1      -8.388  15.539  -2.188  1.00  0.00     0.173 A 
ATOM     75  C   UNL     1      -7.428  14.058  -0.560  1.00  0.00     0.173 A 
ATOM     76  F   UNL     1      -8.262  16.468  -3.146  1.00  0.00    -0.203 F 
ATOM     77  C   UNL     1      -9.664  15.142  -1.796  1.00  0.00     0.198 A 
ATOM     78  C   UNL     1      -8.705  13.643  -0.187  1.00  0.00     0.198 A 
ATOM     79  F   UNL     1      -6.366  13.519   0.057  1.00  0.00    -0.203 F 
ATOM     80  F   UNL     1     -10.741  15.693  -2.373  1.00  0.00    -0.200 F 
ATOM     81  C   UNL     1      -9.822  14.191  -0.800  1.00  0.00     0.200 A 
ATOM     82  F   UNL     1      -8.852  12.712   0.766  1.00  0.00    -0.200 F 
ATOM     83  F   UNL     1     -11.050  13.807  -0.425  1.00  0.00    -0.200 F 
ENDBRANCH  49  73
BRANCH  61  84
ATOM     84  C   UNL     1      -3.807  21.037  -0.985  1.00  0.00     0.064 A 
ATOM     85  C   UNL     1      -3.947  21.245   0.396  1.00  0.00     0.173 A 
ATOM     86  C   UNL     1      -4.025  22.128  -1.839  1.00  0.00     0.173 A 
ATOM     87  F   UNL     1      -3.764  20.229   1.253  1.00  0.00    -0.203 F 
ATOM     88  C   UNL     1      -4.322  22.488   0.897  1.00  0.00     0.198 A 
ATOM     89  C   UNL     1      -4.372  23.377  -1.333  1.00  0.00     0.198 A 
ATOM     90  F   UNL     1      -3.897  21.983  -3.167  1.00  0.00    -0.203 F 
ATOM     91  F   UNL     1      -4.503  22.650   2.215  1.00  0.00    -0.200 F 
ATOM     92  C   UNL     1      -4.529  23.554   0.034  1.00  0.00     0.200 A 
ATOM     93  F   UNL     1      -4.561  24.408  -2.167  1.00  0.00    -0.200 F 
ATOM     94  F   UNL     1      -4.891  24.750   0.518  1.00  0.00    -0.200 F 
ENDBRANCH  61  84
ENDBRANCH  35  36
ENDBRANCH  27  30
ENDBRANCH  25  26
ENDBRANCH  24  25
ENDBRANCH  23  24
ENDBRANCH   1  23
TORSDOF 16
