REMARK SMILES CCOc1ccccc1NC(=O)[C@H]1[C@@H]2C=C[C@@H]([C@@H]3C[C@H]23)[C@@H]1C(=O)NCCCCCCNC(=O)c1ccc(-c2c3nc(c(-c4c(F)c(F)c(F)c(F)c4F)c4ccc([nH]4)c(-c4c(F)c(F)c(F)c(F)c4F)c4nc(c(-c5c(F)c(F)c(F)c(F)c5F)c5ccc2[nH]5)C=C4)C=C3)cc1
REMARK SMILES IDX 26 1 25 2 24 3 22 4 23 5 21 7 13 8 14 9 15 10 20 11 17 12
REMARK SMILES IDX 16 13 18 14 19 15 11 16 10 17 12 19 9 20 4 21 5 22 6 23 8 24
REMARK SMILES IDX 7 25 3 26 2 27 1 28 27 29 28 30 29 31 30 32 31 33 32 34
REMARK SMILES IDX 33 36 34 37 35 38 96 39 36 40 95 41 37 42 38 43 39 44 89 45
REMARK SMILES IDX 40 46 94 47 88 48 90 49 41 50 93 51 87 52 86 53 42 55 74 56
REMARK SMILES IDX 54 57 73 58 55 59 58 60 72 61 91 62 56 63 57 64 71 66 92 67
REMARK SMILES IDX 59 68 43 69 44 70 52 71 45 72 46 73 50 74 53 75 47 76 48 77
REMARK SMILES IDX 51 78 49 79 75 80 76 81 84 82 77 83 78 84 82 85 85 86 79 87
REMARK SMILES IDX 80 88 83 89 81 90 60 91 61 92 69 93 62 94 63 95 67 96 70 97
REMARK SMILES IDX 64 98 65 99 68 100 66 101
REMARK H PARENT 24 6 10 18 31 35 90 54 58 65
REMARK Flexibility Score: inf
ROOT
ATOM      1  C   UNL     1       5.666  -5.457   1.635  1.00  0.00     0.021 C 
ENDROOT
BRANCH   1   2
ATOM      2  C   UNL     1       5.962  -3.981   1.926  1.00  0.00     0.116 C 
BRANCH   2   3
ATOM      3  N   UNL     1       6.965  -3.494   1.001  1.00  0.00    -0.356 N 
ATOM      4  C   UNL     1       6.772  -2.665  -0.063  1.00  0.00     0.224 C 
ATOM      5  O   UNL     1       7.438  -2.884  -1.076  1.00  0.00    -0.275 OA
ATOM      6  H   UNL     1       7.888  -3.796   1.159  1.00  0.00     0.163 HD
BRANCH   4   7
ATOM      7  C   UNL     1       5.908  -1.421   0.129  1.00  0.00     0.098 C 
ATOM      8  C   UNL     1       5.423  -0.825  -1.272  1.00  0.00     0.099 C 
ATOM      9  C   UNL     1       6.060   0.576  -1.379  1.00  0.00     0.028 C 
ATOM     10  C   UNL     1       7.578   0.406  -1.240  1.00  0.00    -0.026 C 
ATOM     11  C   UNL     1       5.580   1.494  -0.247  1.00  0.00     0.001 C 
ATOM     12  C   UNL     1       6.806  -0.364   0.890  1.00  0.00     0.028 C 
ATOM     13  C   UNL     1       7.974  -0.046  -0.039  1.00  0.00    -0.026 C 
ATOM     14  C   UNL     1       6.045   0.952   1.095  1.00  0.00     0.001 C 
ATOM     15  C   UNL     1       4.581   1.173   0.847  1.00  0.00     0.009 C 
BRANCH   8  16
ATOM     16  C   UNL     1       3.899  -1.053  -1.418  1.00  0.00     0.229 C 
ATOM     17  N   UNL     1       2.959  -0.212  -1.939  1.00  0.00    -0.323 N 
ATOM     18  H   UNL     1       2.088  -0.641  -2.101  1.00  0.00     0.170 HD
ATOM     19  O   UNL     1       3.439  -2.134  -1.004  1.00  0.00    -0.274 OA
BRANCH  17  20
ATOM     20  C   UNL     1       2.995   1.145  -2.288  1.00  0.00     0.083 A 
ATOM     21  C   UNL     1       2.047   1.995  -1.698  1.00  0.00     0.142 A 
ATOM     22  C   UNL     1       2.215   3.378  -1.742  1.00  0.00     0.048 A 
ATOM     23  C   UNL     1       3.284   3.912  -2.463  1.00  0.00     0.004 A 
ATOM     24  C   UNL     1       3.917   1.686  -3.168  1.00  0.00     0.030 A 
ATOM     25  C   UNL     1       4.093   3.070  -3.227  1.00  0.00     0.002 A 
BRANCH  21  26
ATOM     26  O   UNL     1       0.894   1.430  -1.230  1.00  0.00    -0.492 OA
BRANCH  26  27
ATOM     27  C   UNL     1       0.678   1.537   0.173  1.00  0.00     0.226 C 
ATOM     28  C   UNL     1       0.548   0.119   0.704  1.00  0.00     0.049 C 
ENDBRANCH  26  27
ENDBRANCH  21  26
ENDBRANCH  17  20
ENDBRANCH   8  16
ENDBRANCH   4   7
ENDBRANCH   2   3
ENDBRANCH   1   2
BRANCH   1  29
ATOM     29  C   UNL     1       6.888  -6.386   1.736  1.00  0.00     0.002 C 
BRANCH  29  30
ATOM     30  C   UNL     1       7.623  -6.346   3.079  1.00  0.00     0.002 C 
BRANCH  30  31
ATOM     31  C   UNL     1       6.757  -6.694   4.288  1.00  0.00     0.021 C 
BRANCH  31  32
ATOM     32  C   UNL     1       6.101  -8.067   4.217  1.00  0.00     0.116 C 
BRANCH  32  33
ATOM     33  N   UNL     1       7.074  -9.148   4.218  1.00  0.00    -0.352 N 
ATOM     34  C   UNL     1       7.105 -10.282   4.996  1.00  0.00     0.251 C 
ATOM     35  H   UNL     1       7.812  -9.055   3.574  1.00  0.00     0.163 HD
ATOM     36  O   UNL     1       8.084 -11.012   4.998  1.00  0.00    -0.269 OA
BRANCH  34  37
ATOM     37  C   UNL     1       5.944 -10.595   5.856  1.00  0.00     0.039 A 
ATOM     38  C   UNL     1       6.165 -10.950   7.189  1.00  0.00     0.014 A 
ATOM     39  C   UNL     1       4.643 -10.518   5.351  1.00  0.00     0.014 A 
ATOM     40  C   UNL     1       5.075 -11.162   8.036  1.00  0.00     0.010 A 
ATOM     41  C   UNL     1       3.561 -10.655   6.213  1.00  0.00     0.010 A 
ATOM     42  C   UNL     1       3.765 -10.978   7.564  1.00  0.00    -0.014 A 
BRANCH  42  43
ATOM     43  C   UNL     1       2.589 -11.121   8.459  1.00  0.00     0.031 A 
ATOM     44  C   UNL     1       1.569 -12.191   8.190  1.00  0.00     0.074 A 
ATOM     45  C   UNL     1       2.397 -10.239   9.458  1.00  0.00     0.049 A 
ATOM     46  N   UNL     1       0.419 -12.407   8.776  1.00  0.00    -0.248 NA
ATOM     47  C   UNL     1       1.869 -13.128   7.095  1.00  0.00     0.031 C 
ATOM     48  C   UNL     1       3.297  -9.135   9.797  1.00  0.00     0.029 A 
ATOM     49  N   UNL     1       1.371 -10.119  10.363  1.00  0.00    -0.354 N 
ATOM     50  C   UNL     1      -0.146 -13.487   8.112  1.00  0.00     0.074 A 
ATOM     51  C   UNL     1       0.761 -13.852   7.045  1.00  0.00     0.031 C 
ATOM     52  C   UNL     1       2.791  -8.459  10.841  1.00  0.00     0.029 A 
ATOM     53  C   UNL     1       1.510  -9.050  11.215  1.00  0.00     0.049 A 
ATOM     54  H   UNL     1       0.608 -10.740  10.398  1.00  0.00     0.167 HD
ATOM     55  C   UNL     1      -1.308 -14.129   8.380  1.00  0.00     0.037 A 
ATOM     56  C   UNL     1       0.687  -8.589  12.177  1.00  0.00     0.037 A 
ATOM     57  C   UNL     1      -2.196 -13.776   9.457  1.00  0.00     0.049 A 
ATOM     58  C   UNL     1      -0.609  -9.309  12.443  1.00  0.00     0.074 A 
ATOM     59  C   UNL     1      -3.369 -14.398   9.847  1.00  0.00     0.029 A 
ATOM     60  N   UNL     1      -2.009 -12.701  10.314  1.00  0.00    -0.354 N 
ATOM     61  N   UNL     1      -1.104 -10.367  11.848  1.00  0.00    -0.248 NA
ATOM     62  C   UNL     1      -1.458  -8.774  13.516  1.00  0.00     0.031 C 
ATOM     63  C   UNL     1      -3.921 -13.667  10.903  1.00  0.00     0.029 A 
ATOM     64  C   UNL     1      -3.058 -12.629  11.215  1.00  0.00     0.049 A 
ATOM     65  H   UNL     1      -1.244 -12.081  10.286  1.00  0.00     0.167 HD
ATOM     66  C   UNL     1      -2.298 -10.647  12.499  1.00  0.00     0.074 A 
ATOM     67  C   UNL     1      -2.451  -9.651  13.538  1.00  0.00     0.031 C 
ATOM     68  C   UNL     1      -3.185 -11.644  12.259  1.00  0.00     0.037 A 
BRANCH  55  69
ATOM     69  C   UNL     1      -1.692 -15.280   7.494  1.00  0.00     0.064 A 
ATOM     70  C   UNL     1      -0.982 -16.490   7.508  1.00  0.00     0.173 A 
ATOM     71  C   UNL     1      -2.812 -15.187   6.654  1.00  0.00     0.173 A 
ATOM     72  F   UNL     1       0.102 -16.629   8.285  1.00  0.00    -0.203 F 
ATOM     73  C   UNL     1      -1.363 -17.553   6.693  1.00  0.00     0.198 A 
ATOM     74  C   UNL     1      -3.210 -16.264   5.866  1.00  0.00     0.198 A 
ATOM     75  F   UNL     1      -3.531 -14.055   6.607  1.00  0.00    -0.203 F 
ATOM     76  F   UNL     1      -0.640 -18.682   6.686  1.00  0.00    -0.200 F 
ATOM     77  C   UNL     1      -2.481 -17.443   5.880  1.00  0.00     0.200 A 
ATOM     78  F   UNL     1      -4.300 -16.160   5.094  1.00  0.00    -0.200 F 
ATOM     79  F   UNL     1      -2.852 -18.471   5.106  1.00  0.00    -0.200 F 
ENDBRANCH  55  69
BRANCH  56  80
ATOM     80  C   UNL     1       1.068  -7.389  12.970  1.00  0.00     0.064 A 
ATOM     81  C   UNL     1       1.373  -7.494  14.335  1.00  0.00     0.173 A 
ATOM     82  C   UNL     1       1.122  -6.115  12.387  1.00  0.00     0.173 A 
ATOM     83  F   UNL     1       1.317  -8.688  14.943  1.00  0.00    -0.203 F 
ATOM     84  C   UNL     1       1.693  -6.368  15.091  1.00  0.00     0.198 A 
ATOM     85  C   UNL     1       1.473  -4.994  13.137  1.00  0.00     0.198 A 
ATOM     86  F   UNL     1       0.844  -5.959  11.085  1.00  0.00    -0.203 F 
ATOM     87  F   UNL     1       1.928  -6.491  16.404  1.00  0.00    -0.200 F 
ATOM     88  C   UNL     1       1.748  -5.120  14.490  1.00  0.00     0.200 A 
ATOM     89  F   UNL     1       1.540  -3.792  12.549  1.00  0.00    -0.200 F 
ATOM     90  F   UNL     1       2.057  -4.037  15.217  1.00  0.00    -0.200 F 
ENDBRANCH  56  80
BRANCH  68  91
ATOM     91  C   UNL     1      -4.374 -11.751  13.171  1.00  0.00     0.064 A 
ATOM     92  C   UNL     1      -5.429 -10.829  13.126  1.00  0.00     0.173 A 
ATOM     93  C   UNL     1      -4.484 -12.833  14.059  1.00  0.00     0.173 A 
ATOM     94  F   UNL     1      -5.366  -9.770  12.305  1.00  0.00    -0.203 F 
ATOM     95  C   UNL     1      -6.542 -10.975  13.950  1.00  0.00     0.198 A 
ATOM     96  C   UNL     1      -5.612 -12.993  14.858  1.00  0.00     0.198 A 
ATOM     97  F   UNL     1      -3.505 -13.747  14.136  1.00  0.00    -0.203 F 
ATOM     98  F   UNL     1      -7.520 -10.059  13.922  1.00  0.00    -0.200 F 
ATOM     99  C   UNL     1      -6.637 -12.062  14.807  1.00  0.00     0.200 A 
ATOM    100  F   UNL     1      -5.709 -14.053  15.672  1.00  0.00    -0.200 F 
ATOM    101  F   UNL     1      -7.716 -12.209  15.588  1.00  0.00    -0.200 F 
ENDBRANCH  68  91
ENDBRANCH  42  43
ENDBRANCH  34  37
ENDBRANCH  32  33
ENDBRANCH  31  32
ENDBRANCH  30  31
ENDBRANCH  29  30
ENDBRANCH   1  29
TORSDOF 17
