REMARK SMILES Cc1cc(C)c(NS(=O)(=O)c2cccc3cc(C)cnc23)c(C(=O)NCCCCCCNC(=O)c2ccc(-c3c4nc(c(-c5c(F)c(F)c(F)c(F)c5F)c5ccc([nH]5)c(-c5c(F)c(F)c(F)c(F)c5F)c5nc(c(-c6c(F)c(F)c(F)c(F)c6F)c6ccc3[nH]6)C=C5)C=C4)cc2)c1
REMARK SMILES IDX 28 1 27 2 26 3 25 4 23 5 24 6 22 8 1 9 2 10 3 11 98 12 4 13
REMARK SMILES IDX 5 14 6 15 7 16 8 18 9 19 10 20 11 21 12 22 21 23 13 24 15 25
REMARK SMILES IDX 20 26 14 27 16 28 19 29 17 30 18 31 29 32 30 33 31 34 32 35
REMARK SMILES IDX 33 36 34 38 35 39 36 40 97 41 37 42 96 43 38 44 39 45 40 46
REMARK SMILES IDX 90 47 41 48 95 49 89 50 91 51 42 52 94 53 88 54 87 55 43 57
REMARK SMILES IDX 75 58 55 59 74 60 56 61 59 62 73 63 92 64 57 65 58 66 72 68
REMARK SMILES IDX 93 69 60 70 44 71 45 72 53 73 46 74 47 75 51 76 54 77 48 78
REMARK SMILES IDX 49 79 52 80 50 81 76 82 77 83 85 84 78 85 79 86 83 87 86 88
REMARK SMILES IDX 80 89 81 90 84 91 82 92 61 93 62 94 70 95 63 96 64 97 68 98
REMARK SMILES IDX 71 99 65 100 66 101 69 102 67 103
REMARK H PARENT 25 7 7 17 32 37 91 56 59 67
REMARK Flexibility Score: inf
ROOT
ATOM      1  C   UNL     1       3.492  -5.463   1.126  1.00  0.00     0.002 C 
ENDROOT
BRANCH   1   2
ATOM      2  C   UNL     1       3.120  -3.988   0.941  1.00  0.00     0.021 C 
BRANCH   2   3
ATOM      3  C   UNL     1       2.195  -3.776  -0.261  1.00  0.00     0.116 C 
BRANCH   3   4
ATOM      4  N   UNL     1       0.817  -3.943   0.175  1.00  0.00    -0.352 N 
ATOM      5  C   UNL     1      -0.175  -3.045   0.495  1.00  0.00     0.253 C 
ATOM      6  O   UNL     1      -1.208  -3.483   1.000  1.00  0.00    -0.269 OA
ATOM      7  H   UNL     1       0.540  -4.884   0.256  1.00  0.00     0.163 HD
BRANCH   5   8
ATOM      8  C   UNL     1      -0.084  -1.602   0.121  1.00  0.00     0.064 A 
ATOM      9  C   UNL     1       2.718   0.819  -0.626  1.00  0.00     0.044 C 
ATOM     10  C   UNL     1       1.349   0.211  -0.582  1.00  0.00    -0.050 A 
ATOM     11  C   UNL     1       0.288   0.705  -1.348  1.00  0.00     0.009 A 
ATOM     12  C   UNL     1       1.146  -0.945   0.163  1.00  0.00     0.019 A 
ATOM     13  C   UNL     1      -1.004   0.132  -1.282  1.00  0.00    -0.026 A 
ATOM     14  C   UNL     1      -2.062   0.680  -2.197  1.00  0.00     0.046 C 
ATOM     15  C   UNL     1      -1.224  -0.943  -0.406  1.00  0.00     0.065 A 
BRANCH  15  16
ATOM     16  N   UNL     1      -2.513  -1.492  -0.079  1.00  0.00    -0.278 N 
ATOM     17  H   UNL     1      -2.580  -2.474  -0.110  1.00  0.00     0.180 HD
BRANCH  16  18
ATOM     18  S   UNL     1      -3.917  -0.677   0.349  1.00  0.00     0.264 S 
ATOM     19  O   UNL     1      -4.743  -0.751  -0.847  1.00  0.00    -0.201 OA
ATOM     20  O   UNL     1      -4.400  -1.299   1.567  1.00  0.00    -0.201 OA
BRANCH  18  21
ATOM     21  C   UNL     1      -3.769   1.055   0.704  1.00  0.00     0.114 A 
ATOM     22  C   UNL     1      -4.864   1.834   0.259  1.00  0.00     0.024 A 
ATOM     23  C   UNL     1      -2.599   1.647   1.167  1.00  0.00     0.091 A 
ATOM     24  C   UNL     1      -4.757   3.209   0.140  1.00  0.00     0.002 A 
ATOM     25  C   UNL     1      -2.469   3.036   0.910  1.00  0.00     0.002 A 
ATOM     26  N   UNL     1      -1.598   0.973   1.774  1.00  0.00    -0.255 NA
ATOM     27  C   UNL     1      -3.538   3.804   0.418  1.00  0.00     0.010 A 
ATOM     28  C   UNL     1      -1.218   3.638   1.083  1.00  0.00     0.015 A 
ATOM     29  C   UNL     1      -0.415   1.604   1.973  1.00  0.00     0.115 A 
ATOM     30  C   UNL     1      -0.145   2.896   1.559  1.00  0.00    -0.032 A 
ATOM     31  C   UNL     1       1.237   3.461   1.557  1.00  0.00     0.046 C 
ENDBRANCH  18  21
ENDBRANCH  16  18
ENDBRANCH  15  16
ENDBRANCH   5   8
ENDBRANCH   3   4
ENDBRANCH   2   3
ENDBRANCH   1   2
BRANCH   1  32
ATOM     32  C   UNL     1       4.373  -6.028   0.004  1.00  0.00     0.002 C 
BRANCH  32  33
ATOM     33  C   UNL     1       5.693  -5.283  -0.206  1.00  0.00     0.021 C 
BRANCH  33  34
ATOM     34  C   UNL     1       6.602  -5.282   1.017  1.00  0.00     0.116 C 
BRANCH  34  35
ATOM     35  N   UNL     1       7.008  -6.632   1.377  1.00  0.00    -0.352 N 
ATOM     36  C   UNL     1       8.267  -7.161   1.460  1.00  0.00     0.251 C 
ATOM     37  H   UNL     1       6.274  -7.252   1.592  1.00  0.00     0.163 HD
ATOM     38  O   UNL     1       8.430  -8.381   1.512  1.00  0.00    -0.269 OA
BRANCH  36  39
ATOM     39  C   UNL     1       9.435  -6.262   1.480  1.00  0.00     0.039 A 
ATOM     40  C   UNL     1      10.556  -6.582   0.713  1.00  0.00     0.014 A 
ATOM     41  C   UNL     1       9.424  -5.107   2.269  1.00  0.00     0.014 A 
ATOM     42  C   UNL     1      11.650  -5.717   0.699  1.00  0.00     0.010 A 
ATOM     43  C   UNL     1      10.479  -4.207   2.192  1.00  0.00     0.010 A 
ATOM     44  C   UNL     1      11.607  -4.508   1.415  1.00  0.00    -0.014 A 
BRANCH  44  45
ATOM     45  C   UNL     1      12.738  -3.550   1.369  1.00  0.00     0.031 A 
ATOM     46  C   UNL     1      13.509  -3.233   2.618  1.00  0.00     0.074 A 
ATOM     47  C   UNL     1      13.027  -2.920   0.214  1.00  0.00     0.049 A 
ATOM     48  N   UNL     1      14.490  -2.384   2.794  1.00  0.00    -0.248 NA
ATOM     49  C   UNL     1      13.106  -3.945   3.841  1.00  0.00     0.031 C 
ATOM     50  C   UNL     1      12.318  -3.110  -1.052  1.00  0.00     0.029 A 
ATOM     51  N   UNL     1      13.988  -1.986  -0.080  1.00  0.00    -0.354 N 
ATOM     52  C   UNL     1      14.810  -2.452   4.143  1.00  0.00     0.074 A 
ATOM     53  C   UNL     1      13.880  -3.376   4.753  1.00  0.00     0.031 C 
ATOM     54  C   UNL     1      12.886  -2.341  -1.993  1.00  0.00     0.029 A 
ATOM     55  C   UNL     1      13.969  -1.572  -1.389  1.00  0.00     0.049 A 
ATOM     56  H   UNL     1      14.630  -1.646   0.584  1.00  0.00     0.167 HD
ATOM     57  C   UNL     1      15.807  -1.819   4.808  1.00  0.00     0.037 A 
ATOM     58  C   UNL     1      14.736  -0.668  -2.027  1.00  0.00     0.037 A 
ATOM     59  C   UNL     1      16.738  -0.912   4.189  1.00  0.00     0.049 A 
ATOM     60  C   UNL     1      15.824   0.037  -1.262  1.00  0.00     0.074 A 
ATOM     61  C   UNL     1      17.820  -0.264   4.758  1.00  0.00     0.029 A 
ATOM     62  N   UNL     1      16.691  -0.518   2.859  1.00  0.00    -0.354 N 
ATOM     63  N   UNL     1      16.166  -0.088  -0.003  1.00  0.00    -0.248 NA
ATOM     64  C   UNL     1      16.636   1.005  -2.011  1.00  0.00     0.031 C 
ATOM     65  C   UNL     1      18.390   0.568   3.789  1.00  0.00     0.029 A 
ATOM     66  C   UNL     1      17.705   0.389   2.597  1.00  0.00     0.049 A 
ATOM     67  H   UNL     1      16.034  -0.837   2.198  1.00  0.00     0.167 HD
ATOM     68  C   UNL     1      17.249   0.760   0.185  1.00  0.00     0.074 A 
ATOM     69  C   UNL     1      17.516   1.383  -1.095  1.00  0.00     0.031 C 
ATOM     70  C   UNL     1      17.959   1.000   1.316  1.00  0.00     0.037 A 
BRANCH  57  71
ATOM     71  C   UNL     1      15.933  -2.082   6.282  1.00  0.00     0.064 A 
ATOM     72  C   UNL     1      16.316  -3.338   6.780  1.00  0.00     0.173 A 
ATOM     73  C   UNL     1      15.687  -1.060   7.211  1.00  0.00     0.173 A 
ATOM     74  F   UNL     1      16.554  -4.354   5.937  1.00  0.00    -0.203 F 
ATOM     75  C   UNL     1      16.408  -3.570   8.150  1.00  0.00     0.198 A 
ATOM     76  C   UNL     1      15.815  -1.286   8.579  1.00  0.00     0.198 A 
ATOM     77  F   UNL     1      15.323   0.162   6.793  1.00  0.00    -0.203 F 
ATOM     78  F   UNL     1      16.714  -4.795   8.601  1.00  0.00    -0.200 F 
ATOM     79  C   UNL     1      16.164  -2.543   9.048  1.00  0.00     0.200 A 
ATOM     80  F   UNL     1      15.594  -0.287   9.445  1.00  0.00    -0.200 F 
ATOM     81  F   UNL     1      16.257  -2.767  10.366  1.00  0.00    -0.200 F 
ENDBRANCH  57  71
BRANCH  58  82
ATOM     82  C   UNL     1      14.518  -0.401  -3.473  1.00  0.00     0.064 A 
ATOM     83  C   UNL     1      15.468  -0.792  -4.427  1.00  0.00     0.173 A 
ATOM     84  C   UNL     1      13.358   0.240  -3.931  1.00  0.00     0.173 A 
ATOM     85  F   UNL     1      16.602  -1.392  -4.036  1.00  0.00    -0.203 F 
ATOM     86  C   UNL     1      15.275  -0.534  -5.783  1.00  0.00     0.198 A 
ATOM     87  C   UNL     1      13.152   0.470  -5.290  1.00  0.00     0.198 A 
ATOM     88  F   UNL     1      12.415   0.628  -3.060  1.00  0.00    -0.203 F 
ATOM     89  F   UNL     1      16.219  -0.878  -6.669  1.00  0.00    -0.200 F 
ATOM     90  C   UNL     1      14.114   0.090  -6.214  1.00  0.00     0.200 A 
ATOM     91  F   UNL     1      12.021   1.058  -5.703  1.00  0.00    -0.200 F 
ATOM     92  F   UNL     1      13.925   0.332  -7.518  1.00  0.00    -0.200 F 
ENDBRANCH  58  82
BRANCH  70  93
ATOM     93  C   UNL     1      19.116   1.953   1.212  1.00  0.00     0.064 A 
ATOM     94  C   UNL     1      18.925   3.330   1.023  1.00  0.00     0.173 A 
ATOM     95  C   UNL     1      20.433   1.485   1.343  1.00  0.00     0.173 A 
ATOM     96  F   UNL     1      17.687   3.826   0.876  1.00  0.00    -0.203 F 
ATOM     97  C   UNL     1      20.010   4.198   0.939  1.00  0.00     0.198 A 
ATOM     98  C   UNL     1      21.513   2.361   1.295  1.00  0.00     0.198 A 
ATOM     99  F   UNL     1      20.671   0.179   1.534  1.00  0.00    -0.203 F 
ATOM    100  F   UNL     1      19.806   5.502   0.704  1.00  0.00    -0.200 F 
ATOM    101  C   UNL     1      21.302   3.715   1.084  1.00  0.00     0.200 A 
ATOM    102  F   UNL     1      22.759   1.894   1.452  1.00  0.00    -0.200 F 
ATOM    103  F   UNL     1      22.345   4.554   1.012  1.00  0.00    -0.200 F 
ENDBRANCH  70  93
ENDBRANCH  44  45
ENDBRANCH  36  39
ENDBRANCH  34  35
ENDBRANCH  33  34
ENDBRANCH  32  33
ENDBRANCH   1  32
TORSDOF 16
