REMARK SMILES Cc1ccc(NC(=O)[C@H]2CC(Cl)=CC[C@@H]2C(=O)NCCCCCCNC(=O)c2ccc(-c3c4nc(c(-c5c(F)c(F)c(F)c(F)c5F)c5ccc([nH]5)c(-c5c(F)c(F)c(F)c(F)c5F)c5nc(c(-c6c(F)c(F)c(F)c(F)c6F)c6ccc3[nH]6)C=C5)C=C4)cc2)cc1[N+](=O)[O-]
REMARK SMILES IDX 21 1 20 2 19 3 18 4 16 5 17 6 15 8 9 9 10 10 11 11 14 12
REMARK SMILES IDX 12 13 13 14 7 15 6 16 8 18 5 19 1 20 2 21 3 22 92 23 4 24
REMARK SMILES IDX 91 25 93 26 94 27 95 28 22 29 23 30 24 31 25 32 26 33 27 35
REMARK SMILES IDX 28 36 29 37 90 38 30 39 89 40 31 41 32 42 33 43 83 44 34 45
REMARK SMILES IDX 88 46 82 47 84 48 35 49 87 50 81 51 80 52 36 54 68 55 48 56
REMARK SMILES IDX 67 57 49 58 52 59 66 60 85 61 50 62 51 63 65 65 86 66 53 67
REMARK SMILES IDX 37 68 38 69 46 70 39 71 40 72 44 73 47 74 41 75 42 76 45 77
REMARK SMILES IDX 43 78 69 79 70 80 78 81 71 82 72 83 76 84 79 85 73 86 74 87
REMARK SMILES IDX 77 88 75 89 54 90 55 91 63 92 56 93 57 94 61 95 64 96 58 97
REMARK SMILES IDX 59 98 62 99 60 100
REMARK H PARENT 18 7 6 17 25 34 84 53 52 64
REMARK Flexibility Score: inf
ROOT
ATOM      1  C   UNL     1      -1.604   2.480  -1.327  1.00  0.00     0.002 C 
ENDROOT
BRANCH   1   2
ATOM      2  C   UNL     1      -2.914   1.684  -1.236  1.00  0.00     0.021 C 
BRANCH   2   3
ATOM      3  C   UNL     1      -3.041   0.498  -2.197  1.00  0.00     0.116 C 
BRANCH   3   4
ATOM      4  N   UNL     1      -1.896  -0.392  -2.128  1.00  0.00    -0.356 N 
ATOM      5  C   UNL     1      -1.773  -1.711  -1.839  1.00  0.00     0.224 C 
ATOM      6  O   UNL     1      -0.632  -2.181  -1.873  1.00  0.00    -0.275 OA
ATOM      7  H   UNL     1      -1.040   0.049  -2.331  1.00  0.00     0.163 HD
BRANCH   5   8
ATOM      8  C   UNL     1      -2.972  -2.576  -1.459  1.00  0.00     0.095 C 
ATOM      9  C   UNL     1      -2.952  -2.836   0.066  1.00  0.00     0.097 C 
ATOM     10  C   UNL     1      -3.937  -3.950   0.468  1.00  0.00     0.062 C 
ATOM     11  C   UNL     1      -3.702  -5.193  -0.323  1.00  0.00     0.015 C 
ATOM     12  C   UNL     1      -2.865  -3.895  -2.282  1.00  0.00     0.043 C 
ATOM     13  Cl  UNL     1      -4.049  -6.687   0.462  1.00  0.00    -0.089 Cl
ATOM     14  C   UNL     1      -3.216  -5.167  -1.567  1.00  0.00    -0.010 C 
BRANCH   9  15
ATOM     15  C   UNL     1      -3.342  -1.599   0.861  1.00  0.00     0.228 C 
ATOM     16  N   UNL     1      -2.454  -0.747   1.444  1.00  0.00    -0.326 N 
ATOM     17  H   UNL     1      -2.883  -0.059   2.002  1.00  0.00     0.169 HD
ATOM     18  O   UNL     1      -4.532  -1.264   0.932  1.00  0.00    -0.274 OA
BRANCH  16  19
ATOM     19  C   UNL     1      -1.055  -0.645   1.417  1.00  0.00     0.048 A 
ATOM     20  C   UNL     1       3.090  -0.013   0.348  1.00  0.00     0.052 C 
ATOM     21  C   UNL     1       1.686  -0.170   0.853  1.00  0.00     0.027 A 
ATOM     22  C   UNL     1       1.178  -1.471   0.972  1.00  0.00     0.012 A 
ATOM     23  C   UNL     1       0.810   0.886   1.142  1.00  0.00     0.274 A 
ATOM     24  C   UNL     1      -0.169  -1.704   1.272  1.00  0.00     0.027 A 
ATOM     25  C   UNL     1      -0.537   0.651   1.466  1.00  0.00     0.112 A 
BRANCH  23  26
ATOM     26  N   UNL     1       1.208   2.285   1.010  1.00  0.00     0.063 N 
ATOM     27  O   UNL     1       0.847   3.061   1.907  1.00  0.00    -0.258 OA
ATOM     28  O   UNL     1       1.800   2.618  -0.025  1.00  0.00    -0.258 OA
ENDBRANCH  23  26
ENDBRANCH  16  19
ENDBRANCH   9  15
ENDBRANCH   5   8
ENDBRANCH   3   4
ENDBRANCH   2   3
ENDBRANCH   1   2
BRANCH   1  29
ATOM     29  C   UNL     1      -1.347   3.249  -2.627  1.00  0.00     0.002 C 
BRANCH  29  30
ATOM     30  C   UNL     1      -2.447   4.218  -3.056  1.00  0.00     0.021 C 
BRANCH  30  31
ATOM     31  C   UNL     1      -2.758   5.312  -2.044  1.00  0.00     0.116 C 
BRANCH  31  32
ATOM     32  N   UNL     1      -1.902   6.479  -2.130  1.00  0.00    -0.352 N 
ATOM     33  C   UNL     1      -1.935   7.676  -1.432  1.00  0.00     0.251 C 
ATOM     34  H   UNL     1      -1.177   6.409  -2.792  1.00  0.00     0.163 HD
ATOM     35  O   UNL     1      -1.241   8.597  -1.818  1.00  0.00    -0.269 OA
BRANCH  33  36
ATOM     36  C   UNL     1      -2.678   7.806  -0.141  1.00  0.00     0.039 A 
ATOM     37  C   UNL     1      -2.179   8.727   0.799  1.00  0.00     0.014 A 
ATOM     38  C   UNL     1      -3.694   6.939   0.242  1.00  0.00     0.014 A 
ATOM     39  C   UNL     1      -2.513   8.602   2.147  1.00  0.00     0.010 A 
ATOM     40  C   UNL     1      -3.950   6.742   1.580  1.00  0.00     0.010 A 
ATOM     41  C   UNL     1      -3.302   7.527   2.533  1.00  0.00    -0.014 A 
BRANCH  41  42
ATOM     42  C   UNL     1      -3.450   7.051   3.897  1.00  0.00     0.031 A 
ATOM     43  C   UNL     1      -4.716   7.269   4.621  1.00  0.00     0.074 A 
ATOM     44  C   UNL     1      -2.496   6.222   4.379  1.00  0.00     0.049 A 
ATOM     45  N   UNL     1      -4.866   7.053   5.881  1.00  0.00    -0.248 NA
ATOM     46  C   UNL     1      -5.916   7.816   3.993  1.00  0.00     0.031 C 
ATOM     47  C   UNL     1      -2.598   5.311   5.516  1.00  0.00     0.029 A 
ATOM     48  N   UNL     1      -1.136   6.181   4.023  1.00  0.00    -0.354 N 
ATOM     49  C   UNL     1      -6.207   7.143   6.170  1.00  0.00     0.074 A 
ATOM     50  C   UNL     1      -6.793   7.748   5.001  1.00  0.00     0.031 C 
ATOM     51  C   UNL     1      -1.362   5.027   5.956  1.00  0.00     0.029 A 
ATOM     52  C   UNL     1      -0.445   5.878   5.220  1.00  0.00     0.049 A 
ATOM     53  H   UNL     1      -0.748   6.331   3.131  1.00  0.00     0.167 HD
ATOM     54  C   UNL     1      -6.654   6.570   7.323  1.00  0.00     0.037 A 
ATOM     55  C   UNL     1       0.391   6.791   5.797  1.00  0.00     0.037 A 
ATOM     56  C   UNL     1      -5.522   6.215   8.182  1.00  0.00     0.049 A 
ATOM     57  C   UNL     1      -0.026   7.205   7.189  1.00  0.00     0.074 A 
ATOM     58  C   UNL     1      -4.904   5.018   8.496  1.00  0.00     0.029 A 
ATOM     59  N   UNL     1      -4.681   7.229   8.634  1.00  0.00    -0.354 N 
ATOM     60  N   UNL     1      -1.235   7.066   7.658  1.00  0.00    -0.248 NA
ATOM     61  C   UNL     1       0.880   7.818   8.156  1.00  0.00     0.031 C 
ATOM     62  C   UNL     1      -3.635   5.324   9.060  1.00  0.00     0.029 A 
ATOM     63  C   UNL     1      -3.507   6.702   9.131  1.00  0.00     0.049 A 
ATOM     64  H   UNL     1      -4.896   8.189   8.604  1.00  0.00     0.167 HD
ATOM     65  C   UNL     1      -1.294   7.562   8.934  1.00  0.00     0.074 A 
ATOM     66  C   UNL     1       0.060   8.006   9.206  1.00  0.00     0.031 C 
ATOM     67  C   UNL     1      -2.459   7.575   9.647  1.00  0.00     0.037 A 
BRANCH  54  68
ATOM     68  C   UNL     1      -8.079   6.143   7.630  1.00  0.00     0.064 A 
ATOM     69  C   UNL     1      -8.372   5.502   8.858  1.00  0.00     0.173 A 
ATOM     70  C   UNL     1      -9.171   6.210   6.739  1.00  0.00     0.173 A 
ATOM     71  F   UNL     1      -7.440   5.367   9.812  1.00  0.00    -0.203 F 
ATOM     72  C   UNL     1      -9.628   4.954   9.146  1.00  0.00     0.198 A 
ATOM     73  C   UNL     1     -10.438   5.701   7.046  1.00  0.00     0.198 A 
ATOM     74  F   UNL     1      -9.064   6.719   5.510  1.00  0.00    -0.203 F 
ATOM     75  F   UNL     1      -9.823   4.307  10.304  1.00  0.00    -0.200 F 
ATOM     76  C   UNL     1     -10.663   5.059   8.242  1.00  0.00     0.200 A 
ATOM     77  F   UNL     1     -11.430   5.815   6.151  1.00  0.00    -0.200 F 
ATOM     78  F   UNL     1     -11.865   4.532   8.513  1.00  0.00    -0.200 F 
ENDBRANCH  54  68
BRANCH  55  79
ATOM     79  C   UNL     1       1.063   7.664   4.798  1.00  0.00     0.064 A 
ATOM     80  C   UNL     1       1.973   7.064   3.905  1.00  0.00     0.173 A 
ATOM     81  C   UNL     1       0.532   8.910   4.441  1.00  0.00     0.173 A 
ATOM     82  F   UNL     1       2.519   5.876   4.208  1.00  0.00    -0.203 F 
ATOM     83  C   UNL     1       2.235   7.620   2.655  1.00  0.00     0.198 A 
ATOM     84  C   UNL     1       0.809   9.470   3.192  1.00  0.00     0.198 A 
ATOM     85  F   UNL     1      -0.348   9.527   5.242  1.00  0.00    -0.203 F 
ATOM     86  F   UNL     1       3.021   6.971   1.784  1.00  0.00    -0.200 F 
ATOM     87  C   UNL     1       1.627   8.808   2.287  1.00  0.00     0.200 A 
ATOM     88  F   UNL     1       0.207  10.612   2.826  1.00  0.00    -0.200 F 
ATOM     89  F   UNL     1       1.801   9.299   1.052  1.00  0.00    -0.200 F 
ENDBRANCH  55  79
BRANCH  67  90
ATOM     90  C   UNL     1      -2.715   8.339  10.928  1.00  0.00     0.064 A 
ATOM     91  C   UNL     1      -2.019   9.499  11.309  1.00  0.00     0.173 A 
ATOM     92  C   UNL     1      -3.814   7.998  11.757  1.00  0.00     0.173 A 
ATOM     93  F   UNL     1      -1.040  10.008  10.550  1.00  0.00    -0.203 F 
ATOM     94  C   UNL     1      -2.351  10.221  12.460  1.00  0.00     0.198 A 
ATOM     95  C   UNL     1      -4.183   8.757  12.867  1.00  0.00     0.198 A 
ATOM     96  F   UNL     1      -4.586   6.932  11.498  1.00  0.00    -0.203 F 
ATOM     97  F   UNL     1      -1.625  11.296  12.800  1.00  0.00    -0.200 F 
ATOM     98  C   UNL     1      -3.440   9.860  13.230  1.00  0.00     0.200 A 
ATOM     99  F   UNL     1      -5.277   8.425  13.568  1.00  0.00    -0.200 F 
ATOM    100  F   UNL     1      -3.786  10.585  14.301  1.00  0.00    -0.200 F 
ENDBRANCH  67  90
ENDBRANCH  41  42
ENDBRANCH  33  36
ENDBRANCH  31  32
ENDBRANCH  30  31
ENDBRANCH  29  30
ENDBRANCH   1  29
TORSDOF 16
