REMARK SMILES O=C(NCCCCCCNC(=O)[C@@H]1CCCC[C@@H]1C(=O)Nc1cc(C(F)(F)F)cc(C(F)(F)F)c1)c1ccc(-c2c3nc(c(-c4c(F)c(F)c(F)c(F)c4F)c4ccc([nH]4)c(-c4c(F)c(F)c(F)c(F)c4F)c4nc(c(-c5c(F)c(F)c(F)c(F)c5F)c5ccc2[nH]5)C=C4)C=C3)cc1
REMARK SMILES IDX 7 1 6 2 5 3 4 4 3 5 1 6 2 7 36 9 37 10 98 11 38 12 97 13
REMARK SMILES IDX 39 14 40 15 41 16 91 17 42 18 96 19 90 20 92 21 43 22 95 23
REMARK SMILES IDX 89 24 88 25 44 27 76 28 56 29 75 30 57 31 60 32 74 33 93 34
REMARK SMILES IDX 58 35 59 36 73 38 94 39 61 40 45 41 46 42 54 43 47 44 48 45
REMARK SMILES IDX 52 46 55 47 49 48 50 49 53 50 51 51 77 52 78 53 86 54 79 55
REMARK SMILES IDX 80 56 84 57 87 58 81 59 82 60 85 61 83 62 62 63 63 64 71 65
REMARK SMILES IDX 64 66 65 67 69 68 72 69 66 70 67 71 70 72 68 73 8 74 9 75
REMARK SMILES IDX 10 76 11 77 12 79 13 80 14 81 18 82 15 83 17 84 16 85 19 86
REMARK SMILES IDX 20 87 21 88 22 90 23 91 35 92 24 93 30 94 29 95 25 96 26 97
REMARK SMILES IDX 27 98 28 99 31 100 32 101 33 102 34 103
REMARK H PARENT 3 8 92 26 60 37 10 78 21 89
REMARK Flexibility Score: inf
ROOT
ATOM      1  C   UNL     1       5.428  -3.134   2.375  1.00  0.00     0.002 C 
ENDROOT
BRANCH   1   2
ATOM      2  C   UNL     1       4.753  -1.927   3.034  1.00  0.00     0.002 C 
BRANCH   2   3
ATOM      3  C   UNL     1       4.984  -0.587   2.338  1.00  0.00     0.021 C 
BRANCH   3   4
ATOM      4  C   UNL     1       4.514  -0.527   0.891  1.00  0.00     0.116 C 
BRANCH   4   5
ATOM      5  N   UNL     1       3.082  -0.734   0.739  1.00  0.00    -0.352 N 
ATOM      6  O   UNL     1       1.024  -0.329  -0.119  1.00  0.00    -0.269 OA
ATOM      7  C   UNL     1       2.234  -0.139  -0.165  1.00  0.00     0.251 C 
ATOM      8  H   UNL     1       2.670  -1.379   1.358  1.00  0.00     0.163 HD
BRANCH   7   9
ATOM      9  C   UNL     1       2.804   0.772  -1.177  1.00  0.00     0.039 A 
ATOM     10  C   UNL     1       3.901   0.372  -1.945  1.00  0.00     0.014 A 
ATOM     11  C   UNL     1       2.262   2.050  -1.320  1.00  0.00     0.014 A 
ATOM     12  C   UNL     1       4.539   1.294  -2.765  1.00  0.00     0.010 A 
ATOM     13  C   UNL     1       2.859   2.953  -2.200  1.00  0.00     0.010 A 
ATOM     14  C   UNL     1       4.017   2.589  -2.908  1.00  0.00    -0.014 A 
BRANCH  14  15
ATOM     15  C   UNL     1       4.649   3.541  -3.850  1.00  0.00     0.031 A 
ATOM     16  C   UNL     1       5.290   4.803  -3.354  1.00  0.00     0.074 A 
ATOM     17  C   UNL     1       4.608   3.266  -5.166  1.00  0.00     0.049 A 
ATOM     18  N   UNL     1       5.789   5.800  -4.039  1.00  0.00    -0.248 NA
ATOM     19  C   UNL     1       5.373   4.972  -1.896  1.00  0.00     0.031 C 
ATOM     20  C   UNL     1       4.010   2.065  -5.753  1.00  0.00     0.029 A 
ATOM     21  N   UNL     1       5.061   3.977  -6.246  1.00  0.00    -0.354 N 
ATOM     22  C   UNL     1       6.215   6.730  -3.100  1.00  0.00     0.074 A 
ATOM     23  C   UNL     1       5.907   6.182  -1.795  1.00  0.00     0.031 C 
ATOM     24  C   UNL     1       4.138   2.118  -7.086  1.00  0.00     0.029 A 
ATOM     25  C   UNL     1       4.761   3.386  -7.448  1.00  0.00     0.049 A 
ATOM     26  H   UNL     1       5.552   4.827  -6.168  1.00  0.00     0.167 HD
ATOM     27  C   UNL     1       6.805   7.930  -3.316  1.00  0.00     0.037 A 
ATOM     28  C   UNL     1       4.927   3.834  -8.705  1.00  0.00     0.037 A 
ATOM     29  C   UNL     1       7.115   8.451  -4.623  1.00  0.00     0.049 A 
ATOM     30  C   UNL     1       5.558   5.176  -8.921  1.00  0.00     0.074 A 
ATOM     31  C   UNL     1       7.753   9.634  -4.953  1.00  0.00     0.029 A 
ATOM     32  N   UNL     1       6.800   7.821  -5.820  1.00  0.00    -0.354 N 
ATOM     33  N   UNL     1       5.980   6.039  -8.028  1.00  0.00    -0.248 NA
ATOM     34  C   UNL     1       5.734   5.611 -10.312  1.00  0.00     0.031 C 
ATOM     35  C   UNL     1       7.779   9.742  -6.348  1.00  0.00     0.029 A 
ATOM     36  C   UNL     1       7.206   8.602  -6.889  1.00  0.00     0.049 A 
ATOM     37  H   UNL     1       6.353   6.947  -5.897  1.00  0.00     0.167 HD
ATOM     38  C   UNL     1       6.487   7.112  -8.745  1.00  0.00     0.074 A 
ATOM     39  C   UNL     1       6.327   6.787 -10.149  1.00  0.00     0.031 C 
ATOM     40  C   UNL     1       7.039   8.258  -8.280  1.00  0.00     0.037 A 
BRANCH  27  41
ATOM     41  C   UNL     1       7.117   8.778  -2.116  1.00  0.00     0.064 A 
ATOM     42  C   UNL     1       8.133   8.438  -1.210  1.00  0.00     0.173 A 
ATOM     43  C   UNL     1       6.399   9.961  -1.880  1.00  0.00     0.173 A 
ATOM     44  F   UNL     1       8.842   7.313  -1.381  1.00  0.00    -0.203 F 
ATOM     45  C   UNL     1       8.394   9.233  -0.095  1.00  0.00     0.198 A 
ATOM     46  C   UNL     1       6.682  10.768  -0.781  1.00  0.00     0.198 A 
ATOM     47  F   UNL     1       5.422  10.338  -2.719  1.00  0.00    -0.203 F 
ATOM     48  F   UNL     1       9.333   8.860   0.786  1.00  0.00    -0.200 F 
ATOM     49  C   UNL     1       7.673  10.398   0.116  1.00  0.00     0.200 A 
ATOM     50  F   UNL     1       5.992  11.900  -0.586  1.00  0.00    -0.200 F 
ATOM     51  F   UNL     1       7.925  11.160   1.190  1.00  0.00    -0.200 F 
ENDBRANCH  27  41
BRANCH  28  52
ATOM     52  C   UNL     1       4.458   2.992  -9.833  1.00  0.00     0.064 A 
ATOM     53  C   UNL     1       5.367   2.314 -10.653  1.00  0.00     0.173 A 
ATOM     54  C   UNL     1       3.089   2.780 -10.055  1.00  0.00     0.173 A 
ATOM     55  F   UNL     1       6.685   2.495 -10.485  1.00  0.00    -0.203 F 
ATOM     56  C   UNL     1       4.924   1.449 -11.652  1.00  0.00     0.198 A 
ATOM     57  C   UNL     1       2.648   1.895 -11.036  1.00  0.00     0.198 A 
ATOM     58  F   UNL     1       2.180   3.397  -9.286  1.00  0.00    -0.203 F 
ATOM     59  F   UNL     1       5.813   0.820 -12.433  1.00  0.00    -0.200 F 
ATOM     60  C   UNL     1       3.566   1.231 -11.834  1.00  0.00     0.200 A 
ATOM     61  F   UNL     1       1.336   1.671 -11.192  1.00  0.00    -0.200 F 
ATOM     62  F   UNL     1       3.143   0.378 -12.776  1.00  0.00    -0.200 F 
ENDBRANCH  28  52
BRANCH  40  63
ATOM     63  C   UNL     1       7.544   9.237  -9.297  1.00  0.00     0.064 A 
ATOM     64  C   UNL     1       6.668  10.043 -10.038  1.00  0.00     0.173 A 
ATOM     65  C   UNL     1       8.923   9.412  -9.485  1.00  0.00     0.173 A 
ATOM     66  F   UNL     1       5.341   9.899  -9.904  1.00  0.00    -0.203 F 
ATOM     67  C   UNL     1       7.157  10.986 -10.938  1.00  0.00     0.198 A 
ATOM     68  C   UNL     1       9.408  10.371 -10.368  1.00  0.00     0.198 A 
ATOM     69  F   UNL     1       9.799   8.664  -8.796  1.00  0.00    -0.203 F 
ATOM     70  F   UNL     1       6.304  11.727 -11.659  1.00  0.00    -0.200 F 
ATOM     71  C   UNL     1       8.525  11.155 -11.095  1.00  0.00     0.200 A 
ATOM     72  F   UNL     1      10.730  10.541 -10.511  1.00  0.00    -0.200 F 
ATOM     73  F   UNL     1       8.994  12.073 -11.952  1.00  0.00    -0.200 F 
ENDBRANCH  40  63
ENDBRANCH  14  15
ENDBRANCH   7   9
ENDBRANCH   4   5
ENDBRANCH   3   4
ENDBRANCH   2   3
ENDBRANCH   1   2
BRANCH   1  74
ATOM     74  C   UNL     1       6.961  -3.127   2.398  1.00  0.00     0.021 C 
BRANCH  74  75
ATOM     75  C   UNL     1       7.605  -3.047   3.785  1.00  0.00     0.116 C 
BRANCH  75  76
ATOM     76  N   UNL     1       7.246  -4.164   4.643  1.00  0.00    -0.356 N 
ATOM     77  C   UNL     1       7.905  -4.695   5.715  1.00  0.00     0.223 C 
ATOM     78  H   UNL     1       6.397  -4.607   4.415  1.00  0.00     0.163 HD
ATOM     79  O   UNL     1       7.355  -5.591   6.353  1.00  0.00    -0.275 OA
BRANCH  77  80
ATOM     80  C   UNL     1       9.265  -4.148   6.096  1.00  0.00     0.091 C 
ATOM     81  C   UNL     1      10.119  -5.171   6.847  1.00  0.00     0.014 C 
ATOM     82  C   UNL     1       9.227  -2.787   6.811  1.00  0.00     0.091 C 
ATOM     83  C   UNL     1      11.564  -4.685   6.904  1.00  0.00     0.001 C 
ATOM     84  C   UNL     1      10.688  -2.263   6.862  1.00  0.00     0.014 C 
ATOM     85  C   UNL     1      11.694  -3.265   7.456  1.00  0.00     0.001 C 
BRANCH  82  86
ATOM     86  C   UNL     1       8.674  -2.742   8.256  1.00  0.00     0.228 C 
ATOM     87  O   UNL     1       9.218  -3.318   9.197  1.00  0.00    -0.274 OA
ATOM     88  N   UNL     1       7.728  -1.783   8.538  1.00  0.00    -0.326 N 
ATOM     89  H   UNL     1       7.969  -1.131   9.236  1.00  0.00     0.169 HD
BRANCH  88  90
ATOM     90  C   UNL     1       6.461  -1.618   7.954  1.00  0.00     0.042 A 
ATOM     91  C   UNL     1       5.777  -0.417   8.155  1.00  0.00     0.039 A 
ATOM     92  C   UNL     1       5.808  -2.673   7.323  1.00  0.00     0.039 A 
ATOM     93  C   UNL     1       4.474  -0.241   7.653  1.00  0.00     0.058 A 
ATOM     94  C   UNL     1       4.503  -2.535   6.825  1.00  0.00     0.058 A 
ATOM     95  C   UNL     1       3.850  -1.306   6.982  1.00  0.00     0.026 A 
BRANCH  93  96
ATOM     96  C   UNL     1       3.721   1.048   7.886  1.00  0.00     0.416 C 
ATOM     97  F   UNL     1       2.917   0.983   8.981  1.00  0.00    -0.166 F 
ATOM     98  F   UNL     1       4.538   2.119   8.079  1.00  0.00    -0.166 F 
ATOM     99  F   UNL     1       2.912   1.380   6.842  1.00  0.00    -0.166 F 
ENDBRANCH  93  96
BRANCH  94 100
ATOM    100  C   UNL     1       3.816  -3.718   6.183  1.00  0.00     0.416 C 
ATOM    101  F   UNL     1       2.631  -3.391   5.597  1.00  0.00    -0.166 F 
ATOM    102  F   UNL     1       4.564  -4.283   5.194  1.00  0.00    -0.166 F 
ATOM    103  F   UNL     1       3.540  -4.711   7.067  1.00  0.00    -0.166 F 
ENDBRANCH  94 100
ENDBRANCH  88  90
ENDBRANCH  82  86
ENDBRANCH  77  80
ENDBRANCH  75  76
ENDBRANCH  74  75
ENDBRANCH   1  74
TORSDOF 17
