REMARK SMILES Cc1ccc(-c2nc(C)c(C(=O)N3CCC(C(=O)NCCCCCCNC(=O)c4ccc(-c5c6nc(c(-c7c(F)c(F)c(F)c(F)c7F)c7ccc([nH]7)c(-c7c(F)c(F)c(F)c(F)c7F)c7nc(c(-c8c(F)c(F)c(F)c(F)c8F)c8ccc5[nH]8)C=C7)C=C6)cc4)CC3)s2)o1
REMARK SMILES IDX 22 1 21 2 20 3 19 4 17 5 18 6 16 8 11 9 12 10 13 11 14 12
REMARK SMILES IDX 93 13 15 14 92 15 10 16 6 17 7 18 94 19 8 20 9 21 5 22 1 23
REMARK SMILES IDX 2 24 3 25 95 26 4 27 23 28 24 29 25 30 26 31 27 32 28 34
REMARK SMILES IDX 29 35 30 36 91 37 31 38 90 39 32 40 33 41 34 42 84 43 35 44
REMARK SMILES IDX 89 45 83 46 85 47 36 48 88 49 82 50 81 51 37 53 69 54 49 55
REMARK SMILES IDX 68 56 50 57 53 58 67 59 86 60 51 61 52 62 66 64 87 65 54 66
REMARK SMILES IDX 38 67 39 68 47 69 40 70 41 71 45 72 48 73 42 74 43 75 46 76
REMARK SMILES IDX 44 77 70 78 71 79 79 80 72 81 73 82 77 83 80 84 74 85 75 86
REMARK SMILES IDX 78 87 76 88 55 89 56 90 64 91 57 92 58 93 62 94 65 95 59 96
REMARK SMILES IDX 60 97 63 98 61 99
REMARK H PARENT 19 7 26 33 85 52 53 63
REMARK Flexibility Score: inf
ROOT
ATOM      1  C   UNL     1     -12.086   5.088   2.849  1.00  0.00     0.002 C 
ENDROOT
BRANCH   1   2
ATOM      2  C   UNL     1     -10.577   5.134   2.592  1.00  0.00     0.021 C 
BRANCH   2   3
ATOM      3  C   UNL     1     -10.182   4.805   1.155  1.00  0.00     0.116 C 
BRANCH   3   4
ATOM      4  N   UNL     1     -10.579   5.863   0.243  1.00  0.00    -0.356 N 
ATOM      5  C   UNL     1      -9.839   6.656  -0.576  1.00  0.00     0.223 C 
ATOM      6  O   UNL     1     -10.427   7.515  -1.237  1.00  0.00    -0.275 OA
ATOM      7  H   UNL     1     -11.548   6.035   0.213  1.00  0.00     0.163 HD
BRANCH   5   8
ATOM      8  C   UNL     1      -8.334   6.486  -0.702  1.00  0.00     0.082 C 
ATOM      9  C   UNL     1      -5.348   4.095   0.800  1.00  0.00     0.265 C 
ATOM     10  O   UNL     1      -5.653   4.005   1.991  1.00  0.00    -0.268 OA
ATOM     11  N   UNL     1      -5.940   5.086   0.020  1.00  0.00    -0.338 N 
ATOM     12  C   UNL     1      -6.148   6.407   0.589  1.00  0.00     0.120 C 
ATOM     13  C   UNL     1      -6.486   4.856  -1.310  1.00  0.00     0.120 C 
ATOM     14  C   UNL     1      -7.611   6.809   0.613  1.00  0.00     0.035 C 
ATOM     15  C   UNL     1      -7.984   5.126  -1.327  1.00  0.00     0.035 C 
BRANCH   9  16
ATOM     16  C   UNL     1      -4.300   3.287   0.188  1.00  0.00     0.115 A 
ATOM     17  C   UNL     1      -2.518   1.657  -0.130  1.00  0.00     0.159 A 
ATOM     18  N   UNL     1      -2.429   2.601  -1.038  1.00  0.00    -0.237 NA
ATOM     19  S   UNL     1      -3.869   1.776   0.913  1.00  0.00    -0.105 S 
ATOM     20  C   UNL     1      -3.421   3.549  -0.857  1.00  0.00     0.062 A 
ATOM     21  C   UNL     1      -3.343   4.732  -1.753  1.00  0.00     0.068 C 
BRANCH  17  22
ATOM     22  C   UNL     1      -1.505   0.648  -0.007  1.00  0.00     0.162 A 
ATOM     23  C   UNL     1       2.014  -0.048  -0.010  1.00  0.00     0.087 C 
ATOM     24  C   UNL     1       0.545  -0.190   0.042  1.00  0.00     0.101 A 
ATOM     25  C   UNL     1      -0.308  -1.257   0.205  1.00  0.00     0.046 A 
ATOM     26  O   UNL     1      -0.168   0.957  -0.100  1.00  0.00    -0.459 OA
ATOM     27  C   UNL     1      -1.621  -0.719   0.190  1.00  0.00     0.054 A 
ENDBRANCH  17  22
ENDBRANCH   9  16
ENDBRANCH   5   8
ENDBRANCH   3   4
ENDBRANCH   2   3
ENDBRANCH   1   2
BRANCH   1  28
ATOM     28  C   UNL     1     -12.762   3.761   2.489  1.00  0.00     0.002 C 
BRANCH  28  29
ATOM     29  C   UNL     1     -12.132   2.516   3.121  1.00  0.00     0.021 C 
BRANCH  29  30
ATOM     30  C   UNL     1     -12.041   2.546   4.643  1.00  0.00     0.116 C 
BRANCH  30  31
ATOM     31  N   UNL     1     -13.347   2.674   5.268  1.00  0.00    -0.352 N 
ATOM     32  C   UNL     1     -13.925   1.920   6.255  1.00  0.00     0.251 C 
ATOM     33  H   UNL     1     -13.900   3.416   4.931  1.00  0.00     0.163 HD
ATOM     34  O   UNL     1     -15.114   2.071   6.524  1.00  0.00    -0.269 OA
BRANCH  32  35
ATOM     35  C   UNL     1     -13.132   0.908   6.984  1.00  0.00     0.039 A 
ATOM     36  C   UNL     1     -13.719  -0.333   7.247  1.00  0.00     0.014 A 
ATOM     37  C   UNL     1     -11.835   1.179   7.430  1.00  0.00     0.014 A 
ATOM     38  C   UNL     1     -12.986  -1.318   7.910  1.00  0.00     0.010 A 
ATOM     39  C   UNL     1     -11.081   0.172   8.029  1.00  0.00     0.010 A 
ATOM     40  C   UNL     1     -11.650  -1.085   8.277  1.00  0.00    -0.014 A 
BRANCH  40  41
ATOM     41  C   UNL     1     -10.844  -2.166   8.898  1.00  0.00     0.031 A 
ATOM     42  C   UNL     1     -10.355  -2.046  10.313  1.00  0.00     0.074 A 
ATOM     43  C   UNL     1     -10.524  -3.248   8.163  1.00  0.00     0.049 A 
ATOM     44  N   UNL     1      -9.658  -2.899  11.022  1.00  0.00    -0.248 NA
ATOM     45  C   UNL     1     -10.668  -0.795  11.019  1.00  0.00     0.031 C 
ATOM     46  C   UNL     1     -10.881  -3.448   6.758  1.00  0.00     0.029 A 
ATOM     47  N   UNL     1      -9.825  -4.382   8.494  1.00  0.00    -0.354 N 
ATOM     48  C   UNL     1      -9.451  -2.290  12.252  1.00  0.00     0.074 A 
ATOM     49  C   UNL     1     -10.043  -0.971  12.173  1.00  0.00     0.031 C 
ATOM     50  C   UNL     1     -10.425  -4.644   6.355  1.00  0.00     0.029 A 
ATOM     51  C   UNL     1      -9.722  -5.283   7.464  1.00  0.00     0.049 A 
ATOM     52  H   UNL     1      -9.436  -4.535   9.386  1.00  0.00     0.167 HD
ATOM     53  C   UNL     1      -8.848  -2.795  13.355  1.00  0.00     0.037 A 
ATOM     54  C   UNL     1      -9.129  -6.490   7.418  1.00  0.00     0.037 A 
ATOM     55  C   UNL     1      -8.265  -4.110  13.431  1.00  0.00     0.049 A 
ATOM     56  C   UNL     1      -8.478  -7.034   8.658  1.00  0.00     0.074 A 
ATOM     57  C   UNL     1      -7.676  -4.734  14.517  1.00  0.00     0.029 A 
ATOM     58  N   UNL     1      -8.192  -5.003  12.371  1.00  0.00    -0.354 N 
ATOM     59  N   UNL     1      -8.359  -6.482   9.841  1.00  0.00    -0.248 NA
ATOM     60  C   UNL     1      -7.891  -8.377   8.560  1.00  0.00     0.031 C 
ATOM     61  C   UNL     1      -7.206  -5.986  14.102  1.00  0.00     0.029 A 
ATOM     62  C   UNL     1      -7.548  -6.164  12.772  1.00  0.00     0.049 A 
ATOM     63  H   UNL     1      -8.545  -4.837  11.467  1.00  0.00     0.167 HD
ATOM     64  C   UNL     1      -7.697  -7.411  10.632  1.00  0.00     0.074 A 
ATOM     65  C   UNL     1      -7.468  -8.575   9.801  1.00  0.00     0.031 C 
ATOM     66  C   UNL     1      -7.311  -7.308  11.927  1.00  0.00     0.037 A 
BRANCH  53  67
ATOM     67  C   UNL     1      -8.795  -1.918  14.574  1.00  0.00     0.064 A 
ATOM     68  C   UNL     1      -9.953  -1.602  15.302  1.00  0.00     0.173 A 
ATOM     69  C   UNL     1      -7.572  -1.409  15.038  1.00  0.00     0.173 A 
ATOM     70  F   UNL     1     -11.149  -2.054  14.896  1.00  0.00    -0.203 F 
ATOM     71  C   UNL     1      -9.894  -0.782  16.426  1.00  0.00     0.198 A 
ATOM     72  C   UNL     1      -7.513  -0.615  16.181  1.00  0.00     0.198 A 
ATOM     73  F   UNL     1      -6.433  -1.685  14.386  1.00  0.00    -0.203 F 
ATOM     74  F   UNL     1     -11.021  -0.451  17.072  1.00  0.00    -0.200 F 
ATOM     75  C   UNL     1      -8.674  -0.295  16.868  1.00  0.00     0.200 A 
ATOM     76  F   UNL     1      -6.331  -0.156  16.615  1.00  0.00    -0.200 F 
ATOM     77  F   UNL     1      -8.618   0.490  17.953  1.00  0.00    -0.200 F 
ENDBRANCH  53  67
BRANCH  54  78
ATOM     78  C   UNL     1      -9.159  -7.277   6.158  1.00  0.00     0.064 A 
ATOM     79  C   UNL     1      -9.940  -8.435   6.048  1.00  0.00     0.173 A 
ATOM     80  C   UNL     1      -8.421  -6.877   5.035  1.00  0.00     0.173 A 
ATOM     81  F   UNL     1     -10.648  -8.867   7.102  1.00  0.00    -0.203 F 
ATOM     82  C   UNL     1      -9.967  -9.175   4.868  1.00  0.00     0.198 A 
ATOM     83  C   UNL     1      -8.472  -7.601   3.846  1.00  0.00     0.198 A 
ATOM     84  F   UNL     1      -7.664  -5.771   5.087  1.00  0.00    -0.203 F 
ATOM     85  F   UNL     1     -10.690 -10.301   4.803  1.00  0.00    -0.200 F 
ATOM     86  C   UNL     1      -9.239  -8.753   3.766  1.00  0.00     0.200 A 
ATOM     87  F   UNL     1      -7.779  -7.182   2.778  1.00  0.00    -0.200 F 
ATOM     88  F   UNL     1      -9.274  -9.460   2.628  1.00  0.00    -0.200 F 
ENDBRANCH  54  78
BRANCH  66  89
ATOM     89  C   UNL     1      -6.603  -8.492  12.521  1.00  0.00     0.064 A 
ATOM     90  C   UNL     1      -5.301  -8.840  12.132  1.00  0.00     0.173 A 
ATOM     91  C   UNL     1      -7.231  -9.285  13.494  1.00  0.00     0.173 A 
ATOM     92  F   UNL     1      -4.662  -8.124  11.194  1.00  0.00    -0.203 F 
ATOM     93  C   UNL     1      -4.668  -9.959  12.668  1.00  0.00     0.198 A 
ATOM     94  C   UNL     1      -6.583 -10.384  14.050  1.00  0.00     0.198 A 
ATOM     95  F   UNL     1      -8.474  -8.993  13.906  1.00  0.00    -0.203 F 
ATOM     96  F   UNL     1      -3.448 -10.307  12.236  1.00  0.00    -0.200 F 
ATOM     97  C   UNL     1      -5.307 -10.726  13.629  1.00  0.00     0.200 A 
ATOM     98  F   UNL     1      -7.198 -11.118  14.988  1.00  0.00    -0.200 F 
ATOM     99  F   UNL     1      -4.698 -11.805  14.142  1.00  0.00    -0.200 F 
ENDBRANCH  66  89
ENDBRANCH  40  41
ENDBRANCH  32  35
ENDBRANCH  30  31
ENDBRANCH  29  30
ENDBRANCH  28  29
ENDBRANCH   1  28
TORSDOF 15
