REMARK SMILES COc1ccc(CCN2C(=O)CC[C@@H](C(=O)NCCCCCCNC(=O)c3ccc(-c4c5nc(c(-c6c(F)c(F)c(F)c(F)c6F)c6ccc([nH]6)c(-c6c(F)c(F)c(F)c(F)c6F)c6nc(c(-c7c(F)c(F)c(F)c(F)c7F)c7ccc4[nH]7)C=C6)C=C5)cc3)[C@@H]2c2ccc(Cl)cc2)cc1OC
REMARK SMILES IDX 19 1 18 2 17 3 15 4 16 5 14 7 9 8 10 9 90 10 11 11 12 12
REMARK SMILES IDX 13 13 8 14 7 15 6 16 3 17 4 18 99 19 5 20 98 21 2 22 1 23
REMARK SMILES IDX 100 24 101 25 91 26 92 27 97 28 93 29 96 30 94 31 95 32
REMARK SMILES IDX 20 33 21 34 22 35 23 36 24 37 25 38 26 40 27 41 28 42 89 43
REMARK SMILES IDX 29 44 88 45 30 46 31 47 32 48 82 49 33 50 87 51 81 52 83 53
REMARK SMILES IDX 34 54 86 55 80 56 79 57 35 59 67 60 47 61 66 62 48 63 51 64
REMARK SMILES IDX 65 65 84 66 49 67 50 68 64 70 85 71 52 72 36 73 37 74 45 75
REMARK SMILES IDX 38 76 39 77 43 78 46 79 40 80 41 81 44 82 42 83 68 84 69 85
REMARK SMILES IDX 77 86 70 87 71 88 75 89 78 90 72 91 73 92 76 93 74 94 53 95
REMARK SMILES IDX 54 96 62 97 55 98 56 99 60 100 63 101 57 102 58 103 61 104
REMARK SMILES IDX 59 105
REMARK H PARENT 17 6 24 39 83 58 51 69
REMARK Flexibility Score: inf
ROOT
ATOM      1  C   UNL     1      -5.621  -6.434  -6.706  1.00  0.00     0.021 C 
ENDROOT
BRANCH   1   2
ATOM      2  C   UNL     1      -4.544  -7.506  -6.533  1.00  0.00     0.116 C 
BRANCH   2   3
ATOM      3  N   UNL     1      -3.362  -7.196  -7.305  1.00  0.00    -0.356 N 
ATOM      4  C   UNL     1      -2.115  -6.836  -6.903  1.00  0.00     0.225 C 
ATOM      5  O   UNL     1      -1.264  -6.695  -7.781  1.00  0.00    -0.275 OA
ATOM      6  H   UNL     1      -3.479  -7.255  -8.281  1.00  0.00     0.163 HD
BRANCH   4   7
ATOM      7  C   UNL     1      -1.805  -6.660  -5.415  1.00  0.00     0.106 C 
ATOM      8  N   UNL     1       0.001  -4.881  -5.466  1.00  0.00    -0.335 N 
ATOM      9  C   UNL     1      -0.988  -4.029  -5.960  1.00  0.00     0.223 C 
ATOM     10  C   UNL     1      -0.296  -6.329  -5.219  1.00  0.00     0.128 C 
ATOM     11  O   UNL     1      -0.759  -3.057  -6.678  1.00  0.00    -0.275 OA
ATOM     12  C   UNL     1      -2.403  -4.251  -5.472  1.00  0.00     0.101 C 
ATOM     13  C   UNL     1      -2.603  -5.553  -4.735  1.00  0.00     0.026 C 
BRANCH   8  14
ATOM     14  C   UNL     1       1.399  -4.504  -5.732  1.00  0.00     0.125 C 
BRANCH  14  15
ATOM     15  C   UNL     1       1.828  -3.055  -5.372  1.00  0.00     0.057 C 
BRANCH  15  16
ATOM     16  C   UNL     1       1.642  -2.592  -3.940  1.00  0.00    -0.042 A 
ATOM     17  C   UNL     1       1.322  -1.656  -1.293  1.00  0.00     0.160 A 
ATOM     18  C   UNL     1       0.209  -1.988  -2.066  1.00  0.00     0.051 A 
ATOM     19  C   UNL     1       2.607  -1.787  -1.833  1.00  0.00     0.160 A 
ATOM     20  C   UNL     1       0.370  -2.410  -3.385  1.00  0.00     0.008 A 
ATOM     21  C   UNL     1       2.752  -2.268  -3.147  1.00  0.00     0.054 A 
BRANCH  17  22
ATOM     22  O   UNL     1       1.135  -1.276   0.009  1.00  0.00    -0.493 OA
ATOM     23  C   UNL     1       0.357  -0.083   0.119  1.00  0.00     0.278 C 
ENDBRANCH  17  22
BRANCH  19  24
ATOM     24  O   UNL     1       3.803  -1.501  -1.229  1.00  0.00    -0.493 OA
ATOM     25  C   UNL     1       3.776  -0.633  -0.104  1.00  0.00     0.278 C 
ENDBRANCH  19  24
ENDBRANCH  15  16
ENDBRANCH  14  15
ENDBRANCH   8  14
BRANCH  10  26
ATOM     26  C   UNL     1       0.201  -6.890  -3.871  1.00  0.00    -0.025 A 
ATOM     27  C   UNL     1       0.804  -6.105  -2.881  1.00  0.00     0.007 A 
ATOM     28  C   UNL     1       0.069  -8.271  -3.607  1.00  0.00     0.007 A 
ATOM     29  C   UNL     1       1.264  -6.663  -1.682  1.00  0.00     0.021 A 
ATOM     30  C   UNL     1       0.490  -8.827  -2.395  1.00  0.00     0.021 A 
ATOM     31  C   UNL     1       1.094  -8.020  -1.438  1.00  0.00     0.041 A 
ATOM     32  Cl  UNL     1       1.636  -8.703   0.043  1.00  0.00    -0.084 Cl
ENDBRANCH  10  26
ENDBRANCH   4   7
ENDBRANCH   2   3
ENDBRANCH   1   2
BRANCH   1  33
ATOM     33  C   UNL     1      -6.136  -6.280  -8.143  1.00  0.00     0.002 C 
BRANCH  33  34
ATOM     34  C   UNL     1      -6.610  -7.577  -8.805  1.00  0.00     0.002 C 
BRANCH  34  35
ATOM     35  C   UNL     1      -7.650  -8.366  -8.008  1.00  0.00     0.021 C 
BRANCH  35  36
ATOM     36  C   UNL     1      -8.931  -7.598  -7.710  1.00  0.00     0.116 C 
BRANCH  36  37
ATOM     37  N   UNL     1      -9.661  -7.267  -8.921  1.00  0.00    -0.352 N 
ATOM     38  C   UNL     1     -10.983  -7.466  -9.212  1.00  0.00     0.251 C 
ATOM     39  H   UNL     1      -9.131  -6.840  -9.632  1.00  0.00     0.163 HD
ATOM     40  O   UNL     1     -11.391  -7.306 -10.364  1.00  0.00    -0.269 OA
BRANCH  38  41
ATOM     41  C   UNL     1     -11.925  -7.884  -8.153  1.00  0.00     0.039 A 
ATOM     42  C   UNL     1     -12.902  -8.835  -8.458  1.00  0.00     0.014 A 
ATOM     43  C   UNL     1     -11.875  -7.316  -6.876  1.00  0.00     0.014 A 
ATOM     44  C   UNL     1     -13.814  -9.229  -7.479  1.00  0.00     0.010 A 
ATOM     45  C   UNL     1     -12.729  -7.773  -5.877  1.00  0.00     0.010 A 
ATOM     46  C   UNL     1     -13.728  -8.710  -6.176  1.00  0.00    -0.014 A 
BRANCH  46  47
ATOM     47  C   UNL     1     -14.719  -9.091  -5.138  1.00  0.00     0.031 A 
ATOM     48  C   UNL     1     -15.651  -8.053  -4.573  1.00  0.00     0.074 A 
ATOM     49  C   UNL     1     -14.763 -10.358  -4.686  1.00  0.00     0.049 A 
ATOM     50  N   UNL     1     -16.575  -8.179  -3.654  1.00  0.00    -0.248 NA
ATOM     51  C   UNL     1     -15.505  -6.682  -5.089  1.00  0.00     0.031 C 
ATOM     52  C   UNL     1     -13.881 -11.443  -5.119  1.00  0.00     0.029 A 
ATOM     53  N   UNL     1     -15.587 -10.948  -3.761  1.00  0.00    -0.354 N 
ATOM     54  C   UNL     1     -17.106  -6.908  -3.475  1.00  0.00     0.074 A 
ATOM     55  C   UNL     1     -16.358  -6.013  -4.329  1.00  0.00     0.031 C 
ATOM     56  C   UNL     1     -14.231 -12.573  -4.484  1.00  0.00     0.029 A 
ATOM     57  C   UNL     1     -15.341 -12.287  -3.580  1.00  0.00     0.049 A 
ATOM     58  H   UNL     1     -16.289 -10.459  -3.274  1.00  0.00     0.167 HD
ATOM     59  C   UNL     1     -18.145  -6.525  -2.695  1.00  0.00     0.037 A 
ATOM     60  C   UNL     1     -15.949 -13.181  -2.778  1.00  0.00     0.037 A 
ATOM     61  C   UNL     1     -18.905  -7.424  -1.867  1.00  0.00     0.049 A 
ATOM     62  C   UNL     1     -17.110 -12.734  -1.931  1.00  0.00     0.074 A 
ATOM     63  C   UNL     1     -20.004  -7.149  -1.072  1.00  0.00     0.029 A 
ATOM     64  N   UNL     1     -18.642  -8.780  -1.729  1.00  0.00    -0.354 N 
ATOM     65  N   UNL     1     -17.647 -11.543  -1.820  1.00  0.00    -0.248 NA
ATOM     66  C   UNL     1     -17.762 -13.764  -1.111  1.00  0.00     0.031 C 
ATOM     67  C   UNL     1     -20.379  -8.328  -0.419  1.00  0.00     0.029 A 
ATOM     68  C   UNL     1     -19.551  -9.352  -0.852  1.00  0.00     0.049 A 
ATOM     69  H   UNL     1     -17.918  -9.264  -2.187  1.00  0.00     0.167 HD
ATOM     70  C   UNL     1     -18.721 -11.687  -0.950  1.00  0.00     0.074 A 
ATOM     71  C   UNL     1     -18.767 -13.086  -0.577  1.00  0.00     0.031 C 
ATOM     72  C   UNL     1     -19.590 -10.748  -0.501  1.00  0.00     0.037 A 
BRANCH  59  73
ATOM     73  C   UNL     1     -18.521  -5.070  -2.706  1.00  0.00     0.064 A 
ATOM     74  C   UNL     1     -19.080  -4.461  -3.841  1.00  0.00     0.173 A 
ATOM     75  C   UNL     1     -18.338  -4.277  -1.563  1.00  0.00     0.173 A 
ATOM     76  F   UNL     1     -19.263  -5.169  -4.966  1.00  0.00    -0.203 F 
ATOM     77  C   UNL     1     -19.408  -3.108  -3.843  1.00  0.00     0.198 A 
ATOM     78  C   UNL     1     -18.700  -2.932  -1.557  1.00  0.00     0.198 A 
ATOM     79  F   UNL     1     -17.812  -4.807  -0.449  1.00  0.00    -0.203 F 
ATOM     80  F   UNL     1     -19.883  -2.537  -4.958  1.00  0.00    -0.200 F 
ATOM     81  C   UNL     1     -19.224  -2.346  -2.699  1.00  0.00     0.200 A 
ATOM     82  F   UNL     1     -18.534  -2.200  -0.446  1.00  0.00    -0.200 F 
ATOM     83  F   UNL     1     -19.544  -1.045  -2.700  1.00  0.00    -0.200 F 
ENDBRANCH  59  73
BRANCH  60  84
ATOM     84  C   UNL     1     -15.502 -14.599  -2.770  1.00  0.00     0.064 A 
ATOM     85  C   UNL     1     -16.318 -15.615  -3.289  1.00  0.00     0.173 A 
ATOM     86  C   UNL     1     -14.262 -14.971  -2.232  1.00  0.00     0.173 A 
ATOM     87  F   UNL     1     -17.521 -15.312  -3.799  1.00  0.00    -0.203 F 
ATOM     88  C   UNL     1     -15.923 -16.950  -3.244  1.00  0.00     0.198 A 
ATOM     89  C   UNL     1     -13.855 -16.303  -2.215  1.00  0.00     0.198 A 
ATOM     90  F   UNL     1     -13.440 -14.037  -1.730  1.00  0.00    -0.203 F 
ATOM     91  F   UNL     1     -16.746 -17.905  -3.697  1.00  0.00    -0.200 F 
ATOM     92  C   UNL     1     -14.690 -17.293  -2.711  1.00  0.00     0.200 A 
ATOM     93  F   UNL     1     -12.655 -16.629  -1.714  1.00  0.00    -0.200 F 
ATOM     94  F   UNL     1     -14.310 -18.577  -2.668  1.00  0.00    -0.200 F 
ENDBRANCH  60  84
BRANCH  72  95
ATOM     95  C   UNL     1     -20.698 -11.217   0.400  1.00  0.00     0.064 A 
ATOM     96  C   UNL     1     -20.454 -11.663   1.707  1.00  0.00     0.173 A 
ATOM     97  C   UNL     1     -22.027 -11.209  -0.052  1.00  0.00     0.173 A 
ATOM     98  F   UNL     1     -19.200 -11.702   2.185  1.00  0.00    -0.203 F 
ATOM     99  C   UNL     1     -21.492 -12.127   2.511  1.00  0.00     0.198 A 
ATOM    100  C   UNL     1     -23.067 -11.639   0.767  1.00  0.00     0.198 A 
ATOM    101  F   UNL     1     -22.318 -10.782  -1.290  1.00  0.00    -0.203 F 
ATOM    102  F   UNL     1     -21.225 -12.614   3.731  1.00  0.00    -0.200 F 
ATOM    103  C   UNL     1     -22.797 -12.110   2.042  1.00  0.00     0.200 A 
ATOM    104  F   UNL     1     -24.329 -11.606   0.318  1.00  0.00    -0.200 F 
ATOM    105  F   UNL     1     -23.794 -12.559   2.817  1.00  0.00    -0.200 F 
ENDBRANCH  72  95
ENDBRANCH  46  47
ENDBRANCH  38  41
ENDBRANCH  36  37
ENDBRANCH  35  36
ENDBRANCH  34  35
ENDBRANCH  33  34
ENDBRANCH   1  33
TORSDOF 19
