REMARK SMILES CO[C@H]1C[C@H](C(=O)NCCCCCCNC(=O)c2ccc(-c3c4nc(c(-c5c(F)c(F)c(F)c(F)c5F)c5ccc([nH]5)c(-c5c(F)c(F)c(F)c(F)c5F)c5nc(c(-c6c(F)c(F)c(F)c(F)c6F)c6ccc3[nH]6)C=C5)C=C4)cc2)N(C(=O)[C@H]2C=C[C@@H]([NH3+])C2)C1
REMARK SMILES IDX 11 1 10 2 9 3 8 4 6 5 7 6 5 8 3 9 4 10 90 11 81 12 2 13 1 14
REMARK SMILES IDX 82 15 83 16 84 17 85 18 89 19 86 20 87 21 88 22 12 26 13 27
REMARK SMILES IDX 14 28 15 29 16 30 17 32 18 33 19 34 80 35 20 36 79 37 21 38
REMARK SMILES IDX 22 39 23 40 73 41 24 42 78 43 72 44 74 45 25 46 77 47 71 48
REMARK SMILES IDX 70 49 26 51 58 52 38 53 57 54 39 55 42 56 56 57 75 58 40 59
REMARK SMILES IDX 41 60 55 62 76 63 43 64 27 65 28 66 36 67 29 68 30 69 34 70
REMARK SMILES IDX 37 71 31 72 32 73 35 74 33 75 59 76 60 77 68 78 61 79 62 80
REMARK SMILES IDX 66 81 69 82 63 83 64 84 67 85 65 86 44 87 45 88 53 89 46 90
REMARK SMILES IDX 47 91 51 92 54 93 48 94 49 95 52 96 50 97
REMARK H PARENT 8 7 88 23 88 24 88 25 15 31 74 50 42 61
REMARK Flexibility Score: inf
ROOT
ATOM      1  C   UNL     1      -1.115  -0.818   2.517  1.00  0.00     0.002 C 
ENDROOT
BRANCH   1   2
ATOM      2  C   UNL     1      -0.356  -1.273   1.266  1.00  0.00     0.021 C 
BRANCH   2   3
ATOM      3  C   UNL     1      -0.804  -2.636   0.723  1.00  0.00     0.116 C 
BRANCH   3   4
ATOM      4  N   UNL     1      -1.908  -2.472  -0.199  1.00  0.00    -0.354 N 
ATOM      5  C   UNL     1      -1.954  -2.388  -1.554  1.00  0.00     0.242 C 
ATOM      6  O   UNL     1      -3.004  -1.935  -2.030  1.00  0.00    -0.273 OA
ATOM      7  H   UNL     1      -2.789  -2.410   0.237  1.00  0.00     0.163 HD
BRANCH   5   8
ATOM      8  C   UNL     1      -0.753  -2.650  -2.496  1.00  0.00     0.177 C 
ATOM      9  C   UNL     1       1.417  -1.810  -1.797  1.00  0.00     0.139 C 
ATOM     10  C   UNL     1       0.168  -1.431  -2.588  1.00  0.00     0.069 C 
ATOM     11  C   UNL     1       1.498  -3.324  -1.965  1.00  0.00     0.152 C 
ATOM     12  N   UNL     1       0.141  -3.779  -2.237  1.00  0.00    -0.327 N 
BRANCH   9  13
ATOM     13  O   UNL     1       2.591  -1.178  -2.294  1.00  0.00    -0.380 OA
ATOM     14  C   UNL     1       2.651   0.206  -1.970  1.00  0.00     0.195 C 
ENDBRANCH   9  13
BRANCH  12  15
ATOM     15  C   UNL     1      -0.055  -5.123  -2.478  1.00  0.00     0.230 C 
ATOM     16  O   UNL     1       0.813  -5.937  -2.139  1.00  0.00    -0.274 OA
BRANCH  15  17
ATOM     17  C   UNL     1      -1.295  -5.650  -3.220  1.00  0.00     0.107 C 
ATOM     18  C   UNL     1      -2.619  -5.306  -2.623  1.00  0.00    -0.012 C 
ATOM     19  C   UNL     1      -1.401  -5.178  -4.678  1.00  0.00     0.087 C 
ATOM     20  C   UNL     1      -3.483  -4.881  -3.552  1.00  0.00     0.033 C 
ATOM     21  C   UNL     1      -2.886  -4.858  -4.920  1.00  0.00     0.205 C 
BRANCH  21  22
ATOM     22  N   UNL     1      -3.071  -3.567  -5.561  1.00  0.00    -0.352 N 
ATOM     23  H   UNL     1      -2.653  -2.838  -4.983  1.00  0.00     0.345 HD
ATOM     24  H   UNL     1      -4.067  -3.383  -5.674  1.00  0.00     0.345 HD
ATOM     25  H   UNL     1      -2.620  -3.575  -6.476  1.00  0.00     0.345 HD
ENDBRANCH  21  22
ENDBRANCH  15  17
ENDBRANCH  12  15
ENDBRANCH   5   8
ENDBRANCH   3   4
ENDBRANCH   2   3
ENDBRANCH   1   2
BRANCH   1  26
ATOM     26  C   UNL     1      -0.836  -1.650   3.775  1.00  0.00     0.002 C 
BRANCH  26  27
ATOM     27  C   UNL     1       0.638  -1.764   4.179  1.00  0.00     0.021 C 
BRANCH  27  28
ATOM     28  C   UNL     1       1.335  -0.434   4.457  1.00  0.00     0.116 C 
BRANCH  28  29
ATOM     29  N   UNL     1       0.753   0.254   5.598  1.00  0.00    -0.352 N 
ATOM     30  C   UNL     1       1.337   0.640   6.778  1.00  0.00     0.251 C 
ATOM     31  H   UNL     1      -0.202   0.476   5.510  1.00  0.00     0.163 HD
ATOM     32  O   UNL     1       0.640   1.005   7.719  1.00  0.00    -0.269 OA
BRANCH  30  33
ATOM     33  C   UNL     1       2.808   0.615   6.925  1.00  0.00     0.039 A 
ATOM     34  C   UNL     1       3.361   0.108   8.105  1.00  0.00     0.014 A 
ATOM     35  C   UNL     1       3.639   1.127   5.925  1.00  0.00     0.014 A 
ATOM     36  C   UNL     1       4.748   0.069   8.261  1.00  0.00     0.010 A 
ATOM     37  C   UNL     1       5.022   1.034   6.056  1.00  0.00     0.010 A 
ATOM     38  C   UNL     1       5.590   0.508   7.226  1.00  0.00    -0.014 A 
BRANCH  38  39
ATOM     39  C   UNL     1       7.067   0.429   7.352  1.00  0.00     0.031 A 
ATOM     40  C   UNL     1       7.889   1.685   7.411  1.00  0.00     0.074 A 
ATOM     41  C   UNL     1       7.670  -0.774   7.354  1.00  0.00     0.049 A 
ATOM     42  N   UNL     1       9.191   1.822   7.443  1.00  0.00    -0.248 NA
ATOM     43  C   UNL     1       7.152   2.959   7.411  1.00  0.00     0.031 C 
ATOM     44  C   UNL     1       6.984  -2.063   7.268  1.00  0.00     0.029 A 
ATOM     45  N   UNL     1       8.999  -1.109   7.425  1.00  0.00    -0.354 N 
ATOM     46  C   UNL     1       9.428   3.190   7.449  1.00  0.00     0.074 A 
ATOM     47  C   UNL     1       8.138   3.843   7.376  1.00  0.00     0.031 C 
ATOM     48  C   UNL     1       7.893  -3.050   7.317  1.00  0.00     0.029 A 
ATOM     49  C   UNL     1       9.228  -2.463   7.401  1.00  0.00     0.049 A 
ATOM     50  H   UNL     1       9.721  -0.442   7.486  1.00  0.00     0.167 HD
ATOM     51  C   UNL     1      10.613   3.841   7.528  1.00  0.00     0.037 A 
ATOM     52  C   UNL     1      10.383  -3.153   7.440  1.00  0.00     0.037 A 
ATOM     53  C   UNL     1      11.892   3.190   7.632  1.00  0.00     0.049 A 
ATOM     54  C   UNL     1      11.684  -2.404   7.530  1.00  0.00     0.074 A 
ATOM     55  C   UNL     1      13.144   3.764   7.767  1.00  0.00     0.029 A 
ATOM     56  N   UNL     1      12.081   1.816   7.617  1.00  0.00    -0.354 N 
ATOM     57  N   UNL     1      11.893  -1.112   7.576  1.00  0.00    -0.248 NA
ATOM     58  C   UNL     1      12.911  -3.213   7.577  1.00  0.00     0.031 C 
ATOM     59  C   UNL     1      14.095   2.738   7.798  1.00  0.00     0.029 A 
ATOM     60  C   UNL     1      13.431   1.524   7.727  1.00  0.00     0.049 A 
ATOM     61  H   UNL     1      11.362   1.147   7.539  1.00  0.00     0.167 HD
ATOM     62  C   UNL     1      13.268  -0.951   7.684  1.00  0.00     0.074 A 
ATOM     63  C   UNL     1      13.843  -2.280   7.708  1.00  0.00     0.031 C 
ATOM     64  C   UNL     1      13.987   0.195   7.758  1.00  0.00     0.037 A 
BRANCH  51  65
ATOM     65  C   UNL     1      10.585   5.342   7.512  1.00  0.00     0.064 A 
ATOM     66  C   UNL     1      10.119   6.078   8.611  1.00  0.00     0.173 A 
ATOM     67  C   UNL     1      11.076   6.052   6.406  1.00  0.00     0.173 A 
ATOM     68  F   UNL     1       9.628   5.446   9.688  1.00  0.00    -0.203 F 
ATOM     69  C   UNL     1      10.128   7.470   8.597  1.00  0.00     0.198 A 
ATOM     70  C   UNL     1      11.108   7.444   6.406  1.00  0.00     0.198 A 
ATOM     71  F   UNL     1      11.537   5.396   5.331  1.00  0.00    -0.203 F 
ATOM     72  F   UNL     1       9.642   8.153   9.643  1.00  0.00    -0.200 F 
ATOM     73  C   UNL     1      10.629   8.152   7.498  1.00  0.00     0.200 A 
ATOM     74  F   UNL     1      11.603   8.101   5.348  1.00  0.00    -0.200 F 
ATOM     75  F   UNL     1      10.646   9.492   7.489  1.00  0.00    -0.200 F 
ENDBRANCH  51  65
BRANCH  52  76
ATOM     76  C   UNL     1      10.357  -4.637   7.435  1.00  0.00     0.064 A 
ATOM     77  C   UNL     1      10.675  -5.360   8.593  1.00  0.00     0.173 A 
ATOM     78  C   UNL     1      10.004  -5.361   6.288  1.00  0.00     0.173 A 
ATOM     79  F   UNL     1      11.038  -4.710   9.709  1.00  0.00    -0.203 F 
ATOM     80  C   UNL     1      10.653  -6.753   8.600  1.00  0.00     0.198 A 
ATOM     81  C   UNL     1       9.959  -6.753   6.303  1.00  0.00     0.198 A 
ATOM     82  F   UNL     1       9.687  -4.714   5.157  1.00  0.00    -0.203 F 
ATOM     83  F   UNL     1      10.995  -7.420   9.710  1.00  0.00    -0.200 F 
ATOM     84  C   UNL     1      10.289  -7.448   7.457  1.00  0.00     0.200 A 
ATOM     85  F   UNL     1       9.595  -7.422   5.200  1.00  0.00    -0.200 F 
ATOM     86  F   UNL     1      10.261  -8.788   7.466  1.00  0.00    -0.200 F 
ENDBRANCH  52  76
BRANCH  64  87
ATOM     87  C   UNL     1      15.474   0.066   7.906  1.00  0.00     0.064 A 
ATOM     88  C   UNL     1      16.287  -0.330   6.835  1.00  0.00     0.173 A 
ATOM     89  C   UNL     1      16.096   0.389   9.122  1.00  0.00     0.173 A 
ATOM     90  F   UNL     1      15.738  -0.663   5.657  1.00  0.00    -0.203 F 
ATOM     91  C   UNL     1      17.669  -0.419   6.982  1.00  0.00     0.198 A 
ATOM     92  C   UNL     1      17.479   0.325   9.257  1.00  0.00     0.198 A 
ATOM     93  F   UNL     1      15.361   0.780  10.174  1.00  0.00    -0.203 F 
ATOM     94  F   UNL     1      18.424  -0.840   5.958  1.00  0.00    -0.200 F 
ATOM     95  C   UNL     1      18.264  -0.085   8.190  1.00  0.00     0.200 A 
ATOM     96  F   UNL     1      18.053   0.660  10.421  1.00  0.00    -0.200 F 
ATOM     97  F   UNL     1      19.595  -0.164   8.327  1.00  0.00    -0.200 F 
ENDBRANCH  64  87
ENDBRANCH  38  39
ENDBRANCH  30  33
ENDBRANCH  28  29
ENDBRANCH  27  28
ENDBRANCH  26  27
ENDBRANCH   1  26
TORSDOF 17
