REMARK SMILES COc1cc(/N=N/c2ccccc2)ccc1NC(=O)[C@H]1CC=CC[C@@H]1C(=O)NCCCCCCNC(=O)c1ccc(-c2c3nc(c(-c4c(F)c(F)c(F)c(F)c4F)c4ccc([nH]4)c(-c4c(F)c(F)c(F)c(F)c4F)c4nc(c(-c5c(F)c(F)c(F)c(F)c5F)c5ccc2[nH]5)C=C4)C=C3)cc1
REMARK SMILES IDX 30 1 29 2 28 3 26 4 27 5 25 7 20 8 21 9 22 10 24 11 23 12
REMARK SMILES IDX 18 13 17 14 19 16 16 17 3 18 4 19 5 20 15 21 14 22 2 23 1 24
REMARK SMILES IDX 6 25 7 26 8 27 9 28 13 29 10 30 12 31 11 32 31 33 32 34
REMARK SMILES IDX 33 35 34 36 35 37 36 38 37 40 38 41 39 42 100 43 40 44 99 45
REMARK SMILES IDX 41 46 42 47 43 48 93 49 44 50 98 51 92 52 94 53 45 54 97 55
REMARK SMILES IDX 91 56 90 57 46 59 78 60 58 61 77 62 59 63 62 64 76 65 95 66
REMARK SMILES IDX 60 67 61 68 75 70 96 71 63 72 47 73 48 74 56 75 49 76 50 77
REMARK SMILES IDX 54 78 57 79 51 80 52 81 55 82 53 83 79 84 80 85 88 86 81 87
REMARK SMILES IDX 82 88 86 89 89 90 83 91 84 92 87 93 85 94 64 95 65 96 73 97
REMARK SMILES IDX 66 98 67 99 71 100 74 101 68 102 69 103 72 104 70 105
REMARK H PARENT 28 6 17 15 35 39 94 58 62 69
REMARK Flexibility Score: inf
ROOT
ATOM      1  C   UNL     1       9.724   0.801   5.079  1.00  0.00     0.021 C 
ENDROOT
BRANCH   1   2
ATOM      2  C   UNL     1       8.223   1.040   5.151  1.00  0.00     0.116 C 
BRANCH   2   3
ATOM      3  N   UNL     1       7.898   2.401   4.793  1.00  0.00    -0.356 N 
ATOM      4  C   UNL     1       6.967   2.856   3.918  1.00  0.00     0.224 C 
ATOM      5  O   UNL     1       7.061   4.033   3.568  1.00  0.00    -0.275 OA
ATOM      6  H   UNL     1       8.426   3.096   5.247  1.00  0.00     0.163 HD
BRANCH   4   7
ATOM      7  C   UNL     1       5.926   1.896   3.353  1.00  0.00     0.095 C 
ATOM      8  C   UNL     1       4.948   2.651   2.397  1.00  0.00     0.095 C 
ATOM      9  C   UNL     1       4.103   3.595   3.284  1.00  0.00     0.041 C 
ATOM     10  C   UNL     1       3.413   2.915   4.417  1.00  0.00    -0.030 C 
ATOM     11  C   UNL     1       5.120   1.106   4.423  1.00  0.00     0.041 C 
ATOM     12  C   UNL     1       3.868   1.766   4.920  1.00  0.00    -0.030 C 
BRANCH   8  13
ATOM     13  C   UNL     1       4.281   1.560   1.531  1.00  0.00     0.228 C 
ATOM     14  N   UNL     1       3.048   1.604   0.977  1.00  0.00    -0.323 N 
ATOM     15  H   UNL     1       2.750   0.731   0.633  1.00  0.00     0.170 HD
ATOM     16  O   UNL     1       4.893   0.505   1.294  1.00  0.00    -0.274 OA
BRANCH  14  17
ATOM     17  C   UNL     1       2.104   2.615   0.786  1.00  0.00     0.083 A 
ATOM     18  C   UNL     1       0.723   2.345   0.780  1.00  0.00     0.144 A 
ATOM     19  C   UNL     1      -0.179   3.420   0.911  1.00  0.00     0.079 A 
ATOM     20  C   UNL     1       0.268   4.744   0.977  1.00  0.00     0.090 A 
ATOM     21  C   UNL     1       2.530   3.932   0.634  1.00  0.00     0.032 A 
ATOM     22  C   UNL     1       1.628   4.985   0.765  1.00  0.00     0.033 A 
BRANCH  18  23
ATOM     23  O   UNL     1       0.104   1.121   0.804  1.00  0.00    -0.494 OA
ATOM     24  C   UNL     1       0.673   0.044   0.066  1.00  0.00     0.278 C 
ENDBRANCH  18  23
BRANCH  20  25
ATOM     25  N   UNL     1      -0.638   5.806   1.207  1.00  0.00    -0.150 NA
ATOM     26  N   UNL     1      -0.143   6.619   2.024  1.00  0.00    -0.151 NA
BRANCH  26  27
ATOM     27  C   UNL     1      -0.892   7.803   2.130  1.00  0.00     0.086 A 
ATOM     28  C   UNL     1      -0.268   9.024   1.839  1.00  0.00     0.030 A 
ATOM     29  C   UNL     1      -2.208   7.815   2.604  1.00  0.00     0.030 A 
ATOM     30  C   UNL     1      -0.948  10.233   2.002  1.00  0.00     0.002 A 
ATOM     31  C   UNL     1      -2.891   9.023   2.769  1.00  0.00     0.002 A 
ATOM     32  C   UNL     1      -2.260  10.231   2.470  1.00  0.00     0.000 A 
ENDBRANCH  26  27
ENDBRANCH  20  25
ENDBRANCH  14  17
ENDBRANCH   8  13
ENDBRANCH   4   7
ENDBRANCH   2   3
ENDBRANCH   1   2
BRANCH   1  33
ATOM     33  C   UNL     1      10.552   1.722   5.983  1.00  0.00     0.002 C 
BRANCH  33  34
ATOM     34  C   UNL     1      10.101   1.778   7.446  1.00  0.00     0.002 C 
BRANCH  34  35
ATOM     35  C   UNL     1       9.986   0.420   8.139  1.00  0.00     0.021 C 
BRANCH  35  36
ATOM     36  C   UNL     1      11.225  -0.454   8.022  1.00  0.00     0.116 C 
BRANCH  36  37
ATOM     37  N   UNL     1      12.397   0.172   8.606  1.00  0.00    -0.352 N 
ATOM     38  C   UNL     1      13.300  -0.352   9.497  1.00  0.00     0.251 C 
ATOM     39  H   UNL     1      12.567   1.101   8.326  1.00  0.00     0.163 HD
ATOM     40  O   UNL     1      14.137   0.360  10.030  1.00  0.00    -0.269 OA
BRANCH  38  41
ATOM     41  C   UNL     1      13.230  -1.792   9.826  1.00  0.00     0.039 A 
ATOM     42  C   UNL     1      13.294  -2.176  11.166  1.00  0.00     0.014 A 
ATOM     43  C   UNL     1      13.084  -2.751   8.820  1.00  0.00     0.014 A 
ATOM     44  C   UNL     1      13.157  -3.523  11.502  1.00  0.00     0.010 A 
ATOM     45  C   UNL     1      12.866  -4.082   9.161  1.00  0.00     0.010 A 
ATOM     46  C   UNL     1      12.908  -4.482  10.505  1.00  0.00    -0.014 A 
BRANCH  46  47
ATOM     47  C   UNL     1      12.697  -5.909  10.854  1.00  0.00     0.031 A 
ATOM     48  C   UNL     1      13.662  -6.954  10.364  1.00  0.00     0.074 A 
ATOM     49  C   UNL     1      11.614  -6.268  11.570  1.00  0.00     0.049 A 
ATOM     50  N   UNL     1      13.617  -8.254  10.507  1.00  0.00    -0.248 NA
ATOM     51  C   UNL     1      14.819  -6.477   9.588  1.00  0.00     0.031 C 
ATOM     52  C   UNL     1      10.585  -5.352  12.064  1.00  0.00     0.029 A 
ATOM     53  N   UNL     1      11.192  -7.502  11.998  1.00  0.00    -0.354 N 
ATOM     54  C   UNL     1      14.732  -8.746   9.841  1.00  0.00     0.074 A 
ATOM     55  C   UNL     1      15.400  -7.614   9.238  1.00  0.00     0.031 C 
ATOM     56  C   UNL     1       9.663  -6.051  12.745  1.00  0.00     0.029 A 
ATOM     57  C   UNL     1      10.010  -7.468  12.699  1.00  0.00     0.049 A 
ATOM     58  H   UNL     1      11.689  -8.333  11.821  1.00  0.00     0.167 HD
ATOM     59  C   UNL     1      15.174 -10.024   9.765  1.00  0.00     0.037 A 
ATOM     60  C   UNL     1       9.283  -8.469  13.231  1.00  0.00     0.037 A 
ATOM     61  C   UNL     1      14.514 -11.146  10.380  1.00  0.00     0.049 A 
ATOM     62  C   UNL     1       9.786  -9.884  13.104  1.00  0.00     0.074 A 
ATOM     63  C   UNL     1      14.902 -12.474  10.390  1.00  0.00     0.029 A 
ATOM     64  N   UNL     1      13.327 -11.069  11.093  1.00  0.00    -0.354 N 
ATOM     65  N   UNL     1      10.875 -10.329  12.526  1.00  0.00    -0.248 NA
ATOM     66  C   UNL     1       8.960 -10.936  13.714  1.00  0.00     0.031 C 
ATOM     67  C   UNL     1      13.924 -13.209  11.067  1.00  0.00     0.029 A 
ATOM     68  C   UNL     1      12.959 -12.331  11.531  1.00  0.00     0.049 A 
ATOM     69  H   UNL     1      12.821 -10.242  11.263  1.00  0.00     0.167 HD
ATOM     70  C   UNL     1      10.883 -11.702  12.731  1.00  0.00     0.074 A 
ATOM     71  C   UNL     1       9.700 -12.015  13.504  1.00  0.00     0.031 C 
ATOM     72  C   UNL     1      11.786 -12.623  12.315  1.00  0.00     0.037 A 
BRANCH  59  73
ATOM     73  C   UNL     1      16.440 -10.281   9.000  1.00  0.00     0.064 A 
ATOM     74  C   UNL     1      17.687  -9.853   9.481  1.00  0.00     0.173 A 
ATOM     75  C   UNL     1      16.416 -11.017   7.805  1.00  0.00     0.173 A 
ATOM     76  F   UNL     1      17.764  -9.136  10.613  1.00  0.00    -0.203 F 
ATOM     77  C   UNL     1      18.860 -10.135   8.786  1.00  0.00     0.198 A 
ATOM     78  C   UNL     1      17.594 -11.324   7.129  1.00  0.00     0.198 A 
ATOM     79  F   UNL     1      15.252 -11.454   7.303  1.00  0.00    -0.203 F 
ATOM     80  F   UNL     1      20.034  -9.681   9.245  1.00  0.00    -0.200 F 
ATOM     81  C   UNL     1      18.814 -10.879   7.617  1.00  0.00     0.200 A 
ATOM     82  F   UNL     1      17.549 -12.056   6.008  1.00  0.00    -0.200 F 
ATOM     83  F   UNL     1      19.945 -11.165   6.957  1.00  0.00    -0.200 F 
ENDBRANCH  59  73
BRANCH  60  84
ATOM     84  C   UNL     1       8.004  -8.179  13.932  1.00  0.00     0.064 A 
ATOM     85  C   UNL     1       7.863  -8.414  15.308  1.00  0.00     0.173 A 
ATOM     86  C   UNL     1       6.883  -7.700  13.237  1.00  0.00     0.173 A 
ATOM     87  F   UNL     1       8.898  -8.889  16.015  1.00  0.00    -0.203 F 
ATOM     88  C   UNL     1       6.642  -8.219  15.951  1.00  0.00     0.198 A 
ATOM     89  C   UNL     1       5.673  -7.471  13.889  1.00  0.00     0.198 A 
ATOM     90  F   UNL     1       6.964  -7.452  11.921  1.00  0.00    -0.203 F 
ATOM     91  F   UNL     1       6.518  -8.517  17.252  1.00  0.00    -0.200 F 
ATOM     92  C   UNL     1       5.549  -7.745  15.242  1.00  0.00     0.200 A 
ATOM     93  F   UNL     1       4.625  -6.997  13.202  1.00  0.00    -0.200 F 
ATOM     94  F   UNL     1       4.374  -7.563  15.860  1.00  0.00    -0.200 F 
ENDBRANCH  60  84
BRANCH  72  95
ATOM     95  C   UNL     1      11.559 -14.049  12.729  1.00  0.00     0.064 A 
ATOM     96  C   UNL     1      10.513 -14.816  12.196  1.00  0.00     0.173 A 
ATOM     97  C   UNL     1      12.427 -14.667  13.643  1.00  0.00     0.173 A 
ATOM     98  F   UNL     1       9.648 -14.269  11.329  1.00  0.00    -0.203 F 
ATOM     99  C   UNL     1      10.326 -16.140  12.587  1.00  0.00     0.198 A 
ATOM    100  C   UNL     1      12.258 -16.000  14.004  1.00  0.00     0.198 A 
ATOM    101  F   UNL     1      13.449 -13.980  14.177  1.00  0.00    -0.203 F 
ATOM    102  F   UNL     1       9.287 -16.837  12.106  1.00  0.00    -0.200 F 
ATOM    103  C   UNL     1      11.202 -16.732  13.483  1.00  0.00     0.200 A 
ATOM    104  F   UNL     1      13.116 -16.576  14.857  1.00  0.00    -0.200 F 
ATOM    105  F   UNL     1      11.025 -18.009  13.851  1.00  0.00    -0.200 F 
ENDBRANCH  72  95
ENDBRANCH  46  47
ENDBRANCH  38  41
ENDBRANCH  36  37
ENDBRANCH  35  36
ENDBRANCH  34  35
ENDBRANCH  33  34
ENDBRANCH   1  33
TORSDOF 18
