REMARK SMILES O=C(NCCCCCCNC(=O)c1cc(-c2ccc(C(F)(F)F)cc2)cc([N+](=O)[O-])c1)c1ccc(-c2c3nc(c(-c4c(F)c(F)c(F)c(F)c4F)c4ccc([nH]4)c(-c4c(F)c(F)c(F)c(F)c4F)c4nc(c(-c5c(F)c(F)c(F)c(F)c5F)c5ccc2[nH]5)C=C4)C=C3)cc1
REMARK SMILES IDX 6 1 5 2 4 3 3 4 1 5 2 6 32 8 33 9 94 10 34 11 93 12 35 13
REMARK SMILES IDX 36 14 37 15 87 16 38 17 92 18 86 19 88 20 39 21 91 22 85 23
REMARK SMILES IDX 84 24 40 26 72 27 52 28 71 29 53 30 56 31 70 32 89 33 54 34
REMARK SMILES IDX 55 35 69 37 90 38 57 39 41 40 42 41 50 42 43 43 44 44 48 45
REMARK SMILES IDX 51 46 45 47 46 48 49 49 47 50 73 51 74 52 82 53 75 54 76 55
REMARK SMILES IDX 80 56 83 57 77 58 78 59 81 60 79 61 58 62 59 63 67 64 60 65
REMARK SMILES IDX 61 66 65 67 68 68 62 69 63 70 66 71 64 72 7 73 8 74 9 75
REMARK SMILES IDX 10 76 11 77 12 79 13 80 14 81 31 82 15 83 27 84 26 85 16 86
REMARK SMILES IDX 17 87 25 88 18 89 24 90 19 91 20 92 21 93 22 94 23 95 28 96
REMARK SMILES IDX 29 97 30 98
REMARK H PARENT 3 7 88 25 56 36 10 78
REMARK Flexibility Score: inf
ROOT
ATOM      1  C   UNL     1       4.161  -3.627  -1.224  1.00  0.00     0.002 C 
ENDROOT
BRANCH   1   2
ATOM      2  C   UNL     1       4.618  -2.616  -0.173  1.00  0.00     0.021 C 
BRANCH   2   3
ATOM      3  C   UNL     1       4.408  -1.152  -0.538  1.00  0.00     0.116 C 
BRANCH   3   4
ATOM      4  N   UNL     1       3.006  -0.793  -0.682  1.00  0.00    -0.352 N 
ATOM      5  O   UNL     1       1.093   0.328  -0.251  1.00  0.00    -0.269 OA
ATOM      6  C   UNL     1       2.311   0.244  -0.109  1.00  0.00     0.251 C 
ATOM      7  H   UNL     1       2.481  -1.376  -1.276  1.00  0.00     0.163 HD
BRANCH   6   8
ATOM      8  C   UNL     1       3.024   1.245   0.716  1.00  0.00     0.039 A 
ATOM      9  C   UNL     1       4.232   1.798   0.288  1.00  0.00     0.014 A 
ATOM     10  C   UNL     1       2.479   1.621   1.948  1.00  0.00     0.014 A 
ATOM     11  C   UNL     1       4.973   2.591   1.157  1.00  0.00     0.010 A 
ATOM     12  C   UNL     1       3.186   2.490   2.785  1.00  0.00     0.010 A 
ATOM     13  C   UNL     1       4.461   2.945   2.416  1.00  0.00    -0.014 A 
BRANCH  13  14
ATOM     14  C   UNL     1       5.275   3.803   3.317  1.00  0.00     0.031 A 
ATOM     15  C   UNL     1       5.794   3.279   4.629  1.00  0.00     0.074 A 
ATOM     16  C   UNL     1       5.585   5.053   2.923  1.00  0.00     0.049 A 
ATOM     17  N   UNL     1       6.560   3.873   5.511  1.00  0.00    -0.248 NA
ATOM     18  C   UNL     1       5.395   1.915   5.008  1.00  0.00     0.031 C 
ATOM     19  C   UNL     1       5.129   5.679   1.681  1.00  0.00     0.029 A 
ATOM     20  N   UNL     1       6.372   6.011   3.509  1.00  0.00    -0.354 N 
ATOM     21  C   UNL     1       6.713   2.970   6.555  1.00  0.00     0.074 A 
ATOM     22  C   UNL     1       5.942   1.794   6.210  1.00  0.00     0.031 C 
ATOM     23  C   UNL     1       5.687   6.893   1.570  1.00  0.00     0.029 A 
ATOM     24  C   UNL     1       6.497   7.152   2.756  1.00  0.00     0.049 A 
ATOM     25  H   UNL     1       6.806   5.891   4.384  1.00  0.00     0.167 HD
ATOM     26  C   UNL     1       7.438   3.106   7.692  1.00  0.00     0.037 A 
ATOM     27  C   UNL     1       7.184   8.284   2.994  1.00  0.00     0.037 A 
ATOM     28  C   UNL     1       8.230   4.264   8.019  1.00  0.00     0.049 A 
ATOM     29  C   UNL     1       7.984   8.403   4.259  1.00  0.00     0.074 A 
ATOM     30  C   UNL     1       9.034   4.477   9.126  1.00  0.00     0.029 A 
ATOM     31  N   UNL     1       8.317   5.408   7.238  1.00  0.00    -0.354 N 
ATOM     32  N   UNL     1       8.153   7.525   5.217  1.00  0.00    -0.248 NA
ATOM     33  C   UNL     1       8.691   9.673   4.474  1.00  0.00     0.031 C 
ATOM     34  C   UNL     1       9.575   5.764   9.035  1.00  0.00     0.029 A 
ATOM     35  C   UNL     1       9.147   6.336   7.848  1.00  0.00     0.049 A 
ATOM     36  H   UNL     1       7.858   5.540   6.378  1.00  0.00     0.167 HD
ATOM     37  C   UNL     1       9.003   8.124   6.136  1.00  0.00     0.074 A 
ATOM     38  C   UNL     1       9.329   9.434   5.612  1.00  0.00     0.031 C 
ATOM     39  C   UNL     1       9.471   7.631   7.309  1.00  0.00     0.037 A 
BRANCH  26  40
ATOM     40  C   UNL     1       7.398   1.978   8.684  1.00  0.00     0.064 A 
ATOM     41  C   UNL     1       8.048   0.759   8.444  1.00  0.00     0.173 A 
ATOM     42  C   UNL     1       6.739   2.139   9.913  1.00  0.00     0.173 A 
ATOM     43  F   UNL     1       8.683   0.550   7.280  1.00  0.00    -0.203 F 
ATOM     44  C   UNL     1       8.018  -0.267   9.386  1.00  0.00     0.198 A 
ATOM     45  C   UNL     1       6.734   1.122  10.864  1.00  0.00     0.198 A 
ATOM     46  F   UNL     1       6.108   3.288  10.197  1.00  0.00    -0.203 F 
ATOM     47  F   UNL     1       8.610  -1.439   9.117  1.00  0.00    -0.200 F 
ATOM     48  C   UNL     1       7.368  -0.082  10.597  1.00  0.00     0.200 A 
ATOM     49  F   UNL     1       6.116   1.306  12.038  1.00  0.00    -0.200 F 
ATOM     50  F   UNL     1       7.347  -1.068  11.505  1.00  0.00    -0.200 F 
ENDBRANCH  26  40
BRANCH  27  51
ATOM     51  C   UNL     1       7.162   9.383   1.996  1.00  0.00     0.064 A 
ATOM     52  C   UNL     1       8.305   9.699   1.248  1.00  0.00     0.173 A 
ATOM     53  C   UNL     1       5.999  10.130   1.760  1.00  0.00     0.173 A 
ATOM     54  F   UNL     1       9.446   9.024   1.452  1.00  0.00    -0.203 F 
ATOM     55  C   UNL     1       8.289  10.731   0.313  1.00  0.00     0.198 A 
ATOM     56  C   UNL     1       5.976  11.143   0.805  1.00  0.00     0.198 A 
ATOM     57  F   UNL     1       4.878   9.862   2.446  1.00  0.00    -0.203 F 
ATOM     58  F   UNL     1       9.406  11.038  -0.360  1.00  0.00    -0.200 F 
ATOM     59  C   UNL     1       7.123  11.447   0.087  1.00  0.00     0.200 A 
ATOM     60  F   UNL     1       4.843  11.821   0.578  1.00  0.00    -0.200 F 
ATOM     61  F   UNL     1       7.106  12.434  -0.819  1.00  0.00    -0.200 F 
ENDBRANCH  27  51
BRANCH  39  62
ATOM     62  C   UNL     1      10.419   8.499   8.083  1.00  0.00     0.064 A 
ATOM     63  C   UNL     1       9.982   9.649   8.757  1.00  0.00     0.173 A 
ATOM     64  C   UNL     1      11.779   8.165   8.164  1.00  0.00     0.173 A 
ATOM     65  F   UNL     1       8.694  10.020   8.695  1.00  0.00    -0.203 F 
ATOM     66  C   UNL     1      10.880  10.450   9.458  1.00  0.00     0.198 A 
ATOM     67  C   UNL     1      12.668   8.952   8.890  1.00  0.00     0.198 A 
ATOM     68  F   UNL     1      12.245   7.072   7.541  1.00  0.00    -0.203 F 
ATOM     69  F   UNL     1      10.451  11.573  10.050  1.00  0.00    -0.200 F 
ATOM     70  C   UNL     1      12.219  10.098   9.529  1.00  0.00     0.200 A 
ATOM     71  F   UNL     1      13.960   8.606   8.965  1.00  0.00    -0.200 F 
ATOM     72  F   UNL     1      13.082  10.871  10.204  1.00  0.00    -0.200 F 
ENDBRANCH  39  62
ENDBRANCH  13  14
ENDBRANCH   6   8
ENDBRANCH   3   4
ENDBRANCH   2   3
ENDBRANCH   1   2
BRANCH   1  73
ATOM     73  C   UNL     1       4.725  -3.424  -2.632  1.00  0.00     0.002 C 
BRANCH  73  74
ATOM     74  C   UNL     1       6.249  -3.307  -2.737  1.00  0.00     0.021 C 
BRANCH  74  75
ATOM     75  C   UNL     1       7.042  -4.455  -2.118  1.00  0.00     0.116 C 
BRANCH  75  76
ATOM     76  N   UNL     1       6.756  -5.726  -2.755  1.00  0.00    -0.352 N 
ATOM     77  C   UNL     1       7.614  -6.663  -3.266  1.00  0.00     0.251 C 
ATOM     78  H   UNL     1       5.800  -5.950  -2.833  1.00  0.00     0.163 HD
ATOM     79  O   UNL     1       7.178  -7.607  -3.920  1.00  0.00    -0.269 OA
BRANCH  77  80
ATOM     80  C   UNL     1       9.071  -6.549  -3.043  1.00  0.00     0.047 A 
ATOM     81  C   UNL     1       9.931  -6.793  -4.122  1.00  0.00     0.023 A 
ATOM     82  C   UNL     1       9.590  -6.295  -1.772  1.00  0.00     0.099 A 
ATOM     83  C   UNL     1      11.325  -6.755  -3.956  1.00  0.00    -0.011 A 
ATOM     84  C   UNL     1      10.975  -6.211  -1.608  1.00  0.00     0.270 A 
ATOM     85  C   UNL     1      11.841  -6.434  -2.689  1.00  0.00     0.094 A 
BRANCH  83  86
ATOM     86  C   UNL     1      12.222  -7.114  -5.061  1.00  0.00    -0.018 A 
ATOM     87  C   UNL     1      12.236  -6.398  -6.266  1.00  0.00     0.009 A 
ATOM     88  C   UNL     1      13.074  -8.224  -4.937  1.00  0.00     0.009 A 
ATOM     89  C   UNL     1      13.075  -6.784  -7.318  1.00  0.00     0.014 A 
ATOM     90  C   UNL     1      13.909  -8.614  -5.986  1.00  0.00     0.014 A 
ATOM     91  C   UNL     1      13.917  -7.900  -7.190  1.00  0.00     0.056 A 
BRANCH  91  92
ATOM     92  C   UNL     1      14.802  -8.322  -8.338  1.00  0.00     0.416 C 
ATOM     93  F   UNL     1      14.090  -8.630  -9.457  1.00  0.00    -0.166 F 
ATOM     94  F   UNL     1      15.677  -7.346  -8.707  1.00  0.00    -0.166 F 
ATOM     95  F   UNL     1      15.561  -9.419  -8.065  1.00  0.00    -0.166 F 
ENDBRANCH  91  92
ENDBRANCH  83  86
BRANCH  84  96
ATOM     96  N   UNL     1      11.527  -5.894  -0.286  1.00  0.00     0.062 N 
ATOM     97  O   UNL     1      12.758  -5.916  -0.154  1.00  0.00    -0.258 OA
ATOM     98  O   UNL     1      10.725  -5.610   0.615  1.00  0.00    -0.258 OA
ENDBRANCH  84  96
ENDBRANCH  77  80
ENDBRANCH  75  76
ENDBRANCH  74  75
ENDBRANCH  73  74
ENDBRANCH   1  73
TORSDOF 16
