REMARK SMILES N#C/C(=C\c1ccc(Oc2ccccc2Cl)c([N+](=O)[O-])c1)C(=O)NCCCCCCNC(=O)c1ccc(-c2c3nc(c(-c4c(F)c(F)c(F)c(F)c4F)c4ccc([nH]4)c(-c4c(F)c(F)c(F)c(F)c4F)c4nc(c(-c5c(F)c(F)c(F)c(F)c5F)c5ccc2[nH]5)C=C4)C=C3)cc1
REMARK SMILES IDX 27 1 26 2 25 3 24 4 22 5 23 6 3 8 4 9 2 10 1 11 5 12 6 13
REMARK SMILES IDX 21 14 7 15 17 16 8 17 18 18 19 19 20 20 9 21 10 22 11 23
REMARK SMILES IDX 15 24 12 25 14 26 16 27 13 28 28 29 29 30 30 31 31 32 32 33
REMARK SMILES IDX 33 35 34 36 35 37 96 38 36 39 95 40 37 41 38 42 39 43 89 44
REMARK SMILES IDX 40 45 94 46 88 47 90 48 41 49 93 50 87 51 86 52 42 54 74 55
REMARK SMILES IDX 54 56 73 57 55 58 58 59 72 60 91 61 56 62 57 63 71 65 92 66
REMARK SMILES IDX 59 67 43 68 44 69 52 70 45 71 46 72 50 73 53 74 47 75 48 76
REMARK SMILES IDX 51 77 49 78 75 79 76 80 84 81 77 82 78 83 82 84 85 85 79 86
REMARK SMILES IDX 80 87 83 88 81 89 60 90 61 91 69 92 62 93 63 94 67 95 70 96
REMARK SMILES IDX 64 97 65 98 68 99 66 100
REMARK H PARENT 24 7 31 34 90 53 58 64
REMARK Flexibility Score: inf
ROOT
ATOM      1  C   UNL     1       8.642  -0.789   1.786  1.00  0.00     0.002 C 
ENDROOT
BRANCH   1   2
ATOM      2  C   UNL     1       7.592   0.047   1.043  1.00  0.00     0.021 C 
BRANCH   2   3
ATOM      3  C   UNL     1       6.847  -0.763  -0.021  1.00  0.00     0.116 C 
BRANCH   3   4
ATOM      4  N   UNL     1       5.748  -1.490   0.579  1.00  0.00    -0.351 N 
ATOM      5  C   UNL     1       4.412  -1.259   0.657  1.00  0.00     0.261 C 
ATOM      6  O   UNL     1       3.739  -2.087   1.272  1.00  0.00    -0.268 OA
ATOM      7  H   UNL     1       6.027  -2.325   1.021  1.00  0.00     0.163 HD
BRANCH   5   8
ATOM      8  C   UNL     1       3.746  -0.090   0.025  1.00  0.00     0.117 C 
ATOM      9  C   UNL     1       4.305   1.075  -0.390  1.00  0.00     0.033 C 
BRANCH   8  10
ATOM     10  C   UNL     1       2.226  -0.090   0.025  1.00  0.00     0.105 C 
ATOM     11  N   UNL     1       0.965  -0.090   0.025  1.00  0.00    -0.192 NA
ENDBRANCH   8  10
BRANCH   9  12
ATOM     12  C   UNL     1       3.571   2.212  -1.001  1.00  0.00    -0.017 A 
ATOM     13  C   UNL     1       3.931   2.688  -2.265  1.00  0.00     0.012 A 
ATOM     14  C   UNL     1       2.486   2.811  -0.357  1.00  0.00     0.098 A 
ATOM     15  C   UNL     1       3.217   3.741  -2.863  1.00  0.00     0.055 A 
ATOM     16  C   UNL     1       1.718   3.794  -1.005  1.00  0.00     0.312 A 
ATOM     17  C   UNL     1       2.098   4.322  -2.242  1.00  0.00     0.204 A 
BRANCH  16  18
ATOM     18  N   UNL     1       0.467   4.104  -0.346  1.00  0.00     0.066 N 
ATOM     19  O   UNL     1      -0.575   3.758  -0.918  1.00  0.00    -0.258 OA
ATOM     20  O   UNL     1       0.539   4.622   0.778  1.00  0.00    -0.258 OA
ENDBRANCH  16  18
BRANCH  17  21
ATOM     21  O   UNL     1       1.559   5.354  -2.983  1.00  0.00    -0.449 OA
BRANCH  21  22
ATOM     22  C   UNL     1       0.562   6.140  -2.464  1.00  0.00     0.146 A 
ATOM     23  C   UNL     1      -0.691   6.021  -3.075  1.00  0.00     0.049 A 
ATOM     24  C   UNL     1       0.741   7.034  -1.402  1.00  0.00     0.083 A 
ATOM     25  C   UNL     1      -1.790   6.695  -2.546  1.00  0.00     0.004 A 
ATOM     26  C   UNL     1      -0.368   7.688  -0.860  1.00  0.00     0.024 A 
ATOM     27  Cl  UNL     1       2.292   7.322  -0.702  1.00  0.00    -0.080 Cl
ATOM     28  C   UNL     1      -1.635   7.504  -1.421  1.00  0.00     0.002 A 
ENDBRANCH  21  22
ENDBRANCH  17  21
ENDBRANCH   9  12
ENDBRANCH   5   8
ENDBRANCH   3   4
ENDBRANCH   2   3
ENDBRANCH   1   2
BRANCH   1  29
ATOM     29  C   UNL     1       9.717  -1.403   0.880  1.00  0.00     0.002 C 
BRANCH  29  30
ATOM     30  C   UNL     1      10.443  -0.394  -0.012  1.00  0.00     0.021 C 
BRANCH  30  31
ATOM     31  C   UNL     1      11.244   0.635   0.773  1.00  0.00     0.116 C 
BRANCH  31  32
ATOM     32  N   UNL     1      12.324   0.004   1.518  1.00  0.00    -0.352 N 
ATOM     33  C   UNL     1      13.672   0.251   1.447  1.00  0.00     0.251 C 
ATOM     34  H   UNL     1      12.050  -0.693   2.158  1.00  0.00     0.163 HD
ATOM     35  O   UNL     1      14.482  -0.525   1.930  1.00  0.00    -0.269 OA
BRANCH  33  36
ATOM     36  C   UNL     1      14.124   1.478   0.768  1.00  0.00     0.039 A 
ATOM     37  C   UNL     1      15.153   1.406  -0.173  1.00  0.00     0.014 A 
ATOM     38  C   UNL     1      13.496   2.694   1.051  1.00  0.00     0.014 A 
ATOM     39  C   UNL     1      15.518   2.554  -0.877  1.00  0.00     0.010 A 
ATOM     40  C   UNL     1      13.803   3.813   0.293  1.00  0.00     0.010 A 
ATOM     41  C   UNL     1      14.823   3.756  -0.670  1.00  0.00    -0.014 A 
BRANCH  41  42
ATOM     42  C   UNL     1      15.148   4.992  -1.421  1.00  0.00     0.031 A 
ATOM     43  C   UNL     1      15.627   6.202  -0.672  1.00  0.00     0.074 A 
ATOM     44  C   UNL     1      14.899   5.061  -2.741  1.00  0.00     0.049 A 
ATOM     45  N   UNL     1      15.793   7.428  -1.093  1.00  0.00    -0.248 NA
ATOM     46  C   UNL     1      15.917   6.010   0.758  1.00  0.00     0.031 C 
ATOM     47  C   UNL     1      14.400   3.962  -3.567  1.00  0.00     0.029 A 
ATOM     48  N   UNL     1      15.005   6.115  -3.614  1.00  0.00    -0.354 N 
ATOM     49  C   UNL     1      16.175   8.158   0.024  1.00  0.00     0.074 A 
ATOM     50  C   UNL     1      16.161   7.251   1.150  1.00  0.00     0.031 C 
ATOM     51  C   UNL     1      14.245   4.397  -4.827  1.00  0.00     0.029 A 
ATOM     52  C   UNL     1      14.585   5.816  -4.886  1.00  0.00     0.049 A 
ATOM     53  H   UNL     1      15.348   7.000  -3.353  1.00  0.00     0.167 HD
ATOM     54  C   UNL     1      16.524   9.465   0.098  1.00  0.00     0.037 A 
ATOM     55  C   UNL     1      14.463   6.605  -5.971  1.00  0.00     0.037 A 
ATOM     56  C   UNL     1      16.551  10.351  -1.035  1.00  0.00     0.049 A 
ATOM     57  C   UNL     1      14.844   8.057  -5.867  1.00  0.00     0.074 A 
ATOM     58  C   UNL     1      16.949  11.675  -1.086  1.00  0.00     0.029 A 
ATOM     59  N   UNL     1      16.154  10.003  -2.319  1.00  0.00    -0.354 N 
ATOM     60  N   UNL     1      15.261   8.729  -4.822  1.00  0.00    -0.248 NA
ATOM     61  C   UNL     1      14.741   8.859  -7.093  1.00  0.00     0.031 C 
ATOM     62  C   UNL     1      16.733  12.145  -2.385  1.00  0.00     0.029 A 
ATOM     63  C   UNL     1      16.270  11.095  -3.163  1.00  0.00     0.049 A 
ATOM     64  H   UNL     1      15.837   9.111  -2.590  1.00  0.00     0.167 HD
ATOM     65  C   UNL     1      15.506  10.021  -5.269  1.00  0.00     0.074 A 
ATOM     66  C   UNL     1      15.189  10.038  -6.682  1.00  0.00     0.031 C 
ATOM     67  C   UNL     1      15.961  11.092  -4.572  1.00  0.00     0.037 A 
BRANCH  54  68
ATOM     68  C   UNL     1      16.878  10.009   1.453  1.00  0.00     0.064 A 
ATOM     69  C   UNL     1      18.017   9.579   2.153  1.00  0.00     0.173 A 
ATOM     70  C   UNL     1      16.062  10.973   2.066  1.00  0.00     0.173 A 
ATOM     71  F   UNL     1      18.827   8.651   1.620  1.00  0.00    -0.203 F 
ATOM     72  C   UNL     1      18.295  10.051   3.433  1.00  0.00     0.198 A 
ATOM     73  C   UNL     1      16.366  11.474   3.329  1.00  0.00     0.198 A 
ATOM     74  F   UNL     1      14.965  11.427   1.441  1.00  0.00    -0.203 F 
ATOM     75  F   UNL     1      19.344   9.566   4.111  1.00  0.00    -0.200 F 
ATOM     76  C   UNL     1      17.472  11.002   4.018  1.00  0.00     0.200 A 
ATOM     77  F   UNL     1      15.578  12.405   3.885  1.00  0.00    -0.200 F 
ATOM     78  F   UNL     1      17.739  11.454   5.251  1.00  0.00    -0.200 F 
ENDBRANCH  54  68
BRANCH  55  79
ATOM     79  C   UNL     1      13.974   6.022  -7.247  1.00  0.00     0.064 A 
ATOM     80  C   UNL     1      14.839   5.841  -8.334  1.00  0.00     0.173 A 
ATOM     81  C   UNL     1      12.645   5.599  -7.393  1.00  0.00     0.173 A 
ATOM     82  F   UNL     1      16.116   6.244  -8.247  1.00  0.00    -0.203 F 
ATOM     83  C   UNL     1      14.392   5.267  -9.522  1.00  0.00     0.198 A 
ATOM     84  C   UNL     1      12.206   4.999  -8.571  1.00  0.00     0.198 A 
ATOM     85  F   UNL     1      11.778   5.741  -6.379  1.00  0.00    -0.203 F 
ATOM     86  F   UNL     1      15.233   5.133 -10.556  1.00  0.00    -0.200 F 
ATOM     87  C   UNL     1      13.078   4.838  -9.637  1.00  0.00     0.200 A 
ATOM     88  F   UNL     1      10.941   4.568  -8.670  1.00  0.00    -0.200 F 
ATOM     89  F   UNL     1      12.653   4.270 -10.773  1.00  0.00    -0.200 F 
ENDBRANCH  55  79
BRANCH  67  90
ATOM     90  C   UNL     1      16.202  12.366  -5.331  1.00  0.00     0.064 A 
ATOM     91  C   UNL     1      15.148  13.158  -5.805  1.00  0.00     0.173 A 
ATOM     92  C   UNL     1      17.512  12.835  -5.517  1.00  0.00     0.173 A 
ATOM     93  F   UNL     1      13.878  12.748  -5.666  1.00  0.00    -0.203 F 
ATOM     94  C   UNL     1      15.397  14.367  -6.451  1.00  0.00     0.198 A 
ATOM     95  C   UNL     1      17.756  14.058  -6.133  1.00  0.00     0.198 A 
ATOM     96  F   UNL     1      18.556  12.116  -5.076  1.00  0.00    -0.203 F 
ATOM     97  F   UNL     1      14.377  15.091  -6.931  1.00  0.00    -0.200 F 
ATOM     98  C   UNL     1      16.699  14.821  -6.604  1.00  0.00     0.200 A 
ATOM     99  F   UNL     1      19.014  14.502  -6.263  1.00  0.00    -0.200 F 
ATOM    100  F   UNL     1      16.936  15.994  -7.208  1.00  0.00    -0.200 F 
ENDBRANCH  67  90
ENDBRANCH  41  42
ENDBRANCH  33  36
ENDBRANCH  31  32
ENDBRANCH  30  31
ENDBRANCH  29  30
ENDBRANCH   1  29
TORSDOF 18
