REMARK SMILES [NH3+][C@]1(C(=O)NCCCCCCNC(=O)c2ccc(-c3c4nc(c(-c5c(F)c(F)c(F)c(F)c5F)c5ccc([nH]5)c(-c5c(F)c(F)c(F)c(F)c5F)c5nc(c(-c6c(F)c(F)c(F)c(F)c6F)c6ccc3[nH]6)C=C5)C=C4)cc2)CCC[C@H]1CC[NH+]1CCCCC1
REMARK SMILES IDX 8 1 7 2 6 3 5 4 3 5 4 6 2 8 78 9 81 10 79 11 80 12 1 13
REMARK SMILES IDX 82 17 83 18 84 19 85 20 89 21 86 23 88 24 87 25 9 26 10 27
REMARK SMILES IDX 11 28 12 29 13 30 14 32 15 33 16 34 77 35 17 36 76 37 18 38
REMARK SMILES IDX 19 39 20 40 70 41 21 42 75 43 69 44 71 45 22 46 74 47 68 48
REMARK SMILES IDX 67 49 23 51 55 52 35 53 54 54 36 55 39 56 53 57 72 58 37 59
REMARK SMILES IDX 38 60 52 62 73 63 40 64 24 65 25 66 33 67 26 68 27 69 31 70
REMARK SMILES IDX 34 71 28 72 29 73 32 74 30 75 56 76 57 77 65 78 58 79 59 80
REMARK SMILES IDX 63 81 66 82 60 83 61 84 64 85 62 86 41 87 42 88 50 89 43 90
REMARK SMILES IDX 44 91 48 92 51 93 45 94 46 95 49 96 47 97
REMARK H PARENT 5 7 1 14 1 15 1 16 84 22 12 31 71 50 39 61
REMARK Flexibility Score: inf
ROOT
ATOM      1  C   UNL     1       1.139   3.448  -2.520  1.00  0.00     0.002 C 
ENDROOT
BRANCH   1   2
ATOM      2  C   UNL     1      -0.063   2.580  -2.136  1.00  0.00     0.021 C 
BRANCH   2   3
ATOM      3  C   UNL     1       0.171   1.071  -1.996  1.00  0.00     0.116 C 
BRANCH   3   4
ATOM      4  N   UNL     1       1.333   0.720  -1.201  1.00  0.00    -0.351 N 
ATOM      5  C   UNL     1       1.691  -0.443  -0.582  1.00  0.00     0.281 C 
ATOM      6  O   UNL     1       2.836  -0.457  -0.110  1.00  0.00    -0.268 OA
ATOM      7  H   UNL     1       1.981   1.453  -1.087  1.00  0.00     0.163 HD
BRANCH   5   8
ATOM      8  C   UNL     1       0.744  -1.665  -0.387  1.00  0.00     0.177 C 
ATOM      9  C   UNL     1       1.556  -2.960  -0.643  1.00  0.00     0.079 C 
ATOM     10  C   UNL     1       0.182  -1.880   1.065  1.00  0.00     0.066 C 
ATOM     11  C   UNL     1       0.778  -4.052   0.067  1.00  0.00     0.008 C 
ATOM     12  C   UNL     1       0.406  -3.388   1.379  1.00  0.00     0.011 C 
BRANCH   8  13
ATOM     13  N   UNL     1      -0.390  -1.676  -1.350  1.00  0.00    -0.345 N 
ATOM     14  H   UNL     1      -0.975  -2.494  -1.177  1.00  0.00     0.345 HD
ATOM     15  H   UNL     1      -0.027  -1.713  -2.302  1.00  0.00     0.345 HD
ATOM     16  H   UNL     1      -0.946  -0.829  -1.230  1.00  0.00     0.345 HD
ENDBRANCH   8  13
BRANCH  10  17
ATOM     17  C   UNL     1       0.732  -1.053   2.254  1.00  0.00     0.072 C 
BRANCH  17  18
ATOM     18  C   UNL     1       0.575   0.480   2.267  1.00  0.00     0.262 C 
BRANCH  18  19
ATOM     19  N   UNL     1      -0.741   1.111   2.504  1.00  0.00    -0.335 N 
ATOM     20  C   UNL     1      -0.659   2.523   2.079  1.00  0.00     0.262 C 
ATOM     21  C   UNL     1      -1.871   0.421   1.886  1.00  0.00     0.262 C 
ATOM     22  H   UNL     1      -0.938   1.046   3.502  1.00  0.00     0.348 HD
ATOM     23  C   UNL     1      -1.967   3.295   2.241  1.00  0.00     0.062 C 
ATOM     24  C   UNL     1      -3.200   1.149   2.087  1.00  0.00     0.062 C 
ATOM     25  C   UNL     1      -3.120   2.572   1.561  1.00  0.00     0.012 C 
ENDBRANCH  18  19
ENDBRANCH  17  18
ENDBRANCH  10  17
ENDBRANCH   5   8
ENDBRANCH   3   4
ENDBRANCH   2   3
ENDBRANCH   1   2
BRANCH   1  26
ATOM     26  C   UNL     1       1.869   3.062  -3.806  1.00  0.00     0.002 C 
BRANCH  26  27
ATOM     27  C   UNL     1       1.021   3.057  -5.079  1.00  0.00     0.021 C 
BRANCH  27  28
ATOM     28  C   UNL     1       0.284   4.356  -5.398  1.00  0.00     0.116 C 
BRANCH  28  29
ATOM     29  N   UNL     1       1.174   5.486  -5.598  1.00  0.00    -0.352 N 
ATOM     30  C   UNL     1       1.164   6.458  -6.569  1.00  0.00     0.251 C 
ATOM     31  H   UNL     1       1.897   5.569  -4.936  1.00  0.00     0.163 HD
ATOM     32  O   UNL     1       2.084   7.269  -6.626  1.00  0.00    -0.269 OA
BRANCH  30  33
ATOM     33  C   UNL     1       0.072   6.527  -7.570  1.00  0.00     0.039 A 
ATOM     34  C   UNL     1       0.404   6.824  -8.897  1.00  0.00     0.014 A 
ATOM     35  C   UNL     1      -1.268   6.351  -7.216  1.00  0.00     0.014 A 
ATOM     36  C   UNL     1      -0.596   6.893  -9.871  1.00  0.00     0.010 A 
ATOM     37  C   UNL     1      -2.258   6.354  -8.200  1.00  0.00     0.010 A 
ATOM     38  C   UNL     1      -1.934   6.633  -9.536  1.00  0.00    -0.014 A 
BRANCH  38  39
ATOM     39  C   UNL     1      -2.998   6.663 -10.573  1.00  0.00     0.031 A 
ATOM     40  C   UNL     1      -4.077   7.710 -10.528  1.00  0.00     0.074 A 
ATOM     41  C   UNL     1      -3.019   5.721 -11.535  1.00  0.00     0.049 A 
ATOM     42  N   UNL     1      -5.100   7.882 -11.329  1.00  0.00    -0.248 NA
ATOM     43  C   UNL     1      -4.012   8.679  -9.424  1.00  0.00     0.031 C 
ATOM     44  C   UNL     1      -2.061   4.623 -11.662  1.00  0.00     0.029 A 
ATOM     45  N   UNL     1      -3.882   5.532 -12.587  1.00  0.00    -0.354 N 
ATOM     46  C   UNL     1      -5.803   8.965 -10.818  1.00  0.00     0.074 A 
ATOM     47  C   UNL     1      -5.121   9.380  -9.611  1.00  0.00     0.031 C 
ATOM     48  C   UNL     1      -2.372   3.891 -12.744  1.00  0.00     0.029 A 
ATOM     49  C   UNL     1      -3.566   4.449 -13.371  1.00  0.00     0.049 A 
ATOM     50  H   UNL     1      -4.654   6.117 -12.762  1.00  0.00     0.167 HD
ATOM     51  C   UNL     1      -6.904   9.574 -11.322  1.00  0.00     0.037 A 
ATOM     52  C   UNL     1      -4.170   3.964 -14.472  1.00  0.00     0.037 A 
ATOM     53  C   UNL     1      -7.566   9.179 -12.538  1.00  0.00     0.049 A 
ATOM     54  C   UNL     1      -5.382   4.667 -15.020  1.00  0.00     0.074 A 
ATOM     55  C   UNL     1      -8.654   9.768 -13.160  1.00  0.00     0.029 A 
ATOM     56  N   UNL     1      -7.201   8.092 -13.318  1.00  0.00    -0.354 N 
ATOM     57  N   UNL     1      -5.997   5.731 -14.567  1.00  0.00    -0.248 NA
ATOM     58  C   UNL     1      -5.978   4.105 -16.241  1.00  0.00     0.031 C 
ATOM     59  C   UNL     1      -8.970   9.015 -14.296  1.00  0.00     0.029 A 
ATOM     60  C   UNL     1      -8.051   7.984 -14.407  1.00  0.00     0.049 A 
ATOM     61  H   UNL     1      -6.448   7.487 -13.127  1.00  0.00     0.167 HD
ATOM     62  C   UNL     1      -7.028   5.987 -15.460  1.00  0.00     0.074 A 
ATOM     63  C   UNL     1      -6.951   4.971 -16.489  1.00  0.00     0.031 C 
ATOM     64  C   UNL     1      -7.954   6.976 -15.431  1.00  0.00     0.037 A 
BRANCH  51  65
ATOM     65  C   UNL     1      -7.460  10.741 -10.559  1.00  0.00     0.064 A 
ATOM     66  C   UNL     1      -6.787  11.971 -10.505  1.00  0.00     0.173 A 
ATOM     67  C   UNL     1      -8.697  10.641  -9.904  1.00  0.00     0.173 A 
ATOM     68  F   UNL     1      -5.596  12.116 -11.106  1.00  0.00    -0.203 F 
ATOM     69  C   UNL     1      -7.316  13.048  -9.798  1.00  0.00     0.198 A 
ATOM     70  C   UNL     1      -9.237  11.729  -9.223  1.00  0.00     0.198 A 
ATOM     71  F   UNL     1      -9.386   9.491  -9.931  1.00  0.00    -0.203 F 
ATOM     72  F   UNL     1      -6.631  14.197  -9.719  1.00  0.00    -0.200 F 
ATOM     73  C   UNL     1      -8.543  12.928  -9.163  1.00  0.00     0.200 A 
ATOM     74  F   UNL     1     -10.429  11.616  -8.621  1.00  0.00    -0.200 F 
ATOM     75  F   UNL     1      -9.054  13.967  -8.488  1.00  0.00    -0.200 F 
ENDBRANCH  51  65
BRANCH  52  76
ATOM     76  C   UNL     1      -3.609   2.770 -15.157  1.00  0.00     0.064 A 
ATOM     77  C   UNL     1      -2.976   2.889 -16.402  1.00  0.00     0.173 A 
ATOM     78  C   UNL     1      -3.691   1.494 -14.584  1.00  0.00     0.173 A 
ATOM     79  F   UNL     1      -2.892   4.087 -16.998  1.00  0.00    -0.203 F 
ATOM     80  C   UNL     1      -2.461   1.772 -17.056  1.00  0.00     0.198 A 
ATOM     81  C   UNL     1      -3.152   0.381 -15.227  1.00  0.00     0.198 A 
ATOM     82  F   UNL     1      -4.283   1.329 -13.392  1.00  0.00    -0.203 F 
ATOM     83  F   UNL     1      -1.897   1.907 -18.264  1.00  0.00    -0.200 F 
ATOM     84  C   UNL     1      -2.544   0.520 -16.466  1.00  0.00     0.200 A 
ATOM     85  F   UNL     1      -3.223  -0.825 -14.648  1.00  0.00    -0.200 F 
ATOM     86  F   UNL     1      -2.044  -0.553 -17.093  1.00  0.00    -0.200 F 
ENDBRANCH  52  76
BRANCH  64  87
ATOM     87  C   UNL     1      -8.934   7.035 -16.566  1.00  0.00     0.064 A 
ATOM     88  C   UNL     1      -9.975   6.104 -16.689  1.00  0.00     0.173 A 
ATOM     89  C   UNL     1      -8.853   8.062 -17.519  1.00  0.00     0.173 A 
ATOM     90  F   UNL     1     -10.086   5.095 -15.812  1.00  0.00    -0.203 F 
ATOM     91  C   UNL     1     -10.885   6.185 -17.740  1.00  0.00     0.198 A 
ATOM     92  C   UNL     1      -9.780   8.156 -18.552  1.00  0.00     0.198 A 
ATOM     93  F   UNL     1      -7.879   8.981 -17.441  1.00  0.00    -0.203 F 
ATOM     94  F   UNL     1     -11.846   5.258 -17.865  1.00  0.00    -0.200 F 
ATOM     95  C   UNL     1     -10.791   7.214 -18.666  1.00  0.00     0.200 A 
ATOM     96  F   UNL     1      -9.695   9.157 -19.439  1.00  0.00    -0.200 F 
ATOM     97  F   UNL     1     -11.672   7.293 -19.673  1.00  0.00    -0.200 F 
ENDBRANCH  64  87
ENDBRANCH  38  39
ENDBRANCH  30  33
ENDBRANCH  28  29
ENDBRANCH  27  28
ENDBRANCH  26  27
ENDBRANCH   1  26
TORSDOF 17
