REMARK SMILES C[C@@H]1[C@H](C(=O)NCCCCCCNC(=O)c2ccc(-c3c4nc(c(-c5c(F)c(F)c(F)c(F)c5F)c5ccc([nH]5)c(-c5c(F)c(F)c(F)c(F)c5F)c5nc(c(-c6c(F)c(F)c(F)c(F)c6F)c6ccc3[nH]6)C=C5)C=C4)cc2)CC[N@@H+]1[C@@H](C)c1cc(F)cc(F)c1
REMARK SMILES IDX 9 1 8 2 7 3 6 4 4 5 5 6 3 8 1 9 2 10 81 11 79 12 80 13 82 15
REMARK SMILES IDX 83 16 84 17 85 18 91 19 86 20 89 21 87 22 88 23 90 24 10 25
REMARK SMILES IDX 11 26 12 27 13 28 14 29 15 31 16 32 17 33 78 34 18 35 77 36
REMARK SMILES IDX 19 37 20 38 21 39 71 40 22 41 76 42 70 43 72 44 23 45 75 46
REMARK SMILES IDX 69 47 68 48 24 50 56 51 36 52 55 53 37 54 40 55 54 56 73 57
REMARK SMILES IDX 38 58 39 59 53 61 74 62 41 63 25 64 26 65 34 66 27 67 28 68
REMARK SMILES IDX 32 69 35 70 29 71 30 72 33 73 31 74 57 75 58 76 66 77 59 78
REMARK SMILES IDX 60 79 64 80 67 81 61 82 62 83 65 84 63 85 42 86 43 87 51 88
REMARK SMILES IDX 44 89 45 90 49 91 52 92 46 93 47 94 50 95 48 96
REMARK H PARENT 6 7 81 14 13 30 72 49 40 60
REMARK Flexibility Score: inf
ROOT
ATOM      1  C   UNL     1       3.560   2.882   3.092  1.00  0.00     0.002 C 
ENDROOT
BRANCH   1   2
ATOM      2  C   UNL     1       2.885   1.694   2.404  1.00  0.00     0.021 C 
BRANCH   2   3
ATOM      3  C   UNL     1       1.424   1.922   2.017  1.00  0.00     0.116 C 
BRANCH   3   4
ATOM      4  N   UNL     1       1.316   2.655   0.774  1.00  0.00    -0.356 N 
ATOM      5  C   UNL     1       0.715   2.334  -0.400  1.00  0.00     0.229 C 
ATOM      6  O   UNL     1       0.869   3.131  -1.333  1.00  0.00    -0.275 OA
ATOM      7  H   UNL     1       1.753   3.537   0.782  1.00  0.00     0.163 HD
BRANCH   5   8
ATOM      8  C   UNL     1      -0.125   1.079  -0.613  1.00  0.00     0.142 C 
ATOM      9  C   UNL     1       2.081  -0.338  -0.566  1.00  0.00     0.076 C 
ATOM     10  C   UNL     1       0.567  -0.294  -0.724  1.00  0.00     0.194 C 
ATOM     11  N   UNL     1      -0.251  -1.201   0.085  1.00  0.00    -0.326 N 
ATOM     12  C   UNL     1      -1.288   0.898   0.359  1.00  0.00     0.081 C 
ATOM     13  C   UNL     1      -1.536  -0.600   0.387  1.00  0.00     0.264 C 
ATOM     14  H   UNL     1      -0.354  -2.002  -0.537  1.00  0.00     0.348 HD
BRANCH  11  15
ATOM     15  C   UNL     1       0.285  -2.253   0.937  1.00  0.00     0.212 C 
ATOM     16  C   UNL     1       0.720  -1.745   2.320  1.00  0.00     0.081 C 
BRANCH  15  17
ATOM     17  C   UNL     1      -0.673  -3.447   1.011  1.00  0.00     0.015 A 
ATOM     18  C   UNL     1      -1.344  -3.827   2.187  1.00  0.00     0.049 A 
ATOM     19  C   UNL     1      -0.894  -4.216  -0.146  1.00  0.00     0.049 A 
ATOM     20  C   UNL     1      -2.174  -4.947   2.200  1.00  0.00     0.126 A 
ATOM     21  C   UNL     1      -1.734  -5.328  -0.110  1.00  0.00     0.126 A 
ATOM     22  F   UNL     1      -2.784  -5.294   3.341  1.00  0.00    -0.207 F 
ATOM     23  C   UNL     1      -2.375  -5.707   1.060  1.00  0.00     0.078 A 
ATOM     24  F   UNL     1      -1.921  -6.047  -1.224  1.00  0.00    -0.207 F 
ENDBRANCH  15  17
ENDBRANCH  11  15
ENDBRANCH   5   8
ENDBRANCH   3   4
ENDBRANCH   2   3
ENDBRANCH   1   2
BRANCH   1  25
ATOM     25  C   UNL     1       2.984   3.266   4.458  1.00  0.00     0.002 C 
BRANCH  25  26
ATOM     26  C   UNL     1       2.851   2.126   5.473  1.00  0.00     0.021 C 
BRANCH  26  27
ATOM     27  C   UNL     1       4.120   1.315   5.729  1.00  0.00     0.116 C 
BRANCH  27  28
ATOM     28  N   UNL     1       5.213   2.132   6.226  1.00  0.00    -0.352 N 
ATOM     29  C   UNL     1       5.969   1.995   7.358  1.00  0.00     0.251 C 
ATOM     30  H   UNL     1       5.445   2.905   5.662  1.00  0.00     0.163 HD
ATOM     31  O   UNL     1       6.749   2.895   7.682  1.00  0.00    -0.269 OA
BRANCH  29  32
ATOM     32  C   UNL     1       5.858   0.794   8.211  1.00  0.00     0.039 A 
ATOM     33  C   UNL     1       5.847   0.960   9.599  1.00  0.00     0.014 A 
ATOM     34  C   UNL     1       5.821  -0.493   7.664  1.00  0.00     0.014 A 
ATOM     35  C   UNL     1       5.758  -0.154  10.436  1.00  0.00     0.010 A 
ATOM     36  C   UNL     1       5.673  -1.602   8.498  1.00  0.00     0.010 A 
ATOM     37  C   UNL     1       5.652  -1.444   9.892  1.00  0.00    -0.014 A 
BRANCH  37  38
ATOM     38  C   UNL     1       5.540  -2.632  10.775  1.00  0.00     0.031 A 
ATOM     39  C   UNL     1       6.658  -3.635  10.841  1.00  0.00     0.074 A 
ATOM     40  C   UNL     1       4.418  -2.825  11.493  1.00  0.00     0.049 A 
ATOM     41  N   UNL     1       6.736  -4.744  11.535  1.00  0.00    -0.248 NA
ATOM     42  C   UNL     1       7.835  -3.370  10.000  1.00  0.00     0.031 C 
ATOM     43  C   UNL     1       3.247  -1.948  11.482  1.00  0.00     0.029 A 
ATOM     44  N   UNL     1       4.077  -3.825  12.370  1.00  0.00    -0.354 N 
ATOM     45  C   UNL     1       7.960  -5.311  11.206  1.00  0.00     0.074 A 
ATOM     46  C   UNL     1       8.571  -4.451  10.215  1.00  0.00     0.031 C 
ATOM     47  C   UNL     1       2.325  -2.436  12.328  1.00  0.00     0.029 A 
ATOM     48  C   UNL     1       2.829  -3.672  12.921  1.00  0.00     0.049 A 
ATOM     49  H   UNL     1       4.671  -4.581  12.583  1.00  0.00     0.167 HD
ATOM     50  C   UNL     1       8.532  -6.434  11.701  1.00  0.00     0.037 A 
ATOM     51  C   UNL     1       2.166  -4.441  13.805  1.00  0.00     0.037 A 
ATOM     52  C   UNL     1       7.938  -7.272  12.709  1.00  0.00     0.049 A 
ATOM     53  C   UNL     1       2.829  -5.678  14.347  1.00  0.00     0.074 A 
ATOM     54  C   UNL     1       8.467  -8.395  13.321  1.00  0.00     0.029 A 
ATOM     55  N   UNL     1       6.678  -7.076  13.254  1.00  0.00    -0.354 N 
ATOM     56  N   UNL     1       4.015  -6.167  14.078  1.00  0.00    -0.248 NA
ATOM     57  C   UNL     1       2.062  -6.466  15.323  1.00  0.00     0.031 C 
ATOM     58  C   UNL     1       7.512  -8.900  14.211  1.00  0.00     0.029 A 
ATOM     59  C   UNL     1       6.404  -8.068  14.182  1.00  0.00     0.049 A 
ATOM     60  H   UNL     1       6.068  -6.340  13.017  1.00  0.00     0.167 HD
ATOM     61  C   UNL     1       4.146  -7.303  14.865  1.00  0.00     0.074 A 
ATOM     62  C   UNL     1       2.925  -7.422  15.634  1.00  0.00     0.031 C 
ATOM     63  C   UNL     1       5.185  -8.170  14.941  1.00  0.00     0.037 A 
BRANCH  50  64
ATOM     64  C   UNL     1       9.880  -6.819  11.165  1.00  0.00     0.064 A 
ATOM     65  C   UNL     1      11.034  -6.091  11.489  1.00  0.00     0.173 A 
ATOM     66  C   UNL     1      10.024  -7.949  10.346  1.00  0.00     0.173 A 
ATOM     67  F   UNL     1      10.947  -4.995  12.259  1.00  0.00    -0.203 F 
ATOM     68  C   UNL     1      12.280  -6.465  10.993  1.00  0.00     0.198 A 
ATOM     69  C   UNL     1      11.276  -8.336   9.874  1.00  0.00     0.198 A 
ATOM     70  F   UNL     1       8.953  -8.683  10.010  1.00  0.00    -0.203 F 
ATOM     71  F   UNL     1      13.362  -5.728  11.280  1.00  0.00    -0.200 F 
ATOM     72  C   UNL     1      12.401  -7.590  10.191  1.00  0.00     0.200 A 
ATOM     73  F   UNL     1      11.393  -9.429   9.108  1.00  0.00    -0.200 F 
ATOM     74  F   UNL     1      13.602  -7.951   9.719  1.00  0.00    -0.200 F 
ENDBRANCH  50  64
BRANCH  51  75
ATOM     75  C   UNL     1       0.809  -4.045  14.259  1.00  0.00     0.064 A 
ATOM     76  C   UNL     1       0.597  -3.575  15.563  1.00  0.00     0.173 A 
ATOM     77  C   UNL     1      -0.300  -4.129  13.406  1.00  0.00     0.173 A 
ATOM     78  F   UNL     1       1.625  -3.497  16.421  1.00  0.00    -0.203 F 
ATOM     79  C   UNL     1      -0.676  -3.219  16.001  1.00  0.00     0.198 A 
ATOM     80  C   UNL     1      -1.569  -3.750  13.837  1.00  0.00     0.198 A 
ATOM     81  F   UNL     1      -0.147  -4.569  12.148  1.00  0.00    -0.203 F 
ATOM     82  F   UNL     1      -0.858  -2.811  17.264  1.00  0.00    -0.200 F 
ATOM     83  C   UNL     1      -1.757  -3.302  15.136  1.00  0.00     0.200 A 
ATOM     84  F   UNL     1      -2.609  -3.819  12.995  1.00  0.00    -0.200 F 
ATOM     85  F   UNL     1      -2.982  -2.956  15.557  1.00  0.00    -0.200 F 
ENDBRANCH  51  75
BRANCH  63  86
ATOM     86  C   UNL     1       5.054  -9.311  15.906  1.00  0.00     0.064 A 
ATOM     87  C   UNL     1       4.209 -10.399  15.643  1.00  0.00     0.173 A 
ATOM     88  C   UNL     1       5.809  -9.333  17.088  1.00  0.00     0.173 A 
ATOM     89  F   UNL     1       3.455 -10.415  14.534  1.00  0.00    -0.203 F 
ATOM     90  C   UNL     1       4.106 -11.457  16.542  1.00  0.00     0.198 A 
ATOM     91  C   UNL     1       5.723 -10.405  17.972  1.00  0.00     0.198 A 
ATOM     92  F   UNL     1       6.636  -8.318  17.382  1.00  0.00    -0.203 F 
ATOM     93  F   UNL     1       3.259 -12.465  16.293  1.00  0.00    -0.200 F 
ATOM     94  C   UNL     1       4.868 -11.462  17.702  1.00  0.00     0.200 A 
ATOM     95  F   UNL     1       6.467 -10.414  19.087  1.00  0.00    -0.200 F 
ATOM     96  F   UNL     1       4.771 -12.484  18.563  1.00  0.00    -0.200 F 
ENDBRANCH  63  86
ENDBRANCH  37  38
ENDBRANCH  29  32
ENDBRANCH  27  28
ENDBRANCH  26  27
ENDBRANCH  25  26
ENDBRANCH   1  25
TORSDOF 15
