REMARK SMILES CCc1ccc(N2C(=O)/C(=C/c3cc(Cl)c(OCC(=O)NCCCCCCNC(=O)c4ccc(-c5c6nc(c(-c7c(F)c(F)c(F)c(F)c7F)c7ccc([nH]7)c(-c7c(F)c(F)c(F)c(F)c7F)c7nc(c(-c8c(F)c(F)c(F)c(F)c8F)c8ccc5[nH]8)C=C7)C=C6)cc4)c(Cl)c3)C(=O)NC2=S)cc1
REMARK SMILES IDX 23 1 22 2 21 3 19 4 20 5 18 7 17 8 16 9 12 10 13 11 96 12
REMARK SMILES IDX 14 13 94 14 15 15 95 16 11 17 7 18 8 19 100 20 9 21 10 22
REMARK SMILES IDX 99 23 101 24 97 25 98 27 6 28 3 29 4 30 103 31 5 32 102 33
REMARK SMILES IDX 2 34 1 35 24 36 25 37 26 38 27 39 28 40 29 41 30 43 31 44
REMARK SMILES IDX 32 45 93 46 33 47 92 48 34 49 35 50 36 51 86 52 37 53 91 54
REMARK SMILES IDX 85 55 87 56 38 57 90 58 84 59 83 60 39 62 71 63 51 64 70 65
REMARK SMILES IDX 52 66 55 67 69 68 88 69 53 70 54 71 68 73 89 74 56 75 40 76
REMARK SMILES IDX 41 77 49 78 42 79 43 80 47 81 50 82 44 83 45 84 48 85 46 86
REMARK SMILES IDX 72 87 73 88 81 89 74 90 75 91 79 92 82 93 76 94 77 95 80 96
REMARK SMILES IDX 78 97 57 98 58 99 66 100 59 101 60 102 64 103 67 104 61 105
REMARK SMILES IDX 62 106 65 107 63 108
REMARK H PARENT 21 6 99 26 28 42 87 61 55 72
REMARK Flexibility Score: inf
ROOT
ATOM      1  C   UNL     1       4.055   2.729 -12.963  1.00  0.00     0.021 C 
ENDROOT
BRANCH   1   2
ATOM      2  C   UNL     1       3.555   2.420 -14.374  1.00  0.00     0.116 C 
BRANCH   2   3
ATOM      3  N   UNL     1       3.669   1.012 -14.690  1.00  0.00    -0.353 N 
ATOM      4  C   UNL     1       2.716   0.146 -15.138  1.00  0.00     0.257 C 
ATOM      5  O   UNL     1       3.065  -1.002 -15.419  1.00  0.00    -0.271 OA
ATOM      6  H   UNL     1       4.564   0.622 -14.561  1.00  0.00     0.163 HD
BRANCH   4   7
ATOM      7  C   UNL     1       1.274   0.632 -15.348  1.00  0.00     0.329 C 
BRANCH   7   8
ATOM      8  O   UNL     1       0.495   1.113 -14.269  1.00  0.00    -0.481 OA
BRANCH   8   9
ATOM      9  C   UNL     1       0.486   0.438 -13.078  1.00  0.00     0.157 A 
ATOM     10  C   UNL     1       0.405  -0.678 -10.479  1.00  0.00    -0.021 A 
ATOM     11  C   UNL     1       0.419   0.705 -10.645  1.00  0.00     0.032 A 
ATOM     12  C   UNL     1       0.389  -1.502 -11.603  1.00  0.00     0.032 A 
ATOM     13  C   UNL     1       0.454   1.253 -11.930  1.00  0.00     0.085 A 
ATOM     14  C   UNL     1       0.407  -0.952 -12.896  1.00  0.00     0.085 A 
ATOM     15  Cl  UNL     1       0.436   2.984 -12.049  1.00  0.00    -0.080 Cl
ATOM     16  Cl  UNL     1       0.186  -2.083 -14.182  1.00  0.00    -0.080 Cl
BRANCH  10  17
ATOM     17  C   UNL     1       0.362  -1.233  -9.127  1.00  0.00     0.028 C 
ATOM     18  N   UNL     1       2.214  -1.619  -6.129  1.00  0.00    -0.253 N 
ATOM     19  C   UNL     1       1.148  -1.947  -6.976  1.00  0.00     0.270 C 
ATOM     20  C   UNL     1       3.544  -1.664  -6.558  1.00  0.00     0.187 C 
ATOM     21  O   UNL     1       0.042  -2.357  -6.628  1.00  0.00    -0.268 OA
ATOM     22  C   UNL     1       1.419  -1.662  -8.408  1.00  0.00     0.106 C 
ATOM     23  N   UNL     1       3.744  -1.788  -7.912  1.00  0.00    -0.298 N 
ATOM     24  S   UNL     1       4.932  -1.644  -5.610  1.00  0.00    -0.040 S 
ATOM     25  C   UNL     1       2.805  -1.715  -8.902  1.00  0.00     0.263 C 
ATOM     26  H   UNL     1       4.671  -1.947  -8.202  1.00  0.00     0.172 HD
ATOM     27  O   UNL     1       3.131  -1.675 -10.081  1.00  0.00    -0.269 OA
BRANCH  18  28
ATOM     28  C   UNL     1       1.866  -1.153  -4.817  1.00  0.00     0.052 A 
ATOM     29  C   UNL     1       0.936  -0.008  -2.411  1.00  0.00    -0.048 A 
ATOM     30  C   UNL     1       0.533  -1.294  -2.792  1.00  0.00     0.006 A 
ATOM     31  C   UNL     1       1.829   0.691  -3.228  1.00  0.00     0.006 A 
ATOM     32  C   UNL     1       0.986  -1.857  -3.990  1.00  0.00     0.027 A 
ATOM     33  C   UNL     1       2.291   0.124  -4.417  1.00  0.00     0.027 A 
BRANCH  29  34
ATOM     34  C   UNL     1       0.398   0.627  -1.154  1.00  0.00     0.032 C 
ATOM     35  C   UNL     1       0.965  -0.006   0.106  1.00  0.00     0.009 C 
ENDBRANCH  29  34
ENDBRANCH  18  28
ENDBRANCH  10  17
ENDBRANCH   8   9
ENDBRANCH   7   8
ENDBRANCH   4   7
ENDBRANCH   2   3
ENDBRANCH   1   2
BRANCH   1  36
ATOM     36  C   UNL     1       5.510   2.336 -12.675  1.00  0.00     0.002 C 
BRANCH  36  37
ATOM     37  C   UNL     1       6.562   2.898 -13.635  1.00  0.00     0.002 C 
BRANCH  37  38
ATOM     38  C   UNL     1       6.565   4.418 -13.800  1.00  0.00     0.021 C 
BRANCH  38  39
ATOM     39  C   UNL     1       6.735   5.217 -12.511  1.00  0.00     0.116 C 
BRANCH  39  40
ATOM     40  N   UNL     1       8.025   5.000 -11.877  1.00  0.00    -0.352 N 
ATOM     41  C   UNL     1       8.918   5.921 -11.384  1.00  0.00     0.251 C 
ATOM     42  H   UNL     1       8.298   4.059 -11.787  1.00  0.00     0.163 HD
ATOM     43  O   UNL     1      10.024   5.560 -10.992  1.00  0.00    -0.269 OA
BRANCH  41  44
ATOM     44  C   UNL     1       8.563   7.357 -11.350  1.00  0.00     0.039 A 
ATOM     45  C   UNL     1       9.499   8.292 -11.803  1.00  0.00     0.014 A 
ATOM     46  C   UNL     1       7.323   7.786 -10.870  1.00  0.00     0.014 A 
ATOM     47  C   UNL     1       9.167   9.649 -11.839  1.00  0.00     0.010 A 
ATOM     48  C   UNL     1       6.970   9.131 -10.961  1.00  0.00     0.010 A 
ATOM     49  C   UNL     1       7.887  10.075 -11.450  1.00  0.00    -0.014 A 
BRANCH  49  50
ATOM     50  C   UNL     1       7.485  11.501 -11.549  1.00  0.00     0.031 A 
ATOM     51  C   UNL     1       7.191  12.290 -10.304  1.00  0.00     0.074 A 
ATOM     52  C   UNL     1       7.320  12.067 -12.760  1.00  0.00     0.049 A 
ATOM     53  N   UNL     1       6.729  13.510 -10.185  1.00  0.00    -0.248 NA
ATOM     54  C   UNL     1       7.426  11.609  -9.021  1.00  0.00     0.031 C 
ATOM     55  C   UNL     1       7.542  11.399 -14.044  1.00  0.00     0.029 A 
ATOM     56  N   UNL     1       6.912  13.331 -13.110  1.00  0.00    -0.354 N 
ATOM     57  C   UNL     1       6.606  13.736  -8.821  1.00  0.00     0.074 A 
ATOM     58  C   UNL     1       7.000  12.514  -8.152  1.00  0.00     0.031 C 
ATOM     59  C   UNL     1       7.282  12.263 -15.039  1.00  0.00     0.029 A 
ATOM     60  C   UNL     1       6.841  13.531 -14.467  1.00  0.00     0.049 A 
ATOM     61  H   UNL     1       6.692  14.027 -12.450  1.00  0.00     0.167 HD
ATOM     62  C   UNL     1       6.219  14.867  -8.184  1.00  0.00     0.037 A 
ATOM     63  C   UNL     1       6.453  14.613 -15.169  1.00  0.00     0.037 A 
ATOM     64  C   UNL     1       5.853  16.090  -8.847  1.00  0.00     0.049 A 
ATOM     65  C   UNL     1       6.019  15.852 -14.434  1.00  0.00     0.074 A 
ATOM     66  C   UNL     1       5.484  17.300  -8.286  1.00  0.00     0.029 A 
ATOM     67  N   UNL     1       5.817  16.260 -10.223  1.00  0.00    -0.354 N 
ATOM     68  N   UNL     1       5.948  16.067 -13.144  1.00  0.00    -0.248 NA
ATOM     69  C   UNL     1       5.616  17.002 -15.257  1.00  0.00     0.031 C 
ATOM     70  C   UNL     1       5.196  18.195  -9.322  1.00  0.00     0.029 A 
ATOM     71  C   UNL     1       5.422  17.553 -10.528  1.00  0.00     0.049 A 
ATOM     72  H   UNL     1       6.040  15.566 -10.885  1.00  0.00     0.167 HD
ATOM     73  C   UNL     1       5.523  17.380 -12.999  1.00  0.00     0.074 A 
ATOM     74  C   UNL     1       5.361  17.919 -14.333  1.00  0.00     0.031 C 
ATOM     75  C   UNL     1       5.286  18.078 -11.862  1.00  0.00     0.037 A 
BRANCH  62  76
ATOM     76  C   UNL     1       6.181  14.839  -6.685  1.00  0.00     0.064 A 
ATOM     77  C   UNL     1       7.360  14.834  -5.925  1.00  0.00     0.173 A 
ATOM     78  C   UNL     1       4.957  14.866  -6.001  1.00  0.00     0.173 A 
ATOM     79  F   UNL     1       8.555  14.796  -6.533  1.00  0.00    -0.203 F 
ATOM     80  C   UNL     1       7.314  14.837  -4.533  1.00  0.00     0.198 A 
ATOM     81  C   UNL     1       4.915  14.894  -4.609  1.00  0.00     0.198 A 
ATOM     82  F   UNL     1       3.801  14.876  -6.682  1.00  0.00    -0.203 F 
ATOM     83  F   UNL     1       8.452  14.793  -3.827  1.00  0.00    -0.200 F 
ATOM     84  C   UNL     1       6.093  14.874  -3.877  1.00  0.00     0.200 A 
ATOM     85  F   UNL     1       3.735  14.941  -3.976  1.00  0.00    -0.200 F 
ATOM     86  F   UNL     1       6.051  14.885  -2.538  1.00  0.00    -0.200 F 
ENDBRANCH  62  76
BRANCH  63  87
ATOM     87  C   UNL     1       6.473  14.584 -16.654  1.00  0.00     0.064 A 
ATOM     88  C   UNL     1       7.409  15.340 -17.373  1.00  0.00     0.173 A 
ATOM     89  C   UNL     1       5.550  13.822 -17.384  1.00  0.00     0.173 A 
ATOM     90  F   UNL     1       8.297  16.103 -16.718  1.00  0.00    -0.203 F 
ATOM     91  C   UNL     1       7.407  15.353 -18.766  1.00  0.00     0.198 A 
ATOM     92  C   UNL     1       5.565  13.815 -18.777  1.00  0.00     0.198 A 
ATOM     93  F   UNL     1       4.635  13.079 -16.742  1.00  0.00    -0.203 F 
ATOM     94  F   UNL     1       8.282  16.122 -19.427  1.00  0.00    -0.200 F 
ATOM     95  C   UNL     1       6.488  14.587 -19.467  1.00  0.00     0.200 A 
ATOM     96  F   UNL     1       4.682  13.066 -19.451  1.00  0.00    -0.200 F 
ATOM     97  F   UNL     1       6.485  14.601 -20.806  1.00  0.00    -0.200 F 
ENDBRANCH  63  87
BRANCH  75  98
ATOM     98  C   UNL     1       4.871  19.511 -12.008  1.00  0.00     0.064 A 
ATOM     99  C   UNL     1       3.582  19.863 -12.431  1.00  0.00     0.173 A 
ATOM    100  C   UNL     1       5.763  20.544 -11.680  1.00  0.00     0.173 A 
ATOM    101  F   UNL     1       2.700  18.911 -12.771  1.00  0.00    -0.203 F 
ATOM    102  C   UNL     1       3.206  21.199 -12.541  1.00  0.00     0.198 A 
ATOM    103  C   UNL     1       5.376  21.877 -11.767  1.00  0.00     0.198 A 
ATOM    104  F   UNL     1       7.006  20.257 -11.265  1.00  0.00    -0.203 F 
ATOM    105  F   UNL     1       1.982  21.514 -12.986  1.00  0.00    -0.200 F 
ATOM    106  C   UNL     1       4.100  22.204 -12.202  1.00  0.00     0.200 A 
ATOM    107  F   UNL     1       6.237  22.847 -11.430  1.00  0.00    -0.200 F 
ATOM    108  F   UNL     1       3.734  23.489 -12.302  1.00  0.00    -0.200 F 
ENDBRANCH  75  98
ENDBRANCH  49  50
ENDBRANCH  41  44
ENDBRANCH  39  40
ENDBRANCH  38  39
ENDBRANCH  37  38
ENDBRANCH  36  37
ENDBRANCH   1  36
TORSDOF 18
