REMARK SMILES C[C@@H]1CC[C@H](C)[N@H+]1Cc1cc2c(cc1Cl)C=C(C(=O)NCCCCCCNC(=O)c1ccc(-c3c4nc(c(-c5c(F)c(F)c(F)c(F)c5F)c5ccc([nH]5)c(-c5c(F)c(F)c(F)c(F)c5F)c5nc(c(-c6c(F)c(F)c(F)c(F)c6F)c6ccc3[nH]6)C=C5)C=C4)cc1)[C@@H](C(F)(F)F)O2
REMARK SMILES IDX 23 1 22 2 21 3 20 4 18 5 19 6 17 8 9 9 10 10 14 11 11 12
REMARK SMILES IDX 13 13 15 14 12 15 98 16 16 17 93 18 8 19 7 20 6 21 5 22 4 23
REMARK SMILES IDX 3 24 2 25 1 27 94 28 95 29 96 30 97 31 24 32 25 33 26 34
REMARK SMILES IDX 27 35 28 36 29 38 30 39 31 40 92 41 32 42 91 43 33 44 34 45
REMARK SMILES IDX 35 46 85 47 36 48 90 49 84 50 86 51 37 52 89 53 83 54 82 55
REMARK SMILES IDX 38 57 70 58 50 59 69 60 51 61 54 62 68 63 87 64 52 65 53 66
REMARK SMILES IDX 67 68 88 69 55 70 39 71 40 72 48 73 41 74 42 75 46 76 49 77
REMARK SMILES IDX 43 78 44 79 47 80 45 81 71 82 72 83 80 84 73 85 74 86 78 87
REMARK SMILES IDX 81 88 75 89 76 90 79 91 77 92 56 93 57 94 65 95 58 96 59 97
REMARK SMILES IDX 63 98 66 99 60 100 61 101 64 102 62 103
REMARK H PARENT 20 7 7 26 27 37 86 56 54 67
REMARK Flexibility Score: inf
ROOT
ATOM      1  C   UNL     1     -10.675  -1.552   1.888  1.00  0.00     0.002 C 
ENDROOT
BRANCH   1   2
ATOM      2  C   UNL     1      -9.265  -1.052   1.556  1.00  0.00     0.021 C 
BRANCH   2   3
ATOM      3  C   UNL     1      -8.735   0.001   2.525  1.00  0.00     0.116 C 
BRANCH   3   4
ATOM      4  N   UNL     1      -8.202  -0.609   3.728  1.00  0.00    -0.352 N 
ATOM      5  C   UNL     1      -7.019  -0.652   4.380  1.00  0.00     0.251 C 
ATOM      6  O   UNL     1      -7.023  -1.312   5.424  1.00  0.00    -0.270 OA
ATOM      7  H   UNL     1      -8.888  -1.136   4.197  1.00  0.00     0.163 HD
BRANCH   5   8
ATOM      8  C   UNL     1      -5.761   0.016   3.938  1.00  0.00     0.067 C 
ATOM      9  C   UNL     1      -0.942   1.495   3.546  1.00  0.00     0.029 A 
ATOM     10  C   UNL     1      -2.022   1.385   2.649  1.00  0.00     0.058 A 
ATOM     11  C   UNL     1      -1.189   1.220   4.902  1.00  0.00     0.050 A 
ATOM     12  C   UNL     1      -3.260   0.917   3.076  1.00  0.00     0.128 A 
ATOM     13  C   UNL     1      -2.417   0.686   5.313  1.00  0.00     0.033 A 
ATOM     14  Cl  UNL     1      -0.052   1.579   6.154  1.00  0.00    -0.084 Cl
ATOM     15  C   UNL     1      -3.447   0.507   4.393  1.00  0.00     0.019 A 
ATOM     16  O   UNL     1      -4.252   0.837   2.141  1.00  0.00    -0.475 OA
ATOM     17  C   UNL     1      -4.708  -0.121   4.765  1.00  0.00     0.025 C 
ATOM     18  C   UNL     1      -5.605   0.828   2.682  1.00  0.00     0.314 C 
BRANCH   9  19
ATOM     19  C   UNL     1       0.419   1.862   2.982  1.00  0.00     0.301 C 
BRANCH  19  20
ATOM     20  N   UNL     1       1.270   0.746   2.534  1.00  0.00    -0.327 N 
ATOM     21  C   UNL     1       1.087   0.321   0.099  1.00  0.00     0.075 C 
ATOM     22  C   UNL     1       0.718  -0.145   1.501  1.00  0.00     0.181 C 
ATOM     23  C   UNL     1       1.300  -1.523   1.810  1.00  0.00     0.071 C 
ATOM     24  C   UNL     1       1.433  -1.495   3.318  1.00  0.00     0.071 C 
ATOM     25  C   UNL     1       1.864  -0.063   3.605  1.00  0.00     0.181 C 
ATOM     26  H   UNL     1       2.010   1.285   2.085  1.00  0.00     0.348 HD
ATOM     27  C   UNL     1       3.383   0.104   3.561  1.00  0.00     0.075 C 
ENDBRANCH  19  20
ENDBRANCH   9  19
BRANCH  18  28
ATOM     28  C   UNL     1      -6.116   2.272   2.861  1.00  0.00     0.429 C 
ATOM     29  F   UNL     1      -6.244   2.886   1.659  1.00  0.00    -0.167 F 
ATOM     30  F   UNL     1      -7.339   2.315   3.443  1.00  0.00    -0.167 F 
ATOM     31  F   UNL     1      -5.295   3.032   3.620  1.00  0.00    -0.167 F 
ENDBRANCH  18  28
ENDBRANCH   5   8
ENDBRANCH   3   4
ENDBRANCH   2   3
ENDBRANCH   1   2
BRANCH   1  32
ATOM     32  C   UNL     1     -11.760  -0.470   1.963  1.00  0.00     0.002 C 
BRANCH  32  33
ATOM     33  C   UNL     1     -11.794   0.512   0.790  1.00  0.00     0.021 C 
BRANCH  33  34
ATOM     34  C   UNL     1     -11.954  -0.135  -0.580  1.00  0.00     0.116 C 
BRANCH  34  35
ATOM     35  N   UNL     1     -13.236  -0.802  -0.736  1.00  0.00    -0.352 N 
ATOM     36  C   UNL     1     -14.184  -0.635  -1.719  1.00  0.00     0.251 C 
ATOM     37  H   UNL     1     -13.456  -1.466  -0.043  1.00  0.00     0.163 HD
ATOM     38  O   UNL     1     -15.280  -1.168  -1.634  1.00  0.00    -0.269 OA
BRANCH  36  39
ATOM     39  C   UNL     1     -13.871   0.242  -2.866  1.00  0.00     0.039 A 
ATOM     40  C   UNL     1     -12.682   0.074  -3.581  1.00  0.00     0.014 A 
ATOM     41  C   UNL     1     -14.747   1.284  -3.177  1.00  0.00     0.014 A 
ATOM     42  C   UNL     1     -12.292   1.043  -4.500  1.00  0.00     0.010 A 
ATOM     43  C   UNL     1     -14.384   2.219  -4.147  1.00  0.00     0.010 A 
ATOM     44  C   UNL     1     -13.131   2.135  -4.776  1.00  0.00    -0.014 A 
BRANCH  44  45
ATOM     45  C   UNL     1     -12.670   3.217  -5.682  1.00  0.00     0.031 A 
ATOM     46  C   UNL     1     -12.415   4.597  -5.140  1.00  0.00     0.074 A 
ATOM     47  C   UNL     1     -12.448   2.952  -6.982  1.00  0.00     0.049 A 
ATOM     48  N   UNL     1     -12.101   5.695  -5.780  1.00  0.00    -0.248 NA
ATOM     49  C   UNL     1     -12.528   4.767  -3.682  1.00  0.00     0.031 C 
ATOM     50  C   UNL     1     -12.615   1.645  -7.617  1.00  0.00     0.029 A 
ATOM     51  N   UNL     1     -12.025   3.767  -8.000  1.00  0.00    -0.354 N 
ATOM     52  C   UNL     1     -12.006   6.686  -4.812  1.00  0.00     0.074 A 
ATOM     53  C   UNL     1     -12.311   6.067  -3.541  1.00  0.00     0.031 C 
ATOM     54  C   UNL     1     -12.270   1.739  -8.910  1.00  0.00     0.029 A 
ATOM     55  C   UNL     1     -11.923   3.125  -9.209  1.00  0.00     0.049 A 
ATOM     56  H   UNL     1     -11.816   4.721  -7.877  1.00  0.00     0.167 HD
ATOM     57  C   UNL     1     -11.685   7.993  -4.972  1.00  0.00     0.037 A 
ATOM     58  C   UNL     1     -11.612   3.605 -10.427  1.00  0.00     0.037 A 
ATOM     59  C   UNL     1     -11.359   8.600  -6.236  1.00  0.00     0.049 A 
ATOM     60  C   UNL     1     -11.319   5.070 -10.585  1.00  0.00     0.074 A 
ATOM     61  C   UNL     1     -11.023   9.916  -6.502  1.00  0.00     0.029 A 
ATOM     62  N   UNL     1     -11.320   7.926  -7.448  1.00  0.00    -0.354 N 
ATOM     63  N   UNL     1     -11.274   6.008  -9.671  1.00  0.00    -0.248 NA
ATOM     64  C   UNL     1     -11.047   5.545 -11.948  1.00  0.00     0.031 C 
ATOM     65  C   UNL     1     -10.813  10.046  -7.879  1.00  0.00     0.029 A 
ATOM     66  C   UNL     1     -10.977   8.802  -8.466  1.00  0.00     0.049 A 
ATOM     67  H   UNL     1     -11.508   6.967  -7.567  1.00  0.00     0.167 HD
ATOM     68  C   UNL     1     -10.966   7.181 -10.344  1.00  0.00     0.074 A 
ATOM     69  C   UNL     1     -10.807   6.832 -11.741  1.00  0.00     0.031 C 
ATOM     70  C   UNL     1     -10.835   8.438  -9.852  1.00  0.00     0.037 A 
BRANCH  57  71
ATOM     71  C   UNL     1     -11.683   8.865  -3.751  1.00  0.00     0.064 A 
ATOM     72  C   UNL     1     -10.665   8.783  -2.790  1.00  0.00     0.173 A 
ATOM     73  C   UNL     1     -12.682   9.833  -3.568  1.00  0.00     0.173 A 
ATOM     74  F   UNL     1      -9.695   7.863  -2.911  1.00  0.00    -0.203 F 
ATOM     75  C   UNL     1     -10.654   9.629  -1.684  1.00  0.00     0.198 A 
ATOM     76  C   UNL     1     -12.656  10.693  -2.473  1.00  0.00     0.198 A 
ATOM     77  F   UNL     1     -13.678   9.954  -4.459  1.00  0.00    -0.203 F 
ATOM     78  F   UNL     1      -9.690   9.510  -0.760  1.00  0.00    -0.200 F 
ATOM     79  C   UNL     1     -11.644  10.588  -1.530  1.00  0.00     0.200 A 
ATOM     80  F   UNL     1     -13.608  11.626  -2.332  1.00  0.00    -0.200 F 
ATOM     81  F   UNL     1     -11.627  11.408  -0.470  1.00  0.00    -0.200 F 
ENDBRANCH  57  71
BRANCH  58  82
ATOM     82  C   UNL     1     -11.583   2.687 -11.593  1.00  0.00     0.064 A 
ATOM     83  C   UNL     1     -10.372   2.349 -12.210  1.00  0.00     0.173 A 
ATOM     84  C   UNL     1     -12.759   2.118 -12.101  1.00  0.00     0.173 A 
ATOM     85  F   UNL     1      -9.224   2.888 -11.772  1.00  0.00    -0.203 F 
ATOM     86  C   UNL     1     -10.339   1.478 -13.296  1.00  0.00     0.198 A 
ATOM     87  C   UNL     1     -12.722   1.226 -13.170  1.00  0.00     0.198 A 
ATOM     88  F   UNL     1     -13.944   2.411 -11.544  1.00  0.00    -0.203 F 
ATOM     89  F   UNL     1      -9.171   1.194 -13.889  1.00  0.00    -0.200 F 
ATOM     90  C   UNL     1     -11.512   0.910 -13.770  1.00  0.00     0.200 A 
ATOM     91  F   UNL     1     -13.857   0.670 -13.616  1.00  0.00    -0.200 F 
ATOM     92  F   UNL     1     -11.478   0.063 -14.807  1.00  0.00    -0.200 F 
ENDBRANCH  58  82
BRANCH  70  93
ATOM     93  C   UNL     1     -10.499   9.522 -10.831  1.00  0.00     0.064 A 
ATOM     94  C   UNL     1     -11.451  10.004 -11.742  1.00  0.00     0.173 A 
ATOM     95  C   UNL     1      -9.223  10.104 -10.842  1.00  0.00     0.173 A 
ATOM     96  F   UNL     1     -12.680   9.468 -11.780  1.00  0.00    -0.203 F 
ATOM     97  C   UNL     1     -11.129  11.013 -12.645  1.00  0.00     0.198 A 
ATOM     98  C   UNL     1      -8.912  11.131 -11.729  1.00  0.00     0.198 A 
ATOM     99  F   UNL     1      -8.280   9.681  -9.987  1.00  0.00    -0.203 F 
ATOM    100  F   UNL     1     -12.039  11.426 -13.537  1.00  0.00    -0.200 F 
ATOM    101  C   UNL     1      -9.863  11.579 -12.634  1.00  0.00     0.200 A 
ATOM    102  F   UNL     1      -7.692  11.684 -11.710  1.00  0.00    -0.200 F 
ATOM    103  F   UNL     1      -9.555  12.552 -13.503  1.00  0.00    -0.200 F 
ENDBRANCH  70  93
ENDBRANCH  44  45
ENDBRANCH  36  39
ENDBRANCH  34  35
ENDBRANCH  33  34
ENDBRANCH  32  33
ENDBRANCH   1  32
TORSDOF 16
