REMARK SMILES O=C(NCCCCCCNC(=O)[C@@H]1c2[nH]cnc2CCN1C(=O)CCCc1c[nH]c2ccccc12)c1ccc(-c2c3nc(c(-c4c(F)c(F)c(F)c(F)c4F)c4ccc([nH]4)c(-c4c(F)c(F)c(F)c(F)c4F)c4nc(c(-c5c(F)c(F)c(F)c(F)c5F)c5ccc2[nH]5)C=C4)C=C3)cc1
REMARK SMILES IDX 8 1 7 2 6 3 5 4 4 5 3 6 1 7 2 8 36 10 37 11 98 12 38 13
REMARK SMILES IDX 97 14 39 15 40 16 41 17 91 18 42 19 96 20 90 21 92 22 43 23
REMARK SMILES IDX 95 24 89 25 88 26 44 28 76 29 56 30 75 31 57 32 60 33 74 34
REMARK SMILES IDX 93 35 58 36 59 37 73 39 94 40 61 41 45 42 46 43 54 44 47 45
REMARK SMILES IDX 48 46 52 47 55 48 49 49 50 50 53 51 51 52 77 53 78 54 86 55
REMARK SMILES IDX 79 56 80 57 84 58 87 59 81 60 82 61 85 62 83 63 62 64 63 65
REMARK SMILES IDX 71 66 64 67 65 68 69 69 72 70 66 71 67 72 70 73 68 74 9 75
REMARK SMILES IDX 10 76 11 77 12 79 13 80 14 81 21 82 15 83 18 84 20 85 16 86
REMARK SMILES IDX 17 88 19 89 22 90 23 91 24 92 25 93 26 94 27 95 28 96 35 97
REMARK SMILES IDX 29 98 30 99 34 100 31 102 33 103 32 104
REMARK H PARENT 3 9 92 27 60 38 10 78 15 87 29 101
REMARK Flexibility Score: inf
ROOT
ATOM      1  C   UNL     1      10.835   6.378  -4.909  1.00  0.00     0.021 C 
ENDROOT
BRANCH   1   2
ATOM      2  C   UNL     1      11.633   7.678  -5.021  1.00  0.00     0.002 C 
BRANCH   2   3
ATOM      3  C   UNL     1      10.873   8.912  -4.514  1.00  0.00     0.002 C 
BRANCH   3   4
ATOM      4  C   UNL     1      10.406   8.820  -3.057  1.00  0.00     0.021 C 
BRANCH   4   5
ATOM      5  C   UNL     1      11.557   8.655  -2.067  1.00  0.00     0.116 C 
BRANCH   5   6
ATOM      6  N   UNL     1      12.540   9.715  -2.167  1.00  0.00    -0.352 N 
ATOM      7  O   UNL     1      13.581  11.665  -2.094  1.00  0.00    -0.269 OA
ATOM      8  C   UNL     1      12.556  11.031  -1.813  1.00  0.00     0.251 C 
ATOM      9  H   UNL     1      13.381   9.419  -2.583  1.00  0.00     0.163 HD
BRANCH   8  10
ATOM     10  C   UNL     1      11.422  11.757  -1.183  1.00  0.00     0.039 A 
ATOM     11  C   UNL     1      10.283  11.168  -0.629  1.00  0.00     0.014 A 
ATOM     12  C   UNL     1      11.530  13.159  -1.165  1.00  0.00     0.014 A 
ATOM     13  C   UNL     1       9.232  11.952  -0.170  1.00  0.00     0.010 A 
ATOM     14  C   UNL     1      10.502  13.948  -0.672  1.00  0.00     0.010 A 
ATOM     15  C   UNL     1       9.336  13.341  -0.213  1.00  0.00    -0.014 A 
BRANCH  15  16
ATOM     16  C   UNL     1       8.272  14.133   0.395  1.00  0.00     0.031 A 
ATOM     17  C   UNL     1       8.129  13.946   1.874  1.00  0.00     0.074 A 
ATOM     18  C   UNL     1       7.612  15.082  -0.299  1.00  0.00     0.049 A 
ATOM     19  N   UNL     1       7.062  13.690   2.563  1.00  0.00    -0.248 NA
ATOM     20  C   UNL     1       9.364  13.954   2.682  1.00  0.00     0.031 C 
ATOM     21  C   UNL     1       7.872  15.533  -1.669  1.00  0.00     0.029 A 
ATOM     22  N   UNL     1       6.637  15.936   0.118  1.00  0.00    -0.354 N 
ATOM     23  C   UNL     1       7.460  13.669   3.902  1.00  0.00     0.074 A 
ATOM     24  C   UNL     1       8.896  13.705   3.904  1.00  0.00     0.031 C 
ATOM     25  C   UNL     1       7.256  16.719  -1.874  1.00  0.00     0.029 A 
ATOM     26  C   UNL     1       6.464  17.045  -0.702  1.00  0.00     0.049 A 
ATOM     27  H   UNL     1       6.101  15.782   0.929  1.00  0.00     0.167 HD
ATOM     28  C   UNL     1       6.568  13.846   4.916  1.00  0.00     0.037 A 
ATOM     29  C   UNL     1       5.791  18.183  -0.396  1.00  0.00     0.037 A 
ATOM     30  C   UNL     1       5.235  13.505   4.499  1.00  0.00     0.049 A 
ATOM     31  C   UNL     1       4.910  17.886   0.761  1.00  0.00     0.074 A 
ATOM     32  C   UNL     1       4.620  12.351   4.056  1.00  0.00     0.029 A 
ATOM     33  N   UNL     1       4.368  14.522   4.187  1.00  0.00    -0.354 N 
ATOM     34  N   UNL     1       3.880  17.089   0.706  1.00  0.00    -0.248 NA
ATOM     35  C   UNL     1       5.453  18.120   2.091  1.00  0.00     0.031 C 
ATOM     36  C   UNL     1       3.687  12.786   3.069  1.00  0.00     0.029 A 
ATOM     37  C   UNL     1       3.752  14.178   3.014  1.00  0.00     0.049 A 
ATOM     38  H   UNL     1       4.218  15.344   4.708  1.00  0.00     0.167 HD
ATOM     39  C   UNL     1       3.911  16.393   1.905  1.00  0.00     0.074 A 
ATOM     40  C   UNL     1       4.855  17.123   2.748  1.00  0.00     0.031 C 
ATOM     41  C   UNL     1       3.389  15.136   2.001  1.00  0.00     0.037 A 
BRANCH  28  42
ATOM     42  C   UNL     1       6.837  14.701   6.140  1.00  0.00     0.064 A 
ATOM     43  C   UNL     1       5.826  14.824   7.117  1.00  0.00     0.173 A 
ATOM     44  C   UNL     1       7.876  15.652   6.226  1.00  0.00     0.173 A 
ATOM     45  F   UNL     1       4.793  13.969   7.146  1.00  0.00    -0.203 F 
ATOM     46  C   UNL     1       5.793  15.893   8.018  1.00  0.00     0.198 A 
ATOM     47  C   UNL     1       7.864  16.690   7.158  1.00  0.00     0.198 A 
ATOM     48  F   UNL     1       8.890  15.691   5.356  1.00  0.00    -0.203 F 
ATOM     49  F   UNL     1       4.734  16.049   8.824  1.00  0.00    -0.200 F 
ATOM     50  C   UNL     1       6.802  16.836   8.024  1.00  0.00     0.200 A 
ATOM     51  F   UNL     1       8.850  17.598   7.144  1.00  0.00    -0.200 F 
ATOM     52  F   UNL     1       6.732  17.905   8.826  1.00  0.00    -0.200 F 
ENDBRANCH  28  42
BRANCH  29  53
ATOM     53  C   UNL     1       6.128  19.572  -0.796  1.00  0.00     0.064 A 
ATOM     54  C   UNL     1       5.186  20.609  -0.695  1.00  0.00     0.173 A 
ATOM     55  C   UNL     1       7.462  19.961  -1.027  1.00  0.00     0.173 A 
ATOM     56  F   UNL     1       3.904  20.331  -0.420  1.00  0.00    -0.203 F 
ATOM     57  C   UNL     1       5.561  21.954  -0.805  1.00  0.00     0.198 A 
ATOM     58  C   UNL     1       7.833  21.301  -1.145  1.00  0.00     0.198 A 
ATOM     59  F   UNL     1       8.449  19.054  -1.045  1.00  0.00    -0.203 F 
ATOM     60  F   UNL     1       4.644  22.920  -0.646  1.00  0.00    -0.200 F 
ATOM     61  C   UNL     1       6.885  22.298  -1.023  1.00  0.00     0.200 A 
ATOM     62  F   UNL     1       9.124  21.620  -1.315  1.00  0.00    -0.200 F 
ATOM     63  F   UNL     1       7.253  23.586  -1.072  1.00  0.00    -0.200 F 
ENDBRANCH  29  53
BRANCH  41  64
ATOM     64  C   UNL     1       2.576  14.625   0.847  1.00  0.00     0.064 A 
ATOM     65  C   UNL     1       3.098  14.402  -0.440  1.00  0.00     0.173 A 
ATOM     66  C   UNL     1       1.265  14.202   1.093  1.00  0.00     0.173 A 
ATOM     67  F   UNL     1       4.376  14.679  -0.724  1.00  0.00    -0.203 F 
ATOM     68  C   UNL     1       2.325  13.822  -1.443  1.00  0.00     0.198 A 
ATOM     69  C   UNL     1       0.506  13.589   0.100  1.00  0.00     0.198 A 
ATOM     70  F   UNL     1       0.736  14.333   2.320  1.00  0.00    -0.203 F 
ATOM     71  F   UNL     1       2.844  13.624  -2.664  1.00  0.00    -0.200 F 
ATOM     72  C   UNL     1       1.032  13.409  -1.170  1.00  0.00     0.200 A 
ATOM     73  F   UNL     1      -0.724  13.141   0.384  1.00  0.00    -0.200 F 
ATOM     74  F   UNL     1       0.303  12.807  -2.120  1.00  0.00    -0.200 F 
ENDBRANCH  41  64
ENDBRANCH  15  16
ENDBRANCH   8  10
ENDBRANCH   5   6
ENDBRANCH   4   5
ENDBRANCH   3   4
ENDBRANCH   2   3
ENDBRANCH   1   2
BRANCH   1  75
ATOM     75  C   UNL     1       9.579   6.412  -5.774  1.00  0.00     0.116 C 
BRANCH  75  76
ATOM     76  N   UNL     1       9.726   5.651  -6.976  1.00  0.00    -0.354 N 
ATOM     77  C   UNL     1       9.324   4.396  -7.282  1.00  0.00     0.249 C 
ATOM     78  H   UNL     1      10.199   6.119  -7.702  1.00  0.00     0.163 HD
ATOM     79  O   UNL     1       9.218   4.191  -8.504  1.00  0.00    -0.272 OA
BRANCH  77  80
ATOM     80  C   UNL     1       8.867   3.309  -6.271  1.00  0.00     0.223 C 
ATOM     81  C   UNL     1       9.224   3.277  -4.797  1.00  0.00     0.071 A 
ATOM     82  N   UNL     1       9.181   1.952  -6.820  1.00  0.00    -0.325 N 
ATOM     83  N   UNL     1       8.866   4.124  -3.776  1.00  0.00    -0.346 N 
ATOM     84  C   UNL     1       9.549   2.127  -4.087  1.00  0.00     0.066 A 
ATOM     85  C   UNL     1       8.689   0.863  -5.983  1.00  0.00     0.127 C 
ATOM     86  C   UNL     1       9.301   3.587  -2.594  1.00  0.00     0.197 A 
ATOM     87  H   UNL     1       8.378   4.973  -3.877  1.00  0.00     0.167 HD
ATOM     88  N   UNL     1       9.691   2.348  -2.750  1.00  0.00    -0.242 NA
ATOM     89  C   UNL     1       9.529   0.777  -4.689  1.00  0.00     0.080 C 
BRANCH  82  90
ATOM     90  C   UNL     1      10.387   1.722  -7.504  1.00  0.00     0.223 C 
ATOM     91  O   UNL     1      11.378   2.439  -7.378  1.00  0.00    -0.275 OA
BRANCH  90  92
ATOM     92  C   UNL     1      10.358   0.593  -8.537  1.00  0.00     0.100 C 
BRANCH  92  93
ATOM     93  C   UNL     1      11.109  -0.703  -8.250  1.00  0.00     0.015 C 
BRANCH  93  94
ATOM     94  C   UNL     1      10.641  -1.634  -7.143  1.00  0.00     0.038 C 
BRANCH  94  95
ATOM     95  C   UNL     1       9.368  -2.462  -7.180  1.00  0.00    -0.023 A 
ATOM     96  C   UNL     1       9.353  -3.701  -6.552  1.00  0.00     0.087 A 
ATOM     97  C   UNL     1       7.988  -2.227  -7.586  1.00  0.00     0.003 A 
ATOM     98  N   UNL     1       8.066  -4.111  -6.391  1.00  0.00    -0.361 N 
ATOM     99  C   UNL     1       7.208  -3.200  -6.945  1.00  0.00     0.046 A 
ATOM    100  C   UNL     1       7.264  -1.273  -8.343  1.00  0.00     0.010 A 
ATOM    101  H   UNL     1       7.791  -4.942  -5.940  1.00  0.00     0.166 HD
ATOM    102  C   UNL     1       5.804  -3.190  -6.925  1.00  0.00     0.026 A 
ATOM    103  C   UNL     1       5.862  -1.300  -8.412  1.00  0.00     0.001 A 
ATOM    104  C   UNL     1       5.141  -2.233  -7.687  1.00  0.00     0.002 A 
ENDBRANCH  94  95
ENDBRANCH  93  94
ENDBRANCH  92  93
ENDBRANCH  90  92
ENDBRANCH  82  90
ENDBRANCH  77  80
ENDBRANCH  75  76
ENDBRANCH   1  75
TORSDOF 18
