REMARK SMILES O=C(COc1cccc(NC(=O)c2ccc3c(c2)C(=O)N(c2ccccc2-c2ccccc2)C3=O)c1)NCCCCCCNC(=O)c1ccc(-c2c3nc(c(-c4c(F)c(F)c(F)c(F)c4F)c4ccc([nH]4)c(-c4c(F)c(F)c(F)c(F)c4F)c4nc(c(-c5c(F)c(F)c(F)c(F)c5F)c5ccc2[nH]5)C=C4)C=C3)cc1
REMARK SMILES IDX 38 1 37 2 1 3 2 4 3 6 4 7 5 8 6 9 36 10 7 11 9 12 8 13 10 14
REMARK SMILES IDX 11 15 12 17 13 18 14 19 18 20 15 21 17 22 16 23 19 24 34 25
REMARK SMILES IDX 20 26 21 27 35 28 22 29 23 30 27 31 24 32 26 33 25 34 28 35
REMARK SMILES IDX 29 36 33 37 30 38 32 39 31 40 39 41 40 42 41 43 42 44 43 45
REMARK SMILES IDX 44 46 45 47 46 49 47 50 48 51 109 52 49 53 108 54 50 55
REMARK SMILES IDX 51 56 52 57 102 58 53 59 107 60 101 61 103 62 54 63 106 64
REMARK SMILES IDX 100 65 99 66 55 68 87 69 67 70 86 71 68 72 71 73 85 74
REMARK SMILES IDX 104 75 69 76 70 77 84 79 105 80 72 81 56 82 57 83 65 84
REMARK SMILES IDX 58 85 59 86 63 87 66 88 60 89 61 90 64 91 62 92 88 93 89 94
REMARK SMILES IDX 97 95 90 96 91 97 95 98 98 99 92 100 93 101 96 102 94 103
REMARK SMILES IDX 73 104 74 105 82 106 75 107 76 108 80 109 83 110 77 111
REMARK SMILES IDX 78 112 81 113 79 114
REMARK H PARENT 37 5 10 16 44 48 103 67 71 78
REMARK Flexibility Score: inf
ROOT
ATOM      1  C   UNL     1       2.203  -2.084  -1.274  1.00  0.00     0.116 C 
ENDROOT
BRANCH   1   2
ATOM      2  N   UNL     1       2.749  -0.912  -0.628  1.00  0.00    -0.353 N 
ATOM      3  O   UNL     1       0.921   0.439  -0.965  1.00  0.00    -0.271 OA
ATOM      4  C   UNL     1       2.016   0.241  -0.447  1.00  0.00     0.257 C 
ATOM      5  H   UNL     1       3.680  -0.939  -0.306  1.00  0.00     0.163 HD
BRANCH   4   6
ATOM      6  C   UNL     1       2.664   1.255   0.499  1.00  0.00     0.329 C 
BRANCH   6   7
ATOM      7  O   UNL     1       3.677   0.759   1.364  1.00  0.00    -0.484 OA
BRANCH   7   8
ATOM      8  C   UNL     1       3.270   0.100   2.493  1.00  0.00     0.122 A 
ATOM      9  C   UNL     1       4.048   0.343   3.621  1.00  0.00     0.046 A 
ATOM     10  C   UNL     1       2.268  -0.882   2.538  1.00  0.00     0.072 A 
ATOM     11  C   UNL     1       3.840  -0.400   4.775  1.00  0.00     0.006 A 
ATOM     12  C   UNL     1       2.073  -1.670   3.682  1.00  0.00     0.045 A 
ATOM     13  C   UNL     1       2.877  -1.412   4.792  1.00  0.00     0.026 A 
BRANCH  12  14
ATOM     14  N   UNL     1       1.159  -2.752   3.577  1.00  0.00    -0.322 N 
ATOM     15  C   UNL     1       0.612  -3.610   4.516  1.00  0.00     0.255 C 
ATOM     16  H   UNL     1       0.856  -2.926   2.656  1.00  0.00     0.170 HD
ATOM     17  O   UNL     1       0.067  -4.659   4.190  1.00  0.00    -0.269 OA
BRANCH  15  18
ATOM     18  C   UNL     1       0.545  -3.176   5.919  1.00  0.00     0.041 A 
ATOM     19  C   UNL     1       1.444  -3.695   6.878  1.00  0.00     0.015 A 
ATOM     20  C   UNL     1      -0.242  -2.055   6.173  1.00  0.00     0.028 A 
ATOM     21  C   UNL     1       1.717  -2.953   8.040  1.00  0.00     0.015 A 
ATOM     22  C   UNL     1       0.070  -1.354   7.313  1.00  0.00     0.054 A 
ATOM     23  C   UNL     1       1.060  -1.739   8.184  1.00  0.00     0.053 A 
ATOM     24  C   UNL     1      -0.282   0.017   7.602  1.00  0.00     0.266 C 
ATOM     25  C   UNL     1       1.372  -0.560   8.999  1.00  0.00     0.266 C 
ATOM     26  O   UNL     1      -1.278   0.495   7.095  1.00  0.00    -0.268 OA
ATOM     27  N   UNL     1       0.702   0.509   8.433  1.00  0.00    -0.242 N 
ATOM     28  O   UNL     1       2.050  -0.677  10.002  1.00  0.00    -0.268 OA
BRANCH  27  29
ATOM     29  C   UNL     1       0.969   1.919   8.577  1.00  0.00     0.060 A 
ATOM     30  C   UNL     1       0.004   2.836   8.087  1.00  0.00     0.027 A 
ATOM     31  C   UNL     1       2.188   2.480   9.045  1.00  0.00     0.006 A 
ATOM     32  C   UNL     1       0.205   4.218   8.042  1.00  0.00     0.002 A 
ATOM     33  C   UNL     1       2.352   3.893   9.024  1.00  0.00     0.011 A 
ATOM     34  C   UNL     1       1.381   4.752   8.522  1.00  0.00     0.001 A 
BRANCH  31  35
ATOM     35  C   UNL     1       3.395   1.739   9.443  1.00  0.00    -0.016 A 
ATOM     36  C   UNL     1       3.740   1.605  10.797  1.00  0.00     0.009 A 
ATOM     37  C   UNL     1       4.285   1.249   8.474  1.00  0.00     0.009 A 
ATOM     38  C   UNL     1       4.916   0.951  11.172  1.00  0.00     0.001 A 
ATOM     39  C   UNL     1       5.464   0.600   8.849  1.00  0.00     0.001 A 
ATOM     40  C   UNL     1       5.774   0.444  10.198  1.00  0.00     0.000 A 
ENDBRANCH  31  35
ENDBRANCH  27  29
ENDBRANCH  15  18
ENDBRANCH  12  14
ENDBRANCH   7   8
ENDBRANCH   6   7
ENDBRANCH   4   6
ENDBRANCH   1   2
BRANCH   1  41
ATOM     41  C   UNL     1       2.818  -2.333  -2.644  1.00  0.00     0.021 C 
BRANCH  41  42
ATOM     42  C   UNL     1       4.323  -2.625  -2.621  1.00  0.00     0.002 C 
BRANCH  42  43
ATOM     43  C   UNL     1       4.756  -3.821  -1.766  1.00  0.00     0.002 C 
BRANCH  43  44
ATOM     44  C   UNL     1       4.061  -5.148  -2.081  1.00  0.00     0.021 C 
BRANCH  44  45
ATOM     45  C   UNL     1       4.174  -5.615  -3.528  1.00  0.00     0.116 C 
BRANCH  45  46
ATOM     46  N   UNL     1       5.544  -5.900  -3.923  1.00  0.00    -0.352 N 
ATOM     47  C   UNL     1       6.048  -6.993  -4.585  1.00  0.00     0.251 C 
ATOM     48  H   UNL     1       6.204  -5.212  -3.680  1.00  0.00     0.163 HD
ATOM     49  O   UNL     1       7.260  -7.132  -4.715  1.00  0.00    -0.269 OA
BRANCH  47  50
ATOM     50  C   UNL     1       5.130  -8.022  -5.123  1.00  0.00     0.039 A 
ATOM     51  C   UNL     1       5.428  -9.370  -4.906  1.00  0.00     0.014 A 
ATOM     52  C   UNL     1       3.988  -7.663  -5.843  1.00  0.00     0.014 A 
ATOM     53  C   UNL     1       4.547 -10.358  -5.356  1.00  0.00     0.010 A 
ATOM     54  C   UNL     1       3.079  -8.645  -6.235  1.00  0.00     0.010 A 
ATOM     55  C   UNL     1       3.350 -10.001  -5.996  1.00  0.00    -0.014 A 
BRANCH  55  56
ATOM     56  C   UNL     1       2.368 -11.027  -6.434  1.00  0.00     0.031 A 
ATOM     57  C   UNL     1       2.073 -11.207  -7.897  1.00  0.00     0.074 A 
ATOM     58  C   UNL     1       1.687 -11.739  -5.515  1.00  0.00     0.049 A 
ATOM     59  N   UNL     1       1.169 -11.959  -8.474  1.00  0.00    -0.248 NA
ATOM     60  C   UNL     1       2.884 -10.416  -8.836  1.00  0.00     0.031 C 
ATOM     61  C   UNL     1       1.854 -11.631  -4.065  1.00  0.00     0.029 A 
ATOM     62  N   UNL     1       0.700 -12.683  -5.665  1.00  0.00    -0.354 N 
ATOM     63  C   UNL     1       1.287 -11.713  -9.836  1.00  0.00     0.074 A 
ATOM     64  C   UNL     1       2.322 -10.715  -9.998  1.00  0.00     0.031 C 
ATOM     65  C   UNL     1       1.008 -12.480  -3.460  1.00  0.00     0.029 A 
ATOM     66  C   UNL     1       0.211 -13.164  -4.474  1.00  0.00     0.049 A 
ATOM     67  H   UNL     1       0.374 -12.986  -6.543  1.00  0.00     0.167 HD
ATOM     68  C   UNL     1       0.607 -12.283 -10.858  1.00  0.00     0.037 A 
ATOM     69  C   UNL     1      -0.778 -14.045  -4.230  1.00  0.00     0.037 A 
ATOM     70  C   UNL     1      -0.394 -13.305 -10.698  1.00  0.00     0.049 A 
ATOM     71  C   UNL     1      -1.514 -14.666  -5.388  1.00  0.00     0.074 A 
ATOM     72  C   UNL     1      -1.094 -13.988 -11.677  1.00  0.00     0.029 A 
ATOM     73  N   UNL     1      -0.833 -13.793  -9.477  1.00  0.00    -0.354 N 
ATOM     74  N   UNL     1      -1.351 -14.471  -6.673  1.00  0.00    -0.248 NA
ATOM     75  C   UNL     1      -2.568 -15.637  -5.059  1.00  0.00     0.031 C 
ATOM     76  C   UNL     1      -1.985 -14.863 -11.049  1.00  0.00     0.029 A 
ATOM     77  C   UNL     1      -1.806 -14.759  -9.679  1.00  0.00     0.049 A 
ATOM     78  H   UNL     1      -0.503 -13.498  -8.598  1.00  0.00     0.167 HD
ATOM     79  C   UNL     1      -2.252 -15.317  -7.305  1.00  0.00     0.074 A 
ATOM     80  C   UNL     1      -2.955 -16.034  -6.263  1.00  0.00     0.031 C 
ATOM     81  C   UNL     1      -2.476 -15.484  -8.631  1.00  0.00     0.037 A 
BRANCH  68  82
ATOM     82  C   UNL     1       0.922 -11.822 -12.251  1.00  0.00     0.064 A 
ATOM     83  C   UNL     1       2.129 -12.160 -12.880  1.00  0.00     0.173 A 
ATOM     84  C   UNL     1      -0.018 -11.085 -12.986  1.00  0.00     0.173 A 
ATOM     85  F   UNL     1       3.066 -12.854 -12.217  1.00  0.00    -0.203 F 
ATOM     86  C   UNL     1       2.392 -11.759 -14.188  1.00  0.00     0.198 A 
ATOM     87  C   UNL     1       0.235 -10.710 -14.303  1.00  0.00     0.198 A 
ATOM     88  F   UNL     1      -1.191 -10.741 -12.433  1.00  0.00    -0.203 F 
ATOM     89  F   UNL     1       3.567 -12.061 -14.756  1.00  0.00    -0.200 F 
ATOM     90  C   UNL     1       1.442 -11.043 -14.901  1.00  0.00     0.200 A 
ATOM     91  F   UNL     1      -0.689 -10.030 -14.995  1.00  0.00    -0.200 F 
ATOM     92  F   UNL     1       1.690 -10.670 -16.164  1.00  0.00    -0.200 F 
ENDBRANCH  68  82
BRANCH  69  93
ATOM     93  C   UNL     1      -1.127 -14.409  -2.832  1.00  0.00     0.064 A 
ATOM     94  C   UNL     1      -0.862 -15.693  -2.336  1.00  0.00     0.173 A 
ATOM     95  C   UNL     1      -1.754 -13.495  -1.973  1.00  0.00     0.173 A 
ATOM     96  F   UNL     1      -0.284 -16.610  -3.126  1.00  0.00    -0.203 F 
ATOM     97  C   UNL     1      -1.236 -16.058  -1.044  1.00  0.00     0.198 A 
ATOM     98  C   UNL     1      -2.102 -13.852  -0.672  1.00  0.00     0.198 A 
ATOM     99  F   UNL     1      -2.026 -12.252  -2.398  1.00  0.00    -0.203 F 
ATOM    100  F   UNL     1      -1.021 -17.309  -0.615  1.00  0.00    -0.200 F 
ATOM    101  C   UNL     1      -1.853 -15.136  -0.212  1.00  0.00     0.200 A 
ATOM    102  F   UNL     1      -2.687 -12.955   0.133  1.00  0.00    -0.200 F 
ATOM    103  F   UNL     1      -2.216 -15.489   1.028  1.00  0.00    -0.200 F 
ENDBRANCH  69  93
BRANCH  81 104
ATOM    104  C   UNL     1      -3.482 -16.520  -9.037  1.00  0.00     0.064 A 
ATOM    105  C   UNL     1      -4.859 -16.317  -8.871  1.00  0.00     0.173 A 
ATOM    106  C   UNL     1      -3.061 -17.710  -9.650  1.00  0.00     0.173 A 
ATOM    107  F   UNL     1      -5.310 -15.202  -8.277  1.00  0.00    -0.203 F 
ATOM    108  C   UNL     1      -5.778 -17.278  -9.285  1.00  0.00     0.198 A 
ATOM    109  C   UNL     1      -3.983 -18.656 -10.089  1.00  0.00     0.198 A 
ATOM    110  F   UNL     1      -1.754 -17.948  -9.838  1.00  0.00    -0.203 F 
ATOM    111  F   UNL     1      -7.087 -17.082  -9.080  1.00  0.00    -0.200 F 
ATOM    112  C   UNL     1      -5.340 -18.442  -9.901  1.00  0.00     0.200 A 
ATOM    113  F   UNL     1      -3.559 -19.773 -10.696  1.00  0.00    -0.200 F 
ATOM    114  F   UNL     1      -6.226 -19.360 -10.309  1.00  0.00    -0.200 F 
ENDBRANCH  81 104
ENDBRANCH  55  56
ENDBRANCH  47  50
ENDBRANCH  45  46
ENDBRANCH  44  45
ENDBRANCH  43  44
ENDBRANCH  42  43
ENDBRANCH  41  42
ENDBRANCH   1  41
TORSDOF 19
