REMARK SMILES Cc1coc2cc3oc(=O)c(CC(=O)N[C@H](Cc4c[nH]c5ccc(O)cc45)C(=O)NCCCCCCNC(=O)c4ccc(-c5c6nc(c(-c7c(F)c(F)c(F)c(F)c7F)c7ccc([nH]7)c(-c7c(F)c(F)c(F)c(F)c7F)c7nc(c(-c8c(F)c(F)c(F)c(F)c8F)c8ccc5[nH]8)C=C7)C=C6)cc4)c(C)c3cc12
REMARK SMILES IDX 33 1 32 2 31 3 30 4 28 5 29 6 16 8 15 9 13 10 14 11 12 13
REMARK SMILES IDX 11 14 1 15 2 16 3 17 107 18 4 19 5 20 106 21 6 22 105 23
REMARK SMILES IDX 7 24 103 25 8 26 104 27 9 28 10 29 17 30 18 31 19 32 27 33
REMARK SMILES IDX 20 34 21 35 26 36 22 38 24 39 23 40 25 41 34 43 35 44 36 45
REMARK SMILES IDX 37 46 38 47 39 49 40 50 41 51 102 52 42 53 101 54 43 55
REMARK SMILES IDX 44 56 45 57 95 58 46 59 100 60 94 61 96 62 47 63 99 64 93 65
REMARK SMILES IDX 92 66 48 68 80 69 60 70 79 71 61 72 64 73 78 74 97 75 62 76
REMARK SMILES IDX 63 77 77 79 98 80 65 81 49 82 50 83 58 84 51 85 52 86 56 87
REMARK SMILES IDX 59 88 53 89 54 90 57 91 55 92 81 93 82 94 90 95 83 96 84 97
REMARK SMILES IDX 88 98 91 99 85 100 86 101 89 102 87 103 66 104 67 105 75 106
REMARK SMILES IDX 68 107 69 108 73 109 76 110 70 111 71 112 74 113 72 114
REMARK H PARENT 30 7 15 12 20 37 25 42 37 48 96 67 64 78
REMARK Flexibility Score: inf
ROOT
ATOM      1  C   UNL     1       3.869  -8.906  -8.745  1.00  0.00     0.002 C 
ENDROOT
BRANCH   1   2
ATOM      2  C   UNL     1       3.985  -8.001  -7.527  1.00  0.00     0.021 C 
BRANCH   2   3
ATOM      3  C   UNL     1       2.826  -8.017  -6.537  1.00  0.00     0.116 C 
BRANCH   3   4
ATOM      4  N   UNL     1       3.106  -8.946  -5.459  1.00  0.00    -0.354 N 
ATOM      5  C   UNL     1       3.735  -8.766  -4.263  1.00  0.00     0.242 C 
ATOM      6  O   UNL     1       4.278  -9.765  -3.774  1.00  0.00    -0.273 OA
ATOM      7  H   UNL     1       2.786  -9.864  -5.618  1.00  0.00     0.163 HD
BRANCH   5   8
ATOM      8  C   UNL     1       3.812  -7.413  -3.515  1.00  0.00     0.175 C 
BRANCH   8   9
ATOM      9  N   UNL     1       2.593  -6.599  -3.571  1.00  0.00    -0.344 N 
ATOM     10  C   UNL     1       1.940  -5.952  -2.565  1.00  0.00     0.225 C 
ATOM     11  O   UNL     1       0.900  -5.355  -2.854  1.00  0.00    -0.275 OA
ATOM     12  H   UNL     1       2.189  -6.506  -4.465  1.00  0.00     0.164 HD
BRANCH  10  13
ATOM     13  C   UNL     1       2.479  -5.949  -1.133  1.00  0.00     0.143 C 
BRANCH  13  14
ATOM     14  C   UNL     1       2.386  -7.304  -0.458  1.00  0.00     0.051 A 
ATOM     15  C   UNL     1      -1.906 -12.866   0.442  1.00  0.00     0.048 C 
ATOM     16  C   UNL     1      -0.448 -12.783   0.688  1.00  0.00    -0.005 A 
ATOM     17  C   UNL     1       0.382 -13.823   1.060  1.00  0.00     0.199 A 
ATOM     18  C   UNL     1       0.401 -11.638   0.575  1.00  0.00     0.024 A 
ATOM     19  O   UNL     1       1.664 -13.402   1.194  1.00  0.00    -0.464 OA
ATOM     20  C   UNL     1       1.679 -12.076   0.897  1.00  0.00     0.137 A 
ATOM     21  C   UNL     1       0.227 -10.282   0.219  1.00  0.00     0.024 A 
ATOM     22  C   UNL     1       2.803 -11.263   0.898  1.00  0.00     0.095 A 
ATOM     23  C   UNL     1       1.338  -9.414   0.179  1.00  0.00     0.022 A 
ATOM     24  C   UNL     1       2.587  -9.932   0.523  1.00  0.00     0.142 A 
ATOM     25  C   UNL     1       1.249  -8.012  -0.284  1.00  0.00    -0.029 A 
ATOM     26  O   UNL     1       3.737  -9.125   0.494  1.00  0.00    -0.422 OA
ATOM     27  C   UNL     1      -0.124  -7.468  -0.593  1.00  0.00     0.046 C 
ATOM     28  C   UNL     1       3.705  -7.835  -0.000  1.00  0.00     0.340 A 
ATOM     29  O   UNL     1       4.725  -7.169  -0.078  1.00  0.00    -0.246 OA
ENDBRANCH  13  14
ENDBRANCH  10  13
ENDBRANCH   8   9
BRANCH   8  30
ATOM     30  C   UNL     1       5.119  -6.605  -3.613  1.00  0.00     0.072 C 
BRANCH  30  31
ATOM     31  C   UNL     1       5.683  -6.338  -4.971  1.00  0.00    -0.020 A 
ATOM     32  C   UNL     1       5.297  -5.361  -5.868  1.00  0.00     0.087 A 
ATOM     33  C   UNL     1       6.791  -7.029  -5.568  1.00  0.00     0.006 A 
ATOM     34  N   UNL     1       6.078  -5.475  -6.991  1.00  0.00    -0.361 N 
ATOM     35  C   UNL     1       6.944  -6.537  -6.865  1.00  0.00     0.046 A 
ATOM     36  C   UNL     1       7.645  -8.065  -5.138  1.00  0.00     0.056 A 
ATOM     37  H   UNL     1       6.027  -4.881  -7.774  1.00  0.00     0.166 HD
ATOM     38  C   UNL     1       7.823  -7.111  -7.793  1.00  0.00     0.030 A 
ATOM     39  C   UNL     1       8.565  -8.602  -6.037  1.00  0.00     0.116 A 
ATOM     40  C   UNL     1       8.631  -8.167  -7.355  1.00  0.00     0.048 A 
BRANCH  39  41
ATOM     41  O   UNL     1       9.396  -9.582  -5.574  1.00  0.00    -0.508 OA
ATOM     42  H   UNL     1      10.028  -9.969  -6.146  1.00  0.00     0.293 HD
ENDBRANCH  39  41
ENDBRANCH  30  31
ENDBRANCH   8  30
ENDBRANCH   5   8
ENDBRANCH   3   4
ENDBRANCH   2   3
ENDBRANCH   1   2
BRANCH   1  43
ATOM     43  C   UNL     1       2.873  -8.428  -9.800  1.00  0.00     0.002 C 
BRANCH  43  44
ATOM     44  C   UNL     1       3.054  -6.987 -10.295  1.00  0.00     0.021 C 
BRANCH  44  45
ATOM     45  C   UNL     1       4.452  -6.624 -10.800  1.00  0.00     0.116 C 
BRANCH  45  46
ATOM     46  N   UNL     1       4.957  -7.453 -11.873  1.00  0.00    -0.352 N 
ATOM     47  C   UNL     1       4.756  -7.507 -13.224  1.00  0.00     0.251 C 
ATOM     48  H   UNL     1       5.593  -8.136 -11.557  1.00  0.00     0.163 HD
ATOM     49  O   UNL     1       5.488  -8.269 -13.860  1.00  0.00    -0.269 OA
BRANCH  47  50
ATOM     50  C   UNL     1       3.671  -6.794 -13.948  1.00  0.00     0.039 A 
ATOM     51  C   UNL     1       2.907  -5.746 -13.439  1.00  0.00     0.014 A 
ATOM     52  C   UNL     1       3.376  -7.279 -15.237  1.00  0.00     0.014 A 
ATOM     53  C   UNL     1       1.779  -5.307 -14.123  1.00  0.00     0.010 A 
ATOM     54  C   UNL     1       2.275  -6.815 -15.945  1.00  0.00     0.010 A 
ATOM     55  C   UNL     1       1.440  -5.875 -15.356  1.00  0.00    -0.014 A 
BRANCH  55  56
ATOM     56  C   UNL     1       0.268  -5.354 -16.051  1.00  0.00     0.031 A 
ATOM     57  C   UNL     1       0.335  -3.898 -16.356  1.00  0.00     0.074 A 
ATOM     58  C   UNL     1      -0.759  -6.122 -16.468  1.00  0.00     0.049 A 
ATOM     59  N   UNL     1      -0.450  -2.963 -15.930  1.00  0.00    -0.248 NA
ATOM     60  C   UNL     1       1.491  -3.404 -17.119  1.00  0.00     0.031 C 
ATOM     61  C   UNL     1      -0.869  -7.582 -16.462  1.00  0.00     0.029 A 
ATOM     62  N   UNL     1      -1.922  -5.736 -17.068  1.00  0.00    -0.354 N 
ATOM     63  C   UNL     1       0.013  -1.775 -16.495  1.00  0.00     0.074 A 
ATOM     64  C   UNL     1       1.280  -2.087 -17.102  1.00  0.00     0.031 C 
ATOM     65  C   UNL     1      -1.922  -7.957 -17.226  1.00  0.00     0.029 A 
ATOM     66  C   UNL     1      -2.636  -6.769 -17.662  1.00  0.00     0.049 A 
ATOM     67  H   UNL     1      -2.229  -4.801 -17.079  1.00  0.00     0.167 HD
ATOM     68  C   UNL     1      -0.789  -0.677 -16.579  1.00  0.00     0.037 A 
ATOM     69  C   UNL     1      -3.707  -6.646 -18.488  1.00  0.00     0.037 A 
ATOM     70  C   UNL     1      -1.870  -0.761 -15.630  1.00  0.00     0.049 A 
ATOM     71  C   UNL     1      -4.297  -5.304 -18.248  1.00  0.00     0.074 A 
ATOM     72  C   UNL     1      -1.939  -0.835 -14.251  1.00  0.00     0.029 A 
ATOM     73  N   UNL     1      -3.110  -1.141 -16.081  1.00  0.00    -0.354 N 
ATOM     74  N   UNL     1      -4.904  -4.973 -17.142  1.00  0.00    -0.248 NA
ATOM     75  C   UNL     1      -3.794  -4.195 -19.046  1.00  0.00     0.031 C 
ATOM     76  C   UNL     1      -3.016  -1.729 -13.985  1.00  0.00     0.029 A 
ATOM     77  C   UNL     1      -3.583  -2.086 -15.209  1.00  0.00     0.049 A 
ATOM     78  H   UNL     1      -3.572  -0.798 -16.880  1.00  0.00     0.167 HD
ATOM     79  C   UNL     1      -4.480  -3.678 -16.887  1.00  0.00     0.074 A 
ATOM     80  C   UNL     1      -3.858  -3.224 -18.130  1.00  0.00     0.031 C 
ATOM     81  C   UNL     1      -4.407  -3.198 -15.612  1.00  0.00     0.037 A 
BRANCH  68  82
ATOM     82  C   UNL     1      -0.822   0.279 -17.753  1.00  0.00     0.064 A 
ATOM     83  C   UNL     1      -1.740   1.351 -17.730  1.00  0.00     0.173 A 
ATOM     84  C   UNL     1      -0.242   0.013 -19.012  1.00  0.00     0.173 A 
ATOM     85  F   UNL     1      -2.346   1.713 -16.589  1.00  0.00    -0.203 F 
ATOM     86  C   UNL     1      -2.141   2.011 -18.895  1.00  0.00     0.198 A 
ATOM     87  C   UNL     1      -0.610   0.706 -20.165  1.00  0.00     0.198 A 
ATOM     88  F   UNL     1       0.622  -0.987 -19.209  1.00  0.00    -0.203 F 
ATOM     89  F   UNL     1      -3.125   2.919 -18.839  1.00  0.00    -0.200 F 
ATOM     90  C   UNL     1      -1.588   1.675 -20.115  1.00  0.00     0.200 A 
ATOM     91  F   UNL     1      -0.064   0.361 -21.340  1.00  0.00    -0.200 F 
ATOM     92  F   UNL     1      -2.024   2.249 -21.243  1.00  0.00    -0.200 F 
ENDBRANCH  68  82
BRANCH  69  93
ATOM     93  C   UNL     1      -4.071  -7.476 -19.666  1.00  0.00     0.064 A 
ATOM     94  C   UNL     1      -5.333  -7.369 -20.277  1.00  0.00     0.173 A 
ATOM     95  C   UNL     1      -3.093  -8.189 -20.388  1.00  0.00     0.173 A 
ATOM     96  F   UNL     1      -6.312  -6.667 -19.688  1.00  0.00    -0.203 F 
ATOM     97  C   UNL     1      -5.590  -7.919 -21.540  1.00  0.00     0.198 A 
ATOM     98  C   UNL     1      -3.352  -8.743 -21.643  1.00  0.00     0.198 A 
ATOM     99  F   UNL     1      -1.835  -8.281 -19.935  1.00  0.00    -0.203 F 
ATOM    100  F   UNL     1      -6.788  -7.742 -22.116  1.00  0.00    -0.200 F 
ATOM    101  C   UNL     1      -4.596  -8.597 -22.225  1.00  0.00     0.200 A 
ATOM    102  F   UNL     1      -2.369  -9.364 -22.310  1.00  0.00    -0.200 F 
ATOM    103  F   UNL     1      -4.822  -9.071 -23.459  1.00  0.00    -0.200 F 
ENDBRANCH  69  93
BRANCH  81 104
ATOM    104  C   UNL     1      -5.003  -4.018 -14.503  1.00  0.00     0.064 A 
ATOM    105  C   UNL     1      -4.527  -5.287 -14.130  1.00  0.00     0.173 A 
ATOM    106  C   UNL     1      -5.943  -3.408 -13.662  1.00  0.00     0.173 A 
ATOM    107  F   UNL     1      -3.559  -5.894 -14.825  1.00  0.00    -0.203 F 
ATOM    108  C   UNL     1      -4.988  -5.920 -12.977  1.00  0.00     0.198 A 
ATOM    109  C   UNL     1      -6.373  -4.027 -12.492  1.00  0.00     0.198 A 
ATOM    110  F   UNL     1      -6.391  -2.173 -13.939  1.00  0.00    -0.203 F 
ATOM    111  F   UNL     1      -4.509  -7.126 -12.635  1.00  0.00    -0.200 F 
ATOM    112  C   UNL     1      -5.900  -5.284 -12.152  1.00  0.00     0.200 A 
ATOM    113  F   UNL     1      -7.214  -3.384 -11.670  1.00  0.00    -0.200 F 
ATOM    114  F   UNL     1      -6.294  -5.865 -11.010  1.00  0.00    -0.200 F 
ENDBRANCH  81 104
ENDBRANCH  55  56
ENDBRANCH  47  50
ENDBRANCH  45  46
ENDBRANCH  44  45
ENDBRANCH  43  44
ENDBRANCH   1  43
TORSDOF 19
