REMARK SMILES O=C(C[C@H]1C(=O)N[NH+]=C2c3ccc(F)cc3N=CN21)NCCCCCCNC(=O)c1ccc(-c2c3nc(c(-c4c(F)c(F)c(F)c(F)c4F)c4ccc([nH]4)c(-c4c(F)c(F)c(F)c(F)c4F)c4nc(c(-c5c(F)c(F)c(F)c(F)c5F)c5ccc2[nH]5)C=C4)C=C3)cc1
REMARK SMILES IDX 24 1 23 2 22 3 21 4 20 5 1 6 2 7 3 9 4 10 5 11 19 12 6 13
REMARK SMILES IDX 7 14 9 15 18 16 8 17 10 19 17 20 11 22 16 23 12 24 15 25
REMARK SMILES IDX 13 26 14 27 25 28 26 29 27 30 28 31 29 33 30 34 31 35 92 36
REMARK SMILES IDX 32 37 91 38 33 39 34 40 35 41 85 42 36 43 90 44 84 45 86 46
REMARK SMILES IDX 37 47 89 48 83 49 82 50 38 52 70 53 50 54 69 55 51 56 54 57
REMARK SMILES IDX 68 58 87 59 52 60 53 61 67 63 88 64 55 65 39 66 40 67 48 68
REMARK SMILES IDX 41 69 42 70 46 71 49 72 43 73 44 74 47 75 45 76 71 77 72 78
REMARK SMILES IDX 80 79 73 80 74 81 78 82 81 83 75 84 76 85 79 86 77 87 56 88
REMARK SMILES IDX 57 89 65 90 58 91 59 92 63 93 66 94 60 95 61 96 64 97 62 98
REMARK H PARENT 20 8 7 18 8 21 27 32 86 51 54 62
REMARK Flexibility Score: inf
ROOT
ATOM      1  C   UNL     1      -0.429   1.234   1.514  1.00  0.00     0.002 C 
ENDROOT
BRANCH   1   2
ATOM      2  C   UNL     1      -0.890   1.024   0.070  1.00  0.00     0.002 C 
BRANCH   2   3
ATOM      3  C   UNL     1      -0.395   2.070  -0.943  1.00  0.00     0.021 C 
BRANCH   3   4
ATOM      4  C   UNL     1       1.122   2.115  -1.140  1.00  0.00     0.116 C 
BRANCH   4   5
ATOM      5  N   UNL     1       1.593   0.872  -1.710  1.00  0.00    -0.356 N 
ATOM      6  O   UNL     1       3.399   1.683  -2.862  1.00  0.00    -0.275 OA
ATOM      7  C   UNL     1       2.686   0.746  -2.523  1.00  0.00     0.224 C 
ATOM      8  H   UNL     1       1.088   0.054  -1.497  1.00  0.00     0.163 HD
BRANCH   7   9
ATOM      9  C   UNL     1       2.950  -0.675  -2.988  1.00  0.00     0.160 C 
BRANCH   9  10
ATOM     10  C   UNL     1       3.381  -1.560  -1.804  1.00  0.00     0.284 C 
ATOM     11  C   UNL     1       2.120  -2.204  -1.204  1.00  0.00     0.300 C 
ATOM     12  N   UNL     1       4.372  -2.583  -2.191  1.00  0.00    -0.203 N 
ATOM     13  O   UNL     1       1.049  -1.604  -1.094  1.00  0.00    -0.267 OA
ATOM     14  N   UNL     1       2.220  -3.474  -0.720  1.00  0.00    -0.193 N 
ATOM     15  C   UNL     1       4.183  -3.890  -1.761  1.00  0.00     0.309 C 
ATOM     16  C   UNL     1       5.524  -2.222  -2.859  1.00  0.00     0.317 C 
ATOM     17  N   UNL     1       3.210  -4.334  -1.025  1.00  0.00    -0.169 N 
ATOM     18  H   UNL     1       1.519  -3.784  -0.103  1.00  0.00     0.216 HD
ATOM     19  C   UNL     1       5.180  -4.884  -2.248  1.00  0.00     0.092 A 
ATOM     20  N   UNL     1       6.429  -3.030  -3.310  1.00  0.00    -0.216 NA
ATOM     21  H   UNL     1       3.196  -5.264  -0.702  1.00  0.00     0.340 HD
ATOM     22  C   UNL     1       5.015  -6.253  -2.000  1.00  0.00     0.022 A 
ATOM     23  C   UNL     1       6.210  -4.405  -3.076  1.00  0.00     0.085 A 
ATOM     24  C   UNL     1       5.854  -7.163  -2.634  1.00  0.00     0.040 A 
ATOM     25  C   UNL     1       7.040  -5.333  -3.703  1.00  0.00     0.068 A 
ATOM     26  C   UNL     1       6.844  -6.696  -3.493  1.00  0.00     0.125 A 
ATOM     27  F   UNL     1       7.615  -7.579  -4.141  1.00  0.00    -0.207 F 
ENDBRANCH   9  10
ENDBRANCH   7   9
ENDBRANCH   4   5
ENDBRANCH   3   4
ENDBRANCH   2   3
ENDBRANCH   1   2
BRANCH   1  28
ATOM     28  C   UNL     1      -0.893   2.545   2.145  1.00  0.00     0.021 C 
BRANCH  28  29
ATOM     29  C   UNL     1      -2.403   2.757   2.141  1.00  0.00     0.116 C 
BRANCH  29  30
ATOM     30  N   UNL     1      -3.120   1.782   2.950  1.00  0.00    -0.352 N 
ATOM     31  C   UNL     1      -4.081   1.986   3.916  1.00  0.00     0.251 C 
ATOM     32  H   UNL     1      -2.884   0.841   2.782  1.00  0.00     0.163 HD
ATOM     33  O   UNL     1      -4.489   1.057   4.595  1.00  0.00    -0.269 OA
BRANCH  31  34
ATOM     34  C   UNL     1      -4.586   3.357   4.155  1.00  0.00     0.039 A 
ATOM     35  C   UNL     1      -4.931   4.186   3.086  1.00  0.00     0.014 A 
ATOM     36  C   UNL     1      -4.670   3.831   5.467  1.00  0.00     0.014 A 
ATOM     37  C   UNL     1      -5.176   5.535   3.314  1.00  0.00     0.010 A 
ATOM     38  C   UNL     1      -5.006   5.168   5.700  1.00  0.00     0.010 A 
ATOM     39  C   UNL     1      -5.204   6.045   4.623  1.00  0.00    -0.014 A 
BRANCH  39  40
ATOM     40  C   UNL     1      -5.416   7.501   4.835  1.00  0.00     0.031 A 
ATOM     41  C   UNL     1      -4.332   8.356   5.437  1.00  0.00     0.074 A 
ATOM     42  C   UNL     1      -6.567   8.067   4.425  1.00  0.00     0.049 A 
ATOM     43  N   UNL     1      -4.334   9.644   5.678  1.00  0.00    -0.248 NA
ATOM     44  C   UNL     1      -3.082   7.680   5.820  1.00  0.00     0.031 C 
ATOM     45  C   UNL     1      -7.684   7.349   3.811  1.00  0.00     0.029 A 
ATOM     46  N   UNL     1      -6.979   9.376   4.436  1.00  0.00    -0.354 N 
ATOM     47  C   UNL     1      -3.101   9.927   6.252  1.00  0.00     0.074 A 
ATOM     48  C   UNL     1      -2.386   8.674   6.355  1.00  0.00     0.031 C 
ATOM     49  C   UNL     1      -8.630   8.230   3.456  1.00  0.00     0.029 A 
ATOM     50  C   UNL     1      -8.217   9.566   3.874  1.00  0.00     0.049 A 
ATOM     51  H   UNL     1      -6.438  10.109   4.811  1.00  0.00     0.167 HD
ATOM     52  C   UNL     1      -2.604  11.126   6.640  1.00  0.00     0.037 A 
ATOM     53  C   UNL     1      -8.947  10.687   3.723  1.00  0.00     0.037 A 
ATOM     54  C   UNL     1      -3.307  12.377   6.514  1.00  0.00     0.049 A 
ATOM     55  C   UNL     1      -8.394  11.995   4.213  1.00  0.00     0.074 A 
ATOM     56  C   UNL     1      -2.876  13.646   6.861  1.00  0.00     0.029 A 
ATOM     57  N   UNL     1      -4.587  12.517   5.998  1.00  0.00    -0.354 N 
ATOM     58  N   UNL     1      -7.225  12.249   4.748  1.00  0.00    -0.248 NA
ATOM     59  C   UNL     1      -9.265  13.171   4.088  1.00  0.00     0.031 C 
ATOM     60  C   UNL     1      -3.912  14.547   6.597  1.00  0.00     0.029 A 
ATOM     61  C   UNL     1      -4.970  13.848   6.039  1.00  0.00     0.049 A 
ATOM     62  H   UNL     1      -5.141  11.780   5.653  1.00  0.00     0.167 HD
ATOM     63  C   UNL     1      -7.214  13.611   5.012  1.00  0.00     0.074 A 
ATOM     64  C   UNL     1      -8.485  14.135   4.558  1.00  0.00     0.031 C 
ATOM     65  C   UNL     1      -6.238  14.357   5.584  1.00  0.00     0.037 A 
BRANCH  52  66
ATOM     66  C   UNL     1      -1.230  11.156   7.245  1.00  0.00     0.064 A 
ATOM     67  C   UNL     1      -0.080  10.964   6.465  1.00  0.00     0.173 A 
ATOM     68  C   UNL     1      -1.057  11.455   8.605  1.00  0.00     0.173 A 
ATOM     69  F   UNL     1      -0.190  10.665   5.162  1.00  0.00    -0.203 F 
ATOM     70  C   UNL     1       1.191  11.056   7.027  1.00  0.00     0.198 A 
ATOM     71  C   UNL     1       0.215  11.573   9.158  1.00  0.00     0.198 A 
ATOM     72  F   UNL     1      -2.123  11.655   9.394  1.00  0.00    -0.203 F 
ATOM     73  F   UNL     1       2.275  10.837   6.269  1.00  0.00    -0.200 F 
ATOM     74  C   UNL     1       1.338  11.370   8.370  1.00  0.00     0.200 A 
ATOM     75  F   UNL     1       0.355  11.892  10.453  1.00  0.00    -0.200 F 
ATOM     76  F   UNL     1       2.562  11.475   8.905  1.00  0.00    -0.200 F 
ENDBRANCH  52  66
BRANCH  53  77
ATOM     77  C   UNL     1     -10.280  10.611   3.072  1.00  0.00     0.064 A 
ATOM     78  C   UNL     1     -10.495  11.172   1.806  1.00  0.00     0.173 A 
ATOM     79  C   UNL     1     -11.355   9.951   3.686  1.00  0.00     0.173 A 
ATOM     80  F   UNL     1      -9.503  11.832   1.189  1.00  0.00    -0.203 F 
ATOM     81  C   UNL     1     -11.736  11.079   1.181  1.00  0.00     0.198 A 
ATOM     82  C   UNL     1     -12.586   9.832   3.046  1.00  0.00     0.198 A 
ATOM     83  F   UNL     1     -11.199   9.395   4.896  1.00  0.00    -0.203 F 
ATOM     84  F   UNL     1     -11.924  11.650  -0.017  1.00  0.00    -0.200 F 
ATOM     85  C   UNL     1     -12.777  10.400   1.796  1.00  0.00     0.200 A 
ATOM     86  F   UNL     1     -13.584   9.161   3.638  1.00  0.00    -0.200 F 
ATOM     87  F   UNL     1     -13.966  10.296   1.186  1.00  0.00    -0.200 F 
ENDBRANCH  53  77
BRANCH  65  88
ATOM     88  C   UNL     1      -6.495  15.827   5.746  1.00  0.00     0.064 A 
ATOM     89  C   UNL     1      -7.387  16.310   6.713  1.00  0.00     0.173 A 
ATOM     90  C   UNL     1      -5.790  16.762   4.973  1.00  0.00     0.173 A 
ATOM     91  F   UNL     1      -8.095  15.455   7.466  1.00  0.00    -0.203 F 
ATOM     92  C   UNL     1      -7.575  17.678   6.892  1.00  0.00     0.198 A 
ATOM     93  C   UNL     1      -5.959  18.129   5.174  1.00  0.00     0.198 A 
ATOM     94  F   UNL     1      -4.919  16.350   4.040  1.00  0.00    -0.203 F 
ATOM     95  F   UNL     1      -8.458  18.118   7.799  1.00  0.00    -0.200 F 
ATOM     96  C   UNL     1      -6.854  18.586   6.130  1.00  0.00     0.200 A 
ATOM     97  F   UNL     1      -5.251  19.005   4.448  1.00  0.00    -0.200 F 
ATOM     98  F   UNL     1      -7.024  19.902   6.316  1.00  0.00    -0.200 F 
ENDBRANCH  65  88
ENDBRANCH  39  40
ENDBRANCH  31  34
ENDBRANCH  29  30
ENDBRANCH  28  29
ENDBRANCH   1  28
TORSDOF 14
