REMARK SMILES CCOc1ccc(N2C[C@H](C(=O)NCCCCCCNC(=O)c3ccc(-c4c5nc(c(-c6c(F)c(F)c(F)c(F)c6F)c6ccc([nH]6)c(-c6c(F)c(F)c(F)c(F)c6F)c6nc(c(-c7c(F)c(F)c(F)c(F)c7F)c7ccc4[nH]7)C=C6)C=C5)cc3)CC2=O)cc1C(F)(F)F
REMARK SMILES IDX 16 1 15 2 14 3 13 4 11 5 12 6 10 8 8 9 9 10 87 11 86 12
REMARK SMILES IDX 88 13 7 14 4 15 5 16 90 17 6 18 89 19 3 20 2 21 1 22 91 23
REMARK SMILES IDX 92 24 93 25 94 26 17 27 18 28 19 29 20 30 21 31 22 33 23 34
REMARK SMILES IDX 24 35 85 36 25 37 84 38 26 39 27 40 28 41 78 42 29 43 83 44
REMARK SMILES IDX 77 45 79 46 30 47 82 48 76 49 75 50 31 52 63 53 43 54 62 55
REMARK SMILES IDX 44 56 47 57 61 58 80 59 45 60 46 61 60 63 81 64 48 65 32 66
REMARK SMILES IDX 33 67 41 68 34 69 35 70 39 71 42 72 36 73 37 74 40 75 38 76
REMARK SMILES IDX 64 77 65 78 73 79 66 80 67 81 71 82 74 83 68 84 69 85 72 86
REMARK SMILES IDX 70 87 49 88 50 89 58 90 51 91 52 92 56 93 59 94 53 95 54 96
REMARK SMILES IDX 57 97 55 98
REMARK H PARENT 13 7 20 32 79 51 47 62
REMARK Flexibility Score: inf
ROOT
ATOM      1  C   UNL     1       4.794   7.549  -2.826  1.00  0.00     0.002 C 
ENDROOT
BRANCH   1   2
ATOM      2  C   UNL     1       5.269   6.374  -1.967  1.00  0.00     0.021 C 
BRANCH   2   3
ATOM      3  C   UNL     1       6.324   5.507  -2.654  1.00  0.00     0.116 C 
BRANCH   3   4
ATOM      4  N   UNL     1       7.662   5.975  -2.361  1.00  0.00    -0.356 N 
ATOM      5  C   UNL     1       8.665   5.475  -1.600  1.00  0.00     0.225 C 
ATOM      6  O   UNL     1       9.697   6.152  -1.537  1.00  0.00    -0.275 OA
ATOM      7  H   UNL     1       7.888   6.826  -2.803  1.00  0.00     0.163 HD
BRANCH   5   8
ATOM      8  C   UNL     1       8.618   4.132  -0.885  1.00  0.00     0.107 C 
ATOM      9  N   UNL     1       6.658   2.819  -0.746  1.00  0.00    -0.312 N 
ATOM     10  C   UNL     1       7.390   3.851  -0.043  1.00  0.00     0.139 C 
ATOM     11  C   UNL     1       7.418   2.278  -1.795  1.00  0.00     0.227 C 
ATOM     12  C   UNL     1       8.756   2.957  -1.833  1.00  0.00     0.116 C 
ATOM     13  O   UNL     1       7.090   1.436  -2.622  1.00  0.00    -0.274 OA
BRANCH   9  14
ATOM     14  C   UNL     1       5.288   2.513  -0.507  1.00  0.00     0.044 A 
ATOM     15  C   UNL     1       2.510   2.025  -0.370  1.00  0.00     0.131 A 
ATOM     16  C   UNL     1       3.054   3.183   0.190  1.00  0.00     0.049 A 
ATOM     17  C   UNL     1       3.339   1.082  -0.974  1.00  0.00     0.100 A 
ATOM     18  C   UNL     1       4.436   3.409   0.149  1.00  0.00     0.030 A 
ATOM     19  C   UNL     1       4.724   1.335  -1.013  1.00  0.00     0.043 A 
BRANCH  15  20
ATOM     20  O   UNL     1       1.154   1.896  -0.460  1.00  0.00    -0.493 OA
BRANCH  20  21
ATOM     21  C   UNL     1       0.516   1.591   0.785  1.00  0.00     0.226 C 
ATOM     22  C   UNL     1       0.285   0.095   0.892  1.00  0.00     0.049 C 
ENDBRANCH  20  21
ENDBRANCH  15  20
BRANCH  17  23
ATOM     23  C   UNL     1       2.826  -0.215  -1.545  1.00  0.00     0.420 C 
ATOM     24  F   UNL     1       3.593  -0.682  -2.572  1.00  0.00    -0.166 F 
ATOM     25  F   UNL     1       2.829  -1.212  -0.613  1.00  0.00    -0.166 F 
ATOM     26  F   UNL     1       1.560  -0.167  -2.039  1.00  0.00    -0.166 F 
ENDBRANCH  17  23
ENDBRANCH   9  14
ENDBRANCH   5   8
ENDBRANCH   3   4
ENDBRANCH   2   3
ENDBRANCH   1   2
BRANCH   1  27
ATOM     27  C   UNL     1       4.147   7.147  -4.159  1.00  0.00     0.002 C 
BRANCH  27  28
ATOM     28  C   UNL     1       3.018   6.117  -4.052  1.00  0.00     0.021 C 
BRANCH  28  29
ATOM     29  C   UNL     1       1.860   6.539  -3.153  1.00  0.00     0.116 C 
BRANCH  29  30
ATOM     30  N   UNL     1       1.251   7.779  -3.608  1.00  0.00    -0.352 N 
ATOM     31  C   UNL     1      -0.027   8.020  -4.041  1.00  0.00     0.251 C 
ATOM     32  H   UNL     1       1.846   8.563  -3.604  1.00  0.00     0.163 HD
ATOM     33  O   UNL     1      -0.293   9.067  -4.622  1.00  0.00    -0.269 OA
BRANCH  31  34
ATOM     34  C   UNL     1      -1.087   7.018  -3.809  1.00  0.00     0.039 A 
ATOM     35  C   UNL     1      -2.000   6.751  -4.832  1.00  0.00     0.014 A 
ATOM     36  C   UNL     1      -1.201   6.369  -2.576  1.00  0.00     0.014 A 
ATOM     37  C   UNL     1      -2.999   5.796  -4.634  1.00  0.00     0.010 A 
ATOM     38  C   UNL     1      -2.149   5.365  -2.407  1.00  0.00     0.010 A 
ATOM     39  C   UNL     1      -3.063   5.075  -3.430  1.00  0.00    -0.014 A 
BRANCH  39  40
ATOM     40  C   UNL     1      -4.087   4.020  -3.222  1.00  0.00     0.031 A 
ATOM     41  C   UNL     1      -5.133   4.184  -2.154  1.00  0.00     0.074 A 
ATOM     42  C   UNL     1      -4.043   2.896  -3.962  1.00  0.00     0.049 A 
ATOM     43  N   UNL     1      -6.067   3.349  -1.774  1.00  0.00    -0.248 NA
ATOM     44  C   UNL     1      -5.114   5.446  -1.397  1.00  0.00     0.031 C 
ATOM     45  C   UNL     1      -3.056   2.607  -5.003  1.00  0.00     0.029 A 
ATOM     46  N   UNL     1      -4.845   1.781  -3.946  1.00  0.00    -0.354 N 
ATOM     47  C   UNL     1      -6.741   3.982  -0.737  1.00  0.00     0.074 A 
ATOM     48  C   UNL     1      -6.071   5.243  -0.504  1.00  0.00     0.031 C 
ATOM     49  C   UNL     1      -3.325   1.407  -5.543  1.00  0.00     0.029 A 
ATOM     50  C   UNL     1      -4.472   0.823  -4.856  1.00  0.00     0.049 A 
ATOM     51  H   UNL     1      -5.614   1.679  -3.340  1.00  0.00     0.167 HD
ATOM     52  C   UNL     1      -7.836   3.561  -0.061  1.00  0.00     0.037 A 
ATOM     53  C   UNL     1      -4.991  -0.396  -5.099  1.00  0.00     0.037 A 
ATOM     54  C   UNL     1      -8.506   2.310  -0.305  1.00  0.00     0.049 A 
ATOM     55  C   UNL     1      -6.181  -0.856  -4.298  1.00  0.00     0.074 A 
ATOM     56  C   UNL     1      -9.640   1.805   0.306  1.00  0.00     0.029 A 
ATOM     57  N   UNL     1      -8.100   1.365  -1.236  1.00  0.00    -0.354 N 
ATOM     58  N   UNL     1      -6.845  -0.225  -3.360  1.00  0.00    -0.248 NA
ATOM     59  C   UNL     1      -6.697  -2.199  -4.595  1.00  0.00     0.031 C 
ATOM     60  C   UNL     1      -9.891   0.533  -0.218  1.00  0.00     0.029 A 
ATOM     61  C   UNL     1      -8.950   0.271  -1.200  1.00  0.00     0.049 A 
ATOM     62  H   UNL     1      -7.323   1.458  -1.834  1.00  0.00     0.167 HD
ATOM     63  C   UNL     1      -7.877  -1.075  -2.985  1.00  0.00     0.074 A 
ATOM     64  C   UNL     1      -7.761  -2.260  -3.808  1.00  0.00     0.031 C 
ATOM     65  C   UNL     1      -8.834  -0.892  -2.042  1.00  0.00     0.037 A 
BRANCH  52  66
ATOM     66  C   UNL     1      -8.389   4.465   1.004  1.00  0.00     0.064 A 
ATOM     67  C   UNL     1      -9.012   5.681   0.684  1.00  0.00     0.173 A 
ATOM     68  C   UNL     1      -8.343   4.089   2.355  1.00  0.00     0.173 A 
ATOM     69  F   UNL     1      -9.073   6.093  -0.592  1.00  0.00    -0.203 F 
ATOM     70  C   UNL     1      -9.546   6.497   1.677  1.00  0.00     0.198 A 
ATOM     71  C   UNL     1      -8.907   4.892   3.343  1.00  0.00     0.198 A 
ATOM     72  F   UNL     1      -7.763   2.935   2.718  1.00  0.00    -0.203 F 
ATOM     73  F   UNL     1     -10.094   7.676   1.351  1.00  0.00    -0.200 F 
ATOM     74  C   UNL     1      -9.502   6.098   3.004  1.00  0.00     0.200 A 
ATOM     75  F   UNL     1      -8.877   4.498   4.623  1.00  0.00    -0.200 F 
ATOM     76  F   UNL     1     -10.027   6.879   3.958  1.00  0.00    -0.200 F 
ENDBRANCH  52  66
BRANCH  53  77
ATOM     77  C   UNL     1      -4.405  -1.269  -6.152  1.00  0.00     0.064 A 
ATOM     78  C   UNL     1      -5.136  -1.600  -7.302  1.00  0.00     0.173 A 
ATOM     79  C   UNL     1      -3.123  -1.822  -6.015  1.00  0.00     0.173 A 
ATOM     80  F   UNL     1      -6.375  -1.113  -7.470  1.00  0.00    -0.203 F 
ATOM     81  C   UNL     1      -4.625  -2.478  -8.254  1.00  0.00     0.198 A 
ATOM     82  C   UNL     1      -2.598  -2.672  -6.986  1.00  0.00     0.198 A 
ATOM     83  F   UNL     1      -2.379  -1.536  -4.937  1.00  0.00    -0.203 F 
ATOM     84  F   UNL     1      -5.374  -2.830  -9.308  1.00  0.00    -0.200 F 
ATOM     85  C   UNL     1      -3.354  -3.011  -8.098  1.00  0.00     0.200 A 
ATOM     86  F   UNL     1      -1.364  -3.174  -6.838  1.00  0.00    -0.200 F 
ATOM     87  F   UNL     1      -2.865  -3.861  -9.010  1.00  0.00    -0.200 F 
ENDBRANCH  53  77
BRANCH  65  88
ATOM     88  C   UNL     1      -9.866  -1.973  -1.888  1.00  0.00     0.064 A 
ATOM     89  C   UNL     1      -9.551  -3.227  -1.346  1.00  0.00     0.173 A 
ATOM     90  C   UNL     1     -11.200  -1.733  -2.256  1.00  0.00     0.173 A 
ATOM     91  F   UNL     1      -8.289  -3.512  -0.991  1.00  0.00    -0.203 F 
ATOM     92  C   UNL     1     -10.526  -4.213  -1.208  1.00  0.00     0.198 A 
ATOM     93  C   UNL     1     -12.178  -2.708  -2.083  1.00  0.00     0.198 A 
ATOM     94  F   UNL     1     -11.557  -0.547  -2.772  1.00  0.00    -0.203 F 
ATOM     95  F   UNL     1     -10.190  -5.422  -0.739  1.00  0.00    -0.200 F 
ATOM     96  C   UNL     1     -11.839  -3.949  -1.568  1.00  0.00     0.200 A 
ATOM     97  F   UNL     1     -13.450  -2.445  -2.414  1.00  0.00    -0.200 F 
ATOM     98  F   UNL     1     -12.777  -4.896  -1.425  1.00  0.00    -0.200 F 
ENDBRANCH  65  88
ENDBRANCH  39  40
ENDBRANCH  31  34
ENDBRANCH  29  30
ENDBRANCH  28  29
ENDBRANCH  27  28
ENDBRANCH   1  27
TORSDOF 17
