REMARK SMILES COCc1cccc(C(=O)N2C[C@@H](O)C[C@@H]2C(=O)NCCCCCCNC(=O)c2ccc(-c3c4nc(c(-c5c(F)c(F)c(F)c(F)c5F)c5ccc([nH]5)c(-c5c(F)c(F)c(F)c(F)c5F)c5nc(c(-c6c(F)c(F)c(F)c(F)c6F)c6ccc3[nH]6)C=C5)C=C4)cc2)c1
REMARK SMILES IDX 21 1 20 2 19 3 17 4 18 5 16 7 11 8 12 9 13 10 15 11 9 12
REMARK SMILES IDX 10 13 8 14 4 15 5 16 92 17 6 18 7 19 3 20 2 21 1 22 14 23
REMARK SMILES IDX 22 25 23 26 24 27 25 28 26 29 27 30 28 32 29 33 30 34 91 35
REMARK SMILES IDX 31 36 90 37 32 38 33 39 34 40 84 41 35 42 89 43 83 44 85 45
REMARK SMILES IDX 36 46 88 47 82 48 81 49 37 51 69 52 49 53 68 54 50 55 53 56
REMARK SMILES IDX 67 57 86 58 51 59 52 60 66 62 87 63 54 64 38 65 39 66 47 67
REMARK SMILES IDX 40 68 41 69 45 70 48 71 42 72 43 73 46 74 44 75 70 76 71 77
REMARK SMILES IDX 79 78 72 79 73 80 77 81 80 82 74 83 75 84 78 85 76 86 55 87
REMARK SMILES IDX 56 88 64 89 57 90 58 91 62 92 65 93 59 94 60 95 63 96 61 97
REMARK H PARENT 19 6 14 24 26 31 85 50 53 61
REMARK Flexibility Score: inf
ROOT
ATOM      1  C   UNL     1      -0.384   1.238  -5.287  1.00  0.00     0.021 C 
ENDROOT
BRANCH   1   2
ATOM      2  C   UNL     1      -1.617   2.133  -5.422  1.00  0.00     0.116 C 
BRANCH   2   3
ATOM      3  N   UNL     1      -2.728   1.440  -6.028  1.00  0.00    -0.354 N 
ATOM      4  C   UNL     1      -3.962   1.087  -5.594  1.00  0.00     0.242 C 
ATOM      5  O   UNL     1      -4.717   0.701  -6.501  1.00  0.00    -0.273 OA
ATOM      6  H   UNL     1      -2.552   1.165  -6.957  1.00  0.00     0.163 HD
BRANCH   4   7
ATOM      7  C   UNL     1      -4.535   1.266  -4.152  1.00  0.00     0.177 C 
ATOM      8  N   UNL     1      -3.685   1.301  -2.944  1.00  0.00    -0.324 N 
ATOM      9  C   UNL     1      -4.131   0.293  -1.989  1.00  0.00     0.152 C 
ATOM     10  C   UNL     1      -4.748  -0.776  -2.868  1.00  0.00     0.136 C 
ATOM     11  C   UNL     1      -5.499   0.078  -3.884  1.00  0.00     0.069 C 
BRANCH   8  12
ATOM     12  C   UNL     1      -3.110   2.475  -2.484  1.00  0.00     0.254 C 
ATOM     13  O   UNL     1      -3.569   3.581  -2.750  1.00  0.00    -0.269 OA
BRANCH  12  14
ATOM     14  C   UNL     1      -1.754   2.366  -1.841  1.00  0.00     0.040 A 
ATOM     15  C   UNL     1       0.316   1.119  -1.458  1.00  0.00    -0.022 A 
ATOM     16  C   UNL     1       0.948   2.303  -1.067  1.00  0.00     0.006 A 
ATOM     17  C   UNL     1      -1.033   1.163  -1.838  1.00  0.00     0.020 A 
ATOM     18  C   UNL     1       0.244   3.508  -1.066  1.00  0.00     0.001 A 
ATOM     19  C   UNL     1      -1.099   3.541  -1.450  1.00  0.00     0.014 A 
BRANCH  15  20
ATOM     20  C   UNL     1       1.053  -0.195  -1.508  1.00  0.00     0.195 C 
BRANCH  20  21
ATOM     21  O   UNL     1       0.641  -1.066  -0.459  1.00  0.00    -0.380 OA
ATOM     22  C   UNL     1       1.159  -0.685   0.810  1.00  0.00     0.195 C 
ENDBRANCH  20  21
ENDBRANCH  15  20
ENDBRANCH  12  14
ENDBRANCH   8  12
BRANCH  10  23
ATOM     23  O   UNL     1      -5.596  -1.660  -2.162  1.00  0.00    -0.391 OA
ATOM     24  H   UNL     1      -6.297  -1.154  -1.722  1.00  0.00     0.211 HD
ENDBRANCH  10  23
ENDBRANCH   4   7
ENDBRANCH   2   3
ENDBRANCH   1   2
BRANCH   1  25
ATOM     25  C   UNL     1       0.706   1.486  -6.335  1.00  0.00     0.002 C 
BRANCH  25  26
ATOM     26  C   UNL     1       1.284   2.907  -6.376  1.00  0.00     0.002 C 
BRANCH  26  27
ATOM     27  C   UNL     1       1.716   3.514  -5.035  1.00  0.00     0.021 C 
BRANCH  27  28
ATOM     28  C   UNL     1       2.780   2.741  -4.256  1.00  0.00     0.116 C 
BRANCH  28  29
ATOM     29  N   UNL     1       4.021   2.601  -4.992  1.00  0.00    -0.352 N 
ATOM     30  C   UNL     1       5.318   2.862  -4.633  1.00  0.00     0.251 C 
ATOM     31  H   UNL     1       3.914   2.260  -5.909  1.00  0.00     0.163 HD
ATOM     32  O   UNL     1       6.195   2.798  -5.492  1.00  0.00    -0.269 OA
BRANCH  30  33
ATOM     33  C   UNL     1       5.699   3.229  -3.246  1.00  0.00     0.039 A 
ATOM     34  C   UNL     1       6.722   4.170  -3.081  1.00  0.00     0.014 A 
ATOM     35  C   UNL     1       5.157   2.604  -2.118  1.00  0.00     0.014 A 
ATOM     36  C   UNL     1       7.183   4.499  -1.804  1.00  0.00     0.010 A 
ATOM     37  C   UNL     1       5.582   2.973  -0.834  1.00  0.00     0.010 A 
ATOM     38  C   UNL     1       6.610   3.914  -0.664  1.00  0.00    -0.014 A 
BRANCH  38  39
ATOM     39  C   UNL     1       7.101   4.294   0.689  1.00  0.00     0.031 A 
ATOM     40  C   UNL     1       7.858   3.317   1.546  1.00  0.00     0.074 A 
ATOM     41  C   UNL     1       6.869   5.537   1.153  1.00  0.00     0.049 A 
ATOM     42  N   UNL     1       8.425   3.505   2.713  1.00  0.00    -0.248 NA
ATOM     43  C   UNL     1       7.979   1.943   1.038  1.00  0.00     0.031 C 
ATOM     44  C   UNL     1       6.101   6.567   0.454  1.00  0.00     0.029 A 
ATOM     45  N   UNL     1       7.259   6.147   2.321  1.00  0.00    -0.354 N 
ATOM     46  C   UNL     1       8.962   2.278   3.080  1.00  0.00     0.074 A 
ATOM     47  C   UNL     1       8.612   1.339   2.035  1.00  0.00     0.031 C 
ATOM     48  C   UNL     1       6.096   7.688   1.192  1.00  0.00     0.029 A 
ATOM     49  C   UNL     1       6.846   7.453   2.424  1.00  0.00     0.049 A 
ATOM     50  H   UNL     1       7.785   5.692   3.017  1.00  0.00     0.167 HD
ATOM     51  C   UNL     1       9.697   1.967   4.176  1.00  0.00     0.037 A 
ATOM     52  C   UNL     1       7.056   8.365   3.393  1.00  0.00     0.037 A 
ATOM     53  C   UNL     1      10.070   2.904   5.205  1.00  0.00     0.049 A 
ATOM     54  C   UNL     1       7.905   8.006   4.581  1.00  0.00     0.074 A 
ATOM     55  C   UNL     1      10.881   2.696   6.309  1.00  0.00     0.029 A 
ATOM     56  N   UNL     1       9.652   4.225   5.263  1.00  0.00    -0.354 N 
ATOM     57  N   UNL     1       8.491   6.870   4.866  1.00  0.00    -0.248 NA
ATOM     58  C   UNL     1       8.139   9.066   5.573  1.00  0.00     0.031 C 
ATOM     59  C   UNL     1      10.914   3.877   7.059  1.00  0.00     0.029 A 
ATOM     60  C   UNL     1      10.166   4.836   6.396  1.00  0.00     0.049 A 
ATOM     61  H   UNL     1       9.075   4.664   4.596  1.00  0.00     0.167 HD
ATOM     62  C   UNL     1       9.181   7.082   6.052  1.00  0.00     0.074 A 
ATOM     63  C   UNL     1       8.954   8.462   6.426  1.00  0.00     0.031 C 
ATOM     64  C   UNL     1       9.936   6.210   6.764  1.00  0.00     0.037 A 
BRANCH  51  65
ATOM     65  C   UNL     1      10.153   0.543   4.325  1.00  0.00     0.064 A 
ATOM     66  C   UNL     1      11.145  -0.004   3.497  1.00  0.00     0.173 A 
ATOM     67  C   UNL     1       9.623  -0.270   5.338  1.00  0.00     0.173 A 
ATOM     68  F   UNL     1      11.678   0.730   2.509  1.00  0.00    -0.203 F 
ATOM     69  C   UNL     1      11.567  -1.321   3.659  1.00  0.00     0.198 A 
ATOM     70  C   UNL     1      10.069  -1.578   5.516  1.00  0.00     0.198 A 
ATOM     71  F   UNL     1       8.679   0.205   6.164  1.00  0.00    -0.203 F 
ATOM     72  F   UNL     1      12.482  -1.836   2.825  1.00  0.00    -0.200 F 
ATOM     73  C   UNL     1      11.034  -2.104   4.671  1.00  0.00     0.200 A 
ATOM     74  F   UNL     1       9.562  -2.329   6.503  1.00  0.00    -0.200 F 
ATOM     75  F   UNL     1      11.446  -3.370   4.828  1.00  0.00    -0.200 F 
ENDBRANCH  51  65
BRANCH  52  76
ATOM     76  C   UNL     1       6.478   9.726   3.253  1.00  0.00     0.064 A 
ATOM     77  C   UNL     1       7.292  10.833   2.983  1.00  0.00     0.173 A 
ATOM     78  C   UNL     1       5.097   9.942   3.374  1.00  0.00     0.173 A 
ATOM     79  F   UNL     1       8.620  10.678   2.880  1.00  0.00    -0.203 F 
ATOM     80  C   UNL     1       6.750  12.110   2.852  1.00  0.00     0.198 A 
ATOM     81  C   UNL     1       4.553  11.214   3.216  1.00  0.00     0.198 A 
ATOM     82  F   UNL     1       4.276   8.912   3.626  1.00  0.00    -0.203 F 
ATOM     83  F   UNL     1       7.554  13.158   2.630  1.00  0.00    -0.200 F 
ATOM     84  C   UNL     1       5.380  12.298   2.962  1.00  0.00     0.200 A 
ATOM     85  F   UNL     1       3.228  11.389   3.309  1.00  0.00    -0.200 F 
ATOM     86  F   UNL     1       4.857  13.524   2.826  1.00  0.00    -0.200 F 
ENDBRANCH  52  76
BRANCH  64  87
ATOM     87  C   UNL     1      10.595   6.727   8.011  1.00  0.00     0.064 A 
ATOM     88  C   UNL     1       9.857   7.021   9.167  1.00  0.00     0.173 A 
ATOM     89  C   UNL     1      11.987   6.903   8.059  1.00  0.00     0.173 A 
ATOM     90  F   UNL     1       8.523   6.883   9.169  1.00  0.00    -0.203 F 
ATOM     91  C   UNL     1      10.485   7.498  10.316  1.00  0.00     0.198 A 
ATOM     92  C   UNL     1      12.614   7.353   9.217  1.00  0.00     0.198 A 
ATOM     93  F   UNL     1      12.740   6.630   6.983  1.00  0.00    -0.203 F 
ATOM     94  F   UNL     1       9.753   7.818  11.392  1.00  0.00    -0.200 F 
ATOM     95  C   UNL     1      11.862   7.658  10.342  1.00  0.00     0.200 A 
ATOM     96  F   UNL     1      13.946   7.496   9.245  1.00  0.00    -0.200 F 
ATOM     97  F   UNL     1      12.464   8.114  11.449  1.00  0.00    -0.200 F 
ENDBRANCH  64  87
ENDBRANCH  38  39
ENDBRANCH  30  33
ENDBRANCH  28  29
ENDBRANCH  27  28
ENDBRANCH  26  27
ENDBRANCH  25  26
ENDBRANCH   1  25
TORSDOF 18
