REMARK SMILES COc1ccc(/C(=C/C(=O)NCCCCCCNC(=O)c2ccc(-c3c4nc(c(-c5c(F)c(F)c(F)c(F)c5F)c5ccc([nH]5)c(-c5c(F)c(F)c(F)c(F)c5F)c5nc(c(-c6c(F)c(F)c(F)c(F)c6F)c6ccc3[nH]6)C=C5)C=C4)cc2)C(C)C)cc1C
REMARK SMILES IDX 14 1 13 2 12 3 11 4 9 5 10 6 8 8 7 9 6 10 3 11 4 12 88 13
REMARK SMILES IDX 5 14 87 15 89 16 2 17 1 18 84 19 85 20 86 21 15 22 16 23
REMARK SMILES IDX 17 24 18 25 19 26 20 28 21 29 22 30 83 31 23 32 82 33 24 34
REMARK SMILES IDX 25 35 26 36 76 37 27 38 81 39 75 40 77 41 28 42 80 43 74 44
REMARK SMILES IDX 73 45 29 47 61 48 41 49 60 50 42 51 45 52 59 53 78 54 43 55
REMARK SMILES IDX 44 56 58 58 79 59 46 60 30 61 31 62 39 63 32 64 33 65 37 66
REMARK SMILES IDX 40 67 34 68 35 69 38 70 36 71 62 72 63 73 71 74 64 75 65 76
REMARK SMILES IDX 69 77 72 78 66 79 67 80 70 81 68 82 47 83 48 84 56 85 49 86
REMARK SMILES IDX 50 87 54 88 57 89 51 90 52 91 55 92 53 93
REMARK H PARENT 11 7 18 27 77 46 45 57
REMARK Flexibility Score: inf
ROOT
ATOM      1  C   UNL     1       6.100   5.976   8.619  1.00  0.00     0.002 C 
ENDROOT
BRANCH   1   2
ATOM      2  C   UNL     1       4.997   5.677   7.592  1.00  0.00     0.021 C 
BRANCH   2   3
ATOM      3  C   UNL     1       3.764   4.914   8.114  1.00  0.00     0.116 C 
BRANCH   3   4
ATOM      4  N   UNL     1       2.512   5.548   7.718  1.00  0.00    -0.353 N 
ATOM      5  C   UNL     1       1.504   5.356   6.845  1.00  0.00     0.244 C 
ATOM      6  O   UNL     1       0.523   6.094   7.025  1.00  0.00    -0.270 OA
ATOM      7  H   UNL     1       2.356   6.362   8.248  1.00  0.00     0.163 HD
BRANCH   5   8
ATOM      8  C   UNL     1       1.366   4.384   5.710  1.00  0.00     0.075 C 
ATOM      9  C   UNL     1       2.155   3.719   4.829  1.00  0.00    -0.033 C 
BRANCH   9  10
ATOM     10  C   UNL     1       1.536   2.989   3.644  1.00  0.00    -0.021 A 
ATOM     11  C   UNL     1       0.440   1.670   1.330  1.00  0.00     0.121 A 
ATOM     12  C   UNL     1       1.752   1.452   1.726  1.00  0.00     0.047 A 
ATOM     13  C   UNL     1      -0.340   2.567   2.067  1.00  0.00    -0.008 A 
ATOM     14  C   UNL     1       2.274   2.088   2.862  1.00  0.00     0.012 A 
ATOM     15  C   UNL     1       0.216   3.216   3.201  1.00  0.00     0.015 A 
ATOM     16  C   UNL     1      -1.774   2.854   1.708  1.00  0.00     0.048 C 
BRANCH  11  17
ATOM     17  O   UNL     1      -0.135   1.086   0.235  1.00  0.00    -0.496 OA
ATOM     18  C   UNL     1       0.492  -0.092  -0.261  1.00  0.00     0.278 C 
ENDBRANCH  11  17
ENDBRANCH   9  10
BRANCH   9  19
ATOM     19  C   UNL     1       3.663   3.709   4.984  1.00  0.00     0.014 C 
ATOM     20  C   UNL     1       4.188   2.387   5.564  1.00  0.00     0.012 C 
ATOM     21  C   UNL     1       4.501   4.243   3.819  1.00  0.00     0.012 C 
ENDBRANCH   9  19
ENDBRANCH   5   8
ENDBRANCH   3   4
ENDBRANCH   2   3
ENDBRANCH   1   2
BRANCH   1  22
ATOM     22  C   UNL     1       6.596   4.803   9.478  1.00  0.00     0.002 C 
BRANCH  22  23
ATOM     23  C   UNL     1       7.042   3.554   8.717  1.00  0.00     0.021 C 
BRANCH  23  24
ATOM     24  C   UNL     1       8.398   3.690   8.037  1.00  0.00     0.116 C 
BRANCH  24  25
ATOM     25  N   UNL     1       9.530   3.280   8.864  1.00  0.00    -0.352 N 
ATOM     26  C   UNL     1      10.886   3.416   8.607  1.00  0.00     0.251 C 
ATOM     27  H   UNL     1       9.299   2.849   9.719  1.00  0.00     0.163 HD
ATOM     28  O   UNL     1      11.724   2.999   9.386  1.00  0.00    -0.269 OA
BRANCH  26  29
ATOM     29  C   UNL     1      11.293   4.189   7.411  1.00  0.00     0.039 A 
ATOM     30  C   UNL     1      12.116   5.303   7.600  1.00  0.00     0.014 A 
ATOM     31  C   UNL     1      10.666   3.966   6.188  1.00  0.00     0.014 A 
ATOM     32  C   UNL     1      12.103   6.323   6.652  1.00  0.00     0.010 A 
ATOM     33  C   UNL     1      10.583   5.011   5.287  1.00  0.00     0.010 A 
ATOM     34  C   UNL     1      11.245   6.214   5.555  1.00  0.00    -0.014 A 
BRANCH  34  35
ATOM     35  C   UNL     1      10.916   7.346   4.698  1.00  0.00     0.031 A 
ATOM     36  C   UNL     1      11.566   7.496   3.382  1.00  0.00     0.074 A 
ATOM     37  C   UNL     1      10.008   8.266   5.094  1.00  0.00     0.049 A 
ATOM     38  N   UNL     1      11.848   8.638   2.848  1.00  0.00    -0.248 NA
ATOM     39  C   UNL     1      11.976   6.354   2.572  1.00  0.00     0.031 C 
ATOM     40  C   UNL     1       9.433   9.335   4.281  1.00  0.00     0.029 A 
ATOM     41  N   UNL     1       9.548   8.529   6.394  1.00  0.00    -0.354 N 
ATOM     42  C   UNL     1      12.227   8.398   1.551  1.00  0.00     0.074 A 
ATOM     43  C   UNL     1      12.355   6.961   1.443  1.00  0.00     0.031 C 
ATOM     44  C   UNL     1       8.952  10.288   5.094  1.00  0.00     0.029 A 
ATOM     45  C   UNL     1       9.305   9.922   6.452  1.00  0.00     0.049 A 
ATOM     46  H   UNL     1       9.420   7.875   7.119  1.00  0.00     0.167 HD
ATOM     47  C   UNL     1      12.264   9.416   0.647  1.00  0.00     0.037 A 
ATOM     48  C   UNL     1       9.951  10.727   7.345  1.00  0.00     0.037 A 
ATOM     49  C   UNL     1      11.872  10.690   1.234  1.00  0.00     0.049 A 
ATOM     50  C   UNL     1      10.799  11.797   6.703  1.00  0.00     0.074 A 
ATOM     51  C   UNL     1      10.658  11.355   1.279  1.00  0.00     0.029 A 
ATOM     52  N   UNL     1      12.686  11.295   2.188  1.00  0.00    -0.354 N 
ATOM     53  N   UNL     1      11.111  11.808   5.438  1.00  0.00    -0.248 NA
ATOM     54  C   UNL     1      11.420  12.894   7.443  1.00  0.00     0.031 C 
ATOM     55  C   UNL     1      10.720  12.320   2.311  1.00  0.00     0.029 A 
ATOM     56  C   UNL     1      11.979  12.261   2.882  1.00  0.00     0.049 A 
ATOM     57  H   UNL     1      13.630  11.067   2.347  1.00  0.00     0.167 HD
ATOM     58  C   UNL     1      12.000  12.821   5.201  1.00  0.00     0.074 A 
ATOM     59  C   UNL     1      12.135  13.496   6.477  1.00  0.00     0.031 C 
ATOM     60  C   UNL     1      12.580  13.001   3.979  1.00  0.00     0.037 A 
BRANCH  47  61
ATOM     61  C   UNL     1      12.350   9.134  -0.827  1.00  0.00     0.064 A 
ATOM     62  C   UNL     1      11.496   9.767  -1.751  1.00  0.00     0.173 A 
ATOM     63  C   UNL     1      13.225   8.174  -1.367  1.00  0.00     0.173 A 
ATOM     64  F   UNL     1      10.659  10.742  -1.377  1.00  0.00    -0.203 F 
ATOM     65  C   UNL     1      11.450   9.393  -3.096  1.00  0.00     0.198 A 
ATOM     66  C   UNL     1      13.144   7.765  -2.701  1.00  0.00     0.198 A 
ATOM     67  F   UNL     1      14.168   7.602  -0.602  1.00  0.00    -0.203 F 
ATOM     68  F   UNL     1      10.603  10.014  -3.930  1.00  0.00    -0.200 F 
ATOM     69  C   UNL     1      12.248   8.367  -3.563  1.00  0.00     0.200 A 
ATOM     70  F   UNL     1      13.922   6.765  -3.140  1.00  0.00    -0.200 F 
ATOM     71  F   UNL     1      12.155   7.965  -4.837  1.00  0.00    -0.200 F 
ENDBRANCH  47  61
BRANCH  48  72
ATOM     72  C   UNL     1      10.277  10.020   8.610  1.00  0.00     0.064 A 
ATOM     73  C   UNL     1       9.198   9.554   9.386  1.00  0.00     0.173 A 
ATOM     74  C   UNL     1      11.527   9.420   8.800  1.00  0.00     0.173 A 
ATOM     75  F   UNL     1       7.985  10.115   9.251  1.00  0.00    -0.203 F 
ATOM     76  C   UNL     1       9.322   8.417  10.177  1.00  0.00     0.198 A 
ATOM     77  C   UNL     1      11.653   8.298   9.619  1.00  0.00     0.198 A 
ATOM     78  F   UNL     1      12.591   9.831   8.097  1.00  0.00    -0.203 F 
ATOM     79  F   UNL     1       8.239   7.898  10.774  1.00  0.00    -0.200 F 
ATOM     80  C   UNL     1      10.541   7.766  10.260  1.00  0.00     0.200 A 
ATOM     81  F   UNL     1      12.834   7.670   9.708  1.00  0.00    -0.200 F 
ATOM     82  F   UNL     1      10.634   6.603  10.919  1.00  0.00    -0.200 F 
ENDBRANCH  48  72
BRANCH  60  83
ATOM     83  C   UNL     1      13.691  13.970   3.702  1.00  0.00     0.064 A 
ATOM     84  C   UNL     1      14.723  14.243   4.615  1.00  0.00     0.173 A 
ATOM     85  C   UNL     1      13.809  14.576   2.433  1.00  0.00     0.173 A 
ATOM     86  F   UNL     1      14.773  13.630   5.806  1.00  0.00    -0.203 F 
ATOM     87  C   UNL     1      15.759  15.127   4.308  1.00  0.00     0.198 A 
ATOM     88  C   UNL     1      14.871  15.419   2.112  1.00  0.00     0.198 A 
ATOM     89  F   UNL     1      12.903  14.353   1.469  1.00  0.00    -0.203 F 
ATOM     90  F   UNL     1      16.695  15.397   5.229  1.00  0.00    -0.200 F 
ATOM     91  C   UNL     1      15.835  15.710   3.057  1.00  0.00     0.200 A 
ATOM     92  F   UNL     1      14.961  15.939   0.879  1.00  0.00    -0.200 F 
ATOM     93  F   UNL     1      16.846  16.537   2.757  1.00  0.00    -0.200 F 
ENDBRANCH  60  83
ENDBRANCH  34  35
ENDBRANCH  26  29
ENDBRANCH  24  25
ENDBRANCH  23  24
ENDBRANCH  22  23
ENDBRANCH   1  22
TORSDOF 16
