REMARK SMILES Cc1cccc(OCC(=O)Nc2cc(C(=O)NCCCCCCNC(=O)c3ccc(-c4c5nc(c(-c6c(F)c(F)c(F)c(F)c6F)c6ccc([nH]6)c(-c6c(F)c(F)c(F)c(F)c6F)c6nc(c(-c7c(F)c(F)c(F)c(F)c7F)c7ccc4[nH]7)C=C6)C=C5)cc3)c(Cl)cc2Cl)c1
REMARK SMILES IDX 19 1 18 2 17 3 15 4 16 5 14 7 12 8 13 9 93 10 92 11 94 12
REMARK SMILES IDX 90 13 91 14 11 15 9 16 10 17 8 19 7 20 6 21 1 22 2 23 3 24
REMARK SMILES IDX 95 25 4 26 5 27 20 28 21 29 22 30 23 31 24 32 25 33 26 35
REMARK SMILES IDX 27 36 28 37 89 38 29 39 88 40 30 41 31 42 32 43 82 44 33 45
REMARK SMILES IDX 87 46 81 47 83 48 34 49 86 50 80 51 79 52 35 54 67 55 47 56
REMARK SMILES IDX 66 57 48 58 51 59 65 60 84 61 49 62 50 63 64 65 85 66 52 67
REMARK SMILES IDX 36 68 37 69 45 70 38 71 39 72 43 73 46 74 40 75 41 76 44 77
REMARK SMILES IDX 42 78 68 79 69 80 77 81 70 82 71 83 75 84 78 85 72 86 73 87
REMARK SMILES IDX 76 88 74 89 53 90 54 91 62 92 55 93 56 94 60 95 63 96 57 97
REMARK SMILES IDX 58 98 61 99 59 100
REMARK H PARENT 17 6 11 18 24 34 83 53 51 64
REMARK Flexibility Score: inf
ROOT
ATOM      1  C   UNL     1      -3.838  -1.238   0.270  1.00  0.00     0.021 C 
ENDROOT
BRANCH   1   2
ATOM      2  C   UNL     1      -3.866   0.293   0.319  1.00  0.00     0.116 C 
BRANCH   2   3
ATOM      3  N   UNL     1      -5.168   0.908   0.397  1.00  0.00    -0.352 N 
ATOM      4  C   UNL     1      -5.554   2.076   1.023  1.00  0.00     0.252 C 
ATOM      5  O   UNL     1      -6.678   2.512   0.781  1.00  0.00    -0.269 OA
ATOM      6  H   UNL     1      -5.889   0.422  -0.066  1.00  0.00     0.163 HD
BRANCH   4   7
ATOM      7  C   UNL     1      -4.674   2.826   1.976  1.00  0.00     0.060 A 
ATOM      8  C   UNL     1      -2.526   3.871   2.543  1.00  0.00     0.061 A 
ATOM      9  C   UNL     1      -3.337   3.159   1.646  1.00  0.00     0.043 A 
ATOM     10  C   UNL     1      -3.104   4.317   3.752  1.00  0.00     0.066 A 
ATOM     11  C   UNL     1      -4.431   4.044   4.068  1.00  0.00     0.044 A 
ATOM     12  Cl  UNL     1      -2.184   5.240   4.899  1.00  0.00    -0.082 Cl
ATOM     13  C   UNL     1      -5.211   3.285   3.195  1.00  0.00     0.055 A 
ATOM     14  Cl  UNL     1      -6.812   2.918   3.741  1.00  0.00    -0.083 Cl
BRANCH   8  15
ATOM     15  N   UNL     1      -1.151   4.146   2.376  1.00  0.00    -0.322 N 
ATOM     16  C   UNL     1      -0.223   4.039   1.388  1.00  0.00     0.262 C 
ATOM     17  O   UNL     1       0.946   4.316   1.689  1.00  0.00    -0.271 OA
ATOM     18  H   UNL     1      -0.757   4.517   3.198  1.00  0.00     0.170 HD
BRANCH  16  19
ATOM     19  C   UNL     1      -0.569   3.685  -0.054  1.00  0.00     0.329 C 
BRANCH  19  20
ATOM     20  O   UNL     1      -0.836   2.327  -0.356  1.00  0.00    -0.484 OA
BRANCH  20  21
ATOM     21  C   UNL     1       0.121   1.414  -0.013  1.00  0.00     0.120 A 
ATOM     22  C   UNL     1       3.838   0.698   0.309  1.00  0.00     0.044 C 
ATOM     23  C   UNL     1       2.347   0.561   0.386  1.00  0.00    -0.047 A 
ATOM     24  C   UNL     1       1.804  -0.659   0.809  1.00  0.00     0.003 A 
ATOM     25  C   UNL     1       1.497   1.604  -0.024  1.00  0.00     0.049 A 
ATOM     26  C   UNL     1       0.437  -0.869   0.764  1.00  0.00     0.004 A 
ATOM     27  C   UNL     1      -0.381   0.165   0.338  1.00  0.00     0.046 A 
ENDBRANCH  20  21
ENDBRANCH  19  20
ENDBRANCH  16  19
ENDBRANCH   8  15
ENDBRANCH   4   7
ENDBRANCH   2   3
ENDBRANCH   1   2
BRANCH   1  28
ATOM     28  C   UNL     1      -3.885  -2.010  -1.066  1.00  0.00     0.002 C 
BRANCH  28  29
ATOM     29  C   UNL     1      -3.624  -1.342  -2.424  1.00  0.00     0.002 C 
BRANCH  29  30
ATOM     30  C   UNL     1      -2.205  -0.892  -2.790  1.00  0.00     0.021 C 
BRANCH  30  31
ATOM     31  C   UNL     1      -1.107  -1.963  -2.819  1.00  0.00     0.116 C 
BRANCH  31  32
ATOM     32  N   UNL     1      -0.694  -2.384  -4.164  1.00  0.00    -0.352 N 
ATOM     33  C   UNL     1       0.357  -3.206  -4.559  1.00  0.00     0.251 C 
ATOM     34  H   UNL     1      -1.245  -2.030  -4.899  1.00  0.00     0.163 HD
ATOM     35  O   UNL     1       0.519  -3.504  -5.717  1.00  0.00    -0.269 OA
BRANCH  33  36
ATOM     36  C   UNL     1       1.218  -3.815  -3.511  1.00  0.00     0.039 A 
ATOM     37  C   UNL     1       1.366  -5.208  -3.489  1.00  0.00     0.014 A 
ATOM     38  C   UNL     1       1.704  -3.043  -2.465  1.00  0.00     0.014 A 
ATOM     39  C   UNL     1       1.724  -5.837  -2.297  1.00  0.00     0.010 A 
ATOM     40  C   UNL     1       1.984  -3.668  -1.267  1.00  0.00     0.010 A 
ATOM     41  C   UNL     1       1.891  -5.058  -1.155  1.00  0.00    -0.014 A 
BRANCH  41  42
ATOM     42  C   UNL     1       1.754  -5.575   0.206  1.00  0.00     0.031 A 
ATOM     43  C   UNL     1       2.908  -5.694   1.117  1.00  0.00     0.074 A 
ATOM     44  C   UNL     1       0.507  -5.803   0.679  1.00  0.00     0.049 A 
ATOM     45  N   UNL     1       2.923  -6.435   2.175  1.00  0.00    -0.248 NA
ATOM     46  C   UNL     1       4.168  -5.008   0.880  1.00  0.00     0.031 C 
ATOM     47  C   UNL     1       0.097  -5.986   2.070  1.00  0.00     0.029 A 
ATOM     48  N   UNL     1      -0.641  -6.124  -0.065  1.00  0.00    -0.354 N 
ATOM     49  C   UNL     1       4.057  -6.131   2.895  1.00  0.00     0.074 A 
ATOM     50  C   UNL     1       4.833  -5.297   2.005  1.00  0.00     0.031 C 
ATOM     51  C   UNL     1      -1.067  -6.655   2.094  1.00  0.00     0.029 A 
ATOM     52  C   UNL     1      -1.353  -7.051   0.727  1.00  0.00     0.049 A 
ATOM     53  H   UNL     1      -0.894  -5.776  -0.950  1.00  0.00     0.167 HD
ATOM     54  C   UNL     1       4.134  -6.520   4.204  1.00  0.00     0.037 A 
ATOM     55  C   UNL     1      -1.556  -8.336   0.317  1.00  0.00     0.037 A 
ATOM     56  C   UNL     1       2.983  -7.346   4.577  1.00  0.00     0.049 A 
ATOM     57  C   UNL     1      -1.050  -9.382   1.279  1.00  0.00     0.074 A 
ATOM     58  C   UNL     1       1.816  -7.078   5.276  1.00  0.00     0.029 A 
ATOM     59  N   UNL     1       2.808  -8.594   3.986  1.00  0.00    -0.354 N 
ATOM     60  N   UNL     1      -0.127  -9.166   2.173  1.00  0.00    -0.248 NA
ATOM     61  C   UNL     1      -1.519 -10.763   1.278  1.00  0.00     0.031 C 
ATOM     62  C   UNL     1       0.929  -8.166   5.088  1.00  0.00     0.029 A 
ATOM     63  C   UNL     1       1.557  -9.098   4.281  1.00  0.00     0.049 A 
ATOM     64  H   UNL     1       3.482  -9.052   3.434  1.00  0.00     0.167 HD
ATOM     65  C   UNL     1       0.150 -10.336   2.834  1.00  0.00     0.074 A 
ATOM     66  C   UNL     1      -0.770 -11.298   2.257  1.00  0.00     0.031 C 
ATOM     67  C   UNL     1       1.131 -10.400   3.786  1.00  0.00     0.037 A 
BRANCH  54  68
ATOM     68  C   UNL     1       5.088  -5.937   5.239  1.00  0.00     0.064 A 
ATOM     69  C   UNL     1       4.771  -5.975   6.619  1.00  0.00     0.173 A 
ATOM     70  C   UNL     1       6.292  -5.269   4.949  1.00  0.00     0.173 A 
ATOM     71  F   UNL     1       3.732  -6.681   7.083  1.00  0.00    -0.203 F 
ATOM     72  C   UNL     1       5.513  -5.291   7.589  1.00  0.00     0.198 A 
ATOM     73  C   UNL     1       7.010  -4.546   5.910  1.00  0.00     0.198 A 
ATOM     74  F   UNL     1       6.864  -5.347   3.746  1.00  0.00    -0.203 F 
ATOM     75  F   UNL     1       5.144  -5.354   8.876  1.00  0.00    -0.200 F 
ATOM     76  C   UNL     1       6.611  -4.543   7.228  1.00  0.00     0.200 A 
ATOM     77  F   UNL     1       8.100  -3.857   5.540  1.00  0.00    -0.200 F 
ATOM     78  F   UNL     1       7.300  -3.853   8.147  1.00  0.00    -0.200 F 
ENDBRANCH  54  68
BRANCH  55  79
ATOM     79  C   UNL     1      -1.559  -8.493  -1.161  1.00  0.00     0.064 A 
ATOM     80  C   UNL     1      -2.544  -7.821  -1.910  1.00  0.00     0.173 A 
ATOM     81  C   UNL     1      -0.433  -8.966  -1.846  1.00  0.00     0.173 A 
ATOM     82  F   UNL     1      -3.638  -7.340  -1.297  1.00  0.00    -0.203 F 
ATOM     83  C   UNL     1      -2.357  -7.534  -3.259  1.00  0.00     0.198 A 
ATOM     84  C   UNL     1      -0.258  -8.690  -3.204  1.00  0.00     0.198 A 
ATOM     85  F   UNL     1       0.552  -9.591  -1.186  1.00  0.00    -0.203 F 
ATOM     86  F   UNL     1      -3.259  -6.790  -3.915  1.00  0.00    -0.200 F 
ATOM     87  C   UNL     1      -1.201  -7.948  -3.899  1.00  0.00     0.200 A 
ATOM     88  F   UNL     1       0.879  -9.055  -3.815  1.00  0.00    -0.200 F 
ATOM     89  F   UNL     1      -0.972  -7.590  -5.170  1.00  0.00    -0.200 F 
ENDBRANCH  55  79
BRANCH  67  90
ATOM     90  C   UNL     1       1.716 -11.650   4.416  1.00  0.00     0.064 A 
ATOM     91  C   UNL     1       1.650 -12.936   3.852  1.00  0.00     0.173 A 
ATOM     92  C   UNL     1       2.505 -11.556   5.593  1.00  0.00     0.173 A 
ATOM     93  F   UNL     1       1.060 -13.155   2.671  1.00  0.00    -0.203 F 
ATOM     94  C   UNL     1       2.255 -14.047   4.452  1.00  0.00     0.198 A 
ATOM     95  C   UNL     1       3.158 -12.654   6.154  1.00  0.00     0.198 A 
ATOM     96  F   UNL     1       2.696 -10.388   6.222  1.00  0.00    -0.203 F 
ATOM     97  F   UNL     1       2.119 -15.257   3.892  1.00  0.00    -0.200 F 
ATOM     98  C   UNL     1       3.018 -13.905   5.595  1.00  0.00     0.200 A 
ATOM     99  F   UNL     1       3.942 -12.485   7.229  1.00  0.00    -0.200 F 
ATOM    100  F   UNL     1       3.635 -14.963   6.137  1.00  0.00    -0.200 F 
ENDBRANCH  67  90
ENDBRANCH  41  42
ENDBRANCH  33  36
ENDBRANCH  31  32
ENDBRANCH  30  31
ENDBRANCH  29  30
ENDBRANCH  28  29
ENDBRANCH   1  28
TORSDOF 17
