REMARK SMILES CC(=O)N1CCC[C@H]1COCC(=O)NCCCCCCNC(=O)c1ccc(-c2c3nc(c(-c4c(F)c(F)c(F)c(F)c4F)c4ccc([nH]4)c(-c4c(F)c(F)c(F)c(F)c4F)c4nc(c(-c5c(F)c(F)c(F)c(F)c5F)c5ccc2[nH]5)C=C4)C=C3)cc1
REMARK SMILES IDX 16 1 15 2 14 3 12 4 13 5 11 7 10 8 9 9 8 10 4 11 5 12 6 13
REMARK SMILES IDX 7 14 2 15 1 16 3 17 17 18 18 19 19 20 20 21 21 22 22 23
REMARK SMILES IDX 23 25 24 26 25 27 86 28 26 29 85 30 27 31 28 32 29 33 79 34
REMARK SMILES IDX 30 35 84 36 78 37 80 38 31 39 83 40 77 41 76 42 32 44 64 45
REMARK SMILES IDX 44 46 63 47 45 48 48 49 62 50 81 51 46 52 47 53 61 55 82 56
REMARK SMILES IDX 49 57 33 58 34 59 42 60 35 61 36 62 40 63 43 64 37 65 38 66
REMARK SMILES IDX 41 67 39 68 65 69 66 70 74 71 67 72 68 73 72 74 75 75 69 76
REMARK SMILES IDX 70 77 73 78 71 79 50 80 51 81 59 82 52 83 53 84 57 85 60 86
REMARK SMILES IDX 54 87 55 88 58 89 56 90
REMARK H PARENT 14 6 21 24 80 43 48 54
REMARK Flexibility Score: inf
ROOT
ATOM      1  C   UNL     1      -1.006  -2.687   7.763  1.00  0.00     0.021 C 
ENDROOT
BRANCH   1   2
ATOM      2  C   UNL     1       0.206  -3.545   7.407  1.00  0.00     0.116 C 
BRANCH   2   3
ATOM      3  N   UNL     1      -0.161  -4.670   6.574  1.00  0.00    -0.354 N 
ATOM      4  C   UNL     1       0.318  -4.989   5.338  1.00  0.00     0.245 C 
ATOM      5  O   UNL     1      -0.116  -5.990   4.768  1.00  0.00    -0.272 OA
ATOM      6  H   UNL     1      -0.838  -5.281   6.945  1.00  0.00     0.163 HD
BRANCH   4   7
ATOM      7  C   UNL     1       1.382  -4.087   4.695  1.00  0.00     0.260 C 
BRANCH   7   8
ATOM      8  O   UNL     1       1.051  -2.758   4.336  1.00  0.00    -0.370 OA
BRANCH   8   9
ATOM      9  C   UNL     1      -0.203  -2.571   3.671  1.00  0.00     0.185 C 
BRANCH   9  10
ATOM     10  C   UNL     1      -0.202  -2.753   2.137  1.00  0.00     0.111 C 
ATOM     11  N   UNL     1       0.687  -1.828   1.446  1.00  0.00    -0.338 N 
ATOM     12  C   UNL     1       1.977  -2.440   1.209  1.00  0.00     0.120 C 
ATOM     13  C   UNL     1       1.682  -3.927   1.097  1.00  0.00     0.024 C 
ATOM     14  C   UNL     1       0.254  -4.116   1.620  1.00  0.00     0.029 C 
BRANCH  11  15
ATOM     15  C   UNL     1       0.276  -0.567   1.082  1.00  0.00     0.219 C 
ATOM     16  C   UNL     1       1.182   0.191   0.147  1.00  0.00     0.114 C 
ATOM     17  O   UNL     1      -0.804  -0.096   1.438  1.00  0.00    -0.275 OA
ENDBRANCH  11  15
ENDBRANCH   9  10
ENDBRANCH   8   9
ENDBRANCH   7   8
ENDBRANCH   4   7
ENDBRANCH   2   3
ENDBRANCH   1   2
BRANCH   1  18
ATOM     18  C   UNL     1      -2.099  -3.413   8.558  1.00  0.00     0.002 C 
BRANCH  18  19
ATOM     19  C   UNL     1      -1.626  -4.143   9.819  1.00  0.00     0.002 C 
BRANCH  19  20
ATOM     20  C   UNL     1      -0.825  -3.292  10.806  1.00  0.00     0.021 C 
BRANCH  20  21
ATOM     21  C   UNL     1      -1.545  -2.046  11.307  1.00  0.00     0.116 C 
BRANCH  21  22
ATOM     22  N   UNL     1      -2.734  -2.368  12.079  1.00  0.00    -0.352 N 
ATOM     23  C   UNL     1      -3.092  -1.951  13.334  1.00  0.00     0.251 C 
ATOM     24  H   UNL     1      -3.373  -2.972  11.636  1.00  0.00     0.163 HD
ATOM     25  O   UNL     1      -4.051  -2.468  13.908  1.00  0.00    -0.269 OA
BRANCH  23  26
ATOM     26  C   UNL     1      -2.314  -0.895  14.014  1.00  0.00     0.039 A 
ATOM     27  C   UNL     1      -1.982  -1.063  15.361  1.00  0.00     0.014 A 
ATOM     28  C   UNL     1      -1.918   0.260  13.333  1.00  0.00     0.014 A 
ATOM     29  C   UNL     1      -1.204  -0.101  16.008  1.00  0.00     0.010 A 
ATOM     30  C   UNL     1      -1.080   1.180  13.957  1.00  0.00     0.010 A 
ATOM     31  C   UNL     1      -0.719   1.012  15.302  1.00  0.00    -0.014 A 
BRANCH  31  32
ATOM     32  C   UNL     1       0.164   2.009  15.958  1.00  0.00     0.031 A 
ATOM     33  C   UNL     1      -0.296   3.430  16.131  1.00  0.00     0.074 A 
ATOM     34  C   UNL     1       1.402   1.648  16.347  1.00  0.00     0.049 A 
ATOM     35  N   UNL     1       0.351   4.456  16.625  1.00  0.00    -0.248 NA
ATOM     36  C   UNL     1      -1.654   3.747  15.663  1.00  0.00     0.031 C 
ATOM     37  C   UNL     1       1.981   0.313  16.189  1.00  0.00     0.029 A 
ATOM     38  N   UNL     1       2.401   2.375  16.946  1.00  0.00    -0.354 N 
ATOM     39  C   UNL     1      -0.516   5.535  16.520  1.00  0.00     0.074 A 
ATOM     40  C   UNL     1      -1.711   5.056  15.862  1.00  0.00     0.031 C 
ATOM     41  C   UNL     1       3.225   0.311  16.695  1.00  0.00     0.029 A 
ATOM     42  C   UNL     1       3.545   1.651  17.178  1.00  0.00     0.049 A 
ATOM     43  H   UNL     1       2.306   3.325  17.186  1.00  0.00     0.167 HD
ATOM     44  C   UNL     1      -0.342   6.806  16.959  1.00  0.00     0.037 A 
ATOM     45  C   UNL     1       4.723   2.028  17.711  1.00  0.00     0.037 A 
ATOM     46  C   UNL     1       0.843   7.276  17.627  1.00  0.00     0.049 A 
ATOM     47  C   UNL     1       4.895   3.447  18.180  1.00  0.00     0.074 A 
ATOM     48  C   UNL     1       1.099   8.532  18.149  1.00  0.00     0.029 A 
ATOM     49  N   UNL     1       1.975   6.508  17.861  1.00  0.00    -0.354 N 
ATOM     50  N   UNL     1       4.043   4.443  18.136  1.00  0.00    -0.248 NA
ATOM     51  C   UNL     1       6.190   3.794  18.781  1.00  0.00     0.031 C 
ATOM     52  C   UNL     1       2.402   8.537  18.658  1.00  0.00     0.029 A 
ATOM     53  C   UNL     1       2.939   7.269  18.503  1.00  0.00     0.049 A 
ATOM     54  H   UNL     1       2.078   5.562  17.609  1.00  0.00     0.167 HD
ATOM     55  C   UNL     1       4.686   5.523  18.726  1.00  0.00     0.074 A 
ATOM     56  C   UNL     1       5.994   5.055  19.136  1.00  0.00     0.031 C 
ATOM     57  C   UNL     1       4.235   6.788  18.910  1.00  0.00     0.037 A 
BRANCH  44  58
ATOM     58  C   UNL     1      -1.466   7.777  16.734  1.00  0.00     0.064 A 
ATOM     59  C   UNL     1      -2.683   7.664  17.425  1.00  0.00     0.173 A 
ATOM     60  C   UNL     1      -1.315   8.852  15.846  1.00  0.00     0.173 A 
ATOM     61  F   UNL     1      -2.884   6.648  18.277  1.00  0.00    -0.203 F 
ATOM     62  C   UNL     1      -3.716   8.573  17.212  1.00  0.00     0.198 A 
ATOM     63  C   UNL     1      -2.338   9.779  15.660  1.00  0.00     0.198 A 
ATOM     64  F   UNL     1      -0.170   9.012  15.165  1.00  0.00    -0.203 F 
ATOM     65  F   UNL     1      -4.886   8.415  17.845  1.00  0.00    -0.200 F 
ATOM     66  C   UNL     1      -3.540   9.634  16.336  1.00  0.00     0.200 A 
ATOM     67  F   UNL     1      -2.161  10.811  14.824  1.00  0.00    -0.200 F 
ATOM     68  F   UNL     1      -4.532  10.513  16.139  1.00  0.00    -0.200 F 
ENDBRANCH  44  58
BRANCH  45  69
ATOM     69  C   UNL     1       5.825   1.040  17.847  1.00  0.00     0.064 A 
ATOM     70  C   UNL     1       6.240   0.590  19.108  1.00  0.00     0.173 A 
ATOM     71  C   UNL     1       6.491   0.531  16.722  1.00  0.00     0.173 A 
ATOM     72  F   UNL     1       5.648   1.062  20.215  1.00  0.00    -0.203 F 
ATOM     73  C   UNL     1       7.293  -0.313  19.240  1.00  0.00     0.198 A 
ATOM     74  C   UNL     1       7.523  -0.395  16.854  1.00  0.00     0.198 A 
ATOM     75  F   UNL     1       6.129   0.925  15.492  1.00  0.00    -0.203 F 
ATOM     76  F   UNL     1       7.701  -0.689  20.460  1.00  0.00    -0.200 F 
ATOM     77  C   UNL     1       7.930  -0.809  18.113  1.00  0.00     0.200 A 
ATOM     78  F   UNL     1       8.125  -0.884  15.761  1.00  0.00    -0.200 F 
ATOM     79  F   UNL     1       8.939  -1.681  18.240  1.00  0.00    -0.200 F 
ENDBRANCH  45  69
BRANCH  57  80
ATOM     80  C   UNL     1       5.148   7.748  19.616  1.00  0.00     0.064 A 
ATOM     81  C   UNL     1       6.307   8.248  19.005  1.00  0.00     0.173 A 
ATOM     82  C   UNL     1       4.839   8.201  20.908  1.00  0.00     0.173 A 
ATOM     83  F   UNL     1       6.655   7.835  17.777  1.00  0.00    -0.203 F 
ATOM     84  C   UNL     1       7.138   9.145  19.673  1.00  0.00     0.198 A 
ATOM     85  C   UNL     1       5.654   9.122  21.559  1.00  0.00     0.198 A 
ATOM     86  F   UNL     1       3.738   7.759  21.534  1.00  0.00    -0.203 F 
ATOM     87  F   UNL     1       8.268   9.569  19.090  1.00  0.00    -0.200 F 
ATOM     88  C   UNL     1       6.807   9.586  20.945  1.00  0.00     0.200 A 
ATOM     89  F   UNL     1       5.325   9.559  22.783  1.00  0.00    -0.200 F 
ATOM     90  F   UNL     1       7.604  10.454  21.583  1.00  0.00    -0.200 F 
ENDBRANCH  57  80
ENDBRANCH  31  32
ENDBRANCH  23  26
ENDBRANCH  21  22
ENDBRANCH  20  21
ENDBRANCH  19  20
ENDBRANCH  18  19
ENDBRANCH   1  18
TORSDOF 17
