REMARK SMILES Cc1cccc(CC(=O)N2CCC3(CCC(=O)N([C@H](C)C(=O)NCCCCCCNC(=O)c4ccc(-c5c6nc(c(-c7c(F)c(F)c(F)c(F)c7F)c7ccc([nH]7)c(-c7c(F)c(F)c(F)c(F)c7F)c7nc(c(-c8c(F)c(F)c(F)c(F)c8F)c8ccc5[nH]8)C=C7)C=C6)cc4)C3)CC2)c1
REMARK SMILES IDX 26 1 25 2 24 3 23 4 21 5 22 6 19 8 20 9 18 10 8 11 9 12
REMARK SMILES IDX 10 13 11 14 98 15 12 16 97 17 13 18 14 19 96 20 15 21 16 22
REMARK SMILES IDX 17 23 7 24 6 25 1 26 2 27 3 28 99 29 4 30 5 31 27 32 28 33
REMARK SMILES IDX 29 34 30 35 31 36 32 38 33 39 34 40 95 41 35 42 94 43 36 44
REMARK SMILES IDX 37 45 38 46 88 47 39 48 93 49 87 50 89 51 40 52 92 53 86 54
REMARK SMILES IDX 85 55 41 57 73 58 53 59 72 60 54 61 57 62 71 63 90 64 55 65
REMARK SMILES IDX 56 66 70 68 91 69 58 70 42 71 43 72 51 73 44 74 45 75 49 76
REMARK SMILES IDX 52 77 46 78 47 79 50 80 48 81 74 82 75 83 83 84 76 85 77 86
REMARK SMILES IDX 81 87 84 88 78 89 79 90 82 91 80 92 59 93 60 94 68 95 61 96
REMARK SMILES IDX 62 97 66 98 69 99 63 100 64 101 67 102 65 103
REMARK H PARENT 23 7 30 37 89 56 57 67
REMARK Flexibility Score: inf
ROOT
ATOM      1  C   UNL     1      -3.928   5.356  -9.243  1.00  0.00     0.002 C 
ENDROOT
BRANCH   1   2
ATOM      2  C   UNL     1      -2.687   4.673  -8.650  1.00  0.00     0.021 C 
BRANCH   2   3
ATOM      3  C   UNL     1      -1.502   5.582  -8.353  1.00  0.00     0.116 C 
BRANCH   3   4
ATOM      4  N   UNL     1      -1.716   6.549  -7.299  1.00  0.00    -0.354 N 
ATOM      5  C   UNL     1      -0.781   7.242  -6.578  1.00  0.00     0.242 C 
ATOM      6  O   UNL     1      -1.158   8.263  -5.991  1.00  0.00    -0.273 OA
ATOM      7  H   UNL     1      -2.656   6.733  -7.071  1.00  0.00     0.163 HD
BRANCH   5   8
ATOM      8  C   UNL     1       0.698   6.775  -6.460  1.00  0.00     0.171 C 
ATOM      9  C   UNL     1       0.848   5.311  -6.040  1.00  0.00     0.042 C 
BRANCH   8  10
ATOM     10  N   UNL     1       1.658   7.138  -7.521  1.00  0.00    -0.330 N 
ATOM     11  C   UNL     1       7.909   5.247  -6.987  1.00  0.00     0.226 C 
ATOM     12  O   UNL     1       8.119   4.048  -6.763  1.00  0.00    -0.275 OA
ATOM     13  N   UNL     1       6.779   5.643  -7.688  1.00  0.00    -0.342 N 
ATOM     14  C   UNL     1       5.647   4.728  -7.801  1.00  0.00     0.120 C 
ATOM     15  C   UNL     1       6.600   6.888  -8.418  1.00  0.00     0.120 C 
ATOM     16  C   UNL     1       4.362   5.419  -7.313  1.00  0.00     0.030 C 
ATOM     17  C   UNL     1       5.418   7.651  -7.845  1.00  0.00     0.030 C 
ATOM     18  C   UNL     1       4.116   6.817  -7.952  1.00  0.00    -0.008 C 
ATOM     19  C   UNL     1       3.722   6.713  -9.449  1.00  0.00     0.019 C 
ATOM     20  C   UNL     1       3.005   7.563  -7.174  1.00  0.00     0.127 C 
ATOM     21  C   UNL     1       2.301   6.237  -9.658  1.00  0.00     0.101 C 
ATOM     22  C   UNL     1       1.341   7.078  -8.860  1.00  0.00     0.223 C 
ATOM     23  O   UNL     1       0.346   7.581  -9.363  1.00  0.00    -0.275 OA
BRANCH  11  24
ATOM     24  C   UNL     1       8.783   6.279  -6.272  1.00  0.00     0.135 C 
BRANCH  24  25
ATOM     25  C   UNL     1       9.344   7.433  -7.060  1.00  0.00    -0.038 A 
ATOM     26  C   UNL     1       8.853  11.214  -7.248  1.00  0.00     0.044 C 
ATOM     27  C   UNL     1       9.347   9.828  -7.537  1.00  0.00    -0.051 A 
ATOM     28  C   UNL     1      10.171   9.589  -8.642  1.00  0.00     0.003 A 
ATOM     29  C   UNL     1       8.959   8.748  -6.736  1.00  0.00     0.007 A 
ATOM     30  C   UNL     1      10.601   8.295  -8.940  1.00  0.00     0.001 A 
ATOM     31  C   UNL     1      10.192   7.218  -8.152  1.00  0.00     0.004 A 
ENDBRANCH  24  25
ENDBRANCH  11  24
ENDBRANCH   8  10
ENDBRANCH   5   8
ENDBRANCH   3   4
ENDBRANCH   2   3
ENDBRANCH   1   2
BRANCH   1  32
ATOM     32  C   UNL     1      -3.723   6.366 -10.387  1.00  0.00     0.002 C 
BRANCH  32  33
ATOM     33  C   UNL     1      -2.820   5.949 -11.550  1.00  0.00     0.021 C 
BRANCH  33  34
ATOM     34  C   UNL     1      -3.331   4.788 -12.389  1.00  0.00     0.116 C 
BRANCH  34  35
ATOM     35  N   UNL     1      -4.080   5.186 -13.575  1.00  0.00    -0.352 N 
ATOM     36  C   UNL     1      -4.673   4.390 -14.542  1.00  0.00     0.251 C 
ATOM     37  H   UNL     1      -4.177   6.157 -13.708  1.00  0.00     0.163 HD
ATOM     38  O   UNL     1      -5.245   4.888 -15.499  1.00  0.00    -0.269 OA
BRANCH  36  39
ATOM     39  C   UNL     1      -4.734   2.925 -14.321  1.00  0.00     0.039 A 
ATOM     40  C   UNL     1      -5.993   2.316 -14.375  1.00  0.00     0.014 A 
ATOM     41  C   UNL     1      -3.638   2.237 -13.811  1.00  0.00     0.014 A 
ATOM     42  C   UNL     1      -6.208   1.145 -13.656  1.00  0.00     0.010 A 
ATOM     43  C   UNL     1      -3.872   1.139 -13.009  1.00  0.00     0.010 A 
ATOM     44  C   UNL     1      -5.176   0.650 -12.863  1.00  0.00    -0.014 A 
BRANCH  44  45
ATOM     45  C   UNL     1      -5.401  -0.243 -11.731  1.00  0.00     0.031 A 
ATOM     46  C   UNL     1      -4.913  -1.635 -11.755  1.00  0.00     0.074 A 
ATOM     47  C   UNL     1      -5.933   0.273 -10.599  1.00  0.00     0.049 A 
ATOM     48  N   UNL     1      -5.289  -2.555 -10.933  1.00  0.00    -0.248 NA
ATOM     49  C   UNL     1      -3.984  -2.118 -12.767  1.00  0.00     0.031 C 
ATOM     50  C   UNL     1      -5.915  -0.310  -9.260  1.00  0.00     0.029 A 
ATOM     51  N   UNL     1      -6.799   1.376 -10.486  1.00  0.00    -0.354 N 
ATOM     52  C   UNL     1      -4.467  -3.646 -11.111  1.00  0.00     0.074 A 
ATOM     53  C   UNL     1      -3.729  -3.349 -12.315  1.00  0.00     0.031 C 
ATOM     54  C   UNL     1      -6.917   0.221  -8.543  1.00  0.00     0.029 A 
ATOM     55  C   UNL     1      -7.702   1.036  -9.453  1.00  0.00     0.049 A 
ATOM     56  H   UNL     1      -6.780   2.207 -11.014  1.00  0.00     0.167 HD
ATOM     57  C   UNL     1      -4.424  -4.600 -10.133  1.00  0.00     0.037 A 
ATOM     58  C   UNL     1      -9.033   0.860  -9.695  1.00  0.00     0.037 A 
ATOM     59  C   UNL     1      -5.464  -4.364  -9.129  1.00  0.00     0.049 A 
ATOM     60  C   UNL     1      -9.558  -0.501  -9.303  1.00  0.00     0.074 A 
ATOM     61  C   UNL     1      -5.450  -3.802  -7.862  1.00  0.00     0.029 A 
ATOM     62  N   UNL     1      -6.803  -4.452  -9.502  1.00  0.00    -0.354 N 
ATOM     63  N   UNL     1      -8.808  -1.558  -9.165  1.00  0.00    -0.248 NA
ATOM     64  C   UNL     1     -10.971  -0.781  -9.068  1.00  0.00     0.031 C 
ATOM     65  C   UNL     1      -6.787  -3.513  -7.492  1.00  0.00     0.029 A 
ATOM     66  C   UNL     1      -7.616  -3.913  -8.525  1.00  0.00     0.049 A 
ATOM     67  H   UNL     1      -7.125  -4.844 -10.345  1.00  0.00     0.167 HD
ATOM     68  C   UNL     1      -9.594  -2.638  -8.849  1.00  0.00     0.074 A 
ATOM     69  C   UNL     1     -10.937  -2.094  -8.780  1.00  0.00     0.031 C 
ATOM     70  C   UNL     1      -9.063  -3.886  -8.685  1.00  0.00     0.037 A 
BRANCH  57  71
ATOM     71  C   UNL     1      -3.265  -5.562  -9.922  1.00  0.00     0.064 A 
ATOM     72  C   UNL     1      -2.976  -6.072  -8.635  1.00  0.00     0.173 A 
ATOM     73  C   UNL     1      -2.349  -5.958 -10.914  1.00  0.00     0.173 A 
ATOM     74  F   UNL     1      -3.812  -5.894  -7.604  1.00  0.00    -0.203 F 
ATOM     75  C   UNL     1      -1.809  -6.790  -8.348  1.00  0.00     0.198 A 
ATOM     76  C   UNL     1      -1.158  -6.633 -10.622  1.00  0.00     0.198 A 
ATOM     77  F   UNL     1      -2.598  -5.770 -12.213  1.00  0.00    -0.203 F 
ATOM     78  F   UNL     1      -1.587  -7.227  -7.100  1.00  0.00    -0.200 F 
ATOM     79  C   UNL     1      -0.880  -7.036  -9.334  1.00  0.00     0.200 A 
ATOM     80  F   UNL     1      -0.284  -6.891 -11.606  1.00  0.00    -0.200 F 
ATOM     81  F   UNL     1       0.259  -7.683  -9.055  1.00  0.00    -0.200 F 
ENDBRANCH  57  71
BRANCH  58  82
ATOM     82  C   UNL     1      -9.540   1.666 -10.836  1.00  0.00     0.064 A 
ATOM     83  C   UNL     1      -9.477   3.071 -10.747  1.00  0.00     0.173 A 
ATOM     84  C   UNL     1      -9.724   1.106 -12.105  1.00  0.00     0.173 A 
ATOM     85  F   UNL     1      -9.298   3.658  -9.553  1.00  0.00    -0.203 F 
ATOM     86  C   UNL     1      -9.482   3.871 -11.887  1.00  0.00     0.198 A 
ATOM     87  C   UNL     1      -9.743   1.913 -13.246  1.00  0.00     0.198 A 
ATOM     88  F   UNL     1      -9.769  -0.225 -12.260  1.00  0.00    -0.203 F 
ATOM     89  F   UNL     1      -9.309   5.196 -11.775  1.00  0.00    -0.200 F 
ATOM     90  C   UNL     1      -9.588   3.288 -13.138  1.00  0.00     0.200 A 
ATOM     91  F   UNL     1      -9.810   1.348 -14.460  1.00  0.00    -0.200 F 
ATOM     92  F   UNL     1      -9.497   4.043 -14.242  1.00  0.00    -0.200 F 
ENDBRANCH  58  82
BRANCH  70  93
ATOM     93  C   UNL     1      -9.828  -5.187  -8.569  1.00  0.00     0.064 A 
ATOM     94  C   UNL     1     -11.113  -5.399  -9.096  1.00  0.00     0.173 A 
ATOM     95  C   UNL     1      -9.201  -6.339  -8.030  1.00  0.00     0.173 A 
ATOM     96  F   UNL     1     -11.770  -4.431  -9.747  1.00  0.00    -0.203 F 
ATOM     97  C   UNL     1     -11.746  -6.645  -9.030  1.00  0.00     0.198 A 
ATOM     98  C   UNL     1      -9.811  -7.593  -8.021  1.00  0.00     0.198 A 
ATOM     99  F   UNL     1      -7.962  -6.292  -7.519  1.00  0.00    -0.203 F 
ATOM    100  F   UNL     1     -12.990  -6.781  -9.511  1.00  0.00    -0.200 F 
ATOM    101  C   UNL     1     -11.092  -7.743  -8.506  1.00  0.00     0.200 A 
ATOM    102  F   UNL     1      -9.139  -8.658  -7.560  1.00  0.00    -0.200 F 
ATOM    103  F   UNL     1     -11.684  -8.945  -8.492  1.00  0.00    -0.200 F 
ENDBRANCH  70  93
ENDBRANCH  44  45
ENDBRANCH  36  39
ENDBRANCH  34  35
ENDBRANCH  33  34
ENDBRANCH  32  33
ENDBRANCH   1  32
TORSDOF 16
