REMARK SMILES COc1ccc(-c2nc3ccc(C)cc3[nH]2)c(C(=O)NCCCCCCNC(=O)c2ccc(-c3c4nc(c(-c5c(F)c(F)c(F)c(F)c5F)c5ccc([nH]5)c(-c5c(F)c(F)c(F)c(F)c5F)c5nc(c(-c6c(F)c(F)c(F)c(F)c6F)c6ccc3[nH]6)C=C5)C=C4)cc2)c1OC
REMARK SMILES IDX 24 1 23 2 22 3 21 4 20 5 18 6 19 7 17 9 3 10 4 11 93 12 5 13
REMARK SMILES IDX 6 14 2 15 1 16 94 17 95 18 7 19 8 20 16 21 9 22 15 23 10 25
REMARK SMILES IDX 14 26 11 27 12 28 13 29 25 30 26 31 27 32 28 33 29 35 30 36
REMARK SMILES IDX 31 37 92 38 32 39 91 40 33 41 34 42 35 43 85 44 36 45 90 46
REMARK SMILES IDX 84 47 86 48 37 49 89 50 83 51 82 52 38 54 70 55 50 56 69 57
REMARK SMILES IDX 51 58 54 59 68 60 87 61 52 62 53 63 67 65 88 66 55 67 39 68
REMARK SMILES IDX 40 69 48 70 41 71 42 72 46 73 49 74 43 75 44 76 47 77 45 78
REMARK SMILES IDX 71 79 72 80 80 81 73 82 74 83 78 84 81 85 75 86 76 87 79 88
REMARK SMILES IDX 77 89 56 90 57 91 65 92 58 93 59 94 63 95 66 96 60 97 61 98
REMARK SMILES IDX 64 99 62 100
REMARK H PARENT 20 8 16 24 27 34 86 53 54 64
REMARK Flexibility Score: inf
ROOT
ATOM      1  C   UNL     1       7.407  -0.896  -0.200  1.00  0.00     0.002 C 
ENDROOT
BRANCH   1   2
ATOM      2  C   UNL     1       7.375  -1.267   1.287  1.00  0.00     0.002 C 
BRANCH   2   3
ATOM      3  C   UNL     1       6.028  -1.196   2.009  1.00  0.00     0.021 C 
BRANCH   3   4
ATOM      4  C   UNL     1       4.846  -1.861   1.320  1.00  0.00     0.116 C 
BRANCH   4   5
ATOM      5  N   UNL     1       4.899  -3.278   1.066  1.00  0.00    -0.352 N 
ATOM      6  C   UNL     1       3.835  -4.057   0.627  1.00  0.00     0.255 C 
ATOM      7  O   UNL     1       4.052  -5.052  -0.064  1.00  0.00    -0.269 OA
ATOM      8  H   UNL     1       5.759  -3.732   1.215  1.00  0.00     0.163 HD
BRANCH   6   9
ATOM      9  C   UNL     1       2.430  -3.746   1.042  1.00  0.00     0.096 A 
ATOM     10  C   UNL     1       0.552  -2.217   1.246  1.00  0.00     0.161 A 
ATOM     11  C   UNL     1      -0.118  -3.178   2.018  1.00  0.00     0.051 A 
ATOM     12  C   UNL     1       1.802  -2.523   0.681  1.00  0.00     0.174 A 
ATOM     13  C   UNL     1       0.449  -4.431   2.265  1.00  0.00     0.017 A 
ATOM     14  C   UNL     1       1.745  -4.718   1.820  1.00  0.00     0.034 A 
BRANCH  10  15
ATOM     15  O   UNL     1       0.004  -0.964   1.321  1.00  0.00    -0.493 OA
ATOM     16  C   UNL     1      -0.513  -0.417   0.117  1.00  0.00     0.278 C 
ENDBRANCH  10  15
BRANCH  12  17
ATOM     17  O   UNL     1       2.432  -1.792  -0.294  1.00  0.00    -0.492 OA
ATOM     18  C   UNL     1       2.465  -0.375  -0.197  1.00  0.00     0.278 C 
ENDBRANCH  12  17
BRANCH  14  19
ATOM     19  C   UNL     1       2.372  -5.989   2.211  1.00  0.00     0.139 A 
ATOM     20  N   UNL     1       3.553  -6.120   2.785  1.00  0.00    -0.228 NA
ATOM     21  N   UNL     1       1.823  -7.234   1.972  1.00  0.00    -0.338 N 
ATOM     22  C   UNL     1       3.842  -7.461   2.750  1.00  0.00     0.089 A 
ATOM     23  C   UNL     1       2.765  -8.192   2.265  1.00  0.00     0.066 A 
ATOM     24  H   UNL     1       0.910  -7.406   1.647  1.00  0.00     0.168 HD
ATOM     25  C   UNL     1       5.024  -8.127   3.094  1.00  0.00     0.031 A 
ATOM     26  C   UNL     1       2.789  -9.585   2.118  1.00  0.00     0.031 A 
ATOM     27  C   UNL     1       5.090  -9.516   2.924  1.00  0.00     0.006 A 
ATOM     28  C   UNL     1       3.990 -10.244   2.446  1.00  0.00    -0.049 A 
ATOM     29  C   UNL     1       4.124 -11.732   2.277  1.00  0.00     0.044 C 
ENDBRANCH  14  19
ENDBRANCH   6   9
ENDBRANCH   4   5
ENDBRANCH   3   4
ENDBRANCH   2   3
ENDBRANCH   1   2
BRANCH   1  30
ATOM     30  C   UNL     1       6.861   0.478  -0.601  1.00  0.00     0.021 C 
BRANCH  30  31
ATOM     31  C   UNL     1       7.415   1.681   0.154  1.00  0.00     0.116 C 
BRANCH  31  32
ATOM     32  N   UNL     1       8.860   1.799   0.062  1.00  0.00    -0.352 N 
ATOM     33  C   UNL     1       9.643   2.868  -0.298  1.00  0.00     0.251 C 
ATOM     34  H   UNL     1       9.357   0.982   0.296  1.00  0.00     0.163 HD
ATOM     35  O   UNL     1      10.852   2.722  -0.433  1.00  0.00    -0.269 OA
BRANCH  33  36
ATOM     36  C   UNL     1       9.038   4.195  -0.557  1.00  0.00     0.039 A 
ATOM     37  C   UNL     1       9.482   4.926  -1.663  1.00  0.00     0.014 A 
ATOM     38  C   UNL     1       8.061   4.732   0.285  1.00  0.00     0.014 A 
ATOM     39  C   UNL     1       8.899   6.160  -1.962  1.00  0.00     0.010 A 
ATOM     40  C   UNL     1       7.428   5.927  -0.056  1.00  0.00     0.010 A 
ATOM     41  C   UNL     1       7.839   6.652  -1.185  1.00  0.00    -0.014 A 
BRANCH  41  42
ATOM     42  C   UNL     1       7.134   7.906  -1.559  1.00  0.00     0.031 A 
ATOM     43  C   UNL     1       7.162   9.102  -0.652  1.00  0.00     0.074 A 
ATOM     44  C   UNL     1       6.409   7.941  -2.693  1.00  0.00     0.049 A 
ATOM     45  N   UNL     1       6.568  10.262  -0.790  1.00  0.00    -0.248 NA
ATOM     46  C   UNL     1       7.935   8.969   0.591  1.00  0.00     0.031 C 
ATOM     47  C   UNL     1       6.256   6.827  -3.630  1.00  0.00     0.029 A 
ATOM     48  N   UNL     1       5.653   8.946  -3.245  1.00  0.00    -0.354 N 
ATOM     49  C   UNL     1       6.886  10.989   0.349  1.00  0.00     0.074 A 
ATOM     50  C   UNL     1       7.676  10.119   1.195  1.00  0.00     0.031 C 
ATOM     51  C   UNL     1       5.475   7.214  -4.649  1.00  0.00     0.029 A 
ATOM     52  C   UNL     1       5.036   8.587  -4.418  1.00  0.00     0.049 A 
ATOM     53  H   UNL     1       5.562   9.838  -2.839  1.00  0.00     0.167 HD
ATOM     54  C   UNL     1       6.564  12.270   0.653  1.00  0.00     0.037 A 
ATOM     55  C   UNL     1       4.201   9.281  -5.215  1.00  0.00     0.037 A 
ATOM     56  C   UNL     1       5.785  13.132  -0.198  1.00  0.00     0.049 A 
ATOM     57  C   UNL     1       3.850  10.698  -4.856  1.00  0.00     0.074 A 
ATOM     58  C   UNL     1       5.469  14.467  -0.018  1.00  0.00     0.029 A 
ATOM     59  N   UNL     1       5.182  12.737  -1.385  1.00  0.00    -0.354 N 
ATOM     60  N   UNL     1       4.227  11.405  -3.819  1.00  0.00    -0.248 NA
ATOM     61  C   UNL     1       2.962  11.414  -5.781  1.00  0.00     0.031 C 
ATOM     62  C   UNL     1       4.621  14.861  -1.060  1.00  0.00     0.029 A 
ATOM     63  C   UNL     1       4.462  13.792  -1.926  1.00  0.00     0.049 A 
ATOM     64  H   UNL     1       5.256  11.841  -1.784  1.00  0.00     0.167 HD
ATOM     65  C   UNL     1       3.639  12.653  -3.972  1.00  0.00     0.074 A 
ATOM     66  C   UNL     1       2.896  12.612  -5.216  1.00  0.00     0.031 C 
ATOM     67  C   UNL     1       3.710  13.735  -3.157  1.00  0.00     0.037 A 
BRANCH  54  68
ATOM     68  C   UNL     1       7.043  12.807   1.974  1.00  0.00     0.064 A 
ATOM     69  C   UNL     1       8.406  13.007   2.245  1.00  0.00     0.173 A 
ATOM     70  C   UNL     1       6.123  13.134   2.984  1.00  0.00     0.173 A 
ATOM     71  F   UNL     1       9.330  12.707   1.320  1.00  0.00    -0.203 F 
ATOM     72  C   UNL     1       8.832  13.465   3.490  1.00  0.00     0.198 A 
ATOM     73  C   UNL     1       6.551  13.627   4.214  1.00  0.00     0.198 A 
ATOM     74  F   UNL     1       4.807  12.973   2.779  1.00  0.00    -0.203 F 
ATOM     75  F   UNL     1      10.143  13.579   3.747  1.00  0.00    -0.200 F 
ATOM     76  C   UNL     1       7.905  13.778   4.471  1.00  0.00     0.200 A 
ATOM     77  F   UNL     1       5.652  13.945   5.155  1.00  0.00    -0.200 F 
ATOM     78  F   UNL     1       8.316  14.216   5.670  1.00  0.00    -0.200 F 
ENDBRANCH  54  68
BRANCH  55  79
ATOM     79  C   UNL     1       3.659   8.636  -6.440  1.00  0.00     0.064 A 
ATOM     80  C   UNL     1       4.083   9.035  -7.714  1.00  0.00     0.173 A 
ATOM     81  C   UNL     1       2.737   7.582  -6.358  1.00  0.00     0.173 A 
ATOM     82  F   UNL     1       4.948  10.052  -7.845  1.00  0.00    -0.203 F 
ATOM     83  C   UNL     1       3.601   8.407  -8.861  1.00  0.00     0.198 A 
ATOM     84  C   UNL     1       2.279   6.936  -7.504  1.00  0.00     0.198 A 
ATOM     85  F   UNL     1       2.305   7.159  -5.161  1.00  0.00    -0.203 F 
ATOM     86  F   UNL     1       3.999   8.828 -10.070  1.00  0.00    -0.200 F 
ATOM     87  C   UNL     1       2.708   7.352  -8.755  1.00  0.00     0.200 A 
ATOM     88  F   UNL     1       1.430   5.905  -7.394  1.00  0.00    -0.200 F 
ATOM     89  F   UNL     1       2.259   6.737  -9.857  1.00  0.00    -0.200 F 
ENDBRANCH  55  79
BRANCH  67  90
ATOM     90  C   UNL     1       2.971  14.970  -3.587  1.00  0.00     0.064 A 
ATOM     91  C   UNL     1       1.569  15.031  -3.579  1.00  0.00     0.173 A 
ATOM     92  C   UNL     1       3.673  16.121  -3.978  1.00  0.00     0.173 A 
ATOM     93  F   UNL     1       0.848  13.954  -3.229  1.00  0.00    -0.203 F 
ATOM     94  C   UNL     1       0.899  16.187  -3.973  1.00  0.00     0.198 A 
ATOM     95  C   UNL     1       3.001  17.286  -4.338  1.00  0.00     0.198 A 
ATOM     96  F   UNL     1       5.014  16.121  -3.998  1.00  0.00    -0.203 F 
ATOM     97  F   UNL     1      -0.441  16.203  -4.008  1.00  0.00    -0.200 F 
ATOM     98  C   UNL     1       1.615  17.315  -4.343  1.00  0.00     0.200 A 
ATOM     99  F   UNL     1       3.695  18.380  -4.680  1.00  0.00    -0.200 F 
ATOM    100  F   UNL     1       0.968  18.429  -4.714  1.00  0.00    -0.200 F 
ENDBRANCH  67  90
ENDBRANCH  41  42
ENDBRANCH  33  36
ENDBRANCH  31  32
ENDBRANCH  30  31
ENDBRANCH   1  30
TORSDOF 16
