REMARK SMILES COc1cccc(NC(=O)/C(C#N)=C\c2ccc(O[C@@H](C)C(=O)NCCCCCCNC(=O)c3ccc(-c4c5nc(c(-c6c(F)c(F)c(F)c(F)c6F)c6ccc([nH]6)c(-c6c(F)c(F)c(F)c(F)c6F)c6nc(c(-c7c(F)c(F)c(F)c(F)c7F)c7ccc4[nH]7)C=C6)C=C5)cc3)cc2)c1
REMARK SMILES IDX 25 1 24 2 22 3 23 4 20 6 21 7 19 8 18 9 15 10 16 11 98 12
REMARK SMILES IDX 17 13 97 14 14 15 11 16 9 17 8 18 10 20 7 21 3 22 4 23 99 24
REMARK SMILES IDX 5 25 6 26 2 27 1 28 12 29 13 30 26 31 27 32 28 33 29 34
REMARK SMILES IDX 30 35 31 36 32 37 33 39 34 40 35 41 96 42 36 43 95 44 37 45
REMARK SMILES IDX 38 46 39 47 89 48 40 49 94 50 88 51 90 52 41 53 93 54 87 55
REMARK SMILES IDX 86 56 42 58 74 59 54 60 73 61 55 62 58 63 72 64 91 65 56 66
REMARK SMILES IDX 57 67 71 69 92 70 59 71 43 72 44 73 52 74 45 75 46 76 50 77
REMARK SMILES IDX 53 78 47 79 48 80 51 81 49 82 75 83 76 84 84 85 77 86 78 87
REMARK SMILES IDX 82 88 85 89 79 90 80 91 83 92 81 93 60 94 61 95 69 96 62 97
REMARK SMILES IDX 63 98 67 99 70 100 64 101 65 102 68 103 66 104
REMARK H PARENT 24 5 8 19 31 38 90 57 58 68
REMARK Flexibility Score: inf
ROOT
ATOM      1  C   UNL     1       8.405   6.467   4.993  1.00  0.00     0.116 C 
ENDROOT
BRANCH   1   2
ATOM      2  N   UNL     1       9.498   7.029   5.772  1.00  0.00    -0.353 N 
ATOM      3  C   UNL     1      10.285   6.579   6.788  1.00  0.00     0.260 C 
ATOM      4  O   UNL     1      11.084   7.418   7.232  1.00  0.00    -0.271 OA
ATOM      5  H   UNL     1       9.720   7.949   5.503  1.00  0.00     0.163 HD
BRANCH   3   6
ATOM      6  C   UNL     1      10.310   5.133   7.382  1.00  0.00     0.258 C 
ATOM      7  C   UNL     1      10.747   4.058   6.383  1.00  0.00     0.064 C 
BRANCH   6   8
ATOM      8  O   UNL     1       9.361   4.709   8.368  1.00  0.00    -0.481 OA
BRANCH   8   9
ATOM      9  C   UNL     1       8.067   4.578   7.987  1.00  0.00     0.120 A 
ATOM     10  C   UNL     1       5.382   4.570   7.117  1.00  0.00    -0.024 A 
ATOM     11  C   UNL     1       5.745   5.221   8.303  1.00  0.00     0.012 A 
ATOM     12  C   UNL     1       6.386   3.840   6.460  1.00  0.00     0.012 A 
ATOM     13  C   UNL     1       7.084   5.231   8.729  1.00  0.00     0.047 A 
ATOM     14  C   UNL     1       7.690   3.779   6.931  1.00  0.00     0.047 A 
BRANCH  10  15
ATOM     15  C   UNL     1       4.027   4.771   6.538  1.00  0.00     0.033 C 
ATOM     16  C   UNL     1       3.446   4.014   5.589  1.00  0.00     0.118 C 
BRANCH  16  17
ATOM     17  C   UNL     1       4.003   2.622   5.257  1.00  0.00     0.266 C 
ATOM     18  N   UNL     1       4.260   2.312   3.940  1.00  0.00    -0.321 N 
ATOM     19  H   UNL     1       5.204   2.246   3.669  1.00  0.00     0.170 HD
ATOM     20  O   UNL     1       4.345   1.844   6.146  1.00  0.00    -0.268 OA
BRANCH  18  21
ATOM     21  C   UNL     1       3.288   2.079   2.946  1.00  0.00     0.045 A 
ATOM     22  C   UNL     1       2.687   1.737   0.638  1.00  0.00     0.120 A 
ATOM     23  C   UNL     1       1.339   1.826   0.967  1.00  0.00     0.046 A 
ATOM     24  C   UNL     1       3.669   1.927   1.613  1.00  0.00     0.072 A 
ATOM     25  C   UNL     1       0.978   1.846   2.302  1.00  0.00     0.006 A 
ATOM     26  C   UNL     1       1.955   1.886   3.280  1.00  0.00     0.026 A 
BRANCH  22  27
ATOM     27  O   UNL     1       3.092   1.433  -0.634  1.00  0.00    -0.497 OA
ATOM     28  C   UNL     1       2.386   0.297  -1.153  1.00  0.00     0.278 C 
ENDBRANCH  22  27
ENDBRANCH  18  21
ENDBRANCH  16  17
BRANCH  16  29
ATOM     29  C   UNL     1       1.978   4.070   5.200  1.00  0.00     0.105 C 
ATOM     30  N   UNL     1       0.759   4.116   4.877  1.00  0.00    -0.192 NA
ENDBRANCH  16  29
ENDBRANCH  10  15
ENDBRANCH   8   9
ENDBRANCH   6   8
ENDBRANCH   3   6
ENDBRANCH   1   2
BRANCH   1  31
ATOM     31  C   UNL     1       7.037   6.999   5.447  1.00  0.00     0.021 C 
BRANCH  31  32
ATOM     32  C   UNL     1       6.417   8.159   4.655  1.00  0.00     0.002 C 
BRANCH  32  33
ATOM     33  C   UNL     1       5.751   7.783   3.316  1.00  0.00     0.002 C 
BRANCH  33  34
ATOM     34  C   UNL     1       4.544   6.818   3.344  1.00  0.00     0.021 C 
BRANCH  34  35
ATOM     35  C   UNL     1       3.231   7.319   3.978  1.00  0.00     0.116 C 
BRANCH  35  36
ATOM     36  N   UNL     1       2.542   8.317   3.176  1.00  0.00    -0.352 N 
ATOM     37  C   UNL     1       1.283   8.354   2.608  1.00  0.00     0.251 C 
ATOM     38  H   UNL     1       3.078   9.124   3.003  1.00  0.00     0.163 HD
ATOM     39  O   UNL     1       1.030   9.276   1.833  1.00  0.00    -0.269 OA
BRANCH  37  40
ATOM     40  C   UNL     1       0.211   7.350   2.872  1.00  0.00     0.039 A 
ATOM     41  C   UNL     1      -0.598   6.917   1.810  1.00  0.00     0.014 A 
ATOM     42  C   UNL     1      -0.127   6.925   4.147  1.00  0.00     0.014 A 
ATOM     43  C   UNL     1      -1.650   5.989   2.007  1.00  0.00     0.010 A 
ATOM     44  C   UNL     1      -1.154   5.966   4.325  1.00  0.00     0.010 A 
ATOM     45  C   UNL     1      -1.903   5.417   3.261  1.00  0.00    -0.014 A 
BRANCH  45  46
ATOM     46  C   UNL     1      -2.849   4.240   3.492  1.00  0.00     0.031 A 
ATOM     47  C   UNL     1      -3.760   4.177   4.712  1.00  0.00     0.074 A 
ATOM     48  C   UNL     1      -2.849   3.124   2.716  1.00  0.00     0.049 A 
ATOM     49  N   UNL     1      -4.471   3.170   5.176  1.00  0.00    -0.248 NA
ATOM     50  C   UNL     1      -3.892   5.402   5.513  1.00  0.00     0.031 C 
ATOM     51  C   UNL     1      -2.113   2.921   1.471  1.00  0.00     0.029 A 
ATOM     52  N   UNL     1      -3.450   1.887   2.925  1.00  0.00    -0.354 N 
ATOM     53  C   UNL     1      -5.137   3.650   6.297  1.00  0.00     0.074 A 
ATOM     54  C   UNL     1      -4.638   4.989   6.527  1.00  0.00     0.031 C 
ATOM     55  C   UNL     1      -2.210   1.634   1.095  1.00  0.00     0.029 A 
ATOM     56  C   UNL     1      -2.987   0.900   2.082  1.00  0.00     0.049 A 
ATOM     57  H   UNL     1      -4.140   1.731   3.610  1.00  0.00     0.167 HD
ATOM     58  C   UNL     1      -6.143   3.089   7.018  1.00  0.00     0.037 A 
ATOM     59  C   UNL     1      -3.108  -0.443   2.099  1.00  0.00     0.037 A 
ATOM     60  C   UNL     1      -6.729   1.795   6.783  1.00  0.00     0.049 A 
ATOM     61  C   UNL     1      -4.070  -1.123   3.024  1.00  0.00     0.074 A 
ATOM     62  C   UNL     1      -7.882   1.254   7.331  1.00  0.00     0.029 A 
ATOM     63  N   UNL     1      -6.202   0.830   5.945  1.00  0.00    -0.354 N 
ATOM     64  N   UNL     1      -4.801  -0.604   3.971  1.00  0.00    -0.248 NA
ATOM     65  C   UNL     1      -4.293  -2.565   2.814  1.00  0.00     0.031 C 
ATOM     66  C   UNL     1      -8.035  -0.053   6.849  1.00  0.00     0.029 A 
ATOM     67  C   UNL     1      -6.991  -0.313   5.981  1.00  0.00     0.049 A 
ATOM     68  H   UNL     1      -5.388   0.937   5.403  1.00  0.00     0.167 HD
ATOM     69  C   UNL     1      -5.659  -1.615   4.381  1.00  0.00     0.074 A 
ATOM     70  C   UNL     1      -5.300  -2.805   3.644  1.00  0.00     0.031 C 
ATOM     71  C   UNL     1      -6.699  -1.513   5.241  1.00  0.00     0.037 A 
BRANCH  58  72
ATOM     72  C   UNL     1      -6.762   3.942   8.089  1.00  0.00     0.064 A 
ATOM     73  C   UNL     1      -7.532   5.067   7.753  1.00  0.00     0.173 A 
ATOM     74  C   UNL     1      -6.618   3.624   9.446  1.00  0.00     0.173 A 
ATOM     75  F   UNL     1      -7.704   5.408   6.466  1.00  0.00    -0.203 F 
ATOM     76  C   UNL     1      -8.088   5.876   8.738  1.00  0.00     0.198 A 
ATOM     77  C   UNL     1      -7.204   4.419  10.429  1.00  0.00     0.198 A 
ATOM     78  F   UNL     1      -5.913   2.546   9.819  1.00  0.00    -0.203 F 
ATOM     79  F   UNL     1      -8.764   6.980   8.392  1.00  0.00    -0.200 F 
ATOM     80  C   UNL     1      -7.926   5.550  10.075  1.00  0.00     0.200 A 
ATOM     81  F   UNL     1      -7.063   4.096  11.722  1.00  0.00    -0.200 F 
ATOM     82  F   UNL     1      -8.460   6.331  11.024  1.00  0.00    -0.200 F 
ENDBRANCH  58  72
BRANCH  59  83
ATOM     83  C   UNL     1      -2.301  -1.273   1.167  1.00  0.00     0.064 A 
ATOM     84  C   UNL     1      -2.813  -1.684  -0.069  1.00  0.00     0.173 A 
ATOM     85  C   UNL     1      -1.018  -1.707   1.529  1.00  0.00     0.173 A 
ATOM     86  F   UNL     1      -4.048  -1.315  -0.436  1.00  0.00    -0.203 F 
ATOM     87  C   UNL     1      -2.069  -2.505  -0.913  1.00  0.00     0.198 A 
ATOM     88  C   UNL     1      -0.273  -2.524   0.681  1.00  0.00     0.198 A 
ATOM     89  F   UNL     1      -0.498  -1.356   2.714  1.00  0.00    -0.203 F 
ATOM     90  F   UNL     1      -2.587  -2.904  -2.082  1.00  0.00    -0.200 F 
ATOM     91  C   UNL     1      -0.800  -2.923  -0.538  1.00  0.00     0.200 A 
ATOM     92  F   UNL     1       0.951  -2.931   1.044  1.00  0.00    -0.200 F 
ATOM     93  F   UNL     1      -0.088  -3.716  -1.350  1.00  0.00    -0.200 F 
ENDBRANCH  59  83
BRANCH  71  94
ATOM     94  C   UNL     1      -7.641  -2.675   5.335  1.00  0.00     0.064 A 
ATOM     95  C   UNL     1      -7.314  -3.861   6.005  1.00  0.00     0.173 A 
ATOM     96  C   UNL     1      -8.908  -2.590   4.734  1.00  0.00     0.173 A 
ATOM     97  F   UNL     1      -6.106  -4.004   6.571  1.00  0.00    -0.203 F 
ATOM     98  C   UNL     1      -8.213  -4.925   6.056  1.00  0.00     0.198 A 
ATOM     99  C   UNL     1      -9.812  -3.646   4.806  1.00  0.00     0.198 A 
ATOM    100  F   UNL     1      -9.269  -1.481   4.071  1.00  0.00    -0.203 F 
ATOM    101  F   UNL     1      -7.863  -6.067   6.664  1.00  0.00    -0.200 F 
ATOM    102  C   UNL     1      -9.462  -4.815   5.462  1.00  0.00     0.200 A 
ATOM    103  F   UNL     1     -11.018  -3.535   4.232  1.00  0.00    -0.200 F 
ATOM    104  F   UNL     1     -10.324  -5.841   5.512  1.00  0.00    -0.200 F 
ENDBRANCH  71  94
ENDBRANCH  45  46
ENDBRANCH  37  40
ENDBRANCH  35  36
ENDBRANCH  34  35
ENDBRANCH  33  34
ENDBRANCH  32  33
ENDBRANCH  31  32
ENDBRANCH   1  31
TORSDOF 20
