REMARK SMILES CC(C)C[NH+]1CC[NH+]([C@H](C)[C@@H](C)C(=O)NCCCCCCNC(=O)c2ccc(-c3c4nc(c(-c5c(F)c(F)c(F)c(F)c5F)c5ccc([nH]5)c(-c5c(F)c(F)c(F)c(F)c5F)c5nc(c(-c6c(F)c(F)c(F)c(F)c6F)c6ccc3[nH]6)C=C5)C=C4)cc2)CC1
REMARK SMILES IDX 17 1 16 2 15 3 13 4 14 5 11 7 12 8 9 9 10 10 8 11 5 12 6 13
REMARK SMILES IDX 89 14 7 16 88 17 4 19 2 20 1 21 3 22 18 23 19 24 20 25 21 26
REMARK SMILES IDX 22 27 23 28 24 30 25 31 26 32 87 33 27 34 86 35 28 36 29 37
REMARK SMILES IDX 30 38 80 39 31 40 85 41 79 42 81 43 32 44 84 45 78 46 77 47
REMARK SMILES IDX 33 49 65 50 45 51 64 52 46 53 49 54 63 55 82 56 47 57 48 58
REMARK SMILES IDX 62 60 83 61 50 62 34 63 35 64 43 65 36 66 37 67 41 68 44 69
REMARK SMILES IDX 38 70 39 71 42 72 40 73 66 74 67 75 75 76 68 77 69 78 73 79
REMARK SMILES IDX 76 80 70 81 71 82 74 83 72 84 51 85 52 86 60 87 53 88 54 89
REMARK SMILES IDX 58 90 61 91 55 92 56 93 59 94 57 95
REMARK H PARENT 15 6 5 15 8 18 22 29 81 48 49 59
REMARK Flexibility Score: inf
ROOT
ATOM      1  C   UNL     1      -5.543   3.592   2.868  1.00  0.00     0.021 C 
ENDROOT
BRANCH   1   2
ATOM      2  C   UNL     1      -5.596   2.232   3.561  1.00  0.00     0.116 C 
BRANCH   2   3
ATOM      3  N   UNL     1      -6.425   1.302   2.829  1.00  0.00    -0.356 N 
ATOM      4  C   UNL     1      -6.102   0.186   2.127  1.00  0.00     0.228 C 
ATOM      5  O   UNL     1      -7.027  -0.428   1.584  1.00  0.00    -0.275 OA
ATOM      6  H   UNL     1      -7.386   1.513   2.842  1.00  0.00     0.163 HD
BRANCH   4   7
ATOM      7  C   UNL     1      -4.679  -0.359   2.074  1.00  0.00     0.133 C 
ATOM      8  C   UNL     1      -4.294  -0.884   3.465  1.00  0.00     0.024 C 
BRANCH   7   9
ATOM      9  C   UNL     1      -3.646   0.597   1.395  1.00  0.00     0.193 C 
ATOM     10  C   UNL     1      -2.228  -0.008   1.486  1.00  0.00     0.076 C 
BRANCH   9  11
ATOM     11  N   UNL     1      -4.035   1.026   0.022  1.00  0.00    -0.323 N 
ATOM     12  N   UNL     1      -3.358   0.877  -2.909  1.00  0.00    -0.325 N 
ATOM     13  C   UNL     1      -4.616   0.312  -2.363  1.00  0.00     0.324 C 
ATOM     14  C   UNL     1      -3.106   2.103  -2.151  1.00  0.00     0.324 C 
ATOM     15  H   UNL     1      -3.377   1.180  -3.882  1.00  0.00     0.348 HD
ATOM     16  C   UNL     1      -4.514  -0.048  -0.859  1.00  0.00     0.324 C 
ATOM     17  C   UNL     1      -3.110   1.987  -0.605  1.00  0.00     0.324 C 
ATOM     18  H   UNL     1      -4.879   1.577   0.176  1.00  0.00     0.348 HD
BRANCH  12  19
ATOM     19  C   UNL     1      -2.340  -0.185  -2.962  1.00  0.00     0.265 C 
BRANCH  19  20
ATOM     20  C   UNL     1      -0.807   0.022  -3.027  1.00  0.00     0.038 C 
ATOM     21  C   UNL     1      -0.180   0.751  -1.844  1.00  0.00     0.013 C 
ATOM     22  C   UNL     1      -0.175  -1.387  -3.063  1.00  0.00     0.013 C 
ENDBRANCH  19  20
ENDBRANCH  12  19
ENDBRANCH   9  11
ENDBRANCH   7   9
ENDBRANCH   4   7
ENDBRANCH   2   3
ENDBRANCH   1   2
BRANCH   1  23
ATOM     23  C   UNL     1      -6.867   4.364   2.917  1.00  0.00     0.002 C 
BRANCH  23  24
ATOM     24  C   UNL     1      -7.458   4.546   4.320  1.00  0.00     0.002 C 
BRANCH  24  25
ATOM     25  C   UNL     1      -6.499   5.135   5.357  1.00  0.00     0.021 C 
BRANCH  25  26
ATOM     26  C   UNL     1      -5.944   6.508   4.995  1.00  0.00     0.116 C 
BRANCH  26  27
ATOM     27  N   UNL     1      -6.992   7.511   4.921  1.00  0.00    -0.352 N 
ATOM     28  C   UNL     1      -7.088   8.717   5.567  1.00  0.00     0.251 C 
ATOM     29  H   UNL     1      -7.740   7.295   4.320  1.00  0.00     0.163 HD
ATOM     30  O   UNL     1      -8.140   9.345   5.551  1.00  0.00    -0.269 OA
BRANCH  28  31
ATOM     31  C   UNL     1      -5.921   9.255   6.300  1.00  0.00     0.039 A 
ATOM     32  C   UNL     1      -6.122   9.826   7.559  1.00  0.00     0.014 A 
ATOM     33  C   UNL     1      -4.642   9.224   5.737  1.00  0.00     0.014 A 
ATOM     34  C   UNL     1      -5.032  10.325   8.274  1.00  0.00     0.010 A 
ATOM     35  C   UNL     1      -3.547   9.658   6.480  1.00  0.00     0.010 A 
ATOM     36  C   UNL     1      -3.732  10.224   7.751  1.00  0.00    -0.014 A 
BRANCH  36  37
ATOM     37  C   UNL     1      -2.558  10.722   8.511  1.00  0.00     0.031 A 
ATOM     38  C   UNL     1      -1.750  11.873   7.979  1.00  0.00     0.074 A 
ATOM     39  C   UNL     1      -2.188  10.102   9.649  1.00  0.00     0.049 A 
ATOM     40  N   UNL     1      -0.658  12.412   8.461  1.00  0.00    -0.248 NA
ATOM     41  C   UNL     1      -2.214  12.486   6.723  1.00  0.00     0.031 C 
ATOM     42  C   UNL     1      -2.866   8.949  10.243  1.00  0.00     0.029 A 
ATOM     43  N   UNL     1      -1.144  10.350  10.505  1.00  0.00    -0.354 N 
ATOM     44  C   UNL     1      -0.295  13.404   7.559  1.00  0.00     0.074 A 
ATOM     45  C   UNL     1      -1.256  13.368   6.479  1.00  0.00     0.031 C 
ATOM     46  C   UNL     1      -2.233   8.603  11.377  1.00  0.00     0.029 A 
ATOM     47  C   UNL     1      -1.086   9.485  11.570  1.00  0.00     0.049 A 
ATOM     48  H   UNL     1      -0.497  11.080  10.367  1.00  0.00     0.167 HD
ATOM     49  C   UNL     1       0.736  14.278   7.637  1.00  0.00     0.037 A 
ATOM     50  C   UNL     1      -0.203   9.410  12.584  1.00  0.00     0.037 A 
ATOM     51  C   UNL     1       1.662  14.341   8.737  1.00  0.00     0.049 A 
ATOM     52  C   UNL     1       0.928  10.403  12.646  1.00  0.00     0.074 A 
ATOM     53  C   UNL     1       2.689  15.245   8.948  1.00  0.00     0.029 A 
ATOM     54  N   UNL     1       1.672  13.465   9.811  1.00  0.00    -0.354 N 
ATOM     55  N   UNL     1       1.211  11.389  11.830  1.00  0.00    -0.248 NA
ATOM     56  C   UNL     1       1.858  10.276  13.777  1.00  0.00     0.031 C 
ATOM     57  C   UNL     1       3.352  14.886  10.125  1.00  0.00     0.029 A 
ATOM     58  C   UNL     1       2.704  13.792  10.676  1.00  0.00     0.049 A 
ATOM     59  H   UNL     1       1.040  12.721   9.940  1.00  0.00     0.167 HD
ATOM     60  C   UNL     1       2.322  12.023  12.370  1.00  0.00     0.074 A 
ATOM     61  C   UNL     1       2.656  11.317  13.588  1.00  0.00     0.031 C 
ATOM     62  C   UNL     1       3.006  13.094  11.898  1.00  0.00     0.037 A 
BRANCH  49  63
ATOM     63  C   UNL     1       0.924  15.248   6.507  1.00  0.00     0.064 A 
ATOM     64  C   UNL     1       0.045  16.322   6.303  1.00  0.00     0.173 A 
ATOM     65  C   UNL     1       2.038  15.141   5.661  1.00  0.00     0.173 A 
ATOM     66  F   UNL     1      -1.041  16.462   7.078  1.00  0.00    -0.203 F 
ATOM     67  C   UNL     1       0.266  17.244   5.283  1.00  0.00     0.198 A 
ATOM     68  C   UNL     1       2.271  16.081   4.660  1.00  0.00     0.198 A 
ATOM     69  F   UNL     1       2.912  14.136   5.817  1.00  0.00    -0.203 F 
ATOM     70  F   UNL     1      -0.606  18.242   5.084  1.00  0.00    -0.200 F 
ATOM     71  C   UNL     1       1.383  17.129   4.470  1.00  0.00     0.200 A 
ATOM     72  F   UNL     1       3.359  15.976   3.885  1.00  0.00    -0.200 F 
ATOM     73  F   UNL     1       1.603  18.027   3.500  1.00  0.00    -0.200 F 
ENDBRANCH  49  63
BRANCH  50  74
ATOM     74  C   UNL     1      -0.353   8.373  13.639  1.00  0.00     0.064 A 
ATOM     75  C   UNL     1      -0.671   8.731  14.957  1.00  0.00     0.173 A 
ATOM     76  C   UNL     1      -0.143   7.014  13.366  1.00  0.00     0.173 A 
ATOM     77  F   UNL     1      -0.861  10.020  15.274  1.00  0.00    -0.203 F 
ATOM     78  C   UNL     1      -0.736   7.774  15.968  1.00  0.00     0.198 A 
ATOM     79  C   UNL     1      -0.240   6.054  14.371  1.00  0.00     0.198 A 
ATOM     80  F   UNL     1       0.158   6.617  12.120  1.00  0.00    -0.203 F 
ATOM     81  F   UNL     1      -0.978   8.152  17.231  1.00  0.00    -0.200 F 
ATOM     82  C   UNL     1      -0.524   6.436  15.674  1.00  0.00     0.200 A 
ATOM     83  F   UNL     1      -0.048   4.761  14.080  1.00  0.00    -0.200 F 
ATOM     84  F   UNL     1      -0.579   5.517  16.647  1.00  0.00    -0.200 F 
ENDBRANCH  50  74
BRANCH  62  85
ATOM     85  C   UNL     1       4.147  13.604  12.730  1.00  0.00     0.064 A 
ATOM     86  C   UNL     1       5.351  12.895  12.848  1.00  0.00     0.173 A 
ATOM     87  C   UNL     1       4.043  14.838  13.390  1.00  0.00     0.173 A 
ATOM     88  F   UNL     1       5.494  11.703  12.248  1.00  0.00    -0.203 F 
ATOM     89  C   UNL     1       6.399  13.389  13.619  1.00  0.00     0.198 A 
ATOM     90  C   UNL     1       5.105  15.345  14.133  1.00  0.00     0.198 A 
ATOM     91  F   UNL     1       2.916  15.560  13.302  1.00  0.00    -0.203 F 
ATOM     92  F   UNL     1       7.521  12.670  13.760  1.00  0.00    -0.200 F 
ATOM     93  C   UNL     1       6.278  14.616  14.255  1.00  0.00     0.200 A 
ATOM     94  F   UNL     1       4.992  16.538  14.734  1.00  0.00    -0.200 F 
ATOM     95  F   UNL     1       7.291  15.093  14.991  1.00  0.00    -0.200 F 
ENDBRANCH  62  85
ENDBRANCH  36  37
ENDBRANCH  28  31
ENDBRANCH  26  27
ENDBRANCH  25  26
ENDBRANCH  24  25
ENDBRANCH  23  24
ENDBRANCH   1  23
TORSDOF 17
