REMARK SMILES CCOC(=O)c1c(C)nn(-c2ncccc2NC(=O)/C=C/C(=O)NCCCCCCNC(=O)c2ccc(-c3c4nc(c(-c5c(F)c(F)c(F)c(F)c5F)c5ccc([nH]5)c(-c5c(F)c(F)c(F)c(F)c5F)c5nc(c(-c6c(F)c(F)c(F)c(F)c6F)c6ccc3[nH]6)C=C5)C=C4)cc2)c1C
REMARK SMILES IDX 25 1 24 2 22 3 23 4 21 6 20 7 18 8 17 9 19 11 16 12 11 13
REMARK SMILES IDX 12 14 13 15 15 16 14 17 10 18 6 19 7 20 97 21 8 22 9 23
REMARK SMILES IDX 98 24 4 25 5 26 3 27 2 28 1 29 26 30 27 31 28 32 29 33 30 34
REMARK SMILES IDX 31 35 32 36 33 38 34 39 35 40 96 41 36 42 95 43 37 44 38 45
REMARK SMILES IDX 39 46 89 47 40 48 94 49 88 50 90 51 41 52 93 53 87 54 86 55
REMARK SMILES IDX 42 57 74 58 54 59 73 60 55 61 58 62 72 63 91 64 56 65 57 66
REMARK SMILES IDX 71 68 92 69 59 70 43 71 44 72 52 73 45 74 46 75 50 76 53 77
REMARK SMILES IDX 47 78 48 79 51 80 49 81 75 82 76 83 84 84 77 85 78 86 82 87
REMARK SMILES IDX 85 88 79 89 80 90 83 91 81 92 60 93 61 94 69 95 62 96 63 97
REMARK SMILES IDX 67 98 70 99 64 100 65 101 68 102 66 103
REMARK H PARENT 24 5 17 10 31 37 90 56 58 67
REMARK Flexibility Score: inf
ROOT
ATOM      1  C   UNL     1       3.980   4.430   0.541  1.00  0.00     0.116 C 
ENDROOT
BRANCH   1   2
ATOM      2  N   UNL     1       3.989   5.872   0.438  1.00  0.00    -0.353 N 
ATOM      3  C   UNL     1       4.270   6.809   1.397  1.00  0.00     0.244 C 
ATOM      4  O   UNL     1       4.336   7.994   1.076  1.00  0.00    -0.270 OA
ATOM      5  H   UNL     1       3.760   6.232  -0.449  1.00  0.00     0.163 HD
BRANCH   3   6
ATOM      6  C   UNL     1       4.368   6.464   2.843  1.00  0.00     0.077 C 
ATOM      7  C   UNL     1       5.416   5.857   3.420  1.00  0.00     0.077 C 
BRANCH   7   8
ATOM      8  C   UNL     1       5.665   5.488   4.864  1.00  0.00     0.248 C 
ATOM      9  N   UNL     1       4.771   5.611   5.895  1.00  0.00    -0.319 N 
ATOM     10  H   UNL     1       5.176   5.485   6.783  1.00  0.00     0.170 HD
ATOM     11  O   UNL     1       6.798   5.082   5.150  1.00  0.00    -0.270 OA
BRANCH   9  12
ATOM     12  C   UNL     1       3.390   5.880   5.940  1.00  0.00     0.086 A 
ATOM     13  C   UNL     1       2.360   5.279   5.192  1.00  0.00     0.177 A 
ATOM     14  N   UNL     1       1.092   5.787   5.163  1.00  0.00    -0.235 NA
ATOM     15  C   UNL     1       0.841   6.872   5.934  1.00  0.00     0.114 A 
ATOM     16  C   UNL     1       3.008   6.818   6.903  1.00  0.00     0.032 A 
ATOM     17  C   UNL     1       1.731   7.362   6.871  1.00  0.00     0.022 A 
BRANCH  13  18
ATOM     18  N   UNL     1       2.609   4.019   4.550  1.00  0.00    -0.216 N 
ATOM     19  C   UNL     1       2.498   2.048   3.529  1.00  0.00     0.104 A 
ATOM     20  C   UNL     1       3.801   2.572   3.505  1.00  0.00     0.075 A 
ATOM     21  C   UNL     1       1.766   2.939   4.317  1.00  0.00     0.058 A 
ATOM     22  C   UNL     1       5.062   2.103   2.880  1.00  0.00     0.070 C 
ATOM     23  N   UNL     1       3.856   3.701   4.183  1.00  0.00    -0.171 NA
ATOM     24  C   UNL     1       0.467   2.774   5.022  1.00  0.00     0.068 C 
BRANCH  19  25
ATOM     25  C   UNL     1       2.103   0.803   2.911  1.00  0.00     0.341 C 
ATOM     26  O   UNL     1       2.874  -0.104   2.696  1.00  0.00    -0.246 OA
BRANCH  25  27
ATOM     27  O   UNL     1       0.809   0.854   2.479  1.00  0.00    -0.462 OA
BRANCH  27  28
ATOM     28  C   UNL     1       0.442  -0.234   1.634  1.00  0.00     0.230 C 
ATOM     29  C   UNL     1       0.968  -0.018   0.226  1.00  0.00     0.049 C 
ENDBRANCH  27  28
ENDBRANCH  25  27
ENDBRANCH  19  25
ENDBRANCH  13  18
ENDBRANCH   9  12
ENDBRANCH   7   8
ENDBRANCH   3   6
ENDBRANCH   1   2
BRANCH   1  30
ATOM     30  C   UNL     1       3.200   3.645  -0.527  1.00  0.00     0.021 C 
BRANCH  30  31
ATOM     31  C   UNL     1       3.622   3.718  -2.002  1.00  0.00     0.002 C 
BRANCH  31  32
ATOM     32  C   UNL     1       5.113   3.739  -2.352  1.00  0.00     0.002 C 
BRANCH  32  33
ATOM     33  C   UNL     1       5.981   2.551  -1.920  1.00  0.00     0.021 C 
BRANCH  33  34
ATOM     34  C   UNL     1       5.602   1.193  -2.505  1.00  0.00     0.116 C 
BRANCH  34  35
ATOM     35  N   UNL     1       5.607   1.146  -3.966  1.00  0.00    -0.352 N 
ATOM     36  C   UNL     1       5.258   0.101  -4.801  1.00  0.00     0.251 C 
ATOM     37  H   UNL     1       5.900   1.971  -4.417  1.00  0.00     0.163 HD
ATOM     38  O   UNL     1       5.594   0.103  -5.981  1.00  0.00    -0.269 OA
BRANCH  36  39
ATOM     39  C   UNL     1       4.492  -1.039  -4.262  1.00  0.00     0.039 A 
ATOM     40  C   UNL     1       4.791  -2.353  -4.641  1.00  0.00     0.014 A 
ATOM     41  C   UNL     1       3.477  -0.789  -3.346  1.00  0.00     0.014 A 
ATOM     42  C   UNL     1       4.129  -3.412  -4.018  1.00  0.00     0.010 A 
ATOM     43  C   UNL     1       2.937  -1.832  -2.631  1.00  0.00     0.010 A 
ATOM     44  C   UNL     1       3.216  -3.148  -2.988  1.00  0.00    -0.014 A 
BRANCH  44  45
ATOM     45  C   UNL     1       2.636  -4.237  -2.195  1.00  0.00     0.031 A 
ATOM     46  C   UNL     1       3.626  -5.142  -1.543  1.00  0.00     0.074 A 
ATOM     47  C   UNL     1       1.328  -4.281  -1.849  1.00  0.00     0.049 A 
ATOM     48  N   UNL     1       3.725  -6.426  -1.658  1.00  0.00    -0.248 NA
ATOM     49  C   UNL     1       4.681  -4.540  -0.708  1.00  0.00     0.031 C 
ATOM     50  C   UNL     1       0.311  -3.259  -2.132  1.00  0.00     0.029 A 
ATOM     51  N   UNL     1       0.649  -5.163  -1.051  1.00  0.00    -0.354 N 
ATOM     52  C   UNL     1       4.722  -6.817  -0.763  1.00  0.00     0.074 A 
ATOM     53  C   UNL     1       5.379  -5.613  -0.330  1.00  0.00     0.031 C 
ATOM     54  C   UNL     1      -0.745  -3.431  -1.312  1.00  0.00     0.029 A 
ATOM     55  C   UNL     1      -0.572  -4.680  -0.594  1.00  0.00     0.049 A 
ATOM     56  H   UNL     1       0.993  -6.057  -0.823  1.00  0.00     0.167 HD
ATOM     57  C   UNL     1       4.731  -8.074  -0.241  1.00  0.00     0.037 A 
ATOM     58  C   UNL     1      -1.399  -5.237   0.322  1.00  0.00     0.037 A 
ATOM     59  C   UNL     1       3.847  -8.947  -0.964  1.00  0.00     0.049 A 
ATOM     60  C   UNL     1      -1.100  -6.680   0.403  1.00  0.00     0.074 A 
ATOM     61  C   UNL     1       3.886  -9.715  -2.104  1.00  0.00     0.029 A 
ATOM     62  N   UNL     1       2.538  -8.829  -0.594  1.00  0.00    -0.354 N 
ATOM     63  N   UNL     1      -1.304  -7.512  -0.580  1.00  0.00    -0.248 NA
ATOM     64  C   UNL     1      -0.276  -7.186   1.496  1.00  0.00     0.031 C 
ATOM     65  C   UNL     1       2.529  -9.967  -2.468  1.00  0.00     0.029 A 
ATOM     66  C   UNL     1       1.698  -9.360  -1.533  1.00  0.00     0.049 A 
ATOM     67  H   UNL     1       2.236  -8.412   0.245  1.00  0.00     0.167 HD
ATOM     68  C   UNL     1      -0.307  -8.451  -0.431  1.00  0.00     0.074 A 
ATOM     69  C   UNL     1       0.161  -8.318   0.940  1.00  0.00     0.031 C 
ATOM     70  C   UNL     1       0.301  -8.999  -1.519  1.00  0.00     0.037 A 
BRANCH  57  71
ATOM     71  C   UNL     1       5.128  -8.427   1.179  1.00  0.00     0.064 A 
ATOM     72  C   UNL     1       5.214  -9.787   1.548  1.00  0.00     0.173 A 
ATOM     73  C   UNL     1       5.087  -7.511   2.251  1.00  0.00     0.173 A 
ATOM     74  F   UNL     1       5.236 -10.749   0.613  1.00  0.00    -0.203 F 
ATOM     75  C   UNL     1       5.190 -10.196   2.886  1.00  0.00     0.198 A 
ATOM     76  C   UNL     1       5.117  -7.920   3.585  1.00  0.00     0.198 A 
ATOM     77  F   UNL     1       4.895  -6.201   2.058  1.00  0.00    -0.203 F 
ATOM     78  F   UNL     1       5.150 -11.502   3.184  1.00  0.00    -0.200 F 
ATOM     79  C   UNL     1       5.137  -9.262   3.903  1.00  0.00     0.200 A 
ATOM     80  F   UNL     1       5.039  -7.001   4.558  1.00  0.00    -0.200 F 
ATOM     81  F   UNL     1       5.055  -9.650   5.182  1.00  0.00    -0.200 F 
ENDBRANCH  57  71
BRANCH  58  82
ATOM     82  C   UNL     1      -2.306  -4.556   1.272  1.00  0.00     0.064 A 
ATOM     83  C   UNL     1      -3.397  -5.210   1.859  1.00  0.00     0.173 A 
ATOM     84  C   UNL     1      -1.952  -3.313   1.824  1.00  0.00     0.173 A 
ATOM     85  F   UNL     1      -3.773  -6.418   1.418  1.00  0.00    -0.203 F 
ATOM     86  C   UNL     1      -4.076  -4.661   2.952  1.00  0.00     0.198 A 
ATOM     87  C   UNL     1      -2.631  -2.759   2.909  1.00  0.00     0.198 A 
ATOM     88  F   UNL     1      -0.877  -2.660   1.369  1.00  0.00    -0.203 F 
ATOM     89  F   UNL     1      -5.078  -5.342   3.526  1.00  0.00    -0.200 F 
ATOM     90  C   UNL     1      -3.686  -3.441   3.483  1.00  0.00     0.200 A 
ATOM     91  F   UNL     1      -2.217  -1.594   3.428  1.00  0.00    -0.200 F 
ATOM     92  F   UNL     1      -4.297  -2.944   4.567  1.00  0.00    -0.200 F 
ENDBRANCH  58  82
BRANCH  70  93
ATOM     93  C   UNL     1      -0.463  -9.042  -2.800  1.00  0.00     0.064 A 
ATOM     94  C   UNL     1      -0.802  -7.913  -3.561  1.00  0.00     0.173 A 
ATOM     95  C   UNL     1      -0.801 -10.300  -3.315  1.00  0.00     0.173 A 
ATOM     96  F   UNL     1      -0.451  -6.683  -3.164  1.00  0.00    -0.203 F 
ATOM     97  C   UNL     1      -1.481  -8.042  -4.771  1.00  0.00     0.198 A 
ATOM     98  C   UNL     1      -1.448 -10.428  -4.538  1.00  0.00     0.198 A 
ATOM     99  F   UNL     1      -0.469 -11.412  -2.641  1.00  0.00    -0.203 F 
ATOM    100  F   UNL     1      -1.811  -6.950  -5.477  1.00  0.00    -0.200 F 
ATOM    101  C   UNL     1      -1.796  -9.300  -5.262  1.00  0.00     0.200 A 
ATOM    102  F   UNL     1      -1.718 -11.648  -5.023  1.00  0.00    -0.200 F 
ATOM    103  F   UNL     1      -2.419  -9.426  -6.442  1.00  0.00    -0.200 F 
ENDBRANCH  70  93
ENDBRANCH  44  45
ENDBRANCH  36  39
ENDBRANCH  34  35
ENDBRANCH  33  34
ENDBRANCH  32  33
ENDBRANCH  31  32
ENDBRANCH  30  31
ENDBRANCH   1  30
TORSDOF 19
