REMARK SMILES O=C(NCCCCCCNC(=O)c1ccc2nc(-c3c[nH]nc3-c3ccc(F)cc3F)[nH]c2c1)c1ccc(-c2c3nc(c(-c4c(F)c(F)c(F)c(F)c4F)c4ccc([nH]4)c(-c4c(F)c(F)c(F)c(F)c4F)c4nc(c(-c5c(F)c(F)c(F)c(F)c5F)c5ccc2[nH]5)C=C4)C=C3)cc1
REMARK SMILES IDX 6 1 5 2 4 3 3 4 1 5 2 6 35 8 36 9 97 10 37 11 96 12 38 13
REMARK SMILES IDX 39 14 40 15 90 16 41 17 95 18 89 19 91 20 42 21 94 22 88 23
REMARK SMILES IDX 87 24 43 26 75 27 55 28 74 29 56 30 59 31 73 32 92 33 57 34
REMARK SMILES IDX 58 35 72 37 93 38 60 39 44 40 45 41 53 42 46 43 47 44 51 45
REMARK SMILES IDX 54 46 48 47 49 48 52 49 50 50 76 51 77 52 85 53 78 54 79 55
REMARK SMILES IDX 83 56 86 57 80 58 81 59 84 60 82 61 61 62 62 63 70 64 63 65
REMARK SMILES IDX 64 66 68 67 71 68 65 69 66 70 69 71 67 72 7 73 8 74 9 75
REMARK SMILES IDX 10 76 11 77 12 79 13 80 14 81 34 82 15 83 33 84 16 85 32 86
REMARK SMILES IDX 17 87 18 88 19 90 20 91 23 92 21 93 22 94 24 96 25 97 30 98
REMARK SMILES IDX 26 99 29 100 31 101 27 102 28 103
REMARK H PARENT 3 7 91 25 59 36 10 78 32 89 21 95
REMARK Flexibility Score: inf
ROOT
ATOM      1  C   UNL     1       4.226  -1.816   3.189  1.00  0.00     0.002 C 
ENDROOT
BRANCH   1   2
ATOM      2  C   UNL     1       4.711  -0.634   2.348  1.00  0.00     0.021 C 
BRANCH   2   3
ATOM      3  C   UNL     1       4.451  -0.771   0.852  1.00  0.00     0.116 C 
BRANCH   3   4
ATOM      4  N   UNL     1       3.032  -0.841   0.548  1.00  0.00    -0.352 N 
ATOM      5  O   UNL     1       1.039  -0.098  -0.197  1.00  0.00    -0.269 OA
ATOM      6  C   UNL     1       2.262   0.002  -0.211  1.00  0.00     0.251 C 
ATOM      7  H   UNL     1       2.554  -1.604   0.946  1.00  0.00     0.163 HD
BRANCH   6   8
ATOM      8  C   UNL     1       2.905   1.044  -1.036  1.00  0.00     0.039 A 
ATOM      9  C   UNL     1       4.010   0.745  -1.839  1.00  0.00     0.014 A 
ATOM     10  C   UNL     1       2.369   2.334  -1.030  1.00  0.00     0.014 A 
ATOM     11  C   UNL     1       4.644   1.759  -2.553  1.00  0.00     0.010 A 
ATOM     12  C   UNL     1       2.963   3.334  -1.801  1.00  0.00     0.010 A 
ATOM     13  C   UNL     1       4.116   3.059  -2.555  1.00  0.00    -0.014 A 
BRANCH  13  14
ATOM     14  C   UNL     1       4.726   4.119  -3.396  1.00  0.00     0.031 A 
ATOM     15  C   UNL     1       5.353   5.330  -2.766  1.00  0.00     0.074 A 
ATOM     16  C   UNL     1       4.683   3.995  -4.737  1.00  0.00     0.049 A 
ATOM     17  N   UNL     1       5.815   6.413  -3.339  1.00  0.00    -0.248 NA
ATOM     18  C   UNL     1       5.476   5.329  -1.300  1.00  0.00     0.031 C 
ATOM     19  C   UNL     1       4.118   2.856  -5.462  1.00  0.00     0.029 A 
ATOM     20  N   UNL     1       5.113   4.839  -5.729  1.00  0.00    -0.354 N 
ATOM     21  C   UNL     1       6.273   7.223  -2.309  1.00  0.00     0.074 A 
ATOM     22  C   UNL     1       6.011   6.522  -1.070  1.00  0.00     0.031 C 
ATOM     23  C   UNL     1       4.248   3.064  -6.780  1.00  0.00     0.029 A 
ATOM     24  C   UNL     1       4.840   4.379  -6.995  1.00  0.00     0.049 A 
ATOM     25  H   UNL     1       5.572   5.692  -5.552  1.00  0.00     0.167 HD
ATOM     26  C   UNL     1       6.866   8.438  -2.397  1.00  0.00     0.037 A 
ATOM     27  C   UNL     1       5.013   4.968  -8.193  1.00  0.00     0.037 A 
ATOM     28  C   UNL     1       7.130   9.126  -3.635  1.00  0.00     0.049 A 
ATOM     29  C   UNL     1       5.603   6.350  -8.247  1.00  0.00     0.074 A 
ATOM     30  C   UNL     1       7.730  10.360  -3.824  1.00  0.00     0.029 A 
ATOM     31  N   UNL     1       6.815   8.640  -4.896  1.00  0.00    -0.354 N 
ATOM     32  N   UNL     1       6.037   7.106  -7.268  1.00  0.00    -0.248 NA
ATOM     33  C   UNL     1       5.726   6.962  -9.577  1.00  0.00     0.031 C 
ATOM     34  C   UNL     1       7.735  10.642  -5.192  1.00  0.00     0.029 A 
ATOM     35  C   UNL     1       7.192   9.559  -5.864  1.00  0.00     0.049 A 
ATOM     36  H   UNL     1       6.387   7.772  -5.076  1.00  0.00     0.167 HD
ATOM     37  C   UNL     1       6.507   8.268  -7.865  1.00  0.00     0.074 A 
ATOM     38  C   UNL     1       6.335   8.103  -9.293  1.00  0.00     0.031 C 
ATOM     39  C   UNL     1       7.025   9.377  -7.282  1.00  0.00     0.037 A 
BRANCH  26  40
ATOM     40  C   UNL     1       7.286   9.119  -1.127  1.00  0.00     0.064 A 
ATOM     41  C   UNL     1       6.640  10.290  -0.699  1.00  0.00     0.173 A 
ATOM     42  C   UNL     1       8.405   8.685  -0.401  1.00  0.00     0.173 A 
ATOM     43  F   UNL     1       5.568  10.750  -1.361  1.00  0.00    -0.203 F 
ATOM     44  C   UNL     1       7.118  11.017   0.388  1.00  0.00     0.198 A 
ATOM     45  C   UNL     1       8.865   9.401   0.702  1.00  0.00     0.198 A 
ATOM     46  F   UNL     1       9.050   7.566  -0.761  1.00  0.00    -0.203 F 
ATOM     47  F   UNL     1       6.513  12.158   0.748  1.00  0.00    -0.200 F 
ATOM     48  C   UNL     1       8.230  10.573   1.086  1.00  0.00     0.200 A 
ATOM     49  F   UNL     1       9.929   8.961   1.387  1.00  0.00    -0.200 F 
ATOM     50  F   UNL     1       8.695  11.277   2.127  1.00  0.00    -0.200 F 
ENDBRANCH  26  40
BRANCH  27  51
ATOM     51  C   UNL     1       4.608   4.265  -9.440  1.00  0.00     0.064 A 
ATOM     52  C   UNL     1       3.262   3.986  -9.721  1.00  0.00     0.173 A 
ATOM     53  C   UNL     1       5.564   3.885 -10.392  1.00  0.00     0.173 A 
ATOM     54  F   UNL     1       2.306   4.326  -8.845  1.00  0.00    -0.203 F 
ATOM     55  C   UNL     1       2.890   3.347 -10.902  1.00  0.00     0.198 A 
ATOM     56  C   UNL     1       5.187   3.281 -11.589  1.00  0.00     0.198 A 
ATOM     57  F   UNL     1       6.861   4.149 -10.179  1.00  0.00    -0.203 F 
ATOM     58  F   UNL     1       1.600   3.068 -11.133  1.00  0.00    -0.200 F 
ATOM     59  C   UNL     1       3.852   3.007 -11.841  1.00  0.00     0.200 A 
ATOM     60  F   UNL     1       6.117   2.986 -12.508  1.00  0.00    -0.200 F 
ATOM     61  F   UNL     1       3.491   2.425 -12.993  1.00  0.00    -0.200 F 
ENDBRANCH  27  51
BRANCH  39  62
ATOM     62  C   UNL     1       7.476  10.485  -8.193  1.00  0.00     0.064 A 
ATOM     63  C   UNL     1       8.839  10.799  -8.311  1.00  0.00     0.173 A 
ATOM     64  C   UNL     1       6.561  11.252  -8.929  1.00  0.00     0.173 A 
ATOM     65  F   UNL     1       9.757  10.104  -7.622  1.00  0.00    -0.203 F 
ATOM     66  C   UNL     1       9.267  11.839  -9.131  1.00  0.00     0.198 A 
ATOM     67  C   UNL     1       6.995  12.265  -9.778  1.00  0.00     0.198 A 
ATOM     68  F   UNL     1       5.248  10.984  -8.862  1.00  0.00    -0.203 F 
ATOM     69  F   UNL     1      10.571  12.137  -9.207  1.00  0.00    -0.200 F 
ATOM     70  C   UNL     1       8.347  12.563  -9.873  1.00  0.00     0.200 A 
ATOM     71  F   UNL     1       6.107  12.942 -10.520  1.00  0.00    -0.200 F 
ATOM     72  F   UNL     1       8.762  13.543 -10.687  1.00  0.00    -0.200 F 
ENDBRANCH  39  62
ENDBRANCH  13  14
ENDBRANCH   6   8
ENDBRANCH   3   4
ENDBRANCH   2   3
ENDBRANCH   1   2
BRANCH   1  73
ATOM     73  C   UNL     1       4.766  -3.184   2.760  1.00  0.00     0.002 C 
BRANCH  73  74
ATOM     74  C   UNL     1       6.293  -3.283   2.674  1.00  0.00     0.021 C 
BRANCH  74  75
ATOM     75  C   UNL     1       7.026  -2.913   3.961  1.00  0.00     0.116 C 
BRANCH  75  76
ATOM     76  N   UNL     1       6.692  -3.822   5.043  1.00  0.00    -0.352 N 
ATOM     77  C   UNL     1       7.530  -4.628   5.764  1.00  0.00     0.251 C 
ATOM     78  H   UNL     1       5.740  -3.865   5.289  1.00  0.00     0.163 HD
ATOM     79  O   UNL     1       7.086  -5.501   6.505  1.00  0.00    -0.269 OA
BRANCH  77  80
ATOM     80  C   UNL     1       8.987  -4.447   5.635  1.00  0.00     0.042 A 
ATOM     81  C   UNL     1       9.558  -3.197   5.917  1.00  0.00     0.016 A 
ATOM     82  C   UNL     1       9.759  -5.550   5.242  1.00  0.00     0.042 A 
ATOM     83  C   UNL     1      10.939  -3.011   5.809  1.00  0.00     0.031 A 
ATOM     84  C   UNL     1      11.130  -5.322   5.119  1.00  0.00     0.067 A 
ATOM     85  C   UNL     1      11.729  -4.104   5.427  1.00  0.00     0.089 A 
ATOM     86  N   UNL     1      12.174  -6.117   4.718  1.00  0.00    -0.338 N 
ATOM     87  N   UNL     1      13.088  -4.194   5.329  1.00  0.00    -0.228 NA
ATOM     88  C   UNL     1      13.335  -5.415   4.907  1.00  0.00     0.142 A 
ATOM     89  H   UNL     1      12.101  -7.031   4.359  1.00  0.00     0.168 HD
BRANCH  88  90
ATOM     90  C   UNL     1      14.699  -5.954   4.733  1.00  0.00     0.063 A 
ATOM     91  C   UNL     1      15.113  -6.870   3.798  1.00  0.00     0.117 A 
ATOM     92  C   UNL     1      15.846  -5.646   5.515  1.00  0.00     0.106 A 
ATOM     93  N   UNL     1      16.460  -6.989   3.991  1.00  0.00    -0.284 N 
ATOM     94  N   UNL     1      16.919  -6.308   5.053  1.00  0.00    -0.175 NA
ATOM     95  H   UNL     1      17.041  -7.525   3.404  1.00  0.00     0.189 HD
BRANCH  92  96
ATOM     96  C   UNL     1      15.887  -4.881   6.756  1.00  0.00     0.039 A 
ATOM     97  C   UNL     1      15.061  -5.266   7.828  1.00  0.00     0.016 A 
ATOM     98  C   UNL     1      16.714  -3.766   6.906  1.00  0.00     0.135 A 
ATOM     99  C   UNL     1      15.058  -4.535   9.017  1.00  0.00     0.040 A 
ATOM    100  C   UNL     1      16.719  -3.037   8.093  1.00  0.00     0.079 A 
ATOM    101  F   UNL     1      17.505  -3.354   5.903  1.00  0.00    -0.206 F 
ATOM    102  C   UNL     1      15.888  -3.427   9.136  1.00  0.00     0.126 A 
ATOM    103  F   UNL     1      15.884  -2.725  10.276  1.00  0.00    -0.207 F 
ENDBRANCH  92  96
ENDBRANCH  88  90
ENDBRANCH  77  80
ENDBRANCH  75  76
ENDBRANCH  74  75
ENDBRANCH  73  74
ENDBRANCH   1  73
TORSDOF 15
