REMARK SMILES CC(C)c1nc(OCC(=O)NCCCCCCNC(=O)c2ccc(-c3c4nc(c(-c5c(F)c(F)c(F)c(F)c5F)c5ccc([nH]5)c(-c5c(F)c(F)c(F)c(F)c5F)c5nc(c(-c6c(F)c(F)c(F)c(F)c6F)c6ccc3[nH]6)C=C5)C=C4)cc2)cc(-c2ccccn2)n1
REMARK SMILES IDX 14 1 13 2 12 3 11 4 9 5 10 6 8 8 7 9 6 10 4 11 5 12 92 13
REMARK SMILES IDX 85 14 84 15 2 16 1 17 3 18 86 19 87 20 91 21 88 22 90 23
REMARK SMILES IDX 89 24 15 25 16 26 17 27 18 28 19 29 20 31 21 32 22 33 83 34
REMARK SMILES IDX 23 35 82 36 24 37 25 38 26 39 76 40 27 41 81 42 75 43 77 44
REMARK SMILES IDX 28 45 80 46 74 47 73 48 29 50 61 51 41 52 60 53 42 54 45 55
REMARK SMILES IDX 59 56 78 57 43 58 44 59 58 61 79 62 46 63 30 64 31 65 39 66
REMARK SMILES IDX 32 67 33 68 37 69 40 70 34 71 35 72 38 73 36 74 62 75 63 76
REMARK SMILES IDX 71 77 64 78 65 79 69 80 72 81 66 82 67 83 70 84 68 85 47 86
REMARK SMILES IDX 48 87 56 88 49 89 50 90 54 91 57 92 51 93 52 94 55 95 53 96
REMARK H PARENT 11 7 18 30 77 49 45 60
REMARK Flexibility Score: inf
ROOT
ATOM      1  C   UNL     1      -3.450  -2.357   3.448  1.00  0.00     0.002 C 
ENDROOT
BRANCH   1   2
ATOM      2  C   UNL     1      -3.086  -2.888   2.055  1.00  0.00     0.021 C 
BRANCH   2   3
ATOM      3  C   UNL     1      -4.264  -3.453   1.261  1.00  0.00     0.116 C 
BRANCH   3   4
ATOM      4  N   UNL     1      -5.270  -2.440   1.009  1.00  0.00    -0.353 N 
ATOM      5  C   UNL     1      -5.626  -1.878  -0.180  1.00  0.00     0.258 C 
ATOM      6  O   UNL     1      -6.467  -0.977  -0.183  1.00  0.00    -0.271 OA
ATOM      7  H   UNL     1      -5.760  -2.116   1.799  1.00  0.00     0.163 HD
BRANCH   5   8
ATOM      8  C   UNL     1      -4.994  -2.387  -1.481  1.00  0.00     0.331 C 
BRANCH   8   9
ATOM      9  O   UNL     1      -3.582  -2.319  -1.575  1.00  0.00    -0.467 OA
BRANCH   9  10
ATOM     10  C   UNL     1      -2.995  -1.087  -1.552  1.00  0.00     0.217 A 
ATOM     11  C   UNL     1      -0.976  -0.002  -1.432  1.00  0.00     0.135 A 
ATOM     12  N   UNL     1      -1.659  -1.160  -1.454  1.00  0.00    -0.198 NA
ATOM     13  N   UNL     1      -1.550   1.213  -1.417  1.00  0.00    -0.231 NA
ATOM     14  C   UNL     1      -2.897   1.252  -1.506  1.00  0.00     0.096 A 
ATOM     15  C   UNL     1      -3.663   0.109  -1.610  1.00  0.00     0.099 A 
BRANCH  11  16
ATOM     16  C   UNL     1       0.536  -0.054  -1.380  1.00  0.00     0.051 C 
ATOM     17  C   UNL     1       1.020  -0.054   0.069  1.00  0.00     0.016 C 
ATOM     18  C   UNL     1       1.107  -1.256  -2.138  1.00  0.00     0.016 C 
ENDBRANCH  11  16
BRANCH  14  19
ATOM     19  C   UNL     1      -3.549   2.568  -1.449  1.00  0.00     0.089 A 
ATOM     20  C   UNL     1      -4.426   2.889  -0.409  1.00  0.00     0.030 A 
ATOM     21  N   UNL     1      -3.339   3.401  -2.499  1.00  0.00    -0.255 NA
ATOM     22  C   UNL     1      -5.113   4.099  -0.449  1.00  0.00     0.004 A 
ATOM     23  C   UNL     1      -4.015   4.571  -2.507  1.00  0.00     0.112 A 
ATOM     24  C   UNL     1      -4.907   4.957  -1.520  1.00  0.00     0.020 A 
ENDBRANCH  14  19
ENDBRANCH   9  10
ENDBRANCH   8   9
ENDBRANCH   5   8
ENDBRANCH   3   4
ENDBRANCH   2   3
ENDBRANCH   1   2
BRANCH   1  25
ATOM     25  C   UNL     1      -4.185  -3.346   4.359  1.00  0.00     0.002 C 
BRANCH  25  26
ATOM     26  C   UNL     1      -3.476  -4.684   4.577  1.00  0.00     0.021 C 
BRANCH  26  27
ATOM     27  C   UNL     1      -2.083  -4.577   5.188  1.00  0.00     0.116 C 
BRANCH  27  28
ATOM     28  N   UNL     1      -2.110  -4.036   6.537  1.00  0.00    -0.352 N 
ATOM     29  C   UNL     1      -1.563  -4.541   7.689  1.00  0.00     0.251 C 
ATOM     30  H   UNL     1      -2.591  -3.183   6.639  1.00  0.00     0.163 HD
ATOM     31  O   UNL     1      -1.836  -4.035   8.777  1.00  0.00    -0.269 OA
BRANCH  29  32
ATOM     32  C   UNL     1      -0.663  -5.712   7.632  1.00  0.00     0.039 A 
ATOM     33  C   UNL     1      -0.829  -6.737   8.567  1.00  0.00     0.014 A 
ATOM     34  C   UNL     1       0.344  -5.801   6.667  1.00  0.00     0.014 A 
ATOM     35  C   UNL     1      -0.029  -7.880   8.493  1.00  0.00     0.010 A 
ATOM     36  C   UNL     1       1.088  -6.972   6.547  1.00  0.00     0.010 A 
ATOM     37  C   UNL     1       0.910  -8.023   7.458  1.00  0.00    -0.014 A 
BRANCH  37  38
ATOM     38  C   UNL     1       1.707  -9.268   7.311  1.00  0.00     0.031 A 
ATOM     39  C   UNL     1       3.203  -9.234   7.450  1.00  0.00     0.074 A 
ATOM     40  C   UNL     1       1.087 -10.420   6.986  1.00  0.00     0.049 A 
ATOM     41  N   UNL     1       4.073 -10.200   7.292  1.00  0.00    -0.248 NA
ATOM     42  C   UNL     1       3.806  -7.935   7.786  1.00  0.00     0.031 C 
ATOM     43  C   UNL     1      -0.354 -10.573   6.776  1.00  0.00     0.029 A 
ATOM     44  N   UNL     1       1.590 -11.678   6.763  1.00  0.00    -0.354 N 
ATOM     45  C   UNL     1       5.320  -9.624   7.496  1.00  0.00     0.074 A 
ATOM     46  C   UNL     1       5.100  -8.215   7.735  1.00  0.00     0.031 C 
ATOM     47  C   UNL     1      -0.621 -11.854   6.477  1.00  0.00     0.029 A 
ATOM     48  C   UNL     1       0.631 -12.604   6.432  1.00  0.00     0.049 A 
ATOM     49  H   UNL     1       2.548 -11.895   6.834  1.00  0.00     0.167 HD
ATOM     50  C   UNL     1       6.536 -10.222   7.505  1.00  0.00     0.037 A 
ATOM     51  C   UNL     1       0.749 -13.908   6.118  1.00  0.00     0.037 A 
ATOM     52  C   UNL     1       6.748 -11.629   7.286  1.00  0.00     0.049 A 
ATOM     53  C   UNL     1       2.112 -14.545   6.123  1.00  0.00     0.074 A 
ATOM     54  C   UNL     1       7.934 -12.341   7.336  1.00  0.00     0.029 A 
ATOM     55  N   UNL     1       5.750 -12.539   6.967  1.00  0.00    -0.354 N 
ATOM     56  N   UNL     1       3.277 -14.006   6.391  1.00  0.00    -0.248 NA
ATOM     57  C   UNL     1       2.177 -15.974   5.788  1.00  0.00     0.031 C 
ATOM     58  C   UNL     1       7.663 -13.669   6.994  1.00  0.00     0.029 A 
ATOM     59  C   UNL     1       6.298 -13.800   6.790  1.00  0.00     0.049 A 
ATOM     60  H   UNL     1       4.794 -12.321   6.879  1.00  0.00     0.167 HD
ATOM     61  C   UNL     1       4.206 -15.032   6.287  1.00  0.00     0.074 A 
ATOM     62  C   UNL     1       3.467 -16.230   5.947  1.00  0.00     0.031 C 
ATOM     63  C   UNL     1       5.550 -14.986   6.459  1.00  0.00     0.037 A 
BRANCH  50  64
ATOM     64  C   UNL     1       7.736  -9.354   7.760  1.00  0.00     0.064 A 
ATOM     65  C   UNL     1       7.971  -8.772   9.015  1.00  0.00     0.173 A 
ATOM     66  C   UNL     1       8.683  -9.135   6.749  1.00  0.00     0.173 A 
ATOM     67  F   UNL     1       7.093  -8.943  10.015  1.00  0.00    -0.203 F 
ATOM     68  C   UNL     1       9.093  -7.978   9.239  1.00  0.00     0.198 A 
ATOM     69  C   UNL     1       9.821  -8.367   6.986  1.00  0.00     0.198 A 
ATOM     70  F   UNL     1       8.512  -9.673   5.532  1.00  0.00    -0.203 F 
ATOM     71  F   UNL     1       9.270  -7.391  10.430  1.00  0.00    -0.200 F 
ATOM     72  C   UNL     1      10.021  -7.783   8.227  1.00  0.00     0.200 A 
ATOM     73  F   UNL     1      10.724  -8.193   6.011  1.00  0.00    -0.200 F 
ATOM     74  F   UNL     1      11.104  -7.025   8.446  1.00  0.00    -0.200 F 
ENDBRANCH  50  64
BRANCH  51  75
ATOM     75  C   UNL     1      -0.463 -14.706   5.791  1.00  0.00     0.064 A 
ATOM     76  C   UNL     1      -0.914 -15.717   6.650  1.00  0.00     0.173 A 
ATOM     77  C   UNL     1      -1.190 -14.479   4.613  1.00  0.00     0.173 A 
ATOM     78  F   UNL     1      -0.240 -15.986   7.778  1.00  0.00    -0.203 F 
ATOM     79  C   UNL     1      -2.031 -16.487   6.333  1.00  0.00     0.198 A 
ATOM     80  C   UNL     1      -2.326 -15.228   4.312  1.00  0.00     0.198 A 
ATOM     81  F   UNL     1      -0.805 -13.519   3.759  1.00  0.00    -0.203 F 
ATOM     82  F   UNL     1      -2.411 -17.480   7.148  1.00  0.00    -0.200 F 
ATOM     83  C   UNL     1      -2.740 -16.238   5.168  1.00  0.00     0.200 A 
ATOM     84  F   UNL     1      -3.018 -14.973   3.193  1.00  0.00    -0.200 F 
ATOM     85  F   UNL     1      -3.817 -16.975   4.865  1.00  0.00    -0.200 F 
ENDBRANCH  51  75
BRANCH  63  86
ATOM     86  C   UNL     1       6.308 -16.276   6.321  1.00  0.00     0.064 A 
ATOM     87  C   UNL     1       6.484 -16.900   5.077  1.00  0.00     0.173 A 
ATOM     88  C   UNL     1       6.900 -16.873   7.444  1.00  0.00     0.173 A 
ATOM     89  F   UNL     1       5.926 -16.378   3.974  1.00  0.00    -0.203 F 
ATOM     90  C   UNL     1       7.200 -18.090   4.968  1.00  0.00     0.198 A 
ATOM     91  C   UNL     1       7.643 -18.044   7.327  1.00  0.00     0.198 A 
ATOM     92  F   UNL     1       6.769 -16.313   8.656  1.00  0.00    -0.203 F 
ATOM     93  F   UNL     1       7.311 -18.696   3.778  1.00  0.00    -0.200 F 
ATOM     94  C   UNL     1       7.785 -18.656   6.091  1.00  0.00     0.200 A 
ATOM     95  F   UNL     1       8.222 -18.581   8.410  1.00  0.00    -0.200 F 
ATOM     96  F   UNL     1       8.482 -19.796   5.982  1.00  0.00    -0.200 F 
ENDBRANCH  63  86
ENDBRANCH  37  38
ENDBRANCH  29  32
ENDBRANCH  27  28
ENDBRANCH  26  27
ENDBRANCH  25  26
ENDBRANCH   1  25
TORSDOF 17
