REMARK SMILES O=C(NCCCCCCNC(=O)[C@@]1([NH2+]C2CC2)CCC[C@@H](n2cncn2)C1)c1ccc(-c2c3nc(c(-c4c(F)c(F)c(F)c(F)c4F)c4ccc([nH]4)c(-c4c(F)c(F)c(F)c(F)c4F)c4nc(c(-c5c(F)c(F)c(F)c(F)c5F)c5ccc2[nH]5)C=C4)C=C3)cc1
REMARK SMILES IDX 6 1 5 2 4 3 3 4 1 5 2 6 28 8 29 9 90 10 30 11 89 12 31 13
REMARK SMILES IDX 32 14 33 15 83 16 34 17 88 18 82 19 84 20 35 21 87 22 81 23
REMARK SMILES IDX 80 24 36 26 68 27 48 28 67 29 49 30 52 31 66 32 85 33 50 34
REMARK SMILES IDX 51 35 65 37 86 38 53 39 37 40 38 41 46 42 39 43 40 44 44 45
REMARK SMILES IDX 47 46 41 47 42 48 45 49 43 50 69 51 70 52 78 53 71 54 72 55
REMARK SMILES IDX 76 56 79 57 73 58 74 59 77 60 75 61 54 62 55 63 63 64 56 65
REMARK SMILES IDX 57 66 61 67 64 68 58 69 59 70 62 71 60 72 7 73 8 74 9 75
REMARK SMILES IDX 10 76 11 77 12 79 13 80 18 81 27 82 19 83 21 84 20 85 14 86
REMARK SMILES IDX 15 89 16 90 17 91 22 92 23 93 26 94 24 95 25 96
REMARK H PARENT 3 7 84 25 52 36 10 78 14 87 14 88
REMARK Flexibility Score: inf
ROOT
ATOM      1  C   UNL     1       3.966   2.113  -2.592  1.00  0.00     0.002 C 
ENDROOT
BRANCH   1   2
ATOM      2  C   UNL     1       4.525   0.858  -1.913  1.00  0.00     0.021 C 
BRANCH   2   3
ATOM      3  C   UNL     1       4.548   0.945  -0.387  1.00  0.00     0.116 C 
BRANCH   3   4
ATOM      4  N   UNL     1       3.229   1.083   0.194  1.00  0.00    -0.352 N 
ATOM      5  O   UNL     1       1.177   0.702   0.927  1.00  0.00    -0.269 OA
ATOM      6  C   UNL     1       2.179   0.230   0.379  1.00  0.00     0.251 C 
ATOM      7  H   UNL     1       3.051   1.991   0.531  1.00  0.00     0.163 HD
BRANCH   6   8
ATOM      8  C   UNL     1       2.146  -1.192  -0.064  1.00  0.00     0.039 A 
ATOM      9  C   UNL     1       3.244  -1.931  -0.506  1.00  0.00     0.014 A 
ATOM     10  C   UNL     1       0.892  -1.828  -0.016  1.00  0.00     0.014 A 
ATOM     11  C   UNL     1       3.091  -3.239  -0.955  1.00  0.00     0.010 A 
ATOM     12  C   UNL     1       0.737  -3.148  -0.428  1.00  0.00     0.010 A 
ATOM     13  C   UNL     1       1.837  -3.846  -0.923  1.00  0.00    -0.014 A 
BRANCH  13  14
ATOM     14  C   UNL     1       1.759  -5.251  -1.315  1.00  0.00     0.031 A 
ATOM     15  C   UNL     1       2.502  -6.225  -0.455  1.00  0.00     0.074 A 
ATOM     16  C   UNL     1       0.951  -5.697  -2.294  1.00  0.00     0.049 A 
ATOM     17  N   UNL     1       3.342  -7.148  -0.807  1.00  0.00    -0.248 NA
ATOM     18  C   UNL     1       2.296  -6.133   0.999  1.00  0.00     0.031 C 
ATOM     19  C   UNL     1      -0.073  -4.949  -3.026  1.00  0.00     0.029 A 
ATOM     20  N   UNL     1       0.804  -6.971  -2.759  1.00  0.00    -0.354 N 
ATOM     21  C   UNL     1       3.666  -7.847   0.357  1.00  0.00     0.074 A 
ATOM     22  C   UNL     1       3.058  -7.130   1.448  1.00  0.00     0.031 C 
ATOM     23  C   UNL     1      -0.875  -5.821  -3.676  1.00  0.00     0.029 A 
ATOM     24  C   UNL     1      -0.345  -7.164  -3.506  1.00  0.00     0.049 A 
ATOM     25  H   UNL     1       1.455  -7.687  -2.580  1.00  0.00     0.167 HD
ATOM     26  C   UNL     1       4.279  -9.064   0.335  1.00  0.00     0.037 A 
ATOM     27  C   UNL     1      -0.871  -8.351  -3.888  1.00  0.00     0.037 A 
ATOM     28  C   UNL     1       4.988  -9.285  -0.894  1.00  0.00     0.049 A 
ATOM     29  C   UNL     1       0.191  -9.381  -3.798  1.00  0.00     0.074 A 
ATOM     30  C   UNL     1       6.034  -8.656  -1.543  1.00  0.00     0.029 A 
ATOM     31  N   UNL     1       4.473 -10.163  -1.813  1.00  0.00    -0.354 N 
ATOM     32  N   UNL     1       1.224  -9.451  -4.590  1.00  0.00    -0.248 NA
ATOM     33  C   UNL     1       0.295 -10.148  -2.566  1.00  0.00     0.031 C 
ATOM     34  C   UNL     1       5.763  -8.821  -2.933  1.00  0.00     0.029 A 
ATOM     35  C   UNL     1       4.579  -9.550  -3.033  1.00  0.00     0.049 A 
ATOM     36  H   UNL     1       4.101 -11.056  -1.631  1.00  0.00     0.167 HD
ATOM     37  C   UNL     1       2.251  -9.925  -3.788  1.00  0.00     0.074 A 
ATOM     38  C   UNL     1       1.595 -10.445  -2.594  1.00  0.00     0.031 C 
ATOM     39  C   UNL     1       3.552  -9.602  -4.043  1.00  0.00     0.037 A 
BRANCH  26  40
ATOM     40  C   UNL     1       3.994 -10.184   1.310  1.00  0.00     0.064 A 
ATOM     41  C   UNL     1       4.779 -11.356   1.273  1.00  0.00     0.173 A 
ATOM     42  C   UNL     1       2.802 -10.278   2.060  1.00  0.00     0.173 A 
ATOM     43  F   UNL     1       5.928 -11.389   0.581  1.00  0.00    -0.203 F 
ATOM     44  C   UNL     1       4.356 -12.551   1.862  1.00  0.00     0.198 A 
ATOM     45  C   UNL     1       2.409 -11.459   2.692  1.00  0.00     0.198 A 
ATOM     46  F   UNL     1       1.920  -9.274   2.120  1.00  0.00    -0.203 F 
ATOM     47  F   UNL     1       5.072 -13.670   1.684  1.00  0.00    -0.200 F 
ATOM     48  C   UNL     1       3.167 -12.604   2.563  1.00  0.00     0.200 A 
ATOM     49  F   UNL     1       1.246 -11.494   3.357  1.00  0.00    -0.200 F 
ATOM     50  F   UNL     1       2.726 -13.762   3.071  1.00  0.00    -0.200 F 
ENDBRANCH  26  40
BRANCH  27  51
ATOM     51  C   UNL     1      -2.300  -8.692  -4.053  1.00  0.00     0.064 A 
ATOM     52  C   UNL     1      -2.701  -9.803  -4.810  1.00  0.00     0.173 A 
ATOM     53  C   UNL     1      -3.292  -8.077  -3.263  1.00  0.00     0.173 A 
ATOM     54  F   UNL     1      -1.806 -10.477  -5.546  1.00  0.00    -0.203 F 
ATOM     55  C   UNL     1      -4.017 -10.275  -4.772  1.00  0.00     0.198 A 
ATOM     56  C   UNL     1      -4.606  -8.540  -3.236  1.00  0.00     0.198 A 
ATOM     57  F   UNL     1      -2.983  -7.071  -2.432  1.00  0.00    -0.203 F 
ATOM     58  F   UNL     1      -4.353 -11.373  -5.464  1.00  0.00    -0.200 F 
ATOM     59  C   UNL     1      -4.966  -9.646  -3.982  1.00  0.00     0.200 A 
ATOM     60  F   UNL     1      -5.504  -7.944  -2.440  1.00  0.00    -0.200 F 
ATOM     61  F   UNL     1      -6.214 -10.129  -3.907  1.00  0.00    -0.200 F 
ENDBRANCH  27  51
BRANCH  39  62
ATOM     62  C   UNL     1       3.872  -8.971  -5.365  1.00  0.00     0.064 A 
ATOM     63  C   UNL     1       3.389  -7.712  -5.757  1.00  0.00     0.173 A 
ATOM     64  C   UNL     1       4.820  -9.589  -6.191  1.00  0.00     0.173 A 
ATOM     65  F   UNL     1       2.567  -7.012  -4.965  1.00  0.00    -0.203 F 
ATOM     66  C   UNL     1       3.799  -7.123  -6.951  1.00  0.00     0.198 A 
ATOM     67  C   UNL     1       5.256  -8.981  -7.365  1.00  0.00     0.198 A 
ATOM     68  F   UNL     1       5.364 -10.762  -5.832  1.00  0.00    -0.203 F 
ATOM     69  F   UNL     1       3.317  -5.924  -7.309  1.00  0.00    -0.200 F 
ATOM     70  C   UNL     1       4.737  -7.755  -7.750  1.00  0.00     0.200 A 
ATOM     71  F   UNL     1       6.202  -9.570  -8.110  1.00  0.00    -0.200 F 
ATOM     72  F   UNL     1       5.166  -7.167  -8.876  1.00  0.00    -0.200 F 
ENDBRANCH  39  62
ENDBRANCH  13  14
ENDBRANCH   6   8
ENDBRANCH   3   4
ENDBRANCH   2   3
ENDBRANCH   1   2
BRANCH   1  73
ATOM     73  C   UNL     1       4.717   3.410  -2.266  1.00  0.00     0.002 C 
BRANCH  73  74
ATOM     74  C   UNL     1       6.241   3.330  -2.438  1.00  0.00     0.021 C 
BRANCH  74  75
ATOM     75  C   UNL     1       6.660   2.995  -3.870  1.00  0.00     0.116 C 
BRANCH  75  76
ATOM     76  N   UNL     1       6.640   4.190  -4.695  1.00  0.00    -0.351 N 
ATOM     77  C   UNL     1       7.497   5.209  -4.967  1.00  0.00     0.281 C 
ATOM     78  H   UNL     1       5.789   4.285  -5.181  1.00  0.00     0.163 HD
ATOM     79  O   UNL     1       6.902   6.214  -5.382  1.00  0.00    -0.268 OA
BRANCH  77  80
ATOM     80  C   UNL     1       9.075   5.184  -4.804  1.00  0.00     0.177 C 
ATOM     81  C   UNL     1       9.543   6.205  -3.744  1.00  0.00     0.079 C 
ATOM     82  C   UNL     1       9.573   3.810  -4.322  1.00  0.00     0.106 C 
ATOM     83  C   UNL     1      11.057   6.161  -3.497  1.00  0.00     0.009 C 
ATOM     84  C   UNL     1      11.069   3.655  -4.016  1.00  0.00     0.116 C 
ATOM     85  C   UNL     1      11.531   4.776  -3.067  1.00  0.00     0.028 C 
BRANCH  80  86
ATOM     86  N   UNL     1       9.724   5.423  -6.124  1.00  0.00    -0.331 N 
ATOM     87  H   UNL     1       9.577   4.574  -6.670  1.00  0.00     0.347 HD
ATOM     88  H   UNL     1      10.670   5.686  -5.846  1.00  0.00     0.347 HD
BRANCH  86  89
ATOM     89  C   UNL     1       9.347   6.544  -7.003  1.00  0.00     0.183 C 
ATOM     90  C   UNL     1       8.725   7.863  -6.646  1.00  0.00     0.071 C 
ATOM     91  C   UNL     1      10.188   7.803  -6.919  1.00  0.00     0.071 C 
ENDBRANCH  86  89
ENDBRANCH  80  86
BRANCH  84  92
ATOM     92  N   UNL     1      11.304   2.311  -3.468  1.00  0.00    -0.250 N 
ATOM     93  C   UNL     1      10.943   1.116  -4.022  1.00  0.00     0.220 A 
ATOM     94  N   UNL     1      11.794   2.121  -2.227  1.00  0.00    -0.160 NA
ATOM     95  N   UNL     1      11.165   0.144  -3.168  1.00  0.00    -0.224 NA
ATOM     96  C   UNL     1      11.694   0.797  -2.095  1.00  0.00     0.246 A 
ENDBRANCH  84  92
ENDBRANCH  77  80
ENDBRANCH  75  76
ENDBRANCH  74  75
ENDBRANCH  73  74
ENDBRANCH   1  73
TORSDOF 16
