REMARK SMILES O=C(C[C@@H]1C=CS(=O)(=O)C1)NCCCCCCNC(=O)c1ccc(-c2c3nc(c(-c4c(F)c(F)c(F)c(F)c4F)c4ccc([nH]4)c(-c4c(F)c(F)c(F)c(F)c4F)c4nc(c(-c5c(F)c(F)c(F)c(F)c5F)c5ccc2[nH]5)C=C4)C=C3)cc1
REMARK SMILES IDX 15 1 14 2 13 3 12 4 11 5 1 6 2 7 3 9 4 10 5 11 10 12 6 13
REMARK SMILES IDX 7 14 8 15 9 16 16 17 17 18 18 19 19 20 20 22 21 23 22 24
REMARK SMILES IDX 83 25 23 26 82 27 24 28 25 29 26 30 76 31 27 32 81 33 75 34
REMARK SMILES IDX 77 35 28 36 80 37 74 38 73 39 29 41 61 42 41 43 60 44 42 45
REMARK SMILES IDX 45 46 59 47 78 48 43 49 44 50 58 52 79 53 46 54 30 55 31 56
REMARK SMILES IDX 39 57 32 58 33 59 37 60 40 61 34 62 35 63 38 64 36 65 62 66
REMARK SMILES IDX 63 67 71 68 64 69 65 70 69 71 72 72 66 73 67 74 70 75 68 76
REMARK SMILES IDX 47 77 48 78 56 79 49 80 50 81 54 82 57 83 51 84 52 85 55 86
REMARK SMILES IDX 53 87
REMARK H PARENT 11 8 18 21 77 40 45 51
REMARK Flexibility Score: inf
ROOT
ATOM      1  C   UNL     1      -0.216  -3.739   3.196  1.00  0.00     0.002 C 
ENDROOT
BRANCH   1   2
ATOM      2  C   UNL     1      -0.418  -2.529   4.114  1.00  0.00     0.002 C 
BRANCH   2   3
ATOM      3  C   UNL     1       0.547  -2.432   5.306  1.00  0.00     0.021 C 
BRANCH   3   4
ATOM      4  C   UNL     1       2.029  -2.371   4.935  1.00  0.00     0.116 C 
BRANCH   4   5
ATOM      5  N   UNL     1       2.297  -1.262   4.045  1.00  0.00    -0.356 N 
ATOM      6  O   UNL     1       4.085  -0.367   5.183  1.00  0.00    -0.275 OA
ATOM      7  C   UNL     1       3.317  -0.358   4.231  1.00  0.00     0.220 C 
ATOM      8  H   UNL     1       1.716  -1.147   3.259  1.00  0.00     0.163 HD
BRANCH   7   9
ATOM      9  C   UNL     1       3.374   0.704   3.147  1.00  0.00     0.108 C 
BRANCH   9  10
ATOM     10  C   UNL     1       3.985   0.283   1.796  1.00  0.00     0.037 C 
ATOM     11  C   UNL     1       3.800  -1.165   1.406  1.00  0.00    -0.010 C 
ATOM     12  C   UNL     1       5.492   0.570   1.706  1.00  0.00     0.150 C 
ATOM     13  C   UNL     1       4.901  -1.929   1.409  1.00  0.00     0.102 C 
ATOM     14  S   UNL     1       6.314  -1.016   1.812  1.00  0.00     0.171 S 
ATOM     15  O   UNL     1       7.271  -1.116   0.724  1.00  0.00    -0.224 OA
ATOM     16  O   UNL     1       6.687  -1.269   3.182  1.00  0.00    -0.224 OA
ENDBRANCH   9  10
ENDBRANCH   7   9
ENDBRANCH   4   5
ENDBRANCH   3   4
ENDBRANCH   2   3
ENDBRANCH   1   2
BRANCH   1  17
ATOM     17  C   UNL     1      -0.329  -5.100   3.882  1.00  0.00     0.021 C 
BRANCH  17  18
ATOM     18  C   UNL     1      -1.642  -5.343   4.619  1.00  0.00     0.116 C 
BRANCH  18  19
ATOM     19  N   UNL     1      -2.791  -5.382   3.728  1.00  0.00    -0.352 N 
ATOM     20  C   UNL     1      -3.819  -6.294   3.687  1.00  0.00     0.251 C 
ATOM     21  H   UNL     1      -2.839  -4.657   3.064  1.00  0.00     0.163 HD
ATOM     22  O   UNL     1      -4.643  -6.265   2.778  1.00  0.00    -0.269 OA
BRANCH  20  23
ATOM     23  C   UNL     1      -3.909  -7.336   4.732  1.00  0.00     0.039 A 
ATOM     24  C   UNL     1      -4.102  -8.667   4.350  1.00  0.00     0.014 A 
ATOM     25  C   UNL     1      -3.783  -7.002   6.083  1.00  0.00     0.014 A 
ATOM     26  C   UNL     1      -4.097  -9.673   5.320  1.00  0.00     0.010 A 
ATOM     27  C   UNL     1      -3.711  -8.011   7.039  1.00  0.00     0.010 A 
ATOM     28  C   UNL     1      -3.865  -9.357   6.668  1.00  0.00    -0.014 A 
BRANCH  28  29
ATOM     29  C   UNL     1      -3.784 -10.409   7.715  1.00  0.00     0.031 A 
ATOM     30  C   UNL     1      -4.794 -10.434   8.828  1.00  0.00     0.074 A 
ATOM     31  C   UNL     1      -2.755 -11.280   7.715  1.00  0.00     0.049 A 
ATOM     32  N   UNL     1      -4.822 -11.176   9.906  1.00  0.00    -0.248 NA
ATOM     33  C   UNL     1      -5.909  -9.477   8.731  1.00  0.00     0.031 C 
ATOM     34  C   UNL     1      -1.690 -11.335   6.712  1.00  0.00     0.029 A 
ATOM     35  N   UNL     1      -2.424 -12.274   8.603  1.00  0.00    -0.354 N 
ATOM     36  C   UNL     1      -5.933 -10.756  10.626  1.00  0.00     0.074 A 
ATOM     37  C   UNL     1      -6.535  -9.671   9.883  1.00  0.00     0.031 C 
ATOM     38  C   UNL     1      -0.830 -12.315   7.036  1.00  0.00     0.029 A 
ATOM     39  C   UNL     1      -1.256 -12.928   8.290  1.00  0.00     0.049 A 
ATOM     40  H   UNL     1      -2.971 -12.497   9.390  1.00  0.00     0.167 HD
ATOM     41  C   UNL     1      -6.415 -11.244  11.793  1.00  0.00     0.037 A 
ATOM     42  C   UNL     1      -0.595 -13.899   8.951  1.00  0.00     0.037 A 
ATOM     43  C   UNL     1      -5.842 -12.355  12.505  1.00  0.00     0.049 A 
ATOM     44  C   UNL     1      -1.159 -14.420  10.248  1.00  0.00     0.074 A 
ATOM     45  C   UNL     1      -6.305 -12.972  13.653  1.00  0.00     0.029 A 
ATOM     46  N   UNL     1      -4.681 -13.016  12.134  1.00  0.00    -0.354 N 
ATOM     47  N   UNL     1      -2.250 -14.064  10.880  1.00  0.00    -0.248 NA
ATOM     48  C   UNL     1      -0.398 -15.483  10.923  1.00  0.00     0.031 C 
ATOM     49  C   UNL     1      -5.399 -13.976  14.005  1.00  0.00     0.029 A 
ATOM     50  C   UNL     1      -4.401 -14.020  13.046  1.00  0.00     0.049 A 
ATOM     51  H   UNL     1      -4.136 -12.803  11.342  1.00  0.00     0.167 HD
ATOM     52  C   UNL     1      -2.329 -14.884  11.997  1.00  0.00     0.074 A 
ATOM     53  C   UNL     1      -1.180 -15.762  11.956  1.00  0.00     0.031 C 
ATOM     54  C   UNL     1      -3.271 -14.909  12.971  1.00  0.00     0.037 A 
BRANCH  41  55
ATOM     55  C   UNL     1      -7.630 -10.591  12.382  1.00  0.00     0.064 A 
ATOM     56  C   UNL     1      -8.902 -10.752  11.813  1.00  0.00     0.173 A 
ATOM     57  C   UNL     1      -7.532  -9.861  13.577  1.00  0.00     0.173 A 
ATOM     58  F   UNL     1      -9.047 -11.432  10.666  1.00  0.00    -0.203 F 
ATOM     59  C   UNL     1     -10.029 -10.194  12.412  1.00  0.00     0.198 A 
ATOM     60  C   UNL     1      -8.664  -9.329  14.187  1.00  0.00     0.198 A 
ATOM     61  F   UNL     1      -6.339  -9.683  14.165  1.00  0.00    -0.203 F 
ATOM     62  F   UNL     1     -11.230 -10.334  11.834  1.00  0.00    -0.200 F 
ATOM     63  C   UNL     1      -9.911  -9.493  13.603  1.00  0.00     0.200 A 
ATOM     64  F   UNL     1      -8.550  -8.665  15.346  1.00  0.00    -0.200 F 
ATOM     65  F   UNL     1     -10.999  -8.975  14.187  1.00  0.00    -0.200 F 
ENDBRANCH  41  55
BRANCH  42  66
ATOM     66  C   UNL     1       0.674 -14.452   8.408  1.00  0.00     0.064 A 
ATOM     67  C   UNL     1       0.747 -15.780   7.963  1.00  0.00     0.173 A 
ATOM     68  C   UNL     1       1.849 -13.687   8.366  1.00  0.00     0.173 A 
ATOM     69  F   UNL     1      -0.343 -16.560   8.003  1.00  0.00    -0.203 F 
ATOM     70  C   UNL     1       1.952 -16.332   7.532  1.00  0.00     0.198 A 
ATOM     71  C   UNL     1       3.047 -14.230   7.905  1.00  0.00     0.198 A 
ATOM     72  F   UNL     1       1.834 -12.410   8.776  1.00  0.00    -0.203 F 
ATOM     73  F   UNL     1       2.006 -17.622   7.175  1.00  0.00    -0.200 F 
ATOM     74  C   UNL     1       3.101 -15.556   7.501  1.00  0.00     0.200 A 
ATOM     75  F   UNL     1       4.151 -13.473   7.864  1.00  0.00    -0.200 F 
ATOM     76  F   UNL     1       4.261 -16.088   7.096  1.00  0.00    -0.200 F 
ENDBRANCH  42  66
BRANCH  54  77
ATOM     77  C   UNL     1      -3.141 -15.956  14.038  1.00  0.00     0.064 A 
ATOM     78  C   UNL     1      -2.159 -15.878  15.035  1.00  0.00     0.173 A 
ATOM     79  C   UNL     1      -4.055 -17.020  14.095  1.00  0.00     0.173 A 
ATOM     80  F   UNL     1      -1.255 -14.888  15.016  1.00  0.00    -0.203 F 
ATOM     81  C   UNL     1      -2.084 -16.839  16.040  1.00  0.00     0.198 A 
ATOM     82  C   UNL     1      -3.996 -17.962  15.117  1.00  0.00     0.198 A 
ATOM     83  F   UNL     1      -5.018 -17.135  13.168  1.00  0.00    -0.203 F 
ATOM     84  F   UNL     1      -1.113 -16.769  16.960  1.00  0.00    -0.200 F 
ATOM     85  C   UNL     1      -3.007 -17.874  16.086  1.00  0.00     0.200 A 
ATOM     86  F   UNL     1      -4.898 -18.951  15.169  1.00  0.00    -0.200 F 
ATOM     87  F   UNL     1      -2.942 -18.789  17.062  1.00  0.00    -0.200 F 
ENDBRANCH  54  77
ENDBRANCH  28  29
ENDBRANCH  20  23
ENDBRANCH  18  19
ENDBRANCH  17  18
ENDBRANCH   1  17
TORSDOF 14
