REMARK SMILES CC(=O)N1CCC2(CC1)C[C@H](C(=O)NCCCCCCNC(=O)c1ccc(-c3c4nc(c(-c5c(F)c(F)c(F)c(F)c5F)c5ccc([nH]5)c(-c5c(F)c(F)c(F)c(F)c5F)c5nc(c(-c6c(F)c(F)c(F)c(F)c6F)c6ccc3[nH]6)C=C5)C=C4)cc1)[N@H+](Cc1ncc[nH]1)C2
REMARK SMILES IDX 17 1 16 2 15 3 14 4 12 5 13 6 11 8 1 9 2 10 3 11 4 12 5 13
REMARK SMILES IDX 9 14 6 15 8 16 7 17 10 18 94 19 87 20 88 22 89 23 90 24
REMARK SMILES IDX 93 25 91 26 92 27 18 29 19 30 20 31 21 32 22 33 23 35 24 36
REMARK SMILES IDX 25 37 86 38 26 39 85 40 27 41 28 42 29 43 79 44 30 45 84 46
REMARK SMILES IDX 78 47 80 48 31 49 83 50 77 51 76 52 32 54 64 55 44 56 63 57
REMARK SMILES IDX 45 58 48 59 62 60 81 61 46 62 47 63 61 65 82 66 49 67 33 68
REMARK SMILES IDX 34 69 42 70 35 71 36 72 40 73 43 74 37 75 38 76 41 77 39 78
REMARK SMILES IDX 65 79 66 80 74 81 67 82 68 83 72 84 75 85 69 86 70 87 73 88
REMARK SMILES IDX 71 89 50 90 51 91 59 92 52 93 53 94 57 95 60 96 54 97 55 98
REMARK SMILES IDX 58 99 56 100
REMARK H PARENT 14 7 87 21 93 28 21 34 80 53 48 64
REMARK Flexibility Score: inf
ROOT
ATOM      1  C   UNL     1       1.567  -8.236   6.357  1.00  0.00     0.002 C 
ENDROOT
BRANCH   1   2
ATOM      2  C   UNL     1       2.352  -7.003   5.905  1.00  0.00     0.021 C 
BRANCH   2   3
ATOM      3  C   UNL     1       1.499  -5.808   5.492  1.00  0.00     0.116 C 
BRANCH   3   4
ATOM      4  N   UNL     1       0.738  -5.290   6.601  1.00  0.00    -0.351 N 
ATOM      5  C   UNL     1       0.671  -4.023   7.102  1.00  0.00     0.278 C 
ATOM      6  O   UNL     1       0.207  -3.929   8.244  1.00  0.00    -0.268 OA
ATOM      7  H   UNL     1       0.180  -5.953   7.069  1.00  0.00     0.163 HD
BRANCH   5   8
ATOM      8  C   UNL     1       1.291  -2.834   6.323  1.00  0.00     0.275 C 
ATOM      9  C   UNL     1       1.446   0.209  -0.139  1.00  0.00     0.114 C 
ATOM     10  C   UNL     1       0.603   0.858   0.922  1.00  0.00     0.219 C 
ATOM     11  O   UNL     1      -0.465   1.388   0.612  1.00  0.00    -0.275 OA
ATOM     12  N   UNL     1       1.003   0.708   2.239  1.00  0.00    -0.343 N 
ATOM     13  C   UNL     1      -0.035   0.690   3.244  1.00  0.00     0.120 C 
ATOM     14  C   UNL     1       2.328   0.350   2.738  1.00  0.00     0.120 C 
ATOM     15  C   UNL     1      -0.146  -0.749   3.740  1.00  0.00     0.034 C 
ATOM     16  C   UNL     1       2.317  -1.025   3.413  1.00  0.00     0.034 C 
ATOM     17  C   UNL     1       1.149  -1.240   4.422  1.00  0.00     0.029 C 
ATOM     18  C   UNL     1       1.074  -2.740   4.804  1.00  0.00     0.088 C 
ATOM     19  C   UNL     1       1.366  -0.551   5.785  1.00  0.00     0.270 C 
ATOM     20  N   UNL     1       0.931  -1.486   6.830  1.00  0.00    -0.318 N 
ATOM     21  H   UNL     1       1.417  -1.312   7.709  1.00  0.00     0.349 HD
BRANCH  20  22
ATOM     22  C   UNL     1      -0.438  -1.290   7.355  1.00  0.00     0.339 C 
BRANCH  22  23
ATOM     23  C   UNL     1      -1.613  -1.728   6.519  1.00  0.00     0.161 A 
ATOM     24  N   UNL     1      -1.804  -2.885   5.910  1.00  0.00    -0.236 NA
ATOM     25  N   UNL     1      -2.673  -0.885   6.258  1.00  0.00    -0.344 N 
ATOM     26  C   UNL     1      -2.941  -2.744   5.159  1.00  0.00     0.131 A 
ATOM     27  C   UNL     1      -3.481  -1.495   5.336  1.00  0.00     0.104 A 
ATOM     28  H   UNL     1      -2.822  -0.001   6.662  1.00  0.00     0.167 HD
ENDBRANCH  22  23
ENDBRANCH  20  22
ENDBRANCH   5   8
ENDBRANCH   3   4
ENDBRANCH   2   3
ENDBRANCH   1   2
BRANCH   1  29
ATOM     29  C   UNL     1       0.552  -8.773   5.345  1.00  0.00     0.002 C 
BRANCH  29  30
ATOM     30  C   UNL     1       1.109  -9.057   3.949  1.00  0.00     0.021 C 
BRANCH  30  31
ATOM     31  C   UNL     1       2.329  -9.973   3.916  1.00  0.00     0.116 C 
BRANCH  31  32
ATOM     32  N   UNL     1       2.052 -11.287   4.473  1.00  0.00    -0.352 N 
ATOM     33  C   UNL     1       2.202 -12.528   3.905  1.00  0.00     0.251 C 
ATOM     34  H   UNL     1       1.705 -11.287   5.394  1.00  0.00     0.163 HD
ATOM     35  O   UNL     1       1.754 -13.523   4.459  1.00  0.00    -0.269 OA
BRANCH  33  36
ATOM     36  C   UNL     1       2.884 -12.657   2.599  1.00  0.00     0.039 A 
ATOM     37  C   UNL     1       2.284 -13.432   1.604  1.00  0.00     0.014 A 
ATOM     38  C   UNL     1       4.093 -12.002   2.352  1.00  0.00     0.014 A 
ATOM     39  C   UNL     1       2.854 -13.482   0.331  1.00  0.00     0.010 A 
ATOM     40  C   UNL     1       4.623 -11.995   1.065  1.00  0.00     0.010 A 
ATOM     41  C   UNL     1       3.998 -12.721   0.039  1.00  0.00    -0.014 A 
BRANCH  41  42
ATOM     42  C   UNL     1       4.516 -12.620  -1.349  1.00  0.00     0.031 A 
ATOM     43  C   UNL     1       5.881 -13.132  -1.697  1.00  0.00     0.074 A 
ATOM     44  C   UNL     1       3.781 -11.975  -2.275  1.00  0.00     0.049 A 
ATOM     45  N   UNL     1       6.531 -13.052  -2.831  1.00  0.00    -0.248 NA
ATOM     46  C   UNL     1       6.626 -13.800  -0.621  1.00  0.00     0.031 C 
ATOM     47  C   UNL     1       2.463 -11.383  -2.040  1.00  0.00     0.029 A 
ATOM     48  N   UNL     1       4.046 -11.686  -3.590  1.00  0.00    -0.354 N 
ATOM     49  C   UNL     1       7.762 -13.650  -2.603  1.00  0.00     0.074 A 
ATOM     50  C   UNL     1       7.789 -14.040  -1.209  1.00  0.00     0.031 C 
ATOM     51  C   UNL     1       2.032 -10.808  -3.172  1.00  0.00     0.029 A 
ATOM     52  C   UNL     1       3.061 -10.948  -4.198  1.00  0.00     0.049 A 
ATOM     53  H   UNL     1       4.864 -11.981  -4.053  1.00  0.00     0.167 HD
ATOM     54  C   UNL     1       8.770 -13.868  -3.483  1.00  0.00     0.037 A 
ATOM     55  C   UNL     1       3.001 -10.419  -5.435  1.00  0.00     0.037 A 
ATOM     56  C   UNL     1       8.732 -13.475  -4.869  1.00  0.00     0.049 A 
ATOM     57  C   UNL     1       4.141 -10.647  -6.387  1.00  0.00     0.074 A 
ATOM     58  C   UNL     1       9.665 -13.720  -5.862  1.00  0.00     0.029 A 
ATOM     59  N   UNL     1       7.715 -12.733  -5.454  1.00  0.00    -0.354 N 
ATOM     60  N   UNL     1       5.263 -11.295  -6.191  1.00  0.00    -0.248 NA
ATOM     61  C   UNL     1       4.006 -10.072  -7.732  1.00  0.00     0.031 C 
ATOM     62  C   UNL     1       9.246 -13.067  -7.027  1.00  0.00     0.029 A 
ATOM     63  C   UNL     1       8.021 -12.468  -6.781  1.00  0.00     0.049 A 
ATOM     64  H   UNL     1       6.896 -12.438  -4.995  1.00  0.00     0.167 HD
ATOM     65  C   UNL     1       5.966 -11.214  -7.384  1.00  0.00     0.074 A 
ATOM     66  C   UNL     1       5.131 -10.474  -8.309  1.00  0.00     0.031 C 
ATOM     67  C   UNL     1       7.193 -11.707  -7.684  1.00  0.00     0.037 A 
BRANCH  54  68
ATOM     68  C   UNL     1      10.007 -14.546  -2.962  1.00  0.00     0.064 A 
ATOM     69  C   UNL     1       9.995 -15.883  -2.533  1.00  0.00     0.173 A 
ATOM     70  C   UNL     1      11.223 -13.850  -2.894  1.00  0.00     0.173 A 
ATOM     71  F   UNL     1       8.858 -16.594  -2.570  1.00  0.00    -0.203 F 
ATOM     72  C   UNL     1      11.140 -16.480  -2.012  1.00  0.00     0.198 A 
ATOM     73  C   UNL     1      12.375 -14.462  -2.406  1.00  0.00     0.198 A 
ATOM     74  F   UNL     1      11.296 -12.573  -3.299  1.00  0.00    -0.203 F 
ATOM     75  F   UNL     1      11.085 -17.735  -1.544  1.00  0.00    -0.200 F 
ATOM     76  C   UNL     1      12.330 -15.771  -1.953  1.00  0.00     0.200 A 
ATOM     77  F   UNL     1      13.528 -13.779  -2.365  1.00  0.00    -0.200 F 
ATOM     78  F   UNL     1      13.430 -16.346  -1.448  1.00  0.00    -0.200 F 
ENDBRANCH  54  68
BRANCH  55  79
ATOM     79  C   UNL     1       1.814  -9.615  -5.823  1.00  0.00     0.064 A 
ATOM     80  C   UNL     1       0.877 -10.104  -6.742  1.00  0.00     0.173 A 
ATOM     81  C   UNL     1       1.567  -8.362  -5.241  1.00  0.00     0.173 A 
ATOM     82  F   UNL     1       1.080 -11.287  -7.339  1.00  0.00    -0.203 F 
ATOM     83  C   UNL     1      -0.261  -9.368  -7.068  1.00  0.00     0.198 A 
ATOM     84  C   UNL     1       0.414  -7.641  -5.545  1.00  0.00     0.198 A 
ATOM     85  F   UNL     1       2.430  -7.853  -4.349  1.00  0.00    -0.203 F 
ATOM     86  F   UNL     1      -1.128  -9.846  -7.971  1.00  0.00    -0.200 F 
ATOM     87  C   UNL     1      -0.497  -8.143  -6.462  1.00  0.00     0.200 A 
ATOM     88  F   UNL     1       0.182  -6.468  -4.942  1.00  0.00    -0.200 F 
ATOM     89  F   UNL     1      -1.602  -7.447  -6.760  1.00  0.00    -0.200 F 
ENDBRANCH  55  79
BRANCH  67  90
ATOM     90  C   UNL     1       7.716 -11.452  -9.070  1.00  0.00     0.064 A 
ATOM     91  C   UNL     1       8.123 -10.172  -9.475  1.00  0.00     0.173 A 
ATOM     92  C   UNL     1       7.857 -12.505  -9.986  1.00  0.00     0.173 A 
ATOM     93  F   UNL     1       7.993  -9.127  -8.643  1.00  0.00    -0.203 F 
ATOM     94  C   UNL     1       8.633  -9.952 -10.752  1.00  0.00     0.198 A 
ATOM     95  C   UNL     1       8.397 -12.288 -11.251  1.00  0.00     0.198 A 
ATOM     96  F   UNL     1       7.487 -13.749  -9.649  1.00  0.00    -0.203 F 
ATOM     97  F   UNL     1       8.974  -8.713 -11.131  1.00  0.00    -0.200 F 
ATOM     98  C   UNL     1       8.779 -11.011 -11.635  1.00  0.00     0.200 A 
ATOM     99  F   UNL     1       8.550 -13.315 -12.098  1.00  0.00    -0.200 F 
ATOM    100  F   UNL     1       9.281 -10.800 -12.860  1.00  0.00    -0.200 F 
ENDBRANCH  67  90
ENDBRANCH  41  42
ENDBRANCH  33  36
ENDBRANCH  31  32
ENDBRANCH  30  31
ENDBRANCH  29  30
ENDBRANCH   1  29
TORSDOF 15
