REMARK SMILES Cc1nc(NC(=O)[C@@H]2CCC[C@@H](C(=O)NCCCCCCNC(=O)c3ccc(-c4c5nc(c(-c6c(F)c(F)c(F)c(F)c6F)c6ccc([nH]6)c(-c6c(F)c(F)c(F)c(F)c6F)c6nc(c(-c7c(F)c(F)c(F)c(F)c7F)c7ccc4[nH]7)C=C6)C=C5)cc3)C2)ccc1Br
REMARK SMILES IDX 18 1 17 2 16 3 15 4 13 5 14 6 12 8 8 9 9 10 88 11 10 12
REMARK SMILES IDX 11 13 6 14 5 15 7 17 4 18 1 19 2 20 3 21 91 22 90 23 92 24
REMARK SMILES IDX 89 25 19 26 20 27 21 28 22 29 23 30 24 32 25 33 26 34 87 35
REMARK SMILES IDX 27 36 86 37 28 38 29 39 30 40 80 41 31 42 85 43 79 44 81 45
REMARK SMILES IDX 32 46 84 47 78 48 77 49 33 51 65 52 45 53 64 54 46 55 49 56
REMARK SMILES IDX 63 57 82 58 47 59 48 60 62 62 83 63 50 64 34 65 35 66 43 67
REMARK SMILES IDX 36 68 37 69 41 70 44 71 38 72 39 73 42 74 40 75 66 76 67 77
REMARK SMILES IDX 75 78 68 79 69 80 73 81 76 82 70 83 71 84 74 85 72 86 51 87
REMARK SMILES IDX 52 88 60 89 53 90 54 91 58 92 61 93 55 94 56 95 59 96 57 97
REMARK H PARENT 15 7 5 16 22 31 81 50 49 61
REMARK Flexibility Score: inf
ROOT
ATOM      1  C   UNL     1       3.116   9.784  -4.602  1.00  0.00     0.002 C 
ENDROOT
BRANCH   1   2
ATOM      2  C   UNL     1       1.672   9.502  -5.046  1.00  0.00     0.021 C 
BRANCH   2   3
ATOM      3  C   UNL     1       1.559   8.710  -6.351  1.00  0.00     0.116 C 
BRANCH   3   4
ATOM      4  N   UNL     1       2.138   7.396  -6.190  1.00  0.00    -0.356 N 
ATOM      5  C   UNL     1       1.571   6.165  -6.167  1.00  0.00     0.223 C 
ATOM      6  O   UNL     1       2.331   5.223  -5.936  1.00  0.00    -0.275 OA
ATOM      7  H   UNL     1       3.116   7.395  -6.077  1.00  0.00     0.163 HD
BRANCH   5   8
ATOM      8  C   UNL     1       0.077   5.971  -6.470  1.00  0.00     0.079 C 
ATOM      9  C   UNL     1      -0.251   3.750  -5.282  1.00  0.00     0.079 C 
ATOM     10  C   UNL     1      -1.369   4.357  -4.431  1.00  0.00     0.013 C 
ATOM     11  C   UNL     1      -0.239   4.463  -6.646  1.00  0.00     0.027 C 
ATOM     12  C   UNL     1      -1.048   5.817  -4.149  1.00  0.00     0.002 C 
ATOM     13  C   UNL     1      -0.877   6.612  -5.441  1.00  0.00     0.013 C 
BRANCH   9  14
ATOM     14  C   UNL     1      -0.357   2.241  -5.344  1.00  0.00     0.228 C 
ATOM     15  N   UNL     1      -0.066   1.472  -4.253  1.00  0.00    -0.310 N 
ATOM     16  H   UNL     1      -0.196   0.513  -4.433  1.00  0.00     0.171 HD
ATOM     17  O   UNL     1      -0.742   1.677  -6.373  1.00  0.00    -0.274 OA
BRANCH  15  18
ATOM     18  C   UNL     1       0.371   1.703  -2.944  1.00  0.00     0.132 A 
ATOM     19  C   UNL     1       0.567  -0.601  -0.077  1.00  0.00     0.068 C 
ATOM     20  C   UNL     1       0.625   0.684  -0.849  1.00  0.00     0.054 A 
ATOM     21  N   UNL     1       0.316   0.594  -2.175  1.00  0.00    -0.235 NA
ATOM     22  C   UNL     1       0.988   1.885  -0.249  1.00  0.00     0.039 A 
ATOM     23  C   UNL     1       1.089   3.009  -1.052  1.00  0.00     0.021 A 
ATOM     24  Br  UNL     1       1.356   2.064   1.598  1.00  0.00    -0.049 Br
ATOM     25  C   UNL     1       0.800   2.910  -2.414  1.00  0.00     0.048 A 
ENDBRANCH  15  18
ENDBRANCH   9  14
ENDBRANCH   5   8
ENDBRANCH   3   4
ENDBRANCH   2   3
ENDBRANCH   1   2
BRANCH   1  26
ATOM     26  C   UNL     1       3.981  10.530  -5.625  1.00  0.00     0.002 C 
BRANCH  26  27
ATOM     27  C   UNL     1       3.369  11.823  -6.162  1.00  0.00     0.021 C 
BRANCH  27  28
ATOM     28  C   UNL     1       3.021  12.843  -5.085  1.00  0.00     0.116 C 
BRANCH  28  29
ATOM     29  N   UNL     1       4.210  13.407  -4.469  1.00  0.00    -0.352 N 
ATOM     30  C   UNL     1       4.632  14.713  -4.471  1.00  0.00     0.251 C 
ATOM     31  H   UNL     1       4.788  12.771  -3.989  1.00  0.00     0.163 HD
ATOM     32  O   UNL     1       5.753  15.017  -4.078  1.00  0.00    -0.269 OA
BRANCH  30  33
ATOM     33  C   UNL     1       3.716  15.755  -4.971  1.00  0.00     0.039 A 
ATOM     34  C   UNL     1       4.159  16.629  -5.965  1.00  0.00     0.014 A 
ATOM     35  C   UNL     1       2.417  15.852  -4.461  1.00  0.00     0.014 A 
ATOM     36  C   UNL     1       3.281  17.582  -6.481  1.00  0.00     0.010 A 
ATOM     37  C   UNL     1       1.526  16.765  -5.015  1.00  0.00     0.010 A 
ATOM     38  C   UNL     1       1.957  17.647  -6.017  1.00  0.00    -0.014 A 
BRANCH  38  39
ATOM     39  C   UNL     1       1.029  18.683  -6.525  1.00  0.00     0.031 A 
ATOM     40  C   UNL     1       0.631  19.819  -5.628  1.00  0.00     0.074 A 
ATOM     41  C   UNL     1       0.528  18.589  -7.771  1.00  0.00     0.049 A 
ATOM     42  N   UNL     1      -0.166  20.827  -5.874  1.00  0.00    -0.248 NA
ATOM     43  C   UNL     1       1.191  19.814  -4.266  1.00  0.00     0.031 C 
ATOM     44  C   UNL     1       0.815  17.511  -8.717  1.00  0.00     0.029 A 
ATOM     45  N   UNL     1      -0.330  19.414  -8.452  1.00  0.00    -0.354 N 
ATOM     46  C   UNL     1      -0.198  21.573  -4.705  1.00  0.00     0.074 A 
ATOM     47  C   UNL     1       0.606  20.873  -3.728  1.00  0.00     0.031 C 
ATOM     48  C   UNL     1       0.159  17.751  -9.865  1.00  0.00     0.029 A 
ATOM     49  C   UNL     1      -0.609  18.987  -9.727  1.00  0.00     0.049 A 
ATOM     50  H   UNL     1      -0.711  20.234  -8.064  1.00  0.00     0.167 HD
ATOM     51  C   UNL     1      -0.816  22.755  -4.477  1.00  0.00     0.037 A 
ATOM     52  C   UNL     1      -1.391  19.537 -10.676  1.00  0.00     0.037 A 
ATOM     53  C   UNL     1      -1.593  23.460  -5.458  1.00  0.00     0.049 A 
ATOM     54  C   UNL     1      -2.095  20.836 -10.386  1.00  0.00     0.074 A 
ATOM     55  C   UNL     1      -2.203  24.696  -5.347  1.00  0.00     0.029 A 
ATOM     56  N   UNL     1      -1.869  22.987  -6.732  1.00  0.00    -0.354 N 
ATOM     57  N   UNL     1      -2.056  21.573  -9.303  1.00  0.00    -0.248 NA
ATOM     58  C   UNL     1      -2.949  21.381 -11.452  1.00  0.00     0.031 C 
ATOM     59  C   UNL     1      -2.884  24.953  -6.541  1.00  0.00     0.029 A 
ATOM     60  C   UNL     1      -2.667  23.894  -7.408  1.00  0.00     0.049 A 
ATOM     61  H   UNL     1      -1.546  22.133  -7.100  1.00  0.00     0.167 HD
ATOM     62  C   UNL     1      -2.862  22.673  -9.560  1.00  0.00     0.074 A 
ATOM     63  C   UNL     1      -3.366  22.517 -10.908  1.00  0.00     0.031 C 
ATOM     64  C   UNL     1      -3.160  23.718  -8.750  1.00  0.00     0.037 A 
BRANCH  51  65
ATOM     65  C   UNL     1      -0.655  23.371  -3.121  1.00  0.00     0.064 A 
ATOM     66  C   UNL     1       0.562  23.944  -2.722  1.00  0.00     0.173 A 
ATOM     67  C   UNL     1      -1.736  23.433  -2.231  1.00  0.00     0.173 A 
ATOM     68  F   UNL     1       1.629  23.897  -3.534  1.00  0.00    -0.203 F 
ATOM     69  C   UNL     1       0.695  24.541  -1.472  1.00  0.00     0.198 A 
ATOM     70  C   UNL     1      -1.606  24.054  -0.992  1.00  0.00     0.198 A 
ATOM     71  F   UNL     1      -2.921  22.902  -2.568  1.00  0.00    -0.203 F 
ATOM     72  F   UNL     1       1.877  25.050  -1.097  1.00  0.00    -0.200 F 
ATOM     73  C   UNL     1      -0.391  24.603  -0.612  1.00  0.00     0.200 A 
ATOM     74  F   UNL     1      -2.658  24.121  -0.164  1.00  0.00    -0.200 F 
ATOM     75  F   UNL     1      -0.264  25.187   0.588  1.00  0.00    -0.200 F 
ENDBRANCH  51  65
BRANCH  52  76
ATOM     76  C   UNL     1      -1.522  18.878 -12.000  1.00  0.00     0.064 A 
ATOM     77  C   UNL     1      -0.927  19.434 -13.140  1.00  0.00     0.173 A 
ATOM     78  C   UNL     1      -2.234  17.679 -12.152  1.00  0.00     0.173 A 
ATOM     79  F   UNL     1      -0.253  20.590 -13.046  1.00  0.00    -0.203 F 
ATOM     80  C   UNL     1      -1.048  18.823 -14.386  1.00  0.00     0.198 A 
ATOM     81  C   UNL     1      -2.337  17.057 -13.395  1.00  0.00     0.198 A 
ATOM     82  F   UNL     1      -2.820  17.106 -11.091  1.00  0.00    -0.203 F 
ATOM     83  F   UNL     1      -0.497  19.392 -15.466  1.00  0.00    -0.200 F 
ATOM     84  C   UNL     1      -1.748  17.632 -14.512  1.00  0.00     0.200 A 
ATOM     85  F   UNL     1      -3.004  15.901 -13.511  1.00  0.00    -0.200 F 
ATOM     86  F   UNL     1      -1.859  17.041 -15.709  1.00  0.00    -0.200 F 
ENDBRANCH  52  76
BRANCH  64  87
ATOM     87  C   UNL     1      -4.074  24.777  -9.288  1.00  0.00     0.064 A 
ATOM     88  C   UNL     1      -5.454  24.556  -9.398  1.00  0.00     0.173 A 
ATOM     89  C   UNL     1      -3.580  26.051  -9.606  1.00  0.00     0.173 A 
ATOM     90  F   UNL     1      -5.968  23.350  -9.118  1.00  0.00    -0.203 F 
ATOM     91  C   UNL     1      -6.308  25.574  -9.812  1.00  0.00     0.198 A 
ATOM     92  C   UNL     1      -4.441  27.073  -9.996  1.00  0.00     0.198 A 
ATOM     93  F   UNL     1      -2.268  26.312  -9.508  1.00  0.00    -0.203 F 
ATOM     94  F   UNL     1      -7.621  25.336  -9.932  1.00  0.00    -0.200 F 
ATOM     95  C   UNL     1      -5.803  26.834 -10.099  1.00  0.00     0.200 A 
ATOM     96  F   UNL     1      -3.954  28.294 -10.258  1.00  0.00    -0.200 F 
ATOM     97  F   UNL     1      -6.630  27.818 -10.476  1.00  0.00    -0.200 F 
ENDBRANCH  64  87
ENDBRANCH  38  39
ENDBRANCH  30  33
ENDBRANCH  28  29
ENDBRANCH  27  28
ENDBRANCH  26  27
ENDBRANCH   1  26
TORSDOF 15
