REMARK SMILES CCc1ccc2[nH]c(C(=O)c3cc(C)ccn3)c(CC(=O)NCCCCCCNC(=O)c3ccc(-c4c5nc(c(-c6c(F)c(F)c(F)c(F)c6F)c6ccc([nH]6)c(-c6c(F)c(F)c(F)c(F)c6F)c6nc(c(-c7c(F)c(F)c(F)c(F)c7F)c7ccc4[nH]7)C=C6)C=C5)cc3)c2c1
REMARK SMILES IDX 25 1 24 2 23 3 22 4 20 5 21 6 19 8 18 9 3 10 4 11 96 12 5 13
REMARK SMILES IDX 95 14 6 15 7 16 8 17 2 19 1 20 9 21 10 22 11 23 12 24 17 25
REMARK SMILES IDX 13 26 16 27 14 28 15 29 26 30 27 31 28 32 29 33 30 34 31 36
REMARK SMILES IDX 32 37 33 38 94 39 34 40 93 41 35 42 36 43 37 44 87 45 38 46
REMARK SMILES IDX 92 47 86 48 88 49 39 50 91 51 85 52 84 53 40 55 72 56 52 57
REMARK SMILES IDX 71 58 53 59 56 60 70 61 89 62 54 63 55 64 69 66 90 67 57 68
REMARK SMILES IDX 41 69 42 70 50 71 43 72 44 73 48 74 51 75 45 76 46 77 49 78
REMARK SMILES IDX 47 79 73 80 74 81 82 82 75 83 76 84 80 85 83 86 77 87 78 88
REMARK SMILES IDX 81 89 79 90 58 91 59 92 67 93 60 94 61 95 65 96 68 97 62 98
REMARK SMILES IDX 63 99 66 100 64 101
REMARK H PARENT 22 7 7 18 29 35 88 54 56 65
REMARK Flexibility Score: inf
ROOT
ATOM      1  C   UNL     1       6.837   0.520  -4.862  1.00  0.00     0.002 C 
ENDROOT
BRANCH   1   2
ATOM      2  C   UNL     1       5.325   0.566  -4.602  1.00  0.00     0.021 C 
BRANCH   2   3
ATOM      3  C   UNL     1       4.742   1.976  -4.521  1.00  0.00     0.116 C 
BRANCH   3   4
ATOM      4  N   UNL     1       4.765   2.653  -5.798  1.00  0.00    -0.356 N 
ATOM      5  C   UNL     1       3.737   2.986  -6.632  1.00  0.00     0.224 C 
ATOM      6  O   UNL     1       4.012   3.728  -7.580  1.00  0.00    -0.275 OA
ATOM      7  H   UNL     1       5.660   2.913  -6.115  1.00  0.00     0.163 HD
BRANCH   5   8
ATOM      8  C   UNL     1       2.297   2.595  -6.323  1.00  0.00     0.138 C 
BRANCH   8   9
ATOM      9  C   UNL     1       2.041   1.125  -6.111  1.00  0.00    -0.002 A 
ATOM     10  C   UNL     1       0.764   0.184  -2.600  1.00  0.00    -0.048 A 
ATOM     11  C   UNL     1       0.713  -1.192  -2.849  1.00  0.00     0.006 A 
ATOM     12  C   UNL     1       1.165   1.048  -3.634  1.00  0.00     0.014 A 
ATOM     13  C   UNL     1       1.085  -1.728  -4.088  1.00  0.00     0.027 A 
ATOM     14  C   UNL     1       1.552   0.535  -4.893  1.00  0.00     0.004 A 
ATOM     15  C   UNL     1       1.501  -0.840  -5.084  1.00  0.00     0.046 A 
ATOM     16  N   UNL     1       1.919  -1.082  -6.369  1.00  0.00    -0.352 N 
ATOM     17  C   UNL     1       2.169   0.095  -7.045  1.00  0.00     0.093 A 
ATOM     18  H   UNL     1       2.026  -1.980  -6.758  1.00  0.00     0.167 HD
BRANCH  10  19
ATOM     19  C   UNL     1       0.345   0.764  -1.268  1.00  0.00     0.032 C 
ATOM     20  C   UNL     1       0.979   0.080  -0.063  1.00  0.00     0.009 C 
ENDBRANCH  10  19
BRANCH  17  21
ATOM     21  C   UNL     1       2.517   0.187  -8.460  1.00  0.00     0.227 C 
ATOM     22  O   UNL     1       2.727   1.252  -9.037  1.00  0.00    -0.285 OA
BRANCH  21  23
ATOM     23  C   UNL     1       2.561  -1.058  -9.271  1.00  0.00     0.113 A 
ATOM     24  C   UNL     1       1.389  -1.773  -9.503  1.00  0.00     0.036 A 
ATOM     25  N   UNL     1       3.779  -1.428  -9.740  1.00  0.00    -0.253 NA
ATOM     26  C   UNL     1       1.466  -2.943 -10.261  1.00  0.00    -0.047 A 
ATOM     27  C   UNL     1       3.818  -2.539 -10.502  1.00  0.00     0.112 A 
ATOM     28  C   UNL     1       0.248  -3.770 -10.542  1.00  0.00     0.044 C 
ATOM     29  C   UNL     1       2.707  -3.321 -10.780  1.00  0.00     0.023 A 
ENDBRANCH  21  23
ENDBRANCH  17  21
ENDBRANCH   8   9
ENDBRANCH   5   8
ENDBRANCH   3   4
ENDBRANCH   2   3
ENDBRANCH   1   2
BRANCH   1  30
ATOM     30  C   UNL     1       7.705   1.289  -3.859  1.00  0.00     0.002 C 
BRANCH  30  31
ATOM     31  C   UNL     1       7.487   0.930  -2.386  1.00  0.00     0.021 C 
BRANCH  31  32
ATOM     32  C   UNL     1       7.758  -0.529  -2.028  1.00  0.00     0.116 C 
BRANCH  32  33
ATOM     33  N   UNL     1       9.150  -0.895  -2.225  1.00  0.00    -0.352 N 
ATOM     34  C   UNL     1      10.013  -1.556  -1.389  1.00  0.00     0.251 C 
ATOM     35  H   UNL     1       9.533  -0.629  -3.092  1.00  0.00     0.163 HD
ATOM     36  O   UNL     1      11.205  -1.625  -1.675  1.00  0.00    -0.269 OA
BRANCH  34  37
ATOM     37  C   UNL     1       9.530  -2.179  -0.136  1.00  0.00     0.039 A 
ATOM     38  C   UNL     1      10.332  -2.084   1.007  1.00  0.00     0.014 A 
ATOM     39  C   UNL     1       8.338  -2.909  -0.089  1.00  0.00     0.014 A 
ATOM     40  C   UNL     1       9.927  -2.690   2.198  1.00  0.00     0.010 A 
ATOM     41  C   UNL     1       7.905  -3.464   1.115  1.00  0.00     0.010 A 
ATOM     42  C   UNL     1       8.704  -3.375   2.265  1.00  0.00    -0.014 A 
BRANCH  42  43
ATOM     43  C   UNL     1       8.275  -4.037   3.523  1.00  0.00     0.031 A 
ATOM     44  C   UNL     1       8.201  -5.537   3.599  1.00  0.00     0.074 A 
ATOM     45  C   UNL     1       7.926  -3.291   4.588  1.00  0.00     0.049 A 
ATOM     46  N   UNL     1       7.824  -6.300   4.595  1.00  0.00    -0.248 NA
ATOM     47  C   UNL     1       8.578  -6.279   2.386  1.00  0.00     0.031 C 
ATOM     48  C   UNL     1       7.907  -1.828   4.625  1.00  0.00     0.029 A 
ATOM     49  N   UNL     1       7.513  -3.662   5.843  1.00  0.00    -0.354 N 
ATOM     50  C   UNL     1       7.913  -7.605   4.127  1.00  0.00     0.074 A 
ATOM     51  C   UNL     1       8.325  -7.530   2.742  1.00  0.00     0.031 C 
ATOM     52  C   UNL     1       7.519  -1.426   5.847  1.00  0.00     0.029 A 
ATOM     53  C   UNL     1       7.244  -2.600   6.670  1.00  0.00     0.049 A 
ATOM     54  H   UNL     1       7.419  -4.601   6.124  1.00  0.00     0.167 HD
ATOM     55  C   UNL     1       7.694  -8.762   4.797  1.00  0.00     0.037 A 
ATOM     56  C   UNL     1       6.828  -2.578   7.950  1.00  0.00     0.037 A 
ATOM     57  C   UNL     1       7.304  -8.839   6.180  1.00  0.00     0.049 A 
ATOM     58  C   UNL     1       6.632  -3.877   8.684  1.00  0.00     0.074 A 
ATOM     59  C   UNL     1       7.072  -9.963   6.954  1.00  0.00     0.029 A 
ATOM     60  N   UNL     1       7.098  -7.740   7.001  1.00  0.00    -0.354 N 
ATOM     61  N   UNL     1       6.760  -5.104   8.242  1.00  0.00    -0.248 NA
ATOM     62  C   UNL     1       6.253  -3.786  10.101  1.00  0.00     0.031 C 
ATOM     63  C   UNL     1       6.707  -9.544   8.239  1.00  0.00     0.029 A 
ATOM     64  C   UNL     1       6.746  -8.160   8.274  1.00  0.00     0.049 A 
ATOM     65  H   UNL     1       7.189  -6.801   6.721  1.00  0.00     0.167 HD
ATOM     66  C   UNL     1       6.504  -5.929   9.328  1.00  0.00     0.074 A 
ATOM     67  C   UNL     1       6.231  -5.063  10.456  1.00  0.00     0.031 C 
ATOM     68  C   UNL     1       6.492  -7.283   9.387  1.00  0.00     0.037 A 
BRANCH  55  69
ATOM     69  C   UNL     1       7.890 -10.043   4.040  1.00  0.00     0.064 A 
ATOM     70  C   UNL     1       9.171 -10.488   3.679  1.00  0.00     0.173 A 
ATOM     71  C   UNL     1       6.794 -10.846   3.694  1.00  0.00     0.173 A 
ATOM     72  F   UNL     1      10.250  -9.748   3.974  1.00  0.00    -0.203 F 
ATOM     73  C   UNL     1       9.345 -11.677   2.977  1.00  0.00     0.198 A 
ATOM     74  C   UNL     1       6.974 -12.049   3.015  1.00  0.00     0.198 A 
ATOM     75  F   UNL     1       5.548 -10.468   4.019  1.00  0.00    -0.203 F 
ATOM     76  F   UNL     1      10.574 -12.058   2.601  1.00  0.00    -0.200 F 
ATOM     77  C   UNL     1       8.248 -12.459   2.650  1.00  0.00     0.200 A 
ATOM     78  F   UNL     1       5.913 -12.809   2.708  1.00  0.00    -0.200 F 
ATOM     79  F   UNL     1       8.417 -13.605   1.977  1.00  0.00    -0.200 F 
ENDBRANCH  55  69
BRANCH  56  80
ATOM     80  C   UNL     1       6.604  -1.279   8.634  1.00  0.00     0.064 A 
ATOM     81  C   UNL     1       7.479  -0.832   9.635  1.00  0.00     0.173 A 
ATOM     82  C   UNL     1       5.509  -0.466   8.311  1.00  0.00     0.173 A 
ATOM     83  F   UNL     1       8.528  -1.586   9.992  1.00  0.00    -0.203 F 
ATOM     84  C   UNL     1       7.252   0.368  10.304  1.00  0.00     0.198 A 
ATOM     85  C   UNL     1       5.298   0.747   8.963  1.00  0.00     0.198 A 
ATOM     86  F   UNL     1       4.648  -0.848   7.357  1.00  0.00    -0.203 F 
ATOM     87  F   UNL     1       8.076   0.749  11.290  1.00  0.00    -0.200 F 
ATOM     88  C   UNL     1       6.164   1.159   9.965  1.00  0.00     0.200 A 
ATOM     89  F   UNL     1       4.252   1.513   8.625  1.00  0.00    -0.200 F 
ATOM     90  F   UNL     1       5.945   2.313  10.610  1.00  0.00    -0.200 F 
ENDBRANCH  56  80
BRANCH  68  91
ATOM     91  C   UNL     1       6.210  -7.906  10.722  1.00  0.00     0.064 A 
ATOM     92  C   UNL     1       4.924  -7.895  11.281  1.00  0.00     0.173 A 
ATOM     93  C   UNL     1       7.237  -8.537  11.440  1.00  0.00     0.173 A 
ATOM     94  F   UNL     1       3.914  -7.291  10.638  1.00  0.00    -0.203 F 
ATOM     95  C   UNL     1       4.683  -8.467  12.527  1.00  0.00     0.198 A 
ATOM     96  C   UNL     1       6.986  -9.131  12.674  1.00  0.00     0.198 A 
ATOM     97  F   UNL     1       8.482  -8.580  10.944  1.00  0.00    -0.203 F 
ATOM     98  F   UNL     1       3.457  -8.401  13.066  1.00  0.00    -0.200 F 
ATOM     99  C   UNL     1       5.712  -9.088  13.220  1.00  0.00     0.200 A 
ATOM    100  F   UNL     1       7.979  -9.738  13.338  1.00  0.00    -0.200 F 
ATOM    101  F   UNL     1       5.477  -9.636  14.420  1.00  0.00    -0.200 F 
ENDBRANCH  68  91
ENDBRANCH  42  43
ENDBRANCH  34  37
ENDBRANCH  32  33
ENDBRANCH  31  32
ENDBRANCH  30  31
ENDBRANCH   1  30
TORSDOF 17
