REMARK SMILES CCOC(=O)c1c(NC(=O)[C@@H]2[C@@H]3CC[C@@H](C3)[C@@H]2C(=O)NCCCCCCNC(=O)c2ccc(-c3c4nc(c(-c5c(F)c(F)c(F)c(F)c5F)c5ccc([nH]5)c(-c5c(F)c(F)c(F)c(F)c5F)c5nc(c(-c6c(F)c(F)c(F)c(F)c6F)c6ccc3[nH]6)C=C5)C=C4)cc2)sc2c1CCCC2
REMARK SMILES IDX 22 1 21 2 20 3 18 4 19 5 17 7 11 8 12 9 13 10 16 11 15 12
REMARK SMILES IDX 14 13 9 14 8 15 10 17 7 18 6 19 95 20 93 21 94 22 96 23
REMARK SMILES IDX 99 24 97 25 98 26 4 27 5 28 3 29 2 30 1 31 23 32 24 33 25 34
REMARK SMILES IDX 26 35 27 36 28 37 29 39 30 40 31 41 92 42 32 43 91 44 33 45
REMARK SMILES IDX 34 46 35 47 85 48 36 49 90 50 84 51 86 52 37 53 89 54 83 55
REMARK SMILES IDX 82 56 38 58 70 59 50 60 69 61 51 62 54 63 68 64 87 65 52 66
REMARK SMILES IDX 53 67 67 69 88 70 55 71 39 72 40 73 48 74 41 75 42 76 46 77
REMARK SMILES IDX 49 78 43 79 44 80 47 81 45 82 71 83 72 84 80 85 73 86 74 87
REMARK SMILES IDX 78 88 81 89 75 90 76 91 79 92 77 93 56 94 57 95 65 96 58 97
REMARK SMILES IDX 59 98 63 99 66 100 60 101 61 102 64 103 62 104
REMARK H PARENT 20 6 8 16 27 38 86 57 54 68
REMARK Flexibility Score: inf
ROOT
ATOM      1  C   UNL     1       5.487   1.390   4.501  1.00  0.00     0.021 C 
ENDROOT
BRANCH   1   2
ATOM      2  C   UNL     1       5.407   0.212   3.528  1.00  0.00     0.116 C 
BRANCH   2   3
ATOM      3  N   UNL     1       4.261  -0.609   3.822  1.00  0.00    -0.356 N 
ATOM      4  C   UNL     1       3.177  -0.972   3.101  1.00  0.00     0.224 C 
ATOM      5  O   UNL     1       2.515  -1.876   3.626  1.00  0.00    -0.275 OA
ATOM      6  H   UNL     1       4.269  -0.982   4.734  1.00  0.00     0.163 HD
BRANCH   4   7
ATOM      7  C   UNL     1       2.864  -0.485   1.674  1.00  0.00     0.094 C 
ATOM      8  C   UNL     1       2.680   0.986   1.241  1.00  0.00     0.094 C 
ATOM      9  C   UNL     1       1.185   1.082   0.844  1.00  0.00     0.002 C 
ATOM     10  C   UNL     1       0.235   0.747   2.005  1.00  0.00     0.005 C 
ATOM     11  C   UNL     1       1.096  -0.182  -0.011  1.00  0.00     0.009 C 
ATOM     12  C   UNL     1       1.502  -1.100   1.154  1.00  0.00     0.002 C 
ATOM     13  C   UNL     1       0.333  -0.777   2.104  1.00  0.00     0.005 C 
BRANCH   8  14
ATOM     14  C   UNL     1       3.187   2.186   1.988  1.00  0.00     0.229 C 
ATOM     15  N   UNL     1       4.342   2.825   1.614  1.00  0.00    -0.317 N 
ATOM     16  H   UNL     1       4.419   3.740   1.970  1.00  0.00     0.170 HD
ATOM     17  O   UNL     1       2.568   2.652   2.947  1.00  0.00    -0.274 OA
BRANCH  15  18
ATOM     18  C   UNL     1       5.420   2.439   0.835  1.00  0.00     0.110 A 
ATOM     19  C   UNL     1       5.753   1.563  -0.192  1.00  0.00     0.098 A 
ATOM     20  C   UNL     1       7.187   1.299  -0.171  1.00  0.00    -0.017 A 
ATOM     21  S   UNL     1       6.816   3.268   1.409  1.00  0.00    -0.122 S 
ATOM     22  C   UNL     1       7.846   2.110   0.731  1.00  0.00     0.011 A 
ATOM     23  C   UNL     1       7.950   0.334  -1.041  1.00  0.00     0.038 C 
ATOM     24  C   UNL     1       9.302   2.035   1.068  1.00  0.00     0.047 C 
ATOM     25  C   UNL     1       9.357   0.043  -0.497  1.00  0.00     0.005 C 
ATOM     26  C   UNL     1      10.075   1.321  -0.046  1.00  0.00     0.006 C 
BRANCH  19  27
ATOM     27  C   UNL     1       4.856   0.991  -1.195  1.00  0.00     0.341 C 
ATOM     28  O   UNL     1       4.077   1.664  -1.855  1.00  0.00    -0.246 OA
BRANCH  27  29
ATOM     29  O   UNL     1       5.020  -0.357  -1.319  1.00  0.00    -0.462 OA
BRANCH  29  30
ATOM     30  C   UNL     1       4.418  -1.003  -2.453  1.00  0.00     0.230 C 
ATOM     31  C   UNL     1       3.640  -2.226  -2.001  1.00  0.00     0.049 C 
ENDBRANCH  29  30
ENDBRANCH  27  29
ENDBRANCH  19  27
ENDBRANCH  15  18
ENDBRANCH   8  14
ENDBRANCH   4   7
ENDBRANCH   2   3
ENDBRANCH   1   2
BRANCH   1  32
ATOM     32  C   UNL     1       6.249   1.087   5.797  1.00  0.00     0.002 C 
BRANCH  32  33
ATOM     33  C   UNL     1       7.775   0.990   5.659  1.00  0.00     0.002 C 
BRANCH  33  34
ATOM     34  C   UNL     1       8.477   2.189   5.013  1.00  0.00     0.021 C 
BRANCH  34  35
ATOM     35  C   UNL     1       8.140   3.562   5.590  1.00  0.00     0.116 C 
BRANCH  35  36
ATOM     36  N   UNL     1       8.555   3.699   6.974  1.00  0.00    -0.352 N 
ATOM     37  C   UNL     1       9.420   4.590   7.558  1.00  0.00     0.251 C 
ATOM     38  H   UNL     1       8.152   3.048   7.593  1.00  0.00     0.163 HD
ATOM     39  O   UNL     1       9.762   4.428   8.726  1.00  0.00    -0.269 OA
BRANCH  37  40
ATOM     40  C   UNL     1       9.965   5.738   6.796  1.00  0.00     0.039 A 
ATOM     41  C   UNL     1      11.318   6.057   6.953  1.00  0.00     0.014 A 
ATOM     42  C   UNL     1       9.153   6.537   5.986  1.00  0.00     0.014 A 
ATOM     43  C   UNL     1      11.867   7.142   6.264  1.00  0.00     0.010 A 
ATOM     44  C   UNL     1       9.713   7.586   5.254  1.00  0.00     0.010 A 
ATOM     45  C   UNL     1      11.074   7.903   5.391  1.00  0.00    -0.014 A 
BRANCH  45  46
ATOM     46  C   UNL     1      11.652   9.042   4.633  1.00  0.00     0.031 A 
ATOM     47  C   UNL     1      11.227  10.451   4.940  1.00  0.00     0.074 A 
ATOM     48  C   UNL     1      12.528   8.807   3.637  1.00  0.00     0.049 A 
ATOM     49  N   UNL     1      11.576  11.569   4.352  1.00  0.00    -0.248 NA
ATOM     50  C   UNL     1      10.268  10.626   6.040  1.00  0.00     0.031 C 
ATOM     51  C   UNL     1      12.996   7.486   3.218  1.00  0.00     0.029 A 
ATOM     52  N   UNL     1      13.174   9.674   2.790  1.00  0.00    -0.354 N 
ATOM     53  C   UNL     1      10.869  12.573   4.998  1.00  0.00     0.074 A 
ATOM     54  C   UNL     1      10.041  11.931   5.997  1.00  0.00     0.031 C 
ATOM     55  C   UNL     1      13.867   7.630   2.206  1.00  0.00     0.029 A 
ATOM     56  C   UNL     1      13.996   9.049   1.885  1.00  0.00     0.049 A 
ATOM     57  H   UNL     1      13.060  10.651   2.829  1.00  0.00     0.167 HD
ATOM     58  C   UNL     1      10.918  13.911   4.791  1.00  0.00     0.037 A 
ATOM     59  C   UNL     1      14.764   9.561   0.905  1.00  0.00     0.037 A 
ATOM     60  C   UNL     1      11.764  14.555   3.821  1.00  0.00     0.049 A 
ATOM     61  C   UNL     1      14.806  11.051   0.701  1.00  0.00     0.074 A 
ATOM     62  C   UNL     1      11.925  15.908   3.577  1.00  0.00     0.029 A 
ATOM     63  N   UNL     1      12.596  13.888   2.934  1.00  0.00    -0.354 N 
ATOM     64  N   UNL     1      14.172  11.993   1.353  1.00  0.00    -0.248 NA
ATOM     65  C   UNL     1      15.677  11.547  -0.376  1.00  0.00     0.031 C 
ATOM     66  C   UNL     1      12.831  16.059   2.521  1.00  0.00     0.029 A 
ATOM     67  C   UNL     1      13.261  14.801   2.132  1.00  0.00     0.049 A 
ATOM     68  H   UNL     1      12.698  12.910   2.882  1.00  0.00     0.167 HD
ATOM     69  C   UNL     1      14.583  13.192   0.787  1.00  0.00     0.074 A 
ATOM     70  C   UNL     1      15.530  12.860  -0.257  1.00  0.00     0.031 C 
ATOM     71  C   UNL     1      14.207  14.455   1.103  1.00  0.00     0.037 A 
BRANCH  58  72
ATOM     72  C   UNL     1      10.032  14.775   5.639  1.00  0.00     0.064 A 
ATOM     73  C   UNL     1      10.305  14.995   6.997  1.00  0.00     0.173 A 
ATOM     74  C   UNL     1       8.920  15.421   5.079  1.00  0.00     0.173 A 
ATOM     75  F   UNL     1      11.351  14.392   7.581  1.00  0.00    -0.203 F 
ATOM     76  C   UNL     1       9.482  15.809   7.770  1.00  0.00     0.198 A 
ATOM     77  C   UNL     1       8.113  16.255   5.849  1.00  0.00     0.198 A 
ATOM     78  F   UNL     1       8.619  15.249   3.783  1.00  0.00    -0.203 F 
ATOM     79  F   UNL     1       9.738  15.972   9.075  1.00  0.00    -0.200 F 
ATOM     80  C   UNL     1       8.390  16.443   7.194  1.00  0.00     0.200 A 
ATOM     81  F   UNL     1       7.065  16.875   5.289  1.00  0.00    -0.200 F 
ATOM     82  F   UNL     1       7.602  17.231   7.939  1.00  0.00    -0.200 F 
ENDBRANCH  58  72
BRANCH  59  83
ATOM     83  C   UNL     1      15.581   8.656   0.058  1.00  0.00     0.064 A 
ATOM     84  C   UNL     1      16.975   8.611   0.195  1.00  0.00     0.173 A 
ATOM     85  C   UNL     1      14.989   7.822  -0.900  1.00  0.00     0.173 A 
ATOM     86  F   UNL     1      17.586   9.407   1.084  1.00  0.00    -0.203 F 
ATOM     87  C   UNL     1      17.749   7.773  -0.605  1.00  0.00     0.198 A 
ATOM     88  C   UNL     1      15.762   6.968  -1.684  1.00  0.00     0.198 A 
ATOM     89  F   UNL     1      13.659   7.827  -1.067  1.00  0.00    -0.203 F 
ATOM     90  F   UNL     1      19.083   7.775  -0.479  1.00  0.00    -0.200 F 
ATOM     91  C   UNL     1      17.142   6.949  -1.540  1.00  0.00     0.200 A 
ATOM     92  F   UNL     1      15.171   6.163  -2.578  1.00  0.00    -0.200 F 
ATOM     93  F   UNL     1      17.886   6.139  -2.306  1.00  0.00    -0.200 F 
ENDBRANCH  59  83
BRANCH  71  94
ATOM     94  C   UNL     1      14.841  15.573   0.332  1.00  0.00     0.064 A 
ATOM     95  C   UNL     1      14.470  15.853  -0.991  1.00  0.00     0.173 A 
ATOM     96  C   UNL     1      15.803  16.396   0.936  1.00  0.00     0.173 A 
ATOM     97  F   UNL     1      13.567  15.083  -1.616  1.00  0.00    -0.203 F 
ATOM     98  C   UNL     1      15.053  16.908  -1.688  1.00  0.00     0.198 A 
ATOM     99  C   UNL     1      16.367  17.464   0.244  1.00  0.00     0.198 A 
ATOM    100  F   UNL     1      16.188  16.170   2.201  1.00  0.00    -0.203 F 
ATOM    101  F   UNL     1      14.712  17.135  -2.964  1.00  0.00    -0.200 F 
ATOM    102  C   UNL     1      15.995  17.716  -1.068  1.00  0.00     0.200 A 
ATOM    103  F   UNL     1      17.271  18.249   0.846  1.00  0.00    -0.200 F 
ATOM    104  F   UNL     1      16.552  18.733  -1.740  1.00  0.00    -0.200 F 
ENDBRANCH  71  94
ENDBRANCH  45  46
ENDBRANCH  37  40
ENDBRANCH  35  36
ENDBRANCH  34  35
ENDBRANCH  33  34
ENDBRANCH  32  33
ENDBRANCH   1  32
TORSDOF 18
