REMARK SMILES C[NH+](C)[C@@H]1CC[N@@H+](Cc2ccc(C(=O)NCCCCCCNC(=O)c3ccc(-c4c5nc(c(-c6c(F)c(F)c(F)c(F)c6F)c6ccc([nH]6)c(-c6c(F)c(F)c(F)c(F)c6F)c6nc(c(-c7c(F)c(F)c(F)c(F)c7F)c7ccc4[nH]7)C=C6)C=C5)cc3)cn2)C1
REMARK SMILES IDX 18 1 17 2 16 3 15 4 13 5 14 6 12 8 9 9 10 10 89 11 11 12
REMARK SMILES IDX 88 13 8 14 7 15 4 16 5 17 90 18 6 19 2 21 1 22 3 23 19 25
REMARK SMILES IDX 20 26 21 27 22 28 23 29 24 31 25 32 26 33 87 34 27 35 86 36
REMARK SMILES IDX 28 37 29 38 30 39 80 40 31 41 85 42 79 43 81 44 32 45 84 46
REMARK SMILES IDX 78 47 77 48 33 50 65 51 45 52 64 53 46 54 49 55 63 56 82 57
REMARK SMILES IDX 47 58 48 59 62 61 83 62 50 63 34 64 35 65 43 66 36 67 37 68
REMARK SMILES IDX 41 69 44 70 38 71 39 72 42 73 40 74 66 75 67 76 75 77 68 78
REMARK SMILES IDX 69 79 73 80 76 81 70 82 71 83 74 84 72 85 51 86 52 87 60 88
REMARK SMILES IDX 53 89 54 90 58 91 61 92 55 93 56 94 59 95 57 96
REMARK H PARENT 15 7 7 20 2 24 22 30 81 49 49 60
REMARK Flexibility Score: inf
ROOT
ATOM      1  C   UNL     1       7.018  -0.338  -3.538  1.00  0.00     0.002 C 
ENDROOT
BRANCH   1   2
ATOM      2  C   UNL     1       6.265  -1.068  -2.418  1.00  0.00     0.021 C 
BRANCH   2   3
ATOM      3  C   UNL     1       4.800  -1.352  -2.756  1.00  0.00     0.116 C 
BRANCH   3   4
ATOM      4  N   UNL     1       4.713  -2.433  -3.720  1.00  0.00    -0.352 N 
ATOM      5  C   UNL     1       4.362  -3.751  -3.582  1.00  0.00     0.252 C 
ATOM      6  O   UNL     1       4.354  -4.466  -4.581  1.00  0.00    -0.269 OA
ATOM      7  H   UNL     1       4.949  -2.173  -4.640  1.00  0.00     0.163 HD
BRANCH   5   8
ATOM      8  C   UNL     1       3.905  -4.311  -2.294  1.00  0.00     0.058 A 
ATOM      9  C   UNL     1       2.652  -5.257  -0.030  1.00  0.00     0.095 A 
ATOM     10  C   UNL     1       3.780  -4.451   0.107  1.00  0.00     0.030 A 
ATOM     11  N   UNL     1       2.219  -5.689  -1.242  1.00  0.00    -0.255 NA
ATOM     12  C   UNL     1       4.422  -3.986  -1.042  1.00  0.00     0.017 A 
ATOM     13  C   UNL     1       2.854  -5.214  -2.340  1.00  0.00     0.125 A 
BRANCH   9  14
ATOM     14  C   UNL     1       1.781  -5.583   1.169  1.00  0.00     0.319 C 
BRANCH  14  15
ATOM     15  N   UNL     1       0.655  -4.672   1.459  1.00  0.00    -0.325 N 
ATOM     16  C   UNL     1       0.933  -2.393   0.652  1.00  0.00     0.245 C 
ATOM     17  C   UNL     1       0.142  -3.204  -0.381  1.00  0.00     0.132 C 
ATOM     18  C   UNL     1       1.026  -3.320   1.889  1.00  0.00     0.328 C 
ATOM     19  C   UNL     1      -0.274  -4.481   0.340  1.00  0.00     0.269 C 
ATOM     20  H   UNL     1       0.213  -5.175   2.228  1.00  0.00     0.348 HD
BRANCH  16  21
ATOM     21  N   UNL     1       0.458  -1.034   0.981  1.00  0.00    -0.333 N 
ATOM     22  C   UNL     1       0.886  -0.057  -0.019  1.00  0.00     0.332 C 
ATOM     23  C   UNL     1      -0.989  -0.941   1.188  1.00  0.00     0.332 C 
ATOM     24  H   UNL     1       0.896  -0.814   1.876  1.00  0.00     0.348 HD
ENDBRANCH  16  21
ENDBRANCH  14  15
ENDBRANCH   9  14
ENDBRANCH   5   8
ENDBRANCH   3   4
ENDBRANCH   2   3
ENDBRANCH   1   2
BRANCH   1  25
ATOM     25  C   UNL     1       6.496   1.068  -3.858  1.00  0.00     0.002 C 
BRANCH  25  26
ATOM     26  C   UNL     1       6.432   2.022  -2.663  1.00  0.00     0.021 C 
BRANCH  26  27
ATOM     27  C   UNL     1       7.774   2.269  -1.981  1.00  0.00     0.116 C 
BRANCH  27  28
ATOM     28  N   UNL     1       8.710   2.954  -2.858  1.00  0.00    -0.352 N 
ATOM     29  C   UNL     1       9.402   4.120  -2.651  1.00  0.00     0.251 C 
ATOM     30  H   UNL     1       8.870   2.518  -3.726  1.00  0.00     0.163 HD
ATOM     31  O   UNL     1       9.984   4.668  -3.581  1.00  0.00    -0.269 OA
BRANCH  29  32
ATOM     32  C   UNL     1       9.435   4.727  -1.304  1.00  0.00     0.039 A 
ATOM     33  C   UNL     1       9.258   6.107  -1.179  1.00  0.00     0.014 A 
ATOM     34  C   UNL     1       9.658   3.941  -0.170  1.00  0.00     0.014 A 
ATOM     35  C   UNL     1       9.255   6.693   0.088  1.00  0.00     0.010 A 
ATOM     36  C   UNL     1       9.583   4.515   1.096  1.00  0.00     0.010 A 
ATOM     37  C   UNL     1       9.388   5.897   1.238  1.00  0.00    -0.014 A 
BRANCH  37  38
ATOM     38  C   UNL     1       9.334   6.494   2.596  1.00  0.00     0.031 A 
ATOM     39  C   UNL     1      10.542   6.444   3.490  1.00  0.00     0.074 A 
ATOM     40  C   UNL     1       8.181   7.025   3.045  1.00  0.00     0.049 A 
ATOM     41  N   UNL     1      10.673   6.849   4.729  1.00  0.00    -0.248 NA
ATOM     42  C   UNL     1      11.756   5.833   2.928  1.00  0.00     0.031 C 
ATOM     43  C   UNL     1       6.930   7.090   2.288  1.00  0.00     0.029 A 
ATOM     44  N   UNL     1       7.870   7.602   4.251  1.00  0.00    -0.354 N 
ATOM     45  C   UNL     1      11.974   6.530   5.095  1.00  0.00     0.074 A 
ATOM     46  C   UNL     1      12.575   5.848   3.969  1.00  0.00     0.031 C 
ATOM     47  C   UNL     1       5.993   7.692   3.038  1.00  0.00     0.029 A 
ATOM     48  C   UNL     1       6.565   8.021   4.340  1.00  0.00     0.049 A 
ATOM     49  H   UNL     1       8.521   7.705   4.983  1.00  0.00     0.167 HD
ATOM     50  C   UNL     1      12.616   6.802   6.256  1.00  0.00     0.037 A 
ATOM     51  C   UNL     1       5.904   8.600   5.361  1.00  0.00     0.037 A 
ATOM     52  C   UNL     1      12.021   7.503   7.364  1.00  0.00     0.049 A 
ATOM     53  C   UNL     1       6.639   8.886   6.642  1.00  0.00     0.074 A 
ATOM     54  C   UNL     1      12.605   7.881   8.560  1.00  0.00     0.029 A 
ATOM     55  N   UNL     1      10.701   7.929   7.410  1.00  0.00    -0.354 N 
ATOM     56  N   UNL     1       7.890   8.643   6.952  1.00  0.00    -0.248 NA
ATOM     57  C   UNL     1       5.872   9.536   7.714  1.00  0.00     0.031 C 
ATOM     58  C   UNL     1      11.626   8.492   9.350  1.00  0.00     0.029 A 
ATOM     59  C   UNL     1      10.447   8.546   8.625  1.00  0.00     0.049 A 
ATOM     60  H   UNL     1      10.043   7.811   6.688  1.00  0.00     0.167 HD
ATOM     61  C   UNL     1       8.068   9.134   8.238  1.00  0.00     0.074 A 
ATOM     62  C   UNL     1       6.800   9.704   8.646  1.00  0.00     0.031 C 
ATOM     63  C   UNL     1       9.181   9.116   9.012  1.00  0.00     0.037 A 
BRANCH  50  64
ATOM     64  C   UNL     1      14.040   6.343   6.387  1.00  0.00     0.064 A 
ATOM     65  C   UNL     1      15.075   6.928   5.639  1.00  0.00     0.173 A 
ATOM     66  C   UNL     1      14.382   5.331   7.297  1.00  0.00     0.173 A 
ATOM     67  F   UNL     1      14.801   7.891   4.747  1.00  0.00    -0.203 F 
ATOM     68  C   UNL     1      16.391   6.495   5.775  1.00  0.00     0.198 A 
ATOM     69  C   UNL     1      15.704   4.924   7.454  1.00  0.00     0.198 A 
ATOM     70  F   UNL     1      13.434   4.742   8.041  1.00  0.00    -0.203 F 
ATOM     71  F   UNL     1      17.353   7.033   5.013  1.00  0.00    -0.200 F 
ATOM     72  C   UNL     1      16.706   5.500   6.687  1.00  0.00     0.200 A 
ATOM     73  F   UNL     1      16.009   3.971   8.346  1.00  0.00    -0.200 F 
ATOM     74  F   UNL     1      17.975   5.090   6.822  1.00  0.00    -0.200 F 
ENDBRANCH  50  64
BRANCH  51  75
ATOM     75  C   UNL     1       4.473   8.970   5.204  1.00  0.00     0.064 A 
ATOM     76  C   UNL     1       4.080  10.315   5.149  1.00  0.00     0.173 A 
ATOM     77  C   UNL     1       3.471   7.994   5.110  1.00  0.00     0.173 A 
ATOM     78  F   UNL     1       5.000  11.286   5.255  1.00  0.00    -0.203 F 
ATOM     79  C   UNL     1       2.738  10.669   5.029  1.00  0.00     0.198 A 
ATOM     80  C   UNL     1       2.132   8.349   4.960  1.00  0.00     0.198 A 
ATOM     81  F   UNL     1       3.795   6.693   5.150  1.00  0.00    -0.203 F 
ATOM     82  F   UNL     1       2.386  11.962   5.028  1.00  0.00    -0.200 F 
ATOM     83  C   UNL     1       1.766   9.686   4.929  1.00  0.00     0.200 A 
ATOM     84  F   UNL     1       1.197   7.395   4.846  1.00  0.00    -0.200 F 
ATOM     85  F   UNL     1       0.475  10.026   4.809  1.00  0.00    -0.200 F 
ENDBRANCH  51  75
BRANCH  63  86
ATOM     86  C   UNL     1       9.091   9.764  10.363  1.00  0.00     0.064 A 
ATOM     87  C   UNL     1       8.360   9.186  11.411  1.00  0.00     0.173 A 
ATOM     88  C   UNL     1       9.780  10.959  10.623  1.00  0.00     0.173 A 
ATOM     89  F   UNL     1       7.672   8.052  11.209  1.00  0.00    -0.203 F 
ATOM     90  C   UNL     1       8.301   9.794  12.662  1.00  0.00     0.198 A 
ATOM     91  C   UNL     1       9.744  11.547  11.883  1.00  0.00     0.198 A 
ATOM     92  F   UNL     1      10.500  11.549   9.656  1.00  0.00    -0.203 F 
ATOM     93  F   UNL     1       7.556   9.250  13.635  1.00  0.00    -0.200 F 
ATOM     94  C   UNL     1       8.999  10.969  12.900  1.00  0.00     0.200 A 
ATOM     95  F   UNL     1      10.432  12.674  12.115  1.00  0.00    -0.200 F 
ATOM     96  F   UNL     1       8.947  11.549  14.107  1.00  0.00    -0.200 F 
ENDBRANCH  63  86
ENDBRANCH  37  38
ENDBRANCH  29  32
ENDBRANCH  27  28
ENDBRANCH  26  27
ENDBRANCH  25  26
ENDBRANCH   1  25
TORSDOF 16
