REMARK SMILES Cc1c(CC(=O)NCCCCCCNC(=O)c2ccc(-c3c4nc(c(-c5c(F)c(F)c(F)c(F)c5F)c5ccc([nH]5)c(-c5c(F)c(F)c(F)c(F)c5F)c5nc(c(-c6c(F)c(F)c(F)c(F)c6F)c6ccc3[nH]6)C=C5)C=C4)cc2)cc(-c2ccccc2)cc1-c1ccccc1
REMARK SMILES IDX 10 1 9 2 8 3 7 4 5 5 6 6 4 8 3 9 1 10 2 11 89 12 80 13 88 14
REMARK SMILES IDX 81 15 90 16 91 17 95 18 92 19 94 20 93 21 82 22 83 23 87 24
REMARK SMILES IDX 84 25 86 26 85 27 11 28 12 29 13 30 14 31 15 32 16 34 17 35
REMARK SMILES IDX 18 36 79 37 19 38 78 39 20 40 21 41 22 42 72 43 23 44 77 45
REMARK SMILES IDX 71 46 73 47 24 48 76 49 70 50 69 51 25 53 57 54 37 55 56 56
REMARK SMILES IDX 38 57 41 58 55 59 74 60 39 61 40 62 54 64 75 65 42 66 26 67
REMARK SMILES IDX 27 68 35 69 28 70 29 71 33 72 36 73 30 74 31 75 34 76 32 77
REMARK SMILES IDX 58 78 59 79 67 80 60 81 61 82 65 83 68 84 62 85 63 86 66 87
REMARK SMILES IDX 64 88 43 89 44 90 52 91 45 92 46 93 50 94 53 95 47 96 48 97
REMARK SMILES IDX 51 98 49 99
REMARK H PARENT 7 7 14 33 73 52 41 63
REMARK Flexibility Score: inf
ROOT
ATOM      1  C   UNL     1       0.385  -1.448   5.088  1.00  0.00     0.002 C 
ENDROOT
BRANCH   1   2
ATOM      2  C   UNL     1       0.640  -0.975   3.651  1.00  0.00     0.021 C 
BRANCH   2   3
ATOM      3  C   UNL     1       1.531  -1.897   2.817  1.00  0.00     0.116 C 
BRANCH   3   4
ATOM      4  N   UNL     1       0.828  -3.065   2.334  1.00  0.00    -0.356 N 
ATOM      5  C   UNL     1       0.547  -3.425   1.046  1.00  0.00     0.224 C 
ATOM      6  O   UNL     1      -0.044  -4.490   0.856  1.00  0.00    -0.275 OA
ATOM      7  H   UNL     1       0.508  -3.685   3.028  1.00  0.00     0.163 HD
BRANCH   5   8
ATOM      8  C   UNL     1       0.995  -2.550  -0.120  1.00  0.00     0.135 C 
BRANCH   8   9
ATOM      9  C   UNL     1       0.323  -1.188  -0.168  1.00  0.00    -0.035 A 
ATOM     10  C   UNL     1       2.541   0.045  -0.394  1.00  0.00     0.045 C 
ATOM     11  C   UNL     1       1.034   0.038  -0.244  1.00  0.00    -0.040 A 
ATOM     12  C   UNL     1       0.309   1.260  -0.232  1.00  0.00    -0.015 A 
ATOM     13  C   UNL     1      -1.086  -1.173  -0.144  1.00  0.00     0.013 A 
ATOM     14  C   UNL     1      -1.101   1.220  -0.184  1.00  0.00     0.017 A 
ATOM     15  C   UNL     1      -1.817   0.018  -0.154  1.00  0.00    -0.017 A 
BRANCH  12  16
ATOM     16  C   UNL     1       0.959   2.587  -0.233  1.00  0.00    -0.018 A 
ATOM     17  C   UNL     1       0.824   3.444   0.874  1.00  0.00     0.009 A 
ATOM     18  C   UNL     1       1.720   3.033  -1.325  1.00  0.00     0.009 A 
ATOM     19  C   UNL     1       1.443   4.696   0.896  1.00  0.00     0.001 A 
ATOM     20  C   UNL     1       2.351   4.279  -1.298  1.00  0.00     0.001 A 
ATOM     21  C   UNL     1       2.212   5.109  -0.188  1.00  0.00     0.000 A 
ENDBRANCH  12  16
BRANCH  15  22
ATOM     22  C   UNL     1      -3.287  -0.002  -0.151  1.00  0.00    -0.018 A 
ATOM     23  C   UNL     1      -4.003  -0.682   0.848  1.00  0.00     0.009 A 
ATOM     24  C   UNL     1      -4.016   0.635  -1.169  1.00  0.00     0.009 A 
ATOM     25  C   UNL     1      -5.399  -0.728   0.827  1.00  0.00     0.001 A 
ATOM     26  C   UNL     1      -5.412   0.588  -1.193  1.00  0.00     0.001 A 
ATOM     27  C   UNL     1      -6.103  -0.095  -0.195  1.00  0.00     0.000 A 
ENDBRANCH  15  22
ENDBRANCH   8   9
ENDBRANCH   5   8
ENDBRANCH   3   4
ENDBRANCH   2   3
ENDBRANCH   1   2
BRANCH   1  28
ATOM     28  C   UNL     1       1.623  -1.829   5.918  1.00  0.00     0.002 C 
BRANCH  28  29
ATOM     29  C   UNL     1       2.804  -0.853   5.869  1.00  0.00     0.021 C 
BRANCH  29  30
ATOM     30  C   UNL     1       2.543   0.477   6.564  1.00  0.00     0.116 C 
BRANCH  30  31
ATOM     31  N   UNL     1       3.210   0.610   7.853  1.00  0.00    -0.352 N 
ATOM     32  C   UNL     1       3.094   1.611   8.800  1.00  0.00     0.251 C 
ATOM     33  H   UNL     1       3.832  -0.118   8.083  1.00  0.00     0.163 HD
ATOM     34  O   UNL     1       3.767   1.585   9.818  1.00  0.00    -0.269 OA
BRANCH  32  35
ATOM     35  C   UNL     1       2.048   2.647   8.627  1.00  0.00     0.039 A 
ATOM     36  C   UNL     1       1.191   2.895   9.706  1.00  0.00     0.014 A 
ATOM     37  C   UNL     1       1.792   3.211   7.379  1.00  0.00     0.014 A 
ATOM     38  C   UNL     1      -0.041   3.500   9.472  1.00  0.00     0.010 A 
ATOM     39  C   UNL     1       0.538   3.732   7.127  1.00  0.00     0.010 A 
ATOM     40  C   UNL     1      -0.400   3.811   8.160  1.00  0.00    -0.014 A 
BRANCH  40  41
ATOM     41  C   UNL     1      -1.774   4.100   7.770  1.00  0.00     0.031 A 
ATOM     42  C   UNL     1      -2.218   5.488   7.544  1.00  0.00     0.074 A 
ATOM     43  C   UNL     1      -2.631   3.073   7.579  1.00  0.00     0.049 A 
ATOM     44  N   UNL     1      -3.429   5.900   7.718  1.00  0.00    -0.248 NA
ATOM     45  C   UNL     1      -1.301   6.542   7.132  1.00  0.00     0.031 C 
ATOM     46  C   UNL     1      -3.965   3.127   6.990  1.00  0.00     0.029 A 
ATOM     47  N   UNL     1      -2.522   1.765   8.084  1.00  0.00    -0.354 N 
ATOM     48  C   UNL     1      -3.514   7.177   7.210  1.00  0.00     0.074 A 
ATOM     49  C   UNL     1      -2.149   7.552   6.912  1.00  0.00     0.031 C 
ATOM     50  C   UNL     1      -4.662   2.057   7.405  1.00  0.00     0.029 A 
ATOM     51  C   UNL     1      -3.842   1.363   8.383  1.00  0.00     0.049 A 
ATOM     52  H   UNL     1      -1.698   1.240   8.205  1.00  0.00     0.167 HD
ATOM     53  C   UNL     1      -4.742   7.726   6.970  1.00  0.00     0.037 A 
ATOM     54  C   UNL     1      -4.228   1.070   9.658  1.00  0.00     0.037 A 
ATOM     55  C   UNL     1      -5.814   6.814   7.356  1.00  0.00     0.049 A 
ATOM     56  C   UNL     1      -5.366   1.921  10.163  1.00  0.00     0.074 A 
ATOM     57  C   UNL     1      -6.557   5.901   6.625  1.00  0.00     0.029 A 
ATOM     58  N   UNL     1      -6.033   6.517   8.697  1.00  0.00    -0.354 N 
ATOM     59  N   UNL     1      -5.683   3.080   9.659  1.00  0.00    -0.248 NA
ATOM     60  C   UNL     1      -6.200   1.556  11.305  1.00  0.00     0.031 C 
ATOM     61  C   UNL     1      -7.185   5.017   7.531  1.00  0.00     0.029 A 
ATOM     62  C   UNL     1      -6.842   5.403   8.815  1.00  0.00     0.049 A 
ATOM     63  H   UNL     1      -5.664   7.028   9.454  1.00  0.00     0.167 HD
ATOM     64  C   UNL     1      -6.704   3.626  10.390  1.00  0.00     0.074 A 
ATOM     65  C   UNL     1      -7.007   2.627  11.397  1.00  0.00     0.031 C 
ATOM     66  C   UNL     1      -7.207   4.864  10.114  1.00  0.00     0.037 A 
BRANCH  53  67
ATOM     67  C   UNL     1      -4.955   8.937   6.086  1.00  0.00     0.064 A 
ATOM     68  C   UNL     1      -6.112   9.057   5.283  1.00  0.00     0.173 A 
ATOM     69  C   UNL     1      -4.028   9.983   5.937  1.00  0.00     0.173 A 
ATOM     70  F   UNL     1      -7.145   8.215   5.409  1.00  0.00    -0.203 F 
ATOM     71  C   UNL     1      -6.252  10.050   4.310  1.00  0.00     0.198 A 
ATOM     72  C   UNL     1      -4.139  10.945   4.926  1.00  0.00     0.198 A 
ATOM     73  F   UNL     1      -3.011  10.134   6.796  1.00  0.00    -0.203 F 
ATOM     74  F   UNL     1      -7.365  10.099   3.565  1.00  0.00    -0.200 F 
ATOM     75  C   UNL     1      -5.244  10.967   4.100  1.00  0.00     0.200 A 
ATOM     76  F   UNL     1      -3.163  11.849   4.758  1.00  0.00    -0.200 F 
ATOM     77  F   UNL     1      -5.350  11.883   3.128  1.00  0.00    -0.200 F 
ENDBRANCH  53  67
BRANCH  54  78
ATOM     78  C   UNL     1      -3.124   0.556  10.512  1.00  0.00     0.064 A 
ATOM     79  C   UNL     1      -2.509  -0.659  10.158  1.00  0.00     0.173 A 
ATOM     80  C   UNL     1      -2.453   1.382  11.420  1.00  0.00     0.173 A 
ATOM     81  F   UNL     1      -3.111  -1.487   9.289  1.00  0.00    -0.203 F 
ATOM     82  C   UNL     1      -1.229  -0.980  10.604  1.00  0.00     0.198 A 
ATOM     83  C   UNL     1      -1.176   1.050  11.877  1.00  0.00     0.198 A 
ATOM     84  F   UNL     1      -2.979   2.560  11.785  1.00  0.00    -0.203 F 
ATOM     85  F   UNL     1      -0.627  -2.094  10.164  1.00  0.00    -0.200 F 
ATOM     86  C   UNL     1      -0.553  -0.112  11.444  1.00  0.00     0.200 A 
ATOM     87  F   UNL     1      -0.511   1.902  12.670  1.00  0.00    -0.200 F 
ATOM     88  F   UNL     1       0.710  -0.375  11.806  1.00  0.00    -0.200 F 
ENDBRANCH  54  78
BRANCH  66  89
ATOM     89  C   UNL     1      -8.168   5.627  10.985  1.00  0.00     0.064 A 
ATOM     90  C   UNL     1      -8.182   5.539  12.387  1.00  0.00     0.173 A 
ATOM     91  C   UNL     1      -9.029   6.597  10.421  1.00  0.00     0.173 A 
ATOM     92  F   UNL     1      -7.328   4.741  13.041  1.00  0.00    -0.203 F 
ATOM     93  C   UNL     1      -9.044   6.316  13.165  1.00  0.00     0.198 A 
ATOM     94  C   UNL     1      -9.849   7.408  11.204  1.00  0.00     0.198 A 
ATOM     95  F   UNL     1      -9.082   6.799   9.097  1.00  0.00    -0.203 F 
ATOM     96  F   UNL     1      -9.052   6.165  14.497  1.00  0.00    -0.200 F 
ATOM     97  C   UNL     1      -9.870   7.255  12.575  1.00  0.00     0.200 A 
ATOM     98  F   UNL     1     -10.606   8.350  10.623  1.00  0.00    -0.200 F 
ATOM     99  F   UNL     1     -10.665   8.026  13.328  1.00  0.00    -0.200 F 
ENDBRANCH  66  89
ENDBRANCH  40  41
ENDBRANCH  32  35
ENDBRANCH  30  31
ENDBRANCH  29  30
ENDBRANCH  28  29
ENDBRANCH   1  28
TORSDOF 16
