REMARK SMILES COc1ncccc1COc1cc(C)sc1C(=O)NCCCCCCNC(=O)c1ccc(-c2c3nc(c(-c4c(F)c(F)c(F)c(F)c4F)c4ccc([nH]4)c(-c4c(F)c(F)c(F)c(F)c4F)c4nc(c(-c5c(F)c(F)c(F)c(F)c5F)c5ccc2[nH]5)C=C4)C=C3)cc1
REMARK SMILES IDX 21 1 20 2 19 3 17 4 18 5 16 7 11 8 12 9 13 10 15 11 14 12
REMARK SMILES IDX 10 13 9 14 8 15 3 16 4 17 5 18 7 19 6 20 2 21 1 22 22 23
REMARK SMILES IDX 23 24 24 25 25 26 26 27 27 28 28 30 29 31 30 32 91 33 31 34
REMARK SMILES IDX 90 35 32 36 33 37 34 38 84 39 35 40 89 41 83 42 85 43 36 44
REMARK SMILES IDX 88 45 82 46 81 47 37 49 69 50 49 51 68 52 50 53 53 54 67 55
REMARK SMILES IDX 86 56 51 57 52 58 66 60 87 61 54 62 38 63 39 64 47 65 40 66
REMARK SMILES IDX 41 67 45 68 48 69 42 70 43 71 46 72 44 73 70 74 71 75 79 76
REMARK SMILES IDX 72 77 73 78 77 79 80 80 74 81 75 82 78 83 76 84 55 85 56 86
REMARK SMILES IDX 64 87 57 88 58 89 62 90 65 91 59 92 60 93 63 94 61 95
REMARK H PARENT 19 6 26 29 85 48 53 59
REMARK Flexibility Score: inf
ROOT
ATOM      1  C   UNL     1       4.989   1.389  -0.350  1.00  0.00     0.021 C 
ENDROOT
BRANCH   1   2
ATOM      2  C   UNL     1       3.855   1.432  -1.379  1.00  0.00     0.116 C 
BRANCH   2   3
ATOM      3  N   UNL     1       4.270   0.815  -2.616  1.00  0.00    -0.351 N 
ATOM      4  C   UNL     1       4.107  -0.435  -3.154  1.00  0.00     0.265 C 
ATOM      5  O   UNL     1       4.621  -0.534  -4.277  1.00  0.00    -0.268 OA
ATOM      6  H   UNL     1       4.780   1.423  -3.199  1.00  0.00     0.163 HD
BRANCH   4   7
ATOM      7  C   UNL     1       3.390  -1.543  -2.519  1.00  0.00     0.134 A 
ATOM      8  C   UNL     1       2.979  -1.881  -1.233  1.00  0.00     0.143 A 
ATOM      9  C   UNL     1       2.249  -3.113  -1.207  1.00  0.00     0.062 A 
ATOM     10  C   UNL     1       2.171  -3.732  -2.430  1.00  0.00     0.006 A 
ATOM     11  S   UNL     1       2.958  -2.825  -3.622  1.00  0.00    -0.132 S 
ATOM     12  C   UNL     1       1.497  -5.014  -2.775  1.00  0.00     0.056 C 
BRANCH   8  13
ATOM     13  O   UNL     1       3.172  -1.057  -0.171  1.00  0.00    -0.487 OA
BRANCH  13  14
ATOM     14  C   UNL     1       3.441  -1.666   1.101  1.00  0.00     0.271 C 
BRANCH  14  15
ATOM     15  C   UNL     1       2.256  -2.274   1.802  1.00  0.00     0.052 A 
ATOM     16  C   UNL     1       1.050  -1.595   1.947  1.00  0.00     0.219 A 
ATOM     17  N   UNL     1      -0.071  -2.138   2.470  1.00  0.00    -0.222 NA
ATOM     18  C   UNL     1       0.016  -3.422   2.884  1.00  0.00     0.115 A 
ATOM     19  C   UNL     1       2.315  -3.587   2.287  1.00  0.00     0.014 A 
ATOM     20  C   UNL     1       1.177  -4.175   2.827  1.00  0.00     0.021 A 
BRANCH  16  21
ATOM     21  O   UNL     1       1.007  -0.262   1.619  1.00  0.00    -0.481 OA
ATOM     22  C   UNL     1       0.143  -0.055   0.506  1.00  0.00     0.280 C 
ENDBRANCH  16  21
ENDBRANCH  14  15
ENDBRANCH  13  14
ENDBRANCH   8  13
ENDBRANCH   4   7
ENDBRANCH   2   3
ENDBRANCH   1   2
BRANCH   1  23
ATOM     23  C   UNL     1       5.836   2.668  -0.331  1.00  0.00     0.002 C 
BRANCH  23  24
ATOM     24  C   UNL     1       5.088   3.918   0.151  1.00  0.00     0.002 C 
BRANCH  24  25
ATOM     25  C   UNL     1       4.492   3.819   1.559  1.00  0.00     0.021 C 
BRANCH  25  26
ATOM     26  C   UNL     1       5.512   3.579   2.668  1.00  0.00     0.116 C 
BRANCH  26  27
ATOM     27  N   UNL     1       6.482   4.661   2.752  1.00  0.00    -0.352 N 
ATOM     28  C   UNL     1       6.792   5.480   3.802  1.00  0.00     0.251 C 
ATOM     29  H   UNL     1       6.994   4.828   1.927  1.00  0.00     0.163 HD
ATOM     30  O   UNL     1       7.473   6.492   3.610  1.00  0.00    -0.269 OA
BRANCH  28  31
ATOM     31  C   UNL     1       6.323   5.170   5.167  1.00  0.00     0.039 A 
ATOM     32  C   UNL     1       5.888   6.216   5.986  1.00  0.00     0.014 A 
ATOM     33  C   UNL     1       6.365   3.863   5.663  1.00  0.00     0.014 A 
ATOM     34  C   UNL     1       5.464   5.948   7.289  1.00  0.00     0.010 A 
ATOM     35  C   UNL     1       5.878   3.587   6.938  1.00  0.00     0.010 A 
ATOM     36  C   UNL     1       5.439   4.628   7.769  1.00  0.00    -0.014 A 
BRANCH  36  37
ATOM     37  C   UNL     1       4.984   4.328   9.149  1.00  0.00     0.031 A 
ATOM     38  C   UNL     1       5.953   3.785  10.162  1.00  0.00     0.074 A 
ATOM     39  C   UNL     1       3.689   4.502   9.475  1.00  0.00     0.049 A 
ATOM     40  N   UNL     1       5.740   3.426  11.403  1.00  0.00    -0.248 NA
ATOM     41  C   UNL     1       7.341   3.594   9.713  1.00  0.00     0.031 C 
ATOM     42  C   UNL     1       2.646   4.975   8.565  1.00  0.00     0.029 A 
ATOM     43  N   UNL     1       3.030   4.294  10.660  1.00  0.00    -0.354 N 
ATOM     44  C   UNL     1       6.959   2.956  11.875  1.00  0.00     0.074 A 
ATOM     45  C   UNL     1       7.894   3.023  10.773  1.00  0.00     0.031 C 
ATOM     46  C   UNL     1       1.482   5.045   9.231  1.00  0.00     0.029 A 
ATOM     47  C   UNL     1       1.691   4.594  10.604  1.00  0.00     0.049 A 
ATOM     48  H   UNL     1       3.474   3.962  11.473  1.00  0.00     0.167 HD
ATOM     49  C   UNL     1       7.276   2.530  13.121  1.00  0.00     0.037 A 
ATOM     50  C   UNL     1       0.742   4.515  11.555  1.00  0.00     0.037 A 
ATOM     51  C   UNL     1       6.349   2.492  14.222  1.00  0.00     0.049 A 
ATOM     52  C   UNL     1       1.123   4.053  12.934  1.00  0.00     0.074 A 
ATOM     53  C   UNL     1       6.584   2.131  15.538  1.00  0.00     0.029 A 
ATOM     54  N   UNL     1       5.006   2.829  14.134  1.00  0.00    -0.354 N 
ATOM     55  N   UNL     1       2.293   3.675  13.387  1.00  0.00    -0.248 NA
ATOM     56  C   UNL     1       0.051   4.018  13.939  1.00  0.00     0.031 C 
ATOM     57  C   UNL     1       5.375   2.213  16.236  1.00  0.00     0.029 A 
ATOM     58  C   UNL     1       4.396   2.670  15.368  1.00  0.00     0.049 A 
ATOM     59  H   UNL     1       4.554   3.137  13.315  1.00  0.00     0.167 HD
ATOM     60  C   UNL     1       2.107   3.386  14.732  1.00  0.00     0.074 A 
ATOM     61  C   UNL     1       0.713   3.647  15.025  1.00  0.00     0.031 C 
ATOM     62  C   UNL     1       3.009   2.943  15.643  1.00  0.00     0.037 A 
BRANCH  49  63
ATOM     63  C   UNL     1       8.687   2.076  13.361  1.00  0.00     0.064 A 
ATOM     64  C   UNL     1       9.759   2.981  13.372  1.00  0.00     0.173 A 
ATOM     65  C   UNL     1       8.969   0.724  13.612  1.00  0.00     0.173 A 
ATOM     66  F   UNL     1       9.546   4.283  13.125  1.00  0.00    -0.203 F 
ATOM     67  C   UNL     1      11.063   2.547  13.594  1.00  0.00     0.198 A 
ATOM     68  C   UNL     1      10.270   0.298  13.865  1.00  0.00     0.198 A 
ATOM     69  F   UNL     1       7.981  -0.183  13.619  1.00  0.00    -0.203 F 
ATOM     70  F   UNL     1      12.076   3.423  13.548  1.00  0.00    -0.200 F 
ATOM     71  C   UNL     1      11.317   1.208  13.847  1.00  0.00     0.200 A 
ATOM     72  F   UNL     1      10.513  -0.995  14.121  1.00  0.00    -0.200 F 
ATOM     73  F   UNL     1      12.572   0.792  14.066  1.00  0.00    -0.200 F 
ENDBRANCH  49  63
BRANCH  50  74
ATOM     74  C   UNL     1      -0.653   4.920  11.244  1.00  0.00     0.064 A 
ATOM     75  C   UNL     1      -1.200   6.090  11.791  1.00  0.00     0.173 A 
ATOM     76  C   UNL     1      -1.466   4.153  10.398  1.00  0.00     0.173 A 
ATOM     77  F   UNL     1      -0.467   6.846  12.621  1.00  0.00    -0.203 F 
ATOM     78  C   UNL     1      -2.514   6.465  11.521  1.00  0.00     0.198 A 
ATOM     79  C   UNL     1      -2.772   4.543  10.107  1.00  0.00     0.198 A 
ATOM     80  F   UNL     1      -0.988   3.028   9.846  1.00  0.00    -0.203 F 
ATOM     81  F   UNL     1      -3.026   7.563  12.093  1.00  0.00    -0.200 F 
ATOM     82  C   UNL     1      -3.297   5.694  10.675  1.00  0.00     0.200 A 
ATOM     83  F   UNL     1      -3.522   3.803   9.279  1.00  0.00    -0.200 F 
ATOM     84  F   UNL     1      -4.560   6.057  10.413  1.00  0.00    -0.200 F 
ENDBRANCH  50  74
BRANCH  62  85
ATOM     85  C   UNL     1       2.523   2.749  17.049  1.00  0.00     0.064 A 
ATOM     86  C   UNL     1       1.671   1.690  17.394  1.00  0.00     0.173 A 
ATOM     87  C   UNL     1       2.941   3.617  18.069  1.00  0.00     0.173 A 
ATOM     88  F   UNL     1       1.232   0.842  16.451  1.00  0.00    -0.203 F 
ATOM     89  C   UNL     1       1.232   1.524  18.705  1.00  0.00     0.198 A 
ATOM     90  C   UNL     1       2.523   3.430  19.384  1.00  0.00     0.198 A 
ATOM     91  F   UNL     1       3.761   4.641  17.793  1.00  0.00    -0.203 F 
ATOM     92  F   UNL     1       0.378   0.535  19.002  1.00  0.00    -0.200 F 
ATOM     93  C   UNL     1       1.663   2.389  19.699  1.00  0.00     0.200 A 
ATOM     94  F   UNL     1       2.951   4.260  20.346  1.00  0.00    -0.200 F 
ATOM     95  F   UNL     1       1.242   2.225  20.961  1.00  0.00    -0.200 F 
ENDBRANCH  62  85
ENDBRANCH  36  37
ENDBRANCH  28  31
ENDBRANCH  26  27
ENDBRANCH  25  26
ENDBRANCH  24  25
ENDBRANCH  23  24
ENDBRANCH   1  23
TORSDOF 17
