REMARK SMILES O=C(NCCCCCCNC(=O)c1ccccc1/C=C1\SC(=S)N(Cc2ccccc2)C1=O)c1ccc(-c2c3nc(c(-c4c(F)c(F)c(F)c(F)c4F)c4ccc([nH]4)c(-c4c(F)c(F)c(F)c(F)c4F)c4nc(c(-c5c(F)c(F)c(F)c(F)c5F)c5ccc2[nH]5)C=C4)C=C3)cc1
REMARK SMILES IDX 7 1 6 2 5 3 4 4 3 5 1 6 2 7 34 9 35 10 96 11 36 12 95 13
REMARK SMILES IDX 37 14 38 15 39 16 89 17 40 18 94 19 88 20 90 21 41 22 93 23
REMARK SMILES IDX 87 24 86 25 42 27 74 28 54 29 73 30 55 31 58 32 72 33 91 34
REMARK SMILES IDX 56 35 57 36 71 38 92 39 59 40 43 41 44 42 52 43 45 44 46 45
REMARK SMILES IDX 50 46 53 47 47 48 48 49 51 50 49 51 75 52 76 53 84 54 77 55
REMARK SMILES IDX 78 56 82 57 85 58 79 59 80 60 83 61 81 62 60 63 61 64 69 65
REMARK SMILES IDX 62 66 63 67 67 68 70 69 64 70 65 71 68 72 66 73 8 74 9 75
REMARK SMILES IDX 10 76 11 77 12 79 13 80 14 81 18 82 15 83 17 84 16 85 19 86
REMARK SMILES IDX 20 87 21 88 32 89 22 90 24 91 33 92 23 93 25 94 26 95 27 96
REMARK SMILES IDX 31 97 28 98 30 99 29 100
REMARK H PARENT 3 8 90 26 58 37 10 78
REMARK Flexibility Score: inf
ROOT
ATOM      1  C   UNL     1       4.682   0.952  -4.186  1.00  0.00     0.002 C 
ENDROOT
BRANCH   1   2
ATOM      2  C   UNL     1       4.258  -0.477  -3.829  1.00  0.00     0.002 C 
BRANCH   2   3
ATOM      3  C   UNL     1       4.742  -1.007  -2.480  1.00  0.00     0.021 C 
BRANCH   3   4
ATOM      4  C   UNL     1       4.445  -0.121  -1.278  1.00  0.00     0.116 C 
BRANCH   4   5
ATOM      5  N   UNL     1       3.025   0.071  -1.037  1.00  0.00    -0.352 N 
ATOM      6  O   UNL     1       1.104   0.085   0.150  1.00  0.00    -0.269 OA
ATOM      7  C   UNL     1       2.328  -0.005   0.145  1.00  0.00     0.251 C 
ATOM      8  H   UNL     1       2.486   0.286  -1.833  1.00  0.00     0.163 HD
BRANCH   7   9
ATOM      9  C   UNL     1       3.053  -0.228   1.417  1.00  0.00     0.039 A 
ATOM     10  C   UNL     1       4.216   0.484   1.716  1.00  0.00     0.014 A 
ATOM     11  C   UNL     1       2.552  -1.164   2.328  1.00  0.00     0.014 A 
ATOM     12  C   UNL     1       4.950   0.165   2.853  1.00  0.00     0.010 A 
ATOM     13  C   UNL     1       3.247  -1.426   3.512  1.00  0.00     0.010 A 
ATOM     14  C   UNL     1       4.468  -0.784   3.771  1.00  0.00    -0.014 A 
BRANCH  14  15
ATOM     15  C   UNL     1       5.229  -1.039   5.020  1.00  0.00     0.031 A 
ATOM     16  C   UNL     1       5.869  -2.372   5.286  1.00  0.00     0.074 A 
ATOM     17  C   UNL     1       5.367  -0.034   5.906  1.00  0.00     0.049 A 
ATOM     18  N   UNL     1       6.587  -2.752   6.314  1.00  0.00    -0.248 NA
ATOM     19  C   UNL     1       5.677  -3.419   4.271  1.00  0.00     0.031 C 
ATOM     20  C   UNL     1       4.779   1.300   5.761  1.00  0.00     0.029 A 
ATOM     21  N   UNL     1       6.054   0.034   7.091  1.00  0.00    -0.354 N 
ATOM     22  C   UNL     1       6.925  -4.078   6.076  1.00  0.00     0.074 A 
ATOM     23  C   UNL     1       6.307  -4.449   4.821  1.00  0.00     0.031 C 
ATOM     24  C   UNL     1       5.163   2.065   6.793  1.00  0.00     0.029 A 
ATOM     25  C   UNL     1       5.974   1.262   7.700  1.00  0.00     0.049 A 
ATOM     26  H   UNL     1       6.555  -0.725   7.469  1.00  0.00     0.167 HD
ATOM     27  C   UNL     1       7.691  -4.903   6.831  1.00  0.00     0.037 A 
ATOM     28  C   UNL     1       6.485   1.691   8.869  1.00  0.00     0.037 A 
ATOM     29  C   UNL     1       8.307  -4.526   8.079  1.00  0.00     0.049 A 
ATOM     30  C   UNL     1       7.305   0.745   9.697  1.00  0.00     0.074 A 
ATOM     31  C   UNL     1       9.110  -5.287   8.911  1.00  0.00     0.029 A 
ATOM     32  N   UNL     1       8.184  -3.279   8.676  1.00  0.00    -0.354 N 
ATOM     33  N   UNL     1       7.640  -0.497   9.445  1.00  0.00    -0.248 NA
ATOM     34  C   UNL     1       7.818   1.260  10.973  1.00  0.00     0.031 C 
ATOM     35  C   UNL     1       9.442  -4.514  10.030  1.00  0.00     0.029 A 
ATOM     36  C   UNL     1       8.884  -3.256   9.873  1.00  0.00     0.049 A 
ATOM     37  H   UNL     1       7.676  -2.522   8.304  1.00  0.00     0.167 HD
ATOM     38  C   UNL     1       8.414  -0.907  10.520  1.00  0.00     0.074 A 
ATOM     39  C   UNL     1       8.520   0.227  11.415  1.00  0.00     0.031 C 
ATOM     40  C   UNL     1       8.981  -2.117  10.749  1.00  0.00     0.037 A 
BRANCH  27  41
ATOM     41  C   UNL     1       7.906  -6.304   6.335  1.00  0.00     0.064 A 
ATOM     42  C   UNL     1       8.732  -6.573   5.233  1.00  0.00     0.173 A 
ATOM     43  C   UNL     1       7.327  -7.395   7.001  1.00  0.00     0.173 A 
ATOM     44  F   UNL     1       9.303  -5.566   4.555  1.00  0.00    -0.203 F 
ATOM     45  C   UNL     1       8.954  -7.880   4.806  1.00  0.00     0.198 A 
ATOM     46  C   UNL     1       7.572  -8.702   6.587  1.00  0.00     0.198 A 
ATOM     47  F   UNL     1       6.535  -7.194   8.065  1.00  0.00    -0.203 F 
ATOM     48  F   UNL     1       9.717  -8.111   3.728  1.00  0.00    -0.200 F 
ATOM     49  C   UNL     1       8.380  -8.943   5.487  1.00  0.00     0.200 A 
ATOM     50  F   UNL     1       7.027  -9.728   7.255  1.00  0.00    -0.200 F 
ATOM     51  F   UNL     1       8.603 -10.201   5.080  1.00  0.00    -0.200 F 
ENDBRANCH  27  41
BRANCH  28  52
ATOM     52  C   UNL     1       6.227   3.083   9.320  1.00  0.00     0.064 A 
ATOM     53  C   UNL     1       7.262   4.025   9.384  1.00  0.00     0.173 A 
ATOM     54  C   UNL     1       4.940   3.498   9.694  1.00  0.00     0.173 A 
ATOM     55  F   UNL     1       8.513   3.671   9.055  1.00  0.00    -0.203 F 
ATOM     56  C   UNL     1       7.022   5.326   9.823  1.00  0.00     0.198 A 
ATOM     57  C   UNL     1       4.696   4.806  10.102  1.00  0.00     0.198 A 
ATOM     58  F   UNL     1       3.915   2.634   9.645  1.00  0.00    -0.203 F 
ATOM     59  F   UNL     1       8.037   6.196   9.918  1.00  0.00    -0.200 F 
ATOM     60  C   UNL     1       5.739   5.717  10.175  1.00  0.00     0.200 A 
ATOM     61  F   UNL     1       3.452   5.184  10.424  1.00  0.00    -0.200 F 
ATOM     62  F   UNL     1       5.508   6.970  10.590  1.00  0.00    -0.200 F 
ENDBRANCH  28  52
BRANCH  40  63
ATOM     63  C   UNL     1       9.789  -2.261  12.006  1.00  0.00     0.064 A 
ATOM     64  C   UNL     1       9.179  -2.317  13.268  1.00  0.00     0.173 A 
ATOM     65  C   UNL     1      11.186  -2.359  11.944  1.00  0.00     0.173 A 
ATOM     66  F   UNL     1       7.847  -2.208  13.379  1.00  0.00    -0.203 F 
ATOM     67  C   UNL     1       9.943  -2.436  14.425  1.00  0.00     0.198 A 
ATOM     68  C   UNL     1      11.945  -2.507  13.102  1.00  0.00     0.198 A 
ATOM     69  F   UNL     1      11.816  -2.316  10.761  1.00  0.00    -0.203 F 
ATOM     70  F   UNL     1       9.344  -2.433  15.624  1.00  0.00    -0.200 F 
ATOM     71  C   UNL     1      11.324  -2.537  14.341  1.00  0.00     0.200 A 
ATOM     72  F   UNL     1      13.278  -2.614  13.018  1.00  0.00    -0.200 F 
ATOM     73  F   UNL     1      12.057  -2.651  15.457  1.00  0.00    -0.200 F 
ENDBRANCH  40  63
ENDBRANCH  14  15
ENDBRANCH   7   9
ENDBRANCH   4   5
ENDBRANCH   3   4
ENDBRANCH   2   3
ENDBRANCH   1   2
BRANCH   1  74
ATOM     74  C   UNL     1       6.184   1.260  -4.125  1.00  0.00     0.021 C 
BRANCH  74  75
ATOM     75  C   UNL     1       7.080   0.322  -4.927  1.00  0.00     0.116 C 
BRANCH  75  76
ATOM     76  N   UNL     1       6.777   0.323  -6.345  1.00  0.00    -0.352 N 
ATOM     77  C   UNL     1       7.620   0.179  -7.418  1.00  0.00     0.251 C 
ATOM     78  H   UNL     1       5.827   0.446  -6.571  1.00  0.00     0.163 HD
ATOM     79  O   UNL     1       7.173   0.294  -8.556  1.00  0.00    -0.269 OA
BRANCH  77  80
ATOM     80  C   UNL     1       9.070  -0.069  -7.230  1.00  0.00     0.047 A 
ATOM     81  C   UNL     1       9.933   0.884  -7.790  1.00  0.00     0.014 A 
ATOM     82  C   UNL     1       9.594  -1.198  -6.568  1.00  0.00    -0.012 A 
ATOM     83  C   UNL     1      11.313   0.749  -7.649  1.00  0.00     0.001 A 
ATOM     84  C   UNL     1      10.984  -1.317  -6.432  1.00  0.00     0.009 A 
ATOM     85  C   UNL     1      11.837  -0.347  -6.968  1.00  0.00     0.001 A 
BRANCH  82  86
ATOM     86  C   UNL     1       8.750  -2.190  -5.897  1.00  0.00     0.030 C 
ATOM     87  C   UNL     1       7.846  -3.010  -6.446  1.00  0.00     0.081 C 
ATOM     88  S   UNL     1       7.553  -3.377  -8.088  1.00  0.00    -0.054 SA
ATOM     89  C   UNL     1       6.831  -3.659  -5.582  1.00  0.00     0.266 C 
ATOM     90  C   UNL     1       6.194  -4.436  -7.699  1.00  0.00     0.148 C 
ATOM     91  N   UNL     1       5.985  -4.449  -6.335  1.00  0.00    -0.288 N 
ATOM     92  O   UNL     1       6.730  -3.416  -4.385  1.00  0.00    -0.268 OA
ATOM     93  S   UNL     1       5.342  -5.247  -8.882  1.00  0.00    -0.052 S 
BRANCH  91  94
ATOM     94  C   UNL     1       4.899  -5.150  -5.651  1.00  0.00     0.163 C 
BRANCH  94  95
ATOM     95  C   UNL     1       5.382  -6.387  -4.925  1.00  0.00    -0.028 A 
ATOM     96  C   UNL     1       5.340  -7.645  -5.539  1.00  0.00     0.005 A 
ATOM     97  C   UNL     1       5.911  -6.288  -3.627  1.00  0.00     0.005 A 
ATOM     98  C   UNL     1       5.821  -8.773  -4.871  1.00  0.00     0.000 A 
ATOM     99  C   UNL     1       6.407  -7.412  -2.969  1.00  0.00     0.000 A 
ATOM    100  C   UNL     1       6.360  -8.656  -3.591  1.00  0.00     0.000 A 
ENDBRANCH  94  95
ENDBRANCH  91  94
ENDBRANCH  82  86
ENDBRANCH  77  80
ENDBRANCH  75  76
ENDBRANCH  74  75
ENDBRANCH   1  74
TORSDOF 16
