REMARK SMILES CC[C@@H](C)N(CC)c1cc(C(=O)NCCCCCCNC(=O)c2ccc(-c3c4nc(c(-c5c(F)c(F)c(F)c(F)c5F)c5ccc([nH]5)c(-c5c(F)c(F)c(F)c(F)c5F)c5nc(c(-c6c(F)c(F)c(F)c(F)c6F)c6ccc3[nH]6)C=C5)C=C4)cc2)c2ccccc2n1
REMARK SMILES IDX 16 1 15 2 14 3 13 4 11 5 12 6 10 8 8 9 9 10 92 11 91 12
REMARK SMILES IDX 86 13 90 14 87 15 89 16 88 17 5 18 3 19 4 20 2 21 1 22 6 23
REMARK SMILES IDX 7 24 17 25 18 26 19 27 20 28 21 29 22 31 23 32 24 33 85 34
REMARK SMILES IDX 25 35 84 36 26 37 27 38 28 39 78 40 29 41 83 42 77 43 79 44
REMARK SMILES IDX 30 45 82 46 76 47 75 48 31 50 63 51 43 52 62 53 44 54 47 55
REMARK SMILES IDX 61 56 80 57 45 58 46 59 60 61 81 62 48 63 32 64 33 65 41 66
REMARK SMILES IDX 34 67 35 68 39 69 42 70 36 71 37 72 40 73 38 74 64 75 65 76
REMARK SMILES IDX 73 77 66 78 67 79 71 80 74 81 68 82 69 83 72 84 70 85 49 86
REMARK SMILES IDX 50 87 58 88 51 89 52 90 56 91 59 92 53 93 54 94 57 95 55 96
REMARK H PARENT 13 7 20 30 79 49 47 60
REMARK Flexibility Score: inf
ROOT
ATOM      1  C   UNL     1      -7.381   2.945  -7.846  1.00  0.00     0.002 C 
ENDROOT
BRANCH   1   2
ATOM      2  C   UNL     1      -6.497   2.895  -6.599  1.00  0.00     0.021 C 
BRANCH   2   3
ATOM      3  C   UNL     1      -5.651   1.619  -6.478  1.00  0.00     0.116 C 
BRANCH   3   4
ATOM      4  N   UNL     1      -4.331   1.905  -6.997  1.00  0.00    -0.352 N 
ATOM      5  C   UNL     1      -3.151   2.293  -6.424  1.00  0.00     0.252 C 
ATOM      6  O   UNL     1      -2.305   2.747  -7.202  1.00  0.00    -0.269 OA
ATOM      7  H   UNL     1      -4.269   1.798  -7.973  1.00  0.00     0.163 HD
BRANCH   5   8
ATOM      8  C   UNL     1      -2.751   2.077  -5.003  1.00  0.00     0.052 A 
ATOM      9  C   UNL     1      -0.829   1.412  -3.674  1.00  0.00     0.130 A 
ATOM     10  C   UNL     1      -1.415   1.653  -4.898  1.00  0.00     0.061 A 
ATOM     11  N   UNL     1      -1.592   1.437  -2.575  1.00  0.00    -0.231 NA
ATOM     12  C   UNL     1      -2.856   1.869  -2.625  1.00  0.00     0.073 A 
ATOM     13  C   UNL     1      -3.485   2.288  -3.812  1.00  0.00     0.013 A 
ATOM     14  C   UNL     1      -3.537   1.933  -1.417  1.00  0.00     0.029 A 
ATOM     15  C   UNL     1      -4.749   2.910  -3.677  1.00  0.00     0.011 A 
ATOM     16  C   UNL     1      -4.829   2.443  -1.324  1.00  0.00     0.002 A 
ATOM     17  C   UNL     1      -5.431   2.956  -2.459  1.00  0.00     0.001 A 
BRANCH   9  18
ATOM     18  N   UNL     1       0.530   1.153  -3.557  1.00  0.00    -0.354 N 
BRANCH  18  19
ATOM     19  C   UNL     1       1.042   0.282  -2.475  1.00  0.00     0.080 C 
ATOM     20  C   UNL     1       0.506  -1.139  -2.663  1.00  0.00     0.031 C 
BRANCH  19  21
ATOM     21  C   UNL     1       0.814   0.853  -1.060  1.00  0.00     0.021 C 
ATOM     22  C   UNL     1       1.541   0.084   0.035  1.00  0.00     0.006 C 
ENDBRANCH  19  21
ENDBRANCH  18  19
BRANCH  18  23
ATOM     23  C   UNL     1       1.468   2.109  -4.165  1.00  0.00     0.115 C 
ATOM     24  C   UNL     1       1.805   1.763  -5.610  1.00  0.00     0.027 C 
ENDBRANCH  18  23
ENDBRANCH   9  18
ENDBRANCH   5   8
ENDBRANCH   3   4
ENDBRANCH   2   3
ENDBRANCH   1   2
BRANCH   1  25
ATOM     25  C   UNL     1      -8.585   2.001  -7.797  1.00  0.00     0.002 C 
BRANCH  25  26
ATOM     26  C   UNL     1      -9.472   2.139  -6.553  1.00  0.00     0.021 C 
BRANCH  26  27
ATOM     27  C   UNL     1      -9.985   3.552  -6.285  1.00  0.00     0.116 C 
BRANCH  27  28
ATOM     28  N   UNL     1     -10.837   4.027  -7.363  1.00  0.00    -0.352 N 
ATOM     29  C   UNL     1     -12.169   4.334  -7.344  1.00  0.00     0.251 C 
ATOM     30  H   UNL     1     -10.390   4.144  -8.232  1.00  0.00     0.163 HD
ATOM     31  O   UNL     1     -12.787   4.470  -8.405  1.00  0.00    -0.269 OA
BRANCH  29  32
ATOM     32  C   UNL     1     -12.880   4.505  -6.062  1.00  0.00     0.039 A 
ATOM     33  C   UNL     1     -14.154   3.950  -5.913  1.00  0.00     0.014 A 
ATOM     34  C   UNL     1     -12.314   5.251  -5.024  1.00  0.00     0.014 A 
ATOM     35  C   UNL     1     -14.843   4.107  -4.710  1.00  0.00     0.010 A 
ATOM     36  C   UNL     1     -12.974   5.353  -3.802  1.00  0.00     0.010 A 
ATOM     37  C   UNL     1     -14.249   4.793  -3.637  1.00  0.00    -0.014 A 
BRANCH  37  38
ATOM     38  C   UNL     1     -14.958   4.947  -2.342  1.00  0.00     0.031 A 
ATOM     39  C   UNL     1     -15.383   6.311  -1.873  1.00  0.00     0.074 A 
ATOM     40  C   UNL     1     -15.167   3.868  -1.565  1.00  0.00     0.049 A 
ATOM     41  N   UNL     1     -15.955   6.659  -0.747  1.00  0.00    -0.248 NA
ATOM     42  C   UNL     1     -15.105   7.437  -2.777  1.00  0.00     0.031 C 
ATOM     43  C   UNL     1     -14.759   2.501  -1.892  1.00  0.00     0.029 A 
ATOM     44  N   UNL     1     -15.765   3.752  -0.336  1.00  0.00    -0.354 N 
ATOM     45  C   UNL     1     -16.093   8.039  -0.804  1.00  0.00     0.074 A 
ATOM     46  C   UNL     1     -15.498   8.472  -2.050  1.00  0.00     0.031 C 
ATOM     47  C   UNL     1     -15.133   1.682  -0.896  1.00  0.00     0.029 A 
ATOM     48  C   UNL     1     -15.777   2.469   0.152  1.00  0.00     0.049 A 
ATOM     49  H   UNL     1     -16.149   4.517   0.151  1.00  0.00     0.167 HD
ATOM     50  C   UNL     1     -16.683   8.867   0.091  1.00  0.00     0.037 A 
ATOM     51  C   UNL     1     -16.250   1.984   1.315  1.00  0.00     0.037 A 
ATOM     52  C   UNL     1     -17.295   8.429   1.318  1.00  0.00     0.049 A 
ATOM     53  C   UNL     1     -16.906   2.924   2.289  1.00  0.00     0.074 A 
ATOM     54  C   UNL     1     -17.964   9.182   2.267  1.00  0.00     0.029 A 
ATOM     55  N   UNL     1     -17.311   7.116   1.765  1.00  0.00    -0.354 N 
ATOM     56  N   UNL     1     -17.085   4.219   2.196  1.00  0.00    -0.248 NA
ATOM     57  C   UNL     1     -17.433   2.332   3.527  1.00  0.00     0.031 C 
ATOM     58  C   UNL     1     -18.352   8.330   3.307  1.00  0.00     0.029 A 
ATOM     59  C   UNL     1     -17.966   7.040   2.984  1.00  0.00     0.049 A 
ATOM     60  H   UNL     1     -16.917   6.351   1.286  1.00  0.00     0.167 HD
ATOM     61  C   UNL     1     -17.768   4.593   3.346  1.00  0.00     0.074 A 
ATOM     62  C   UNL     1     -17.984   3.385   4.115  1.00  0.00     0.031 C 
ATOM     63  C   UNL     1     -18.177   5.827   3.731  1.00  0.00     0.037 A 
BRANCH  50  64
ATOM     64  C   UNL     1     -16.700  10.334  -0.229  1.00  0.00     0.064 A 
ATOM     65  C   UNL     1     -17.498  10.851  -1.262  1.00  0.00     0.173 A 
ATOM     66  C   UNL     1     -15.938  11.239   0.525  1.00  0.00     0.173 A 
ATOM     67  F   UNL     1     -18.237  10.027  -2.021  1.00  0.00    -0.203 F 
ATOM     68  C   UNL     1     -17.509  12.214  -1.546  1.00  0.00     0.198 A 
ATOM     69  C   UNL     1     -15.975  12.605   0.257  1.00  0.00     0.198 A 
ATOM     70  F   UNL     1     -15.163  10.800   1.527  1.00  0.00    -0.203 F 
ATOM     71  F   UNL     1     -18.241  12.677  -2.569  1.00  0.00    -0.200 F 
ATOM     72  C   UNL     1     -16.754  13.090  -0.783  1.00  0.00     0.200 A 
ATOM     73  F   UNL     1     -15.254  13.453   1.003  1.00  0.00    -0.200 F 
ATOM     74  F   UNL     1     -16.770  14.403  -1.054  1.00  0.00    -0.200 F 
ENDBRANCH  50  64
BRANCH  51  75
ATOM     75  C   UNL     1     -16.143   0.532   1.610  1.00  0.00     0.064 A 
ATOM     76  C   UNL     1     -17.283  -0.285   1.626  1.00  0.00     0.173 A 
ATOM     77  C   UNL     1     -14.905  -0.069   1.880  1.00  0.00     0.173 A 
ATOM     78  F   UNL     1     -18.491   0.249   1.392  1.00  0.00    -0.203 F 
ATOM     79  C   UNL     1     -17.191  -1.643   1.921  1.00  0.00     0.198 A 
ATOM     80  C   UNL     1     -14.811  -1.433   2.148  1.00  0.00     0.198 A 
ATOM     81  F   UNL     1     -13.785   0.667   1.871  1.00  0.00    -0.203 F 
ATOM     82  F   UNL     1     -18.301  -2.391   1.973  1.00  0.00    -0.200 F 
ATOM     83  C   UNL     1     -15.955  -2.217   2.176  1.00  0.00     0.200 A 
ATOM     84  F   UNL     1     -13.613  -1.987   2.380  1.00  0.00    -0.200 F 
ATOM     85  F   UNL     1     -15.866  -3.525   2.456  1.00  0.00    -0.200 F 
ENDBRANCH  51  75
BRANCH  63  86
ATOM     86  C   UNL     1     -18.928   5.926   5.026  1.00  0.00     0.064 A 
ATOM     87  C   UNL     1     -18.284   5.774   6.263  1.00  0.00     0.173 A 
ATOM     88  C   UNL     1     -20.302   6.210   5.030  1.00  0.00     0.173 A 
ATOM     89  F   UNL     1     -16.975   5.486   6.311  1.00  0.00    -0.203 F 
ATOM     90  C   UNL     1     -18.994   5.879   7.456  1.00  0.00     0.198 A 
ATOM     91  C   UNL     1     -21.003   6.342   6.225  1.00  0.00     0.198 A 
ATOM     92  F   UNL     1     -20.963   6.370   3.873  1.00  0.00    -0.203 F 
ATOM     93  F   UNL     1     -18.369   5.684   8.625  1.00  0.00    -0.200 F 
ATOM     94  C   UNL     1     -20.351   6.169   7.436  1.00  0.00     0.200 A 
ATOM     95  F   UNL     1     -22.311   6.635   6.204  1.00  0.00    -0.200 F 
ATOM     96  F   UNL     1     -21.031   6.275   8.586  1.00  0.00    -0.200 F 
ENDBRANCH  63  86
ENDBRANCH  37  38
ENDBRANCH  29  32
ENDBRANCH  27  28
ENDBRANCH  26  27
ENDBRANCH  25  26
ENDBRANCH   1  25
TORSDOF 17
