REMARK SMILES COc1cc([C@@H]2[NH2+][C@@H](C(=O)NCCCCCCNC(=O)c3ccc(-c4c5nc(c(-c6c(F)c(F)c(F)c(F)c6F)c6ccc([nH]6)c(-c6c(F)c(F)c(F)c(F)c6F)c6nc(c(-c7c(F)c(F)c(F)c(F)c7F)c7ccc4[nH]7)C=C6)C=C5)cc3)CS2)cc(Cl)c1O
REMARK SMILES IDX 14 1 13 2 12 3 11 4 9 5 10 6 8 8 6 9 7 10 85 11 84 14 5 15
REMARK SMILES IDX 3 16 4 17 89 18 87 19 86 20 88 21 2 22 1 23 90 24 15 26
REMARK SMILES IDX 16 27 17 28 18 29 19 30 20 32 21 33 22 34 83 35 23 36 82 37
REMARK SMILES IDX 24 38 25 39 26 40 76 41 27 42 81 43 75 44 77 45 28 46 80 47
REMARK SMILES IDX 74 48 73 49 29 51 61 52 41 53 60 54 42 55 45 56 59 57 78 58
REMARK SMILES IDX 43 59 44 60 58 62 79 63 46 64 30 65 31 66 39 67 32 68 33 69
REMARK SMILES IDX 37 70 40 71 34 72 35 73 38 74 36 75 62 76 63 77 71 78 64 79
REMARK SMILES IDX 65 80 69 81 72 82 66 83 67 84 70 85 68 86 47 87 48 88 56 89
REMARK SMILES IDX 49 90 50 91 54 92 57 93 51 94 52 95 55 96 53 97
REMARK H PARENT 11 7 7 12 7 13 90 25 18 31 77 50 45 61
REMARK Flexibility Score: inf
ROOT
ATOM      1  C   UNL     1      -5.478  -5.736   6.016  1.00  0.00     0.002 C 
ENDROOT
BRANCH   1   2
ATOM      2  C   UNL     1      -4.030  -5.297   5.743  1.00  0.00     0.021 C 
BRANCH   2   3
ATOM      3  C   UNL     1      -3.765  -4.844   4.303  1.00  0.00     0.116 C 
BRANCH   3   4
ATOM      4  N   UNL     1      -4.534  -3.658   3.987  1.00  0.00    -0.351 N 
ATOM      5  C   UNL     1      -4.226  -2.339   3.935  1.00  0.00     0.279 C 
ATOM      6  O   UNL     1      -5.177  -1.582   3.697  1.00  0.00    -0.268 OA
ATOM      7  H   UNL     1      -5.474  -3.849   3.763  1.00  0.00     0.163 HD
BRANCH   5   8
ATOM      8  C   UNL     1      -2.804  -1.756   4.057  1.00  0.00     0.283 C 
ATOM      9  C   UNL     1      -0.702  -1.731   5.190  1.00  0.00     0.274 C 
ATOM     10  N   UNL     1      -1.821  -2.592   4.790  1.00  0.00    -0.321 N 
ATOM     11  S   UNL     1      -1.437  -0.189   5.770  1.00  0.00    -0.088 SA
ATOM     12  H   UNL     1      -2.260  -2.996   5.618  1.00  0.00     0.348 HD
ATOM     13  H   UNL     1      -1.489  -3.352   4.197  1.00  0.00     0.348 HD
ATOM     14  C   UNL     1      -2.916  -0.384   4.745  1.00  0.00     0.151 C 
BRANCH   9  15
ATOM     15  C   UNL     1       0.385  -1.512   4.144  1.00  0.00     0.025 A 
ATOM     16  C   UNL     1       1.298  -0.385   2.180  1.00  0.00     0.162 A 
ATOM     17  C   UNL     1       0.224  -0.672   3.025  1.00  0.00     0.061 A 
ATOM     18  C   UNL     1       2.566  -0.896   2.447  1.00  0.00     0.176 A 
ATOM     19  C   UNL     1       2.738  -1.777   3.511  1.00  0.00     0.087 A 
ATOM     20  C   UNL     1       1.656  -2.089   4.346  1.00  0.00     0.035 A 
ATOM     21  Cl  UNL     1       4.284  -2.452   3.875  1.00  0.00    -0.080 Cl
BRANCH  16  22
ATOM     22  O   UNL     1       1.100   0.502   1.152  1.00  0.00    -0.493 OA
ATOM     23  C   UNL     1       0.988  -0.190  -0.095  1.00  0.00     0.278 C 
ENDBRANCH  16  22
BRANCH  18  24
ATOM     24  O   UNL     1       3.632  -0.489   1.691  1.00  0.00    -0.503 OA
ATOM     25  H   UNL     1       3.501   0.104   0.977  1.00  0.00     0.293 HD
ENDBRANCH  18  24
ENDBRANCH   9  15
ENDBRANCH   5   8
ENDBRANCH   3   4
ENDBRANCH   2   3
ENDBRANCH   1   2
BRANCH   1  26
ATOM     26  C   UNL     1      -6.003  -6.873   5.133  1.00  0.00     0.002 C 
BRANCH  26  27
ATOM     27  C   UNL     1      -5.164  -8.152   5.149  1.00  0.00     0.021 C 
BRANCH  27  28
ATOM     28  C   UNL     1      -5.038  -8.818   6.516  1.00  0.00     0.116 C 
BRANCH  28  29
ATOM     29  N   UNL     1      -6.311  -9.325   7.004  1.00  0.00    -0.352 N 
ATOM     30  C   UNL     1      -6.628 -10.570   7.482  1.00  0.00     0.251 C 
ATOM     31  H   UNL     1      -7.055  -8.679   6.988  1.00  0.00     0.163 HD
ATOM     32  O   UNL     1      -7.803 -10.873   7.685  1.00  0.00    -0.269 OA
BRANCH  30  33
ATOM     33  C   UNL     1      -5.564 -11.564   7.740  1.00  0.00     0.039 A 
ATOM     34  C   UNL     1      -5.767 -12.889   7.340  1.00  0.00     0.014 A 
ATOM     35  C   UNL     1      -4.382 -11.204   8.394  1.00  0.00     0.014 A 
ATOM     36  C   UNL     1      -4.764 -13.839   7.548  1.00  0.00     0.010 A 
ATOM     37  C   UNL     1      -3.357 -12.136   8.540  1.00  0.00     0.010 A 
ATOM     38  C   UNL     1      -3.540 -13.464   8.124  1.00  0.00    -0.014 A 
BRANCH  38  39
ATOM     39  C   UNL     1      -2.444 -14.450   8.307  1.00  0.00     0.031 A 
ATOM     40  C   UNL     1      -1.990 -14.829   9.689  1.00  0.00     0.074 A 
ATOM     41  C   UNL     1      -1.819 -14.959   7.228  1.00  0.00     0.049 A 
ATOM     42  N   UNL     1      -1.012 -15.621  10.052  1.00  0.00    -0.248 NA
ATOM     43  C   UNL     1      -2.713 -14.215  10.813  1.00  0.00     0.031 C 
ATOM     44  C   UNL     1      -2.134 -14.634   5.837  1.00  0.00     0.029 A 
ATOM     45  N   UNL     1      -0.779 -15.850   7.134  1.00  0.00    -0.354 N 
ATOM     46  C   UNL     1      -0.994 -15.587  11.440  1.00  0.00     0.074 A 
ATOM     47  C   UNL     1      -2.024 -14.658  11.854  1.00  0.00     0.031 C 
ATOM     48  C   UNL     1      -1.319 -15.329   5.027  1.00  0.00     0.029 A 
ATOM     49  C   UNL     1      -0.403 -16.123   5.841  1.00  0.00     0.049 A 
ATOM     50  H   UNL     1      -0.343 -16.255   7.918  1.00  0.00     0.167 HD
ATOM     51  C   UNL     1      -0.206 -16.285  12.293  1.00  0.00     0.037 A 
ATOM     52  C   UNL     1       0.574 -16.919   5.367  1.00  0.00     0.037 A 
ATOM     53  C   UNL     1       0.798 -17.230  11.879  1.00  0.00     0.049 A 
ATOM     54  C   UNL     1       1.430 -17.689   6.335  1.00  0.00     0.074 A 
ATOM     55  C   UNL     1       1.606 -18.032  12.666  1.00  0.00     0.029 A 
ATOM     56  N   UNL     1       1.132 -17.499  10.560  1.00  0.00    -0.354 N 
ATOM     57  N   UNL     1       1.392 -17.701   7.645  1.00  0.00    -0.248 NA
ATOM     58  C   UNL     1       2.459 -18.564   5.757  1.00  0.00     0.031 C 
ATOM     59  C   UNL     1       2.458 -18.755  11.825  1.00  0.00     0.029 A 
ATOM     60  C   UNL     1       2.147 -18.441  10.512  1.00  0.00     0.049 A 
ATOM     61  H   UNL     1       0.710 -17.083   9.774  1.00  0.00     0.167 HD
ATOM     62  C   UNL     1       2.369 -18.602   8.047  1.00  0.00     0.074 A 
ATOM     63  C   UNL     1       2.973 -19.128   6.841  1.00  0.00     0.031 C 
ATOM     64  C   UNL     1       2.732 -18.962   9.303  1.00  0.00     0.037 A 
BRANCH  51  65
ATOM     65  C   UNL     1      -0.400 -16.055  13.764  1.00  0.00     0.064 A 
ATOM     66  C   UNL     1      -1.551 -16.500  14.432  1.00  0.00     0.173 A 
ATOM     67  C   UNL     1       0.591 -15.414  14.522  1.00  0.00     0.173 A 
ATOM     68  F   UNL     1      -2.534 -17.109  13.752  1.00  0.00    -0.203 F 
ATOM     69  C   UNL     1      -1.715 -16.286  15.798  1.00  0.00     0.198 A 
ATOM     70  C   UNL     1       0.437 -15.228  15.894  1.00  0.00     0.198 A 
ATOM     71  F   UNL     1       1.713 -14.973  13.935  1.00  0.00    -0.203 F 
ATOM     72  F   UNL     1      -2.845 -16.677  16.405  1.00  0.00    -0.200 F 
ATOM     73  C   UNL     1      -0.719 -15.657  16.529  1.00  0.00     0.200 A 
ATOM     74  F   UNL     1       1.406 -14.632  16.601  1.00  0.00    -0.200 F 
ATOM     75  F   UNL     1      -0.875 -15.458  17.845  1.00  0.00    -0.200 F 
ENDBRANCH  51  65
BRANCH  52  76
ATOM     76  C   UNL     1       0.775 -17.051   3.901  1.00  0.00     0.064 A 
ATOM     77  C   UNL     1       0.460 -18.245   3.236  1.00  0.00     0.173 A 
ATOM     78  C   UNL     1       1.288 -15.994   3.135  1.00  0.00     0.173 A 
ATOM     79  F   UNL     1      -0.014 -19.291   3.929  1.00  0.00    -0.203 F 
ATOM     80  C   UNL     1       0.668 -18.383   1.866  1.00  0.00     0.198 A 
ATOM     81  C   UNL     1       1.469 -16.124   1.760  1.00  0.00     0.198 A 
ATOM     82  F   UNL     1       1.600 -14.829   3.722  1.00  0.00    -0.203 F 
ATOM     83  F   UNL     1       0.400 -19.550   1.264  1.00  0.00    -0.200 F 
ATOM     84  C   UNL     1       1.167 -17.320   1.128  1.00  0.00     0.200 A 
ATOM     85  F   UNL     1       1.938 -15.090   1.048  1.00  0.00    -0.200 F 
ATOM     86  F   UNL     1       1.364 -17.452  -0.191  1.00  0.00    -0.200 F 
ENDBRANCH  52  76
BRANCH  64  87
ATOM     87  C   UNL     1       3.808 -19.999   9.436  1.00  0.00     0.064 A 
ATOM     88  C   UNL     1       5.150 -19.712   9.145  1.00  0.00     0.173 A 
ATOM     89  C   UNL     1       3.497 -21.288   9.895  1.00  0.00     0.173 A 
ATOM     90  F   UNL     1       5.496 -18.499   8.688  1.00  0.00    -0.203 F 
ATOM     91  C   UNL     1       6.136 -20.685   9.284  1.00  0.00     0.198 A 
ATOM     92  C   UNL     1       4.490 -22.249  10.061  1.00  0.00     0.198 A 
ATOM     93  F   UNL     1       2.230 -21.612  10.194  1.00  0.00    -0.203 F 
ATOM     94  F   UNL     1       7.404 -20.402   8.953  1.00  0.00    -0.200 F 
ATOM     95  C   UNL     1       5.807 -21.950   9.748  1.00  0.00     0.200 A 
ATOM     96  F   UNL     1       4.172 -23.467  10.522  1.00  0.00    -0.200 F 
ATOM     97  F   UNL     1       6.758 -22.883   9.886  1.00  0.00    -0.200 F 
ENDBRANCH  64  87
ENDBRANCH  38  39
ENDBRANCH  30  33
ENDBRANCH  28  29
ENDBRANCH  27  28
ENDBRANCH  26  27
ENDBRANCH   1  26
TORSDOF 16
