REMARK SMILES Cc1ccc(-c2cc(C(=O)NCCCCCCNC(=O)c3ccc(-c4c5nc(c(-c6c(F)c(F)c(F)c(F)c6F)c6ccc([nH]6)c(-c6c(F)c(F)c(F)c(F)c6F)c6nc(c(-c7c(F)c(F)c(F)c(F)c7F)c7ccc4[nH]7)C=C6)C=C5)cc3)ccc2F)cc1O
REMARK SMILES IDX 14 1 13 2 12 3 11 4 9 5 10 6 8 8 6 9 7 10 86 11 85 12 87 13
REMARK SMILES IDX 84 14 5 15 1 16 2 17 3 18 89 19 4 20 88 21 90 22 15 24 16 25
REMARK SMILES IDX 17 26 18 27 19 28 20 30 21 31 22 32 83 33 23 34 82 35 24 36
REMARK SMILES IDX 25 37 26 38 76 39 27 40 81 41 75 42 77 43 28 44 80 45 74 46
REMARK SMILES IDX 73 47 29 49 61 50 41 51 60 52 42 53 45 54 59 55 78 56 43 57
REMARK SMILES IDX 44 58 58 60 79 61 46 62 30 63 31 64 39 65 32 66 33 67 37 68
REMARK SMILES IDX 40 69 34 70 35 71 38 72 36 73 62 74 63 75 71 76 64 77 65 78
REMARK SMILES IDX 69 79 72 80 66 81 67 82 70 83 68 84 47 85 48 86 56 87 49 88
REMARK SMILES IDX 50 89 54 90 57 91 51 92 52 93 55 94 53 95
REMARK H PARENT 11 7 90 23 18 29 77 48 45 59
REMARK Flexibility Score: inf
ROOT
ATOM      1  C   UNL     1       7.702   7.198   1.840  1.00  0.00     0.002 C 
ENDROOT
BRANCH   1   2
ATOM      2  C   UNL     1       7.268   6.073   0.888  1.00  0.00     0.021 C 
BRANCH   2   3
ATOM      3  C   UNL     1       7.155   4.713   1.581  1.00  0.00     0.116 C 
BRANCH   3   4
ATOM      4  N   UNL     1       5.892   4.621   2.280  1.00  0.00    -0.352 N 
ATOM      5  C   UNL     1       4.693   4.023   2.003  1.00  0.00     0.251 C 
ATOM      6  O   UNL     1       3.790   4.202   2.822  1.00  0.00    -0.269 OA
ATOM      7  H   UNL     1       5.896   5.092   3.145  1.00  0.00     0.163 HD
BRANCH   5   8
ATOM      8  C   UNL     1       4.431   3.144   0.825  1.00  0.00     0.040 A 
ATOM      9  C   UNL     1       2.961   1.394  -0.097  1.00  0.00     0.018 A 
ATOM     10  C   UNL     1       3.316   2.288   0.929  1.00  0.00     0.025 A 
ATOM     11  C   UNL     1       3.784   1.339  -1.225  1.00  0.00     0.131 A 
ATOM     12  C   UNL     1       4.868   2.199  -1.368  1.00  0.00     0.041 A 
ATOM     13  F   UNL     1       3.517   0.482  -2.222  1.00  0.00    -0.206 F 
ATOM     14  C   UNL     1       5.164   3.127  -0.365  1.00  0.00     0.017 A 
BRANCH   9  15
ATOM     15  C   UNL     1       1.731   0.601  -0.007  1.00  0.00    -0.012 A 
ATOM     16  C   UNL     1      -1.931  -1.719   0.049  1.00  0.00     0.048 C 
ATOM     17  C   UNL     1      -0.677  -0.896   0.053  1.00  0.00    -0.009 A 
ATOM     18  C   UNL     1       0.570  -1.538   0.034  1.00  0.00     0.008 A 
ATOM     19  C   UNL     1      -0.700   0.501   0.059  1.00  0.00     0.119 A 
ATOM     20  C   UNL     1       1.758  -0.799   0.001  1.00  0.00     0.009 A 
ATOM     21  C   UNL     1       0.482   1.239   0.036  1.00  0.00     0.055 A 
BRANCH  19  22
ATOM     22  O   UNL     1      -1.858   1.227   0.070  1.00  0.00    -0.508 OA
ATOM     23  H   UNL     1      -2.685   0.788   0.085  1.00  0.00     0.293 HD
ENDBRANCH  19  22
ENDBRANCH   9  15
ENDBRANCH   5   8
ENDBRANCH   3   4
ENDBRANCH   2   3
ENDBRANCH   1   2
BRANCH   1  24
ATOM     24  C   UNL     1       9.086   7.007   2.475  1.00  0.00     0.002 C 
BRANCH  24  25
ATOM     25  C   UNL     1      10.219   6.742   1.480  1.00  0.00     0.021 C 
BRANCH  25  26
ATOM     26  C   UNL     1      10.445   7.870   0.480  1.00  0.00     0.116 C 
BRANCH  26  27
ATOM     27  N   UNL     1      10.908   9.082   1.137  1.00  0.00    -0.352 N 
ATOM     28  C   UNL     1      12.060   9.797   0.927  1.00  0.00     0.251 C 
ATOM     29  H   UNL     1      10.310   9.441   1.833  1.00  0.00     0.163 HD
ATOM     30  O   UNL     1      12.415  10.656   1.727  1.00  0.00    -0.269 OA
BRANCH  28  31
ATOM     31  C   UNL     1      12.883   9.519  -0.269  1.00  0.00     0.039 A 
ATOM     32  C   UNL     1      14.268   9.410  -0.129  1.00  0.00     0.014 A 
ATOM     33  C   UNL     1      12.286   9.378  -1.525  1.00  0.00     0.014 A 
ATOM     34  C   UNL     1      15.051   9.098  -1.242  1.00  0.00     0.010 A 
ATOM     35  C   UNL     1      13.059   9.002  -2.619  1.00  0.00     0.010 A 
ATOM     36  C   UNL     1      14.448   8.858  -2.488  1.00  0.00    -0.014 A 
BRANCH  36  37
ATOM     37  C   UNL     1      15.251   8.450  -3.668  1.00  0.00     0.031 A 
ATOM     38  C   UNL     1      15.338   9.353  -4.867  1.00  0.00     0.074 A 
ATOM     39  C   UNL     1      15.856   7.246  -3.678  1.00  0.00     0.049 A 
ATOM     40  N   UNL     1      15.908   9.134  -6.025  1.00  0.00    -0.248 NA
ATOM     41  C   UNL     1      14.684  10.667  -4.759  1.00  0.00     0.031 C 
ATOM     42  C   UNL     1      15.827   6.277  -2.581  1.00  0.00     0.029 A 
ATOM     43  N   UNL     1      16.608   6.628  -4.645  1.00  0.00    -0.354 N 
ATOM     44  C   UNL     1      15.678  10.277  -6.779  1.00  0.00     0.074 A 
ATOM     45  C   UNL     1      14.874  11.167  -5.972  1.00  0.00     0.031 C 
ATOM     46  C   UNL     1      16.554   5.202  -2.924  1.00  0.00     0.029 A 
ATOM     47  C   UNL     1      17.060   5.382  -4.281  1.00  0.00     0.049 A 
ATOM     48  H   UNL     1      16.806   7.038  -5.518  1.00  0.00     0.167 HD
ATOM     49  C   UNL     1      16.125  10.565  -8.024  1.00  0.00     0.037 A 
ATOM     50  C   UNL     1      17.791   4.483  -4.969  1.00  0.00     0.037 A 
ATOM     51  C   UNL     1      16.948   9.688  -8.812  1.00  0.00     0.049 A 
ATOM     52  C   UNL     1      18.229   4.814  -6.371  1.00  0.00     0.074 A 
ATOM     53  C   UNL     1      17.475   9.908 -10.073  1.00  0.00     0.029 A 
ATOM     54  N   UNL     1      17.372   8.430  -8.414  1.00  0.00    -0.354 N 
ATOM     55  N   UNL     1      18.034   5.912  -7.060  1.00  0.00    -0.248 NA
ATOM     56  C   UNL     1      18.984   3.780  -7.094  1.00  0.00     0.031 C 
ATOM     57  C   UNL     1      18.183   8.766 -10.455  1.00  0.00     0.029 A 
ATOM     58  C   UNL     1      18.139   7.855  -9.412  1.00  0.00     0.049 A 
ATOM     59  H   UNL     1      17.158   8.008  -7.550  1.00  0.00     0.167 HD
ATOM     60  C   UNL     1      18.668   5.715  -8.279  1.00  0.00     0.074 A 
ATOM     61  C   UNL     1      19.263   4.396  -8.234  1.00  0.00     0.031 C 
ATOM     62  C   UNL     1      18.747   6.551  -9.341  1.00  0.00     0.037 A 
BRANCH  49  63
ATOM     63  C   UNL     1      15.766  11.896  -8.614  1.00  0.00     0.064 A 
ATOM     64  C   UNL     1      14.898  11.979  -9.713  1.00  0.00     0.173 A 
ATOM     65  C   UNL     1      16.375  13.076  -8.165  1.00  0.00     0.173 A 
ATOM     66  F   UNL     1      14.295  10.877 -10.185  1.00  0.00    -0.203 F 
ATOM     67  C   UNL     1      14.673  13.194 -10.356  1.00  0.00     0.198 A 
ATOM     68  C   UNL     1      16.128  14.293  -8.794  1.00  0.00     0.198 A 
ATOM     69  F   UNL     1      17.206  13.049  -7.112  1.00  0.00    -0.203 F 
ATOM     70  F   UNL     1      13.875  13.243 -11.431  1.00  0.00    -0.200 F 
ATOM     71  C   UNL     1      15.289  14.348  -9.897  1.00  0.00     0.200 A 
ATOM     72  F   UNL     1      16.709  15.411  -8.338  1.00  0.00    -0.200 F 
ATOM     73  F   UNL     1      15.076  15.515 -10.521  1.00  0.00    -0.200 F 
ENDBRANCH  49  63
BRANCH  50  74
ATOM     74  C   UNL     1      18.177   3.193  -4.338  1.00  0.00     0.064 A 
ATOM     75  C   UNL     1      17.226   2.207  -4.038  1.00  0.00     0.173 A 
ATOM     76  C   UNL     1      19.518   2.920  -4.032  1.00  0.00     0.173 A 
ATOM     77  F   UNL     1      15.930   2.418  -4.308  1.00  0.00    -0.203 F 
ATOM     78  C   UNL     1      17.601   1.002  -3.446  1.00  0.00     0.198 A 
ATOM     79  C   UNL     1      19.895   1.703  -3.468  1.00  0.00     0.198 A 
ATOM     80  F   UNL     1      20.467   3.823  -4.320  1.00  0.00    -0.203 F 
ATOM     81  F   UNL     1      16.669   0.087  -3.146  1.00  0.00    -0.200 F 
ATOM     82  C   UNL     1      18.936   0.747  -3.170  1.00  0.00     0.200 A 
ATOM     83  F   UNL     1      21.189   1.451  -3.231  1.00  0.00    -0.200 F 
ATOM     84  F   UNL     1      19.299  -0.421  -2.625  1.00  0.00    -0.200 F 
ENDBRANCH  50  74
BRANCH  62  85
ATOM     85  C   UNL     1      19.531   6.097 -10.536  1.00  0.00     0.064 A 
ATOM     86  C   UNL     1      20.748   6.716 -10.861  1.00  0.00     0.173 A 
ATOM     87  C   UNL     1      19.033   5.122 -11.411  1.00  0.00     0.173 A 
ATOM     88  F   UNL     1      21.261   7.662 -10.060  1.00  0.00    -0.203 F 
ATOM     89  C   UNL     1      21.425   6.392 -12.033  1.00  0.00     0.198 A 
ATOM     90  C   UNL     1      19.728   4.779 -12.567  1.00  0.00     0.198 A 
ATOM     91  F   UNL     1      17.880   4.493 -11.135  1.00  0.00    -0.203 F 
ATOM     92  F   UNL     1      22.563   7.027 -12.345  1.00  0.00    -0.200 F 
ATOM     93  C   UNL     1      20.916   5.423 -12.883  1.00  0.00     0.200 A 
ATOM     94  F   UNL     1      19.246   3.827 -13.378  1.00  0.00    -0.200 F 
ATOM     95  F   UNL     1      21.570   5.109 -14.010  1.00  0.00    -0.200 F 
ENDBRANCH  62  85
ENDBRANCH  36  37
ENDBRANCH  28  31
ENDBRANCH  26  27
ENDBRANCH  25  26
ENDBRANCH  24  25
ENDBRANCH   1  24
TORSDOF 15
