REMARK SMILES C[C@H](CC(=O)NCCCCCCNC(=O)c1ccc(-c2c3nc(c(-c4c(F)c(F)c(F)c(F)c4F)c4ccc([nH]4)c(-c4c(F)c(F)c(F)c(F)c4F)c4nc(c(-c5c(F)c(F)c(F)c(F)c5F)c5ccc2[nH]5)C=C4)C=C3)cc1)NC(=O)Cn1nc2ccccn2c1=O
REMARK SMILES IDX 8 1 7 2 6 3 4 4 5 5 3 7 2 8 1 9 79 10 80 11 81 13 82 14
REMARK SMILES IDX 83 15 84 16 91 17 85 18 90 19 92 20 86 21 89 22 87 23 88 24
REMARK SMILES IDX 9 25 10 26 11 27 12 28 13 29 14 30 15 32 16 33 17 34 78 35
REMARK SMILES IDX 18 36 77 37 19 38 20 39 21 40 71 41 22 42 76 43 70 44 72 45
REMARK SMILES IDX 23 46 75 47 69 48 68 49 24 51 56 52 36 53 55 54 37 55 40 56
REMARK SMILES IDX 54 57 73 58 38 59 39 60 53 62 74 63 41 64 25 65 26 66 34 67
REMARK SMILES IDX 27 68 28 69 32 70 35 71 29 72 30 73 33 74 31 75 57 76 58 77
REMARK SMILES IDX 66 78 59 79 60 80 64 81 67 82 61 83 62 84 65 85 63 86 42 87
REMARK SMILES IDX 43 88 51 89 44 90 45 91 49 92 52 93 46 94 47 95 50 96 48 97
REMARK H PARENT 6 6 79 12 13 31 72 50 40 61
REMARK Flexibility Score: inf
ROOT
ATOM      1  C   UNL     1      -3.107   0.732   0.321  1.00  0.00     0.021 C 
ENDROOT
BRANCH   1   2
ATOM      2  C   UNL     1      -2.063   0.154  -0.633  1.00  0.00     0.116 C 
BRANCH   2   3
ATOM      3  N   UNL     1      -1.017   1.128  -0.881  1.00  0.00    -0.356 N 
ATOM      4  C   UNL     1       0.280   1.128  -0.470  1.00  0.00     0.222 C 
ATOM      5  O   UNL     1       0.967   2.126  -0.696  1.00  0.00    -0.275 OA
ATOM      6  H   UNL     1      -1.285   1.903  -1.425  1.00  0.00     0.163 HD
BRANCH   4   7
ATOM      7  C   UNL     1       0.869  -0.087   0.218  1.00  0.00     0.124 C 
BRANCH   7   8
ATOM      8  C   UNL     1       0.739  -0.127   1.751  1.00  0.00     0.088 C 
ATOM      9  C   UNL     1       1.130   1.199   2.402  1.00  0.00     0.031 C 
BRANCH   8  10
ATOM     10  N   UNL     1      -0.596  -0.527   2.190  1.00  0.00    -0.352 N 
ATOM     11  C   UNL     1      -1.135  -1.757   2.439  1.00  0.00     0.242 C 
ATOM     12  H   UNL     1      -1.217   0.223   2.332  1.00  0.00     0.163 HD
ATOM     13  O   UNL     1      -2.350  -1.785   2.669  1.00  0.00    -0.273 OA
BRANCH  11  14
ATOM     14  C   UNL     1      -0.281  -3.022   2.578  1.00  0.00     0.249 C 
BRANCH  14  15
ATOM     15  N   UNL     1       0.407  -3.443   1.383  1.00  0.00    -0.203 N 
ATOM     16  N   UNL     1       1.663  -2.989   1.037  1.00  0.00    -0.149 NA
ATOM     17  C   UNL     1      -0.090  -4.313   0.397  1.00  0.00     0.350 A 
ATOM     18  C   UNL     1       1.859  -3.499  -0.138  1.00  0.00     0.161 A 
ATOM     19  N   UNL     1       0.871  -4.310  -0.586  1.00  0.00    -0.250 N 
ATOM     20  O   UNL     1      -1.160  -4.905   0.397  1.00  0.00    -0.246 OA
ATOM     21  C   UNL     1       3.025  -3.244  -1.028  1.00  0.00     0.050 A 
ATOM     22  C   UNL     1       0.872  -4.915  -1.810  1.00  0.00     0.098 A 
ATOM     23  C   UNL     1       2.803  -3.546  -2.325  1.00  0.00     0.005 A 
ATOM     24  C   UNL     1       1.819  -4.562  -2.690  1.00  0.00     0.019 A 
ENDBRANCH  14  15
ENDBRANCH  11  14
ENDBRANCH   8  10
ENDBRANCH   7   8
ENDBRANCH   4   7
ENDBRANCH   2   3
ENDBRANCH   1   2
BRANCH   1  25
ATOM     25  C   UNL     1      -4.113   1.670  -0.352  1.00  0.00     0.002 C 
BRANCH  25  26
ATOM     26  C   UNL     1      -5.016   1.002  -1.393  1.00  0.00     0.002 C 
BRANCH  26  27
ATOM     27  C   UNL     1      -5.763  -0.241  -0.904  1.00  0.00     0.021 C 
BRANCH  27  28
ATOM     28  C   UNL     1      -6.600  -0.028   0.355  1.00  0.00     0.116 C 
BRANCH  28  29
ATOM     29  N   UNL     1      -7.636   0.974   0.153  1.00  0.00    -0.352 N 
ATOM     30  C   UNL     1      -9.000   0.845   0.197  1.00  0.00     0.251 C 
ATOM     31  H   UNL     1      -7.307   1.881  -0.044  1.00  0.00     0.163 HD
ATOM     32  O   UNL     1      -9.721   1.744  -0.225  1.00  0.00    -0.269 OA
BRANCH  30  33
ATOM     33  C   UNL     1      -9.606  -0.390   0.736  1.00  0.00     0.039 A 
ATOM     34  C   UNL     1     -10.657  -0.986   0.037  1.00  0.00     0.014 A 
ATOM     35  C   UNL     1      -9.145  -0.954   1.929  1.00  0.00     0.014 A 
ATOM     36  C   UNL     1     -11.199  -2.188   0.495  1.00  0.00     0.010 A 
ATOM     37  C   UNL     1      -9.637  -2.188   2.348  1.00  0.00     0.010 A 
ATOM     38  C   UNL     1     -10.664  -2.820   1.631  1.00  0.00    -0.014 A 
BRANCH  38  39
ATOM     39  C   UNL     1     -11.138  -4.163   2.050  1.00  0.00     0.031 A 
ATOM     40  C   UNL     1     -11.824  -4.354   3.373  1.00  0.00     0.074 A 
ATOM     41  C   UNL     1     -10.889  -5.225   1.258  1.00  0.00     0.049 A 
ATOM     42  N   UNL     1     -12.255  -5.459   3.929  1.00  0.00    -0.248 NA
ATOM     43  C   UNL     1     -12.037  -3.150   4.190  1.00  0.00     0.031 C 
ATOM     44  C   UNL     1     -10.185  -5.173  -0.025  1.00  0.00     0.029 A 
ATOM     45  N   UNL     1     -11.183  -6.556   1.421  1.00  0.00    -0.354 N 
ATOM     46  C   UNL     1     -12.779  -5.086   5.159  1.00  0.00     0.074 A 
ATOM     47  C   UNL     1     -12.572  -3.660   5.291  1.00  0.00     0.031 C 
ATOM     48  C   UNL     1     -10.118  -6.410  -0.540  1.00  0.00     0.029 A 
ATOM     49  C   UNL     1     -10.731  -7.349   0.394  1.00  0.00     0.049 A 
ATOM     50  H   UNL     1     -11.672  -6.909   2.199  1.00  0.00     0.167 HD
ATOM     51  C   UNL     1     -13.392  -5.862   6.085  1.00  0.00     0.037 A 
ATOM     52  C   UNL     1     -10.787  -8.684   0.231  1.00  0.00     0.037 A 
ATOM     53  C   UNL     1     -13.607  -7.279   5.941  1.00  0.00     0.049 A 
ATOM     54  C   UNL     1     -11.456  -9.523   1.287  1.00  0.00     0.074 A 
ATOM     55  C   UNL     1     -14.281  -8.138   6.791  1.00  0.00     0.029 A 
ATOM     56  N   UNL     1     -13.142  -8.047   4.884  1.00  0.00    -0.354 N 
ATOM     57  N   UNL     1     -12.026  -9.146   2.406  1.00  0.00    -0.248 NA
ATOM     58  C   UNL     1     -11.493 -10.973   1.055  1.00  0.00     0.031 C 
ATOM     59  C   UNL     1     -14.170  -9.435   6.281  1.00  0.00     0.029 A 
ATOM     60  C   UNL     1     -13.482  -9.377   5.080  1.00  0.00     0.049 A 
ATOM     61  H   UNL     1     -12.643  -7.699   4.109  1.00  0.00     0.167 HD
ATOM     62  C   UNL     1     -12.508 -10.305   2.998  1.00  0.00     0.074 A 
ATOM     63  C   UNL     1     -12.187 -11.396   2.102  1.00  0.00     0.031 C 
ATOM     64  C   UNL     1     -13.156 -10.453   4.179  1.00  0.00     0.037 A 
BRANCH  51  65
ATOM     65  C   UNL     1     -13.877  -5.202   7.344  1.00  0.00     0.064 A 
ATOM     66  C   UNL     1     -14.968  -4.320   7.342  1.00  0.00     0.173 A 
ATOM     67  C   UNL     1     -13.286  -5.509   8.580  1.00  0.00     0.173 A 
ATOM     68  F   UNL     1     -15.565  -3.987   6.187  1.00  0.00    -0.203 F 
ATOM     69  C   UNL     1     -15.436  -3.754   8.525  1.00  0.00     0.198 A 
ATOM     70  C   UNL     1     -13.776  -4.966   9.764  1.00  0.00     0.198 A 
ATOM     71  F   UNL     1     -12.245  -6.353   8.641  1.00  0.00    -0.203 F 
ATOM     72  F   UNL     1     -16.455  -2.885   8.493  1.00  0.00    -0.200 F 
ATOM     73  C   UNL     1     -14.846  -4.085   9.736  1.00  0.00     0.200 A 
ATOM     74  F   UNL     1     -13.216  -5.300  10.935  1.00  0.00    -0.200 F 
ATOM     75  F   UNL     1     -15.309  -3.553  10.876  1.00  0.00    -0.200 F 
ENDBRANCH  51  65
BRANCH  52  76
ATOM     76  C   UNL     1     -10.191  -9.315  -0.977  1.00  0.00     0.064 A 
ATOM     77  C   UNL     1     -10.996  -9.944  -1.937  1.00  0.00     0.173 A 
ATOM     78  C   UNL     1      -8.804  -9.319  -1.188  1.00  0.00     0.173 A 
ATOM     79  F   UNL     1     -12.326  -9.986  -1.771  1.00  0.00    -0.203 F 
ATOM     80  C   UNL     1     -10.436 -10.579  -3.043  1.00  0.00     0.198 A 
ATOM     81  C   UNL     1      -8.247  -9.924  -2.313  1.00  0.00     0.198 A 
ATOM     82  F   UNL     1      -7.987  -8.728  -0.303  1.00  0.00    -0.203 F 
ATOM     83  F   UNL     1     -11.225 -11.223  -3.914  1.00  0.00    -0.200 F 
ATOM     84  C   UNL     1      -9.062 -10.563  -3.234  1.00  0.00     0.200 A 
ATOM     85  F   UNL     1      -6.921  -9.892  -2.501  1.00  0.00    -0.200 F 
ATOM     86  F   UNL     1      -8.524 -11.172  -4.299  1.00  0.00    -0.200 F 
ENDBRANCH  52  76
BRANCH  64  87
ATOM     87  C   UNL     1     -13.584 -11.842   4.561  1.00  0.00     0.064 A 
ATOM     88  C   UNL     1     -12.652 -12.825   4.928  1.00  0.00     0.173 A 
ATOM     89  C   UNL     1     -14.945 -12.183   4.594  1.00  0.00     0.173 A 
ATOM     90  F   UNL     1     -11.338 -12.555   4.898  1.00  0.00    -0.203 F 
ATOM     91  C   UNL     1     -13.066 -14.105   5.285  1.00  0.00     0.198 A 
ATOM     92  C   UNL     1     -15.356 -13.454   4.986  1.00  0.00     0.198 A 
ATOM     93  F   UNL     1     -15.877 -11.279   4.259  1.00  0.00    -0.203 F 
ATOM     94  F   UNL     1     -12.155 -15.044   5.580  1.00  0.00    -0.200 F 
ATOM     95  C   UNL     1     -14.417 -14.416   5.323  1.00  0.00     0.200 A 
ATOM     96  F   UNL     1     -16.663 -13.747   5.037  1.00  0.00    -0.200 F 
ATOM     97  F   UNL     1     -14.814 -15.646   5.675  1.00  0.00    -0.200 F 
ENDBRANCH  64  87
ENDBRANCH  38  39
ENDBRANCH  30  33
ENDBRANCH  28  29
ENDBRANCH  27  28
ENDBRANCH  26  27
ENDBRANCH  25  26
ENDBRANCH   1  25
TORSDOF 17
