REMARK SMILES O=C(N[C@]1(C(=O)NCCCCCCNC(=O)c2ccc(-c3c4nc(c(-c5c(F)c(F)c(F)c(F)c5F)c5ccc([nH]5)c(-c5c(F)c(F)c(F)c(F)c5F)c5nc(c(-c6c(F)c(F)c(F)c(F)c6F)c6ccc3[nH]6)C=C5)C=C4)cc2)CC[C@H](c2ccccc2)CC1)OCC1c2ccccc2-c2ccccc21
REMARK SMILES IDX 9 1 8 2 7 3 5 4 6 5 4 7 80 8 90 9 81 10 89 11 82 12 3 13
REMARK SMILES IDX 1 14 2 15 91 17 92 18 93 19 94 20 105 21 95 22 99 23 100 24
REMARK SMILES IDX 104 25 96 26 98 27 101 28 103 29 97 30 102 31 83 32 84 33
REMARK SMILES IDX 88 34 85 35 87 36 86 37 10 38 11 39 12 40 13 41 14 42 15 43
REMARK SMILES IDX 16 45 17 46 18 47 79 48 19 49 78 50 20 51 21 52 22 53 72 54
REMARK SMILES IDX 23 55 77 56 71 57 73 58 24 59 76 60 70 61 69 62 25 64 57 65
REMARK SMILES IDX 37 66 56 67 38 68 41 69 55 70 74 71 39 72 40 73 54 75 75 76
REMARK SMILES IDX 42 77 26 78 27 79 35 80 28 81 29 82 33 83 36 84 30 85 31 86
REMARK SMILES IDX 34 87 32 88 58 89 59 90 67 91 60 92 61 93 65 94 68 95 62 96
REMARK SMILES IDX 63 97 66 98 64 99 43 100 44 101 52 102 45 103 46 104 50 105
REMARK SMILES IDX 53 106 47 107 48 108 51 109 49 110
REMARK H PARENT 7 6 3 16 14 44 73 63 41 74
REMARK Flexibility Score: inf
ROOT
ATOM      1  C   UNL     1       8.114  -0.476   3.482  1.00  0.00     0.021 C 
ENDROOT
BRANCH   1   2
ATOM      2  C   UNL     1       7.453  -1.610   2.664  1.00  0.00     0.116 C 
BRANCH   2   3
ATOM      3  N   UNL     1       5.995  -1.512   2.778  1.00  0.00    -0.354 N 
ATOM      4  C   UNL     1       4.844  -1.533   2.086  1.00  0.00     0.245 C 
ATOM      5  O   UNL     1       3.896  -1.646   2.895  1.00  0.00    -0.272 OA
ATOM      6  H   UNL     1       5.774  -1.379   3.729  1.00  0.00     0.163 HD
BRANCH   4   7
ATOM      7  C   UNL     1       4.510  -1.532   0.513  1.00  0.00     0.122 C 
ATOM      8  C   UNL     1       4.734  -2.909  -0.133  1.00  0.00     0.039 C 
ATOM      9  C   UNL     1       4.992  -0.490  -0.487  1.00  0.00     0.039 C 
ATOM     10  C   UNL     1       6.153  -3.095  -0.722  1.00  0.00     0.011 C 
ATOM     11  C   UNL     1       6.000  -0.681  -1.565  1.00  0.00     0.011 C 
ATOM     12  C   UNL     1       6.673  -2.031  -1.717  1.00  0.00     0.019 C 
BRANCH   7  13
ATOM     13  N   UNL     1       3.046  -1.158   0.605  1.00  0.00    -0.307 N 
ATOM     14  O   UNL     1       1.494   0.537   0.646  1.00  0.00    -0.225 OA
ATOM     15  C   UNL     1       2.624   0.147   0.866  1.00  0.00     0.408 C 
ATOM     16  H   UNL     1       2.367  -1.860   0.477  1.00  0.00     0.168 HD
BRANCH  15  17
ATOM     17  O   UNL     1       3.647   0.941   1.317  1.00  0.00    -0.449 OA
BRANCH  17  18
ATOM     18  C   UNL     1       3.929   2.203   0.646  1.00  0.00     0.248 C 
BRANCH  18  19
ATOM     19  C   UNL     1       5.245   2.823   1.241  1.00  0.00     0.088 C 
ATOM     20  C   UNL     1       6.654   2.410   0.733  1.00  0.00    -0.029 A 
ATOM     21  C   UNL     1       5.302   4.321   0.956  1.00  0.00    -0.029 A 
ATOM     22  C   UNL     1       7.311   1.197   0.763  1.00  0.00     0.005 A 
ATOM     23  C   UNL     1       7.384   3.521   0.289  1.00  0.00    -0.014 A 
ATOM     24  C   UNL     1       6.542   4.681   0.382  1.00  0.00    -0.014 A 
ATOM     25  C   UNL     1       4.323   5.271   1.182  1.00  0.00     0.005 A 
ATOM     26  C   UNL     1       8.617   1.054   0.274  1.00  0.00     0.000 A 
ATOM     27  C   UNL     1       8.720   3.419  -0.111  1.00  0.00     0.009 A 
ATOM     28  C   UNL     1       6.795   5.976  -0.023  1.00  0.00     0.009 A 
ATOM     29  C   UNL     1       4.575   6.579   0.771  1.00  0.00     0.000 A 
ATOM     30  C   UNL     1       9.334   2.169  -0.138  1.00  0.00     0.001 A 
ATOM     31  C   UNL     1       5.793   6.926   0.163  1.00  0.00     0.001 A 
ENDBRANCH  18  19
ENDBRANCH  17  18
ENDBRANCH  15  17
ENDBRANCH   7  13
BRANCH  12  32
ATOM     32  C   UNL     1       6.588  -2.244  -3.230  1.00  0.00    -0.045 A 
ATOM     33  C   UNL     1       5.616  -3.059  -3.809  1.00  0.00     0.004 A 
ATOM     34  C   UNL     1       7.260  -1.298  -4.050  1.00  0.00     0.004 A 
ATOM     35  C   UNL     1       5.244  -2.856  -5.142  1.00  0.00     0.000 A 
ATOM     36  C   UNL     1       6.855  -1.073  -5.363  1.00  0.00     0.000 A 
ATOM     37  C   UNL     1       5.832  -1.842  -5.903  1.00  0.00     0.000 A 
ENDBRANCH  12  32
ENDBRANCH   4   7
ENDBRANCH   2   3
ENDBRANCH   1   2
BRANCH   1  38
ATOM     38  C   UNL     1       9.508  -0.657   4.096  1.00  0.00     0.002 C 
BRANCH  38  39
ATOM     39  C   UNL     1      10.474  -1.678   3.510  1.00  0.00     0.002 C 
BRANCH  39  40
ATOM     40  C   UNL     1      11.086  -1.371   2.143  1.00  0.00     0.021 C 
BRANCH  40  41
ATOM     41  C   UNL     1      11.816  -0.034   1.998  1.00  0.00     0.116 C 
BRANCH  41  42
ATOM     42  N   UNL     1      12.837   0.184   3.010  1.00  0.00    -0.352 N 
ATOM     43  C   UNL     1      14.203   0.281   2.929  1.00  0.00     0.251 C 
ATOM     44  H   UNL     1      12.482   0.279   3.923  1.00  0.00     0.163 HD
ATOM     45  O   UNL     1      14.862   0.339   3.965  1.00  0.00    -0.269 OA
BRANCH  43  46
ATOM     46  C   UNL     1      14.910   0.297   1.628  1.00  0.00     0.039 A 
ATOM     47  C   UNL     1      16.102  -0.427   1.516  1.00  0.00     0.014 A 
ATOM     48  C   UNL     1      14.466   1.063   0.548  1.00  0.00     0.014 A 
ATOM     49  C   UNL     1      16.811  -0.434   0.312  1.00  0.00     0.010 A 
ATOM     50  C   UNL     1      15.137   1.002  -0.676  1.00  0.00     0.010 A 
ATOM     51  C   UNL     1      16.317   0.253  -0.808  1.00  0.00    -0.014 A 
BRANCH  51  52
ATOM     52  C   UNL     1      17.026   0.184  -2.115  1.00  0.00     0.031 A 
ATOM     53  C   UNL     1      17.642   1.416  -2.720  1.00  0.00     0.074 A 
ATOM     54  C   UNL     1      17.090  -0.989  -2.774  1.00  0.00     0.049 A 
ATOM     55  N   UNL     1      18.274   1.552  -3.860  1.00  0.00    -0.248 NA
ATOM     56  C   UNL     1      17.514   2.665  -1.954  1.00  0.00     0.031 C 
ATOM     57  C   UNL     1      16.508  -2.249  -2.310  1.00  0.00     0.029 A 
ATOM     58  N   UNL     1      17.671  -1.316  -3.975  1.00  0.00    -0.354 N 
ATOM     59  C   UNL     1      18.613   2.896  -3.949  1.00  0.00     0.074 A 
ATOM     60  C   UNL     1      18.068   3.545  -2.776  1.00  0.00     0.031 C 
ATOM     61  C   UNL     1      16.785  -3.216  -3.199  1.00  0.00     0.029 A 
ATOM     62  C   UNL     1      17.526  -2.639  -4.317  1.00  0.00     0.049 A 
ATOM     63  H   UNL     1      18.147  -0.663  -4.539  1.00  0.00     0.167 HD
ATOM     64  C   UNL     1      19.333   3.527  -4.909  1.00  0.00     0.037 A 
ATOM     65  C   UNL     1      17.936  -3.311  -5.410  1.00  0.00     0.037 A 
ATOM     66  C   UNL     1      19.884   2.877  -6.070  1.00  0.00     0.049 A 
ATOM     67  C   UNL     1      18.704  -2.578  -6.477  1.00  0.00     0.074 A 
ATOM     68  C   UNL     1      20.664   3.421  -7.075  1.00  0.00     0.029 A 
ATOM     69  N   UNL     1      19.707   1.537  -6.385  1.00  0.00    -0.354 N 
ATOM     70  N   UNL     1      19.072  -1.320  -6.518  1.00  0.00    -0.248 NA
ATOM     71  C   UNL     1      19.119  -3.361  -7.650  1.00  0.00     0.031 C 
ATOM     72  C   UNL     1      20.911   2.426  -8.027  1.00  0.00     0.029 A 
ATOM     73  C   UNL     1      20.340   1.245  -7.583  1.00  0.00     0.049 A 
ATOM     74  H   UNL     1      19.206   0.889  -5.838  1.00  0.00     0.167 HD
ATOM     75  C   UNL     1      19.788  -1.169  -7.699  1.00  0.00     0.074 A 
ATOM     76  C   UNL     1      19.816  -2.468  -8.338  1.00  0.00     0.031 C 
ATOM     77  C   UNL     1      20.369  -0.055  -8.206  1.00  0.00     0.037 A 
BRANCH  64  78
ATOM     78  C   UNL     1      19.567   5.004  -4.747  1.00  0.00     0.064 A 
ATOM     79  C   UNL     1      20.398   5.513  -3.737  1.00  0.00     0.173 A 
ATOM     80  C   UNL     1      18.988   5.919  -5.641  1.00  0.00     0.173 A 
ATOM     81  F   UNL     1      20.969   4.683  -2.851  1.00  0.00    -0.203 F 
ATOM     82  C   UNL     1      20.615   6.882  -3.609  1.00  0.00     0.198 A 
ATOM     83  C   UNL     1      19.236   7.285  -5.530  1.00  0.00     0.198 A 
ATOM     84  F   UNL     1      18.192   5.488  -6.630  1.00  0.00    -0.203 F 
ATOM     85  F   UNL     1      21.371   7.347  -2.604  1.00  0.00    -0.200 F 
ATOM     86  C   UNL     1      20.041   7.766  -4.509  1.00  0.00     0.200 A 
ATOM     87  F   UNL     1      18.692   8.137  -6.411  1.00  0.00    -0.200 F 
ATOM     88  F   UNL     1      20.259   9.083  -4.389  1.00  0.00    -0.200 F 
ENDBRANCH  64  78
BRANCH  65  89
ATOM     89  C   UNL     1      17.648  -4.764  -5.544  1.00  0.00     0.064 A 
ATOM     90  C   UNL     1      18.681  -5.711  -5.511  1.00  0.00     0.173 A 
ATOM     91  C   UNL     1      16.339  -5.236  -5.722  1.00  0.00     0.173 A 
ATOM     92  F   UNL     1      19.953  -5.309  -5.364  1.00  0.00    -0.203 F 
ATOM     93  C   UNL     1      18.420  -7.070  -5.676  1.00  0.00     0.198 A 
ATOM     94  C   UNL     1      16.075  -6.598  -5.853  1.00  0.00     0.198 A 
ATOM     95  F   UNL     1      15.312  -4.373  -5.757  1.00  0.00    -0.203 F 
ATOM     96  F   UNL     1      19.433  -7.947  -5.693  1.00  0.00    -0.200 F 
ATOM     97  C   UNL     1      17.116  -7.513  -5.840  1.00  0.00     0.200 A 
ATOM     98  F   UNL     1      14.812  -7.022  -5.995  1.00  0.00    -0.200 F 
ATOM     99  F   UNL     1      16.865  -8.819  -5.995  1.00  0.00    -0.200 F 
ENDBRANCH  65  89
BRANCH  77 100
ATOM    100  C   UNL     1      21.124  -0.196  -9.498  1.00  0.00     0.064 A 
ATOM    101  C   UNL     1      20.469  -0.427 -10.717  1.00  0.00     0.173 A 
ATOM    102  C   UNL     1      22.521  -0.062  -9.521  1.00  0.00     0.173 A 
ATOM    103  F   UNL     1      19.136  -0.578 -10.750  1.00  0.00    -0.203 F 
ATOM    104  C   UNL     1      21.187  -0.546 -11.905  1.00  0.00     0.198 A 
ATOM    105  C   UNL     1      23.232  -0.146 -10.714  1.00  0.00     0.198 A 
ATOM    106  F   UNL     1      23.197   0.167  -8.384  1.00  0.00    -0.203 F 
ATOM    107  F   UNL     1      20.544  -0.820 -13.049  1.00  0.00    -0.200 F 
ATOM    108  C   UNL     1      22.566  -0.398 -11.904  1.00  0.00     0.200 A 
ATOM    109  F   UNL     1      24.563   0.014 -10.713  1.00  0.00    -0.200 F 
ATOM    110  F   UNL     1      23.254  -0.504 -13.049  1.00  0.00    -0.200 F 
ENDBRANCH  77 100
ENDBRANCH  51  52
ENDBRANCH  43  46
ENDBRANCH  41  42
ENDBRANCH  40  41
ENDBRANCH  39  40
ENDBRANCH  38  39
ENDBRANCH   1  38
TORSDOF 18
