REMARK SMILES CC[C@](C)(NC(=O)NC[C@@H](C)[NH+](C)C)C(=O)NCCCCCCNC(=O)c1ccc(-c2c3nc(c(-c4c(F)c(F)c(F)c(F)c4F)c4ccc([nH]4)c(-c4c(F)c(F)c(F)c(F)c4F)c4nc(c(-c5c(F)c(F)c(F)c(F)c5F)c5ccc2[nH]5)C=C4)C=C3)cc1
REMARK SMILES IDX 19 1 18 2 17 3 15 4 16 5 3 7 4 8 2 9 1 10 5 11 6 12 7 14
REMARK SMILES IDX 8 15 9 17 10 18 11 19 12 20 13 21 14 22 20 24 21 25 22 26
REMARK SMILES IDX 23 27 24 28 25 29 26 31 27 32 28 33 89 34 29 35 88 36 30 37
REMARK SMILES IDX 31 38 32 39 82 40 33 41 87 42 81 43 83 44 34 45 86 46 80 47
REMARK SMILES IDX 79 48 35 50 67 51 47 52 66 53 48 54 51 55 65 56 84 57 49 58
REMARK SMILES IDX 50 59 64 61 85 62 52 63 36 64 37 65 45 66 38 67 39 68 43 69
REMARK SMILES IDX 46 70 40 71 41 72 44 73 42 74 68 75 69 76 77 77 70 78 71 79
REMARK SMILES IDX 75 80 78 81 72 82 73 83 76 84 74 85 53 86 54 87 62 88 55 89
REMARK SMILES IDX 56 90 60 91 63 92 57 93 58 94 61 95 59 96
REMARK H PARENT 17 6 5 13 8 16 12 23 24 30 83 49 51 60
REMARK Flexibility Score: inf
ROOT
ATOM      1  C   UNL     1       2.261   3.354   5.166  1.00  0.00     0.021 C 
ENDROOT
BRANCH   1   2
ATOM      2  C   UNL     1       1.837   3.700   3.731  1.00  0.00     0.116 C 
BRANCH   2   3
ATOM      3  N   UNL     1       2.455   3.020   2.601  1.00  0.00    -0.354 N 
ATOM      4  C   UNL     1       2.041   2.001   1.779  1.00  0.00     0.245 C 
ATOM      5  O   UNL     1       2.535   1.961   0.646  1.00  0.00    -0.272 OA
ATOM      6  H   UNL     1       3.352   3.361   2.381  1.00  0.00     0.163 HD
BRANCH   4   7
ATOM      7  C   UNL     1       0.891   1.040   2.163  1.00  0.00     0.117 C 
ATOM      8  C   UNL     1       0.857  -0.280   1.368  1.00  0.00     0.045 C 
BRANCH   7   9
ATOM      9  C   UNL     1      -0.429   1.825   1.847  1.00  0.00     0.035 C 
ATOM     10  C   UNL     1      -0.776   1.942   0.360  1.00  0.00     0.007 C 
ENDBRANCH   7   9
BRANCH   7  11
ATOM     11  N   UNL     1       0.971   0.709   3.596  1.00  0.00    -0.324 N 
ATOM     12  C   UNL     1       1.874   0.104   4.376  1.00  0.00     0.315 C 
ATOM     13  H   UNL     1       0.174   1.001   4.096  1.00  0.00     0.166 HD
ATOM     14  O   UNL     1       1.498  -0.202   5.514  1.00  0.00    -0.249 OA
ATOM     15  N   UNL     1       3.151  -0.152   4.078  1.00  0.00    -0.332 N 
ATOM     16  H   UNL     1       3.629  -0.506   4.863  1.00  0.00     0.165 HD
BRANCH  15  17
ATOM     17  C   UNL     1       4.051  -0.058   2.920  1.00  0.00     0.182 C 
BRANCH  17  18
ATOM     18  C   UNL     1       5.056   1.138   2.961  1.00  0.00     0.200 C 
ATOM     19  C   UNL     1       6.237   0.861   3.901  1.00  0.00     0.077 C 
BRANCH  18  20
ATOM     20  N   UNL     1       5.454   1.606   1.619  1.00  0.00    -0.336 N 
ATOM     21  C   UNL     1       6.105   2.912   1.608  1.00  0.00     0.332 C 
ATOM     22  C   UNL     1       6.186   0.643   0.813  1.00  0.00     0.332 C 
ATOM     23  H   UNL     1       4.551   1.719   1.159  1.00  0.00     0.347 HD
ENDBRANCH  18  20
ENDBRANCH  17  18
ENDBRANCH  15  17
ENDBRANCH   7  11
ENDBRANCH   4   7
ENDBRANCH   2   3
ENDBRANCH   1   2
BRANCH   1  24
ATOM     24  C   UNL     1       3.740   3.358   5.553  1.00  0.00     0.002 C 
BRANCH  24  25
ATOM     25  C   UNL     1       4.563   4.531   5.031  1.00  0.00     0.002 C 
BRANCH  25  26
ATOM     26  C   UNL     1       4.174   5.879   5.633  1.00  0.00     0.021 C 
BRANCH  26  27
ATOM     27  C   UNL     1       4.351   5.967   7.143  1.00  0.00     0.116 C 
BRANCH  27  28
ATOM     28  N   UNL     1       5.738   5.838   7.564  1.00  0.00    -0.352 N 
ATOM     29  C   UNL     1       6.381   6.509   8.579  1.00  0.00     0.251 C 
ATOM     30  H   UNL     1       6.283   5.190   7.061  1.00  0.00     0.163 HD
ATOM     31  O   UNL     1       7.584   6.405   8.746  1.00  0.00    -0.269 OA
BRANCH  29  32
ATOM     32  C   UNL     1       5.579   7.400   9.444  1.00  0.00     0.039 A 
ATOM     33  C   UNL     1       5.986   8.724   9.608  1.00  0.00     0.014 A 
ATOM     34  C   UNL     1       4.393   6.939  10.023  1.00  0.00     0.014 A 
ATOM     35  C   UNL     1       5.161   9.610  10.301  1.00  0.00     0.010 A 
ATOM     36  C   UNL     1       3.537   7.841  10.644  1.00  0.00     0.010 A 
ATOM     37  C   UNL     1       3.913   9.185  10.790  1.00  0.00    -0.014 A 
BRANCH  37  38
ATOM     38  C   UNL     1       2.989  10.147  11.439  1.00  0.00     0.031 A 
ATOM     39  C   UNL     1       2.623   9.992  12.887  1.00  0.00     0.074 A 
ATOM     40  C   UNL     1       2.444  11.136  10.705  1.00  0.00     0.049 A 
ATOM     41  N   UNL     1       1.858  10.749  13.633  1.00  0.00    -0.248 NA
ATOM     42  C   UNL     1       3.164   8.815  13.585  1.00  0.00     0.031 C 
ATOM     43  C   UNL     1       2.664  11.345   9.272  1.00  0.00     0.029 A 
ATOM     44  N   UNL     1       1.598  12.155  11.062  1.00  0.00    -0.354 N 
ATOM     45  C   UNL     1       1.819  10.136  14.878  1.00  0.00     0.074 A 
ATOM     46  C   UNL     1       2.584   8.913  14.771  1.00  0.00     0.031 C 
ATOM     47  C   UNL     1       2.011  12.451   8.884  1.00  0.00     0.029 A 
ATOM     48  C   UNL     1       1.304  13.012  10.030  1.00  0.00     0.049 A 
ATOM     49  H   UNL     1       1.237  12.262  11.972  1.00  0.00     0.167 HD
ATOM     50  C   UNL     1       1.223  10.569  16.014  1.00  0.00     0.037 A 
ATOM     51  C   UNL     1       0.557  14.132  10.016  1.00  0.00     0.037 A 
ATOM     52  C   UNL     1       0.482  11.799  16.118  1.00  0.00     0.049 A 
ATOM     53  C   UNL     1      -0.084  14.599  11.294  1.00  0.00     0.074 A 
ATOM     54  C   UNL     1      -0.090  12.371  17.240  1.00  0.00     0.029 A 
ATOM     55  N   UNL     1       0.202  12.643  15.052  1.00  0.00    -0.354 N 
ATOM     56  N   UNL     1      -0.029  14.067  12.491  1.00  0.00    -0.248 NA
ATOM     57  C   UNL     1      -0.884  15.828  11.219  1.00  0.00     0.031 C 
ATOM     58  C   UNL     1      -0.763  13.533  16.843  1.00  0.00     0.029 A 
ATOM     59  C   UNL     1      -0.563  13.715  15.484  1.00  0.00     0.049 A 
ATOM     60  H   UNL     1       0.503  12.501  14.125  1.00  0.00     0.167 HD
ATOM     61  C   UNL     1      -0.766  14.906  13.316  1.00  0.00     0.074 A 
ATOM     62  C   UNL     1      -1.236  15.996  12.485  1.00  0.00     0.031 C 
ATOM     63  C   UNL     1      -1.032  14.785  14.640  1.00  0.00     0.037 A 
BRANCH  50  64
ATOM     64  C   UNL     1       1.347   9.700  17.234  1.00  0.00     0.064 A 
ATOM     65  C   UNL     1       2.576   9.516  17.887  1.00  0.00     0.173 A 
ATOM     66  C   UNL     1       0.221   9.056  17.766  1.00  0.00     0.173 A 
ATOM     67  F   UNL     1       3.688  10.099  17.414  1.00  0.00    -0.203 F 
ATOM     68  C   UNL     1       2.679   8.688  19.003  1.00  0.00     0.198 A 
ATOM     69  C   UNL     1       0.321   8.256  18.902  1.00  0.00     0.198 A 
ATOM     70  F   UNL     1      -0.980   9.201  17.185  1.00  0.00    -0.203 F 
ATOM     71  F   UNL     1       3.874   8.480  19.572  1.00  0.00    -0.200 F 
ATOM     72  C   UNL     1       1.551   8.064  19.513  1.00  0.00     0.200 A 
ATOM     73  F   UNL     1      -0.773   7.664  19.401  1.00  0.00    -0.200 F 
ATOM     74  F   UNL     1       1.651   7.270  20.588  1.00  0.00    -0.200 F 
ENDBRANCH  50  64
BRANCH  51  75
ATOM     75  C   UNL     1       0.422  14.919   8.762  1.00  0.00     0.064 A 
ATOM     76  C   UNL     1       1.031  16.176   8.637  1.00  0.00     0.173 A 
ATOM     77  C   UNL     1      -0.308  14.435   7.668  1.00  0.00     0.173 A 
ATOM     78  F   UNL     1       1.724  16.690   9.664  1.00  0.00    -0.203 F 
ATOM     79  C   UNL     1       0.898  16.927   7.471  1.00  0.00     0.198 A 
ATOM     80  C   UNL     1      -0.416  15.175   6.492  1.00  0.00     0.198 A 
ATOM     81  F   UNL     1      -0.904  13.236   7.735  1.00  0.00    -0.203 F 
ATOM     82  F   UNL     1       1.455  18.144   7.394  1.00  0.00    -0.200 F 
ATOM     83  C   UNL     1       0.181  16.424   6.397  1.00  0.00     0.200 A 
ATOM     84  F   UNL     1      -1.098  14.679   5.451  1.00  0.00    -0.200 F 
ATOM     85  F   UNL     1       0.059  17.143   5.274  1.00  0.00    -0.200 F 
ENDBRANCH  51  75
BRANCH  63  86
ATOM     86  C   UNL     1      -1.858  15.871  15.270  1.00  0.00     0.064 A 
ATOM     87  C   UNL     1      -3.222  16.020  14.978  1.00  0.00     0.173 A 
ATOM     88  C   UNL     1      -1.281  16.765  16.184  1.00  0.00     0.173 A 
ATOM     89  F   UNL     1      -3.818  15.200  14.099  1.00  0.00    -0.203 F 
ATOM     90  C   UNL     1      -3.968  17.049  15.548  1.00  0.00     0.198 A 
ATOM     91  C   UNL     1      -2.038  17.771  16.778  1.00  0.00     0.198 A 
ATOM     92  F   UNL     1       0.018  16.662  16.504  1.00  0.00    -0.203 F 
ATOM     93  F   UNL     1      -5.253  17.210  15.205  1.00  0.00    -0.200 F 
ATOM     94  C   UNL     1      -3.377  17.919  16.451  1.00  0.00     0.200 A 
ATOM     95  F   UNL     1      -1.469  18.602  17.662  1.00  0.00    -0.200 F 
ATOM     96  F   UNL     1      -4.096  18.909  16.998  1.00  0.00    -0.200 F 
ENDBRANCH  63  86
ENDBRANCH  37  38
ENDBRANCH  29  32
ENDBRANCH  27  28
ENDBRANCH  26  27
ENDBRANCH  25  26
ENDBRANCH  24  25
ENDBRANCH   1  24
TORSDOF 18
