REMARK SMILES O=C(NCCCCCCNC(=O)c1cccnc1Nc1cccc(C(F)(F)F)c1)c1ccc(-c2c3nc(c(-c4c(F)c(F)c(F)c(F)c4F)c4ccc([nH]4)c(-c4c(F)c(F)c(F)c(F)c4F)c4nc(c(-c5c(F)c(F)c(F)c(F)c5F)c5ccc2[nH]5)C=C4)C=C3)cc1
REMARK SMILES IDX 7 1 6 2 5 3 4 4 3 5 1 6 2 7 30 9 31 10 92 11 32 12 91 13
REMARK SMILES IDX 33 14 34 15 35 16 85 17 36 18 90 19 84 20 86 21 37 22 89 23
REMARK SMILES IDX 83 24 82 25 38 27 70 28 50 29 69 30 51 31 54 32 68 33 87 34
REMARK SMILES IDX 52 35 53 36 67 38 88 39 55 40 39 41 40 42 48 43 41 44 42 45
REMARK SMILES IDX 46 46 49 47 43 48 44 49 47 50 45 51 71 52 72 53 80 54 73 55
REMARK SMILES IDX 74 56 78 57 81 58 75 59 76 60 79 61 77 62 56 63 57 64 65 65
REMARK SMILES IDX 58 66 59 67 63 68 66 69 60 70 61 71 64 72 62 73 8 74 9 75
REMARK SMILES IDX 10 76 11 77 12 79 13 80 14 81 18 82 15 83 17 84 16 85 19 86
REMARK SMILES IDX 20 88 21 89 29 90 22 91 24 92 23 93 25 94 26 95 27 96 28 97
REMARK H PARENT 3 8 86 26 54 37 10 78 19 87
REMARK Flexibility Score: inf
ROOT
ATOM      1  C   UNL     1       4.867   0.122  -4.437  1.00  0.00     0.002 C 
ENDROOT
BRANCH   1   2
ATOM      2  C   UNL     1       4.284  -1.141  -3.796  1.00  0.00     0.002 C 
BRANCH   2   3
ATOM      3  C   UNL     1       4.739  -1.419  -2.364  1.00  0.00     0.021 C 
BRANCH   3   4
ATOM      4  C   UNL     1       4.499  -0.281  -1.382  1.00  0.00     0.116 C 
BRANCH   4   5
ATOM      5  N   UNL     1       3.087  -0.014  -1.170  1.00  0.00    -0.352 N 
ATOM      6  O   UNL     1       1.159   0.122  -0.003  1.00  0.00    -0.269 OA
ATOM      7  C   UNL     1       2.383   0.041   0.008  1.00  0.00     0.251 C 
ATOM      8  H   UNL     1       2.560   0.150  -1.986  1.00  0.00     0.163 HD
BRANCH   7   9
ATOM      9  C   UNL     1       3.106  -0.022   1.296  1.00  0.00     0.039 A 
ATOM     10  C   UNL     1       4.260   0.737   1.505  1.00  0.00     0.014 A 
ATOM     11  C   UNL     1       2.614  -0.846   2.313  1.00  0.00     0.014 A 
ATOM     12  C   UNL     1       4.993   0.573   2.674  1.00  0.00     0.010 A 
ATOM     13  C   UNL     1       3.306  -0.944   3.523  1.00  0.00     0.010 A 
ATOM     14  C   UNL     1       4.515  -0.255   3.704  1.00  0.00    -0.014 A 
BRANCH  14  15
ATOM     15  C   UNL     1       5.258  -0.321   4.987  1.00  0.00     0.031 A 
ATOM     16  C   UNL     1       5.905  -1.595   5.449  1.00  0.00     0.074 A 
ATOM     17  C   UNL     1       5.360   0.799   5.728  1.00  0.00     0.049 A 
ATOM     18  N   UNL     1       6.598  -1.820   6.538  1.00  0.00    -0.248 NA
ATOM     19  C   UNL     1       5.751  -2.774   4.584  1.00  0.00     0.031 C 
ATOM     20  C   UNL     1       4.760   2.090   5.383  1.00  0.00     0.029 A 
ATOM     21  N   UNL     1       6.011   1.040   6.910  1.00  0.00    -0.354 N 
ATOM     22  C   UNL     1       6.949  -3.162   6.498  1.00  0.00     0.074 A 
ATOM     23  C   UNL     1       6.370  -3.711   5.289  1.00  0.00     0.031 C 
ATOM     24  C   UNL     1       5.104   2.996   6.309  1.00  0.00     0.029 A 
ATOM     25  C   UNL     1       5.894   2.338   7.343  1.00  0.00     0.049 A 
ATOM     26  H   UNL     1       6.512   0.350   7.401  1.00  0.00     0.167 HD
ATOM     27  C   UNL     1       7.694  -3.866   7.385  1.00  0.00     0.037 A 
ATOM     28  C   UNL     1       6.355   2.930   8.460  1.00  0.00     0.037 A 
ATOM     29  C   UNL     1       8.274  -3.308   8.581  1.00  0.00     0.049 A 
ATOM     30  C   UNL     1       7.151   2.117   9.439  1.00  0.00     0.074 A 
ATOM     31  C   UNL     1       9.072  -3.931   9.526  1.00  0.00     0.029 A 
ATOM     32  N   UNL     1       8.110  -1.995   9.002  1.00  0.00    -0.354 N 
ATOM     33  N   UNL     1       7.509   0.858   9.369  1.00  0.00    -0.248 NA
ATOM     34  C   UNL     1       7.605   2.806  10.653  1.00  0.00     0.031 C 
ATOM     35  C   UNL     1       9.352  -3.009  10.541  1.00  0.00     0.029 A 
ATOM     36  C   UNL     1       8.773  -1.797  10.204  1.00  0.00     0.049 A 
ATOM     37  H   UNL     1       7.600  -1.307   8.518  1.00  0.00     0.167 HD
ATOM     38  C   UNL     1       8.244   0.607  10.518  1.00  0.00     0.074 A 
ATOM     39  C   UNL     1       8.299   1.852  11.257  1.00  0.00     0.031 C 
ATOM     40  C   UNL     1       8.818  -0.551  10.927  1.00  0.00     0.037 A 
BRANCH  27  41
ATOM     41  C   UNL     1       7.916  -5.325   7.109  1.00  0.00     0.064 A 
ATOM     42  C   UNL     1       8.757  -5.761   6.074  1.00  0.00     0.173 A 
ATOM     43  C   UNL     1       7.323  -6.302   7.925  1.00  0.00     0.173 A 
ATOM     44  F   UNL     1       9.342  -4.870   5.259  1.00  0.00    -0.203 F 
ATOM     45  C   UNL     1       8.978  -7.119   5.852  1.00  0.00     0.198 A 
ATOM     46  C   UNL     1       7.567  -7.657   7.717  1.00  0.00     0.198 A 
ATOM     47  F   UNL     1       6.516  -5.941   8.933  1.00  0.00    -0.203 F 
ATOM     48  F   UNL     1       9.753  -7.511   4.831  1.00  0.00    -0.200 F 
ATOM     49  C   UNL     1       8.389  -8.065   6.677  1.00  0.00     0.200 A 
ATOM     50  F   UNL     1       7.008  -8.569   8.524  1.00  0.00    -0.200 F 
ATOM     51  F   UNL     1       8.610  -9.370   6.468  1.00  0.00    -0.200 F 
ENDBRANCH  27  41
BRANCH  28  52
ATOM     52  C   UNL     1       6.066   4.366   8.704  1.00  0.00     0.064 A 
ATOM     53  C   UNL     1       7.088   5.324   8.667  1.00  0.00     0.173 A 
ATOM     54  C   UNL     1       4.761   4.811   8.966  1.00  0.00     0.173 A 
ATOM     55  F   UNL     1       8.354   4.945   8.438  1.00  0.00    -0.203 F 
ATOM     56  C   UNL     1       6.817   6.671   8.896  1.00  0.00     0.198 A 
ATOM     57  C   UNL     1       4.488   6.161   9.164  1.00  0.00     0.198 A 
ATOM     58  F   UNL     1       3.748   3.933   9.006  1.00  0.00    -0.203 F 
ATOM     59  F   UNL     1       7.818   7.562   8.895  1.00  0.00    -0.200 F 
ATOM     60  C   UNL     1       5.517   7.090   9.137  1.00  0.00     0.200 A 
ATOM     61  F   UNL     1       3.227   6.563   9.377  1.00  0.00    -0.200 F 
ATOM     62  F   UNL     1       5.256   8.387   9.348  1.00  0.00    -0.200 F 
ENDBRANCH  28  52
BRANCH  40  63
ATOM     63  C   UNL     1       9.578  -0.514  12.219  1.00  0.00     0.064 A 
ATOM     64  C   UNL     1       8.923  -0.410  13.455  1.00  0.00     0.173 A 
ATOM     65  C   UNL     1      10.978  -0.608  12.222  1.00  0.00     0.173 A 
ATOM     66  F   UNL     1       7.587  -0.299  13.504  1.00  0.00    -0.203 F 
ATOM     67  C   UNL     1       9.645  -0.372  14.646  1.00  0.00     0.198 A 
ATOM     68  C   UNL     1      11.694  -0.600  13.416  1.00  0.00     0.198 A 
ATOM     69  F   UNL     1      11.652  -0.714  11.067  1.00  0.00    -0.203 F 
ATOM     70  F   UNL     1       9.002  -0.219  15.812  1.00  0.00    -0.200 F 
ATOM     71  C   UNL     1      11.028  -0.473  14.625  1.00  0.00     0.200 A 
ATOM     72  F   UNL     1      13.029  -0.710  13.395  1.00  0.00    -0.200 F 
ATOM     73  F   UNL     1      11.720  -0.440  15.772  1.00  0.00    -0.200 F 
ENDBRANCH  40  63
ENDBRANCH  14  15
ENDBRANCH   7   9
ENDBRANCH   4   5
ENDBRANCH   3   4
ENDBRANCH   2   3
ENDBRANCH   1   2
BRANCH   1  74
ATOM     74  C   UNL     1       6.394   0.244  -4.391  1.00  0.00     0.021 C 
BRANCH  74  75
ATOM     75  C   UNL     1       7.155  -0.943  -4.978  1.00  0.00     0.116 C 
BRANCH  75  76
ATOM     76  N   UNL     1       6.877  -1.107  -6.393  1.00  0.00    -0.352 N 
ATOM     77  C   UNL     1       7.748  -1.023  -7.449  1.00  0.00     0.255 C 
ATOM     78  H   UNL     1       5.941  -1.304  -6.626  1.00  0.00     0.163 HD
ATOM     79  O   UNL     1       7.321  -0.888  -8.592  1.00  0.00    -0.269 OA
BRANCH  77  80
ATOM     80  C   UNL     1       9.202  -1.079  -7.216  1.00  0.00     0.082 A 
ATOM     81  C   UNL     1       9.746  -2.114  -6.443  1.00  0.00     0.019 A 
ATOM     82  C   UNL     1      10.053  -0.151  -7.825  1.00  0.00     0.143 A 
ATOM     83  C   UNL     1      11.115  -2.153  -6.221  1.00  0.00     0.021 A 
ATOM     84  N   UNL     1      11.390  -0.189  -7.588  1.00  0.00    -0.238 NA
ATOM     85  C   UNL     1      11.889  -1.168  -6.803  1.00  0.00     0.113 A 
BRANCH  82  86
ATOM     86  N   UNL     1       9.539   0.903  -8.612  1.00  0.00    -0.340 N 
ATOM     87  H   UNL     1       8.569   1.066  -8.564  1.00  0.00     0.168 HD
BRANCH  86  88
ATOM     88  C   UNL     1      10.287   1.743  -9.457  1.00  0.00     0.040 A 
ATOM     89  C   UNL     1      10.002   3.109  -9.513  1.00  0.00     0.026 A 
ATOM     90  C   UNL     1      11.248   1.218 -10.330  1.00  0.00     0.039 A 
ATOM     91  C   UNL     1      10.723   3.949 -10.365  1.00  0.00     0.003 A 
ATOM     92  C   UNL     1      11.968   2.043 -11.206  1.00  0.00     0.058 A 
ATOM     93  C   UNL     1      11.705   3.420 -11.203  1.00  0.00     0.013 A 
BRANCH  92  94
ATOM     94  C   UNL     1      13.014   1.463 -12.120  1.00  0.00     0.416 C 
ATOM     95  F   UNL     1      12.832   1.834 -13.420  1.00  0.00    -0.166 F 
ATOM     96  F   UNL     1      14.274   1.864 -11.794  1.00  0.00    -0.166 F 
ATOM     97  F   UNL     1      13.047   0.101 -12.129  1.00  0.00    -0.166 F 
ENDBRANCH  92  94
ENDBRANCH  86  88
ENDBRANCH  82  86
ENDBRANCH  77  80
ENDBRANCH  75  76
ENDBRANCH  74  75
ENDBRANCH   1  74
TORSDOF 16
