REMARK SMILES C=Cc1cccc(-c2ccc([C@@H](C)C(=O)NCCCCCCNC(=O)c3ccc(-c4c5nc(c(-c6c(F)c(F)c(F)c(F)c6F)c6ccc([nH]6)c(-c6c(F)c(F)c(F)c(F)c6F)c6nc(c(-c7c(F)c(F)c(F)c(F)c7F)c7ccc4[nH]7)C=C6)C=C5)cc3)cc2)c1
REMARK SMILES IDX 19 1 18 2 17 3 16 4 14 5 15 6 12 8 13 9 11 10 8 11 9 12
REMARK SMILES IDX 90 13 10 14 89 15 7 16 3 17 4 18 91 19 5 20 6 21 2 22 1 23
REMARK SMILES IDX 20 24 21 25 22 26 23 27 24 28 25 30 26 31 27 32 88 33 28 34
REMARK SMILES IDX 87 35 29 36 30 37 31 38 81 39 32 40 86 41 80 42 82 43 33 44
REMARK SMILES IDX 85 45 79 46 78 47 34 49 66 50 46 51 65 52 47 53 50 54 64 55
REMARK SMILES IDX 83 56 48 57 49 58 63 60 84 61 51 62 35 63 36 64 44 65 37 66
REMARK SMILES IDX 38 67 42 68 45 69 39 70 40 71 43 72 41 73 67 74 68 75 76 76
REMARK SMILES IDX 69 77 70 78 74 79 77 80 71 81 72 82 75 83 73 84 52 85 53 86
REMARK SMILES IDX 61 87 54 88 55 89 59 90 62 91 56 92 57 93 60 94 58 95
REMARK H PARENT 16 7 23 29 82 48 50 59
REMARK Flexibility Score: inf
ROOT
ATOM      1  C   UNL     1      -6.061  -2.401  -5.420  1.00  0.00     0.002 C 
ENDROOT
BRANCH   1   2
ATOM      2  C   UNL     1      -6.195  -2.712  -3.925  1.00  0.00     0.021 C 
BRANCH   2   3
ATOM      3  C   UNL     1      -6.934  -4.016  -3.622  1.00  0.00     0.116 C 
BRANCH   3   4
ATOM      4  N   UNL     1      -6.041  -5.155  -3.611  1.00  0.00    -0.356 N 
ATOM      5  C   UNL     1      -5.501  -5.866  -2.584  1.00  0.00     0.227 C 
ATOM      6  O   UNL     1      -4.694  -6.752  -2.891  1.00  0.00    -0.274 OA
ATOM      7  H   UNL     1      -5.777  -5.472  -4.505  1.00  0.00     0.163 HD
BRANCH   5   8
ATOM      8  C   UNL     1      -5.850  -5.626  -1.107  1.00  0.00     0.105 C 
ATOM      9  C   UNL     1      -7.329  -5.824  -0.772  1.00  0.00     0.023 C 
BRANCH   8  10
ATOM     10  C   UNL     1      -5.184  -4.389  -0.525  1.00  0.00    -0.036 A 
ATOM     11  C   UNL     1      -3.783  -2.099   0.468  1.00  0.00    -0.018 A 
ATOM     12  C   UNL     1      -5.098  -2.008  -0.017  1.00  0.00     0.009 A 
ATOM     13  C   UNL     1      -3.199  -3.376   0.474  1.00  0.00     0.009 A 
ATOM     14  C   UNL     1      -5.794  -3.133  -0.480  1.00  0.00     0.005 A 
ATOM     15  C   UNL     1      -3.876  -4.494  -0.029  1.00  0.00     0.005 A 
BRANCH  11  16
ATOM     16  C   UNL     1      -3.045  -0.903   0.939  1.00  0.00    -0.018 A 
ATOM     17  C   UNL     1      -0.941   0.356   1.167  1.00  0.00    -0.026 A 
ATOM     18  C   UNL     1      -1.626   1.374   1.834  1.00  0.00     0.008 A 
ATOM     19  C   UNL     1      -1.657  -0.770   0.729  1.00  0.00     0.016 A 
ATOM     20  C   UNL     1      -3.000   1.276   2.046  1.00  0.00     0.001 A 
ATOM     21  C   UNL     1      -3.697   0.147   1.608  1.00  0.00     0.009 A 
BRANCH  17  22
ATOM     22  C   UNL     1       0.514   0.467   1.006  1.00  0.00     0.000 C 
ATOM     23  C   UNL     1       1.188   0.067  -0.080  1.00  0.00     0.009 C 
ENDBRANCH  17  22
ENDBRANCH  11  16
ENDBRANCH   8  10
ENDBRANCH   5   8
ENDBRANCH   3   4
ENDBRANCH   2   3
ENDBRANCH   1   2
BRANCH   1  24
ATOM     24  C   UNL     1      -7.383  -2.169  -6.164  1.00  0.00     0.002 C 
BRANCH  24  25
ATOM     25  C   UNL     1      -8.305  -1.096  -5.572  1.00  0.00     0.021 C 
BRANCH  25  26
ATOM     26  C   UNL     1      -7.697   0.302  -5.465  1.00  0.00     0.116 C 
BRANCH  26  27
ATOM     27  N   UNL     1      -7.320   0.836  -6.762  1.00  0.00    -0.352 N 
ATOM     28  C   UNL     1      -7.705   1.988  -7.399  1.00  0.00     0.251 C 
ATOM     29  H   UNL     1      -6.684   0.280  -7.267  1.00  0.00     0.163 HD
ATOM     30  O   UNL     1      -7.419   2.148  -8.583  1.00  0.00    -0.269 OA
BRANCH  28  31
ATOM     31  C   UNL     1      -8.470   3.039  -6.690  1.00  0.00     0.039 A 
ATOM     32  C   UNL     1      -9.495   3.693  -7.382  1.00  0.00     0.014 A 
ATOM     33  C   UNL     1      -8.148   3.436  -5.389  1.00  0.00     0.014 A 
ATOM     34  C   UNL     1     -10.224   4.708  -6.757  1.00  0.00     0.010 A 
ATOM     35  C   UNL     1      -8.913   4.410  -4.745  1.00  0.00     0.010 A 
ATOM     36  C   UNL     1      -9.954   5.059  -5.425  1.00  0.00    -0.014 A 
BRANCH  36  37
ATOM     37  C   UNL     1     -10.770   6.096  -4.742  1.00  0.00     0.031 A 
ATOM     38  C   UNL     1     -10.168   7.419  -4.357  1.00  0.00     0.074 A 
ATOM     39  C   UNL     1     -12.056   5.831  -4.444  1.00  0.00     0.049 A 
ATOM     40  N   UNL     1     -10.735   8.447  -3.775  1.00  0.00    -0.248 NA
ATOM     41  C   UNL     1      -8.738   7.605  -4.644  1.00  0.00     0.031 C 
ATOM     42  C   UNL     1     -12.740   4.566  -4.714  1.00  0.00     0.029 A 
ATOM     43  N   UNL     1     -13.017   6.609  -3.849  1.00  0.00    -0.354 N 
ATOM     44  C   UNL     1      -9.733   9.395  -3.620  1.00  0.00     0.074 A 
ATOM     45  C   UNL     1      -8.512   8.805  -4.126  1.00  0.00     0.031 C 
ATOM     46  C   UNL     1     -14.017   4.663  -4.313  1.00  0.00     0.029 A 
ATOM     47  C   UNL     1     -14.236   5.987  -3.739  1.00  0.00     0.049 A 
ATOM     48  H   UNL     1     -12.848   7.526  -3.531  1.00  0.00     0.167 HD
ATOM     49  C   UNL     1      -9.828  10.652  -3.123  1.00  0.00     0.037 A 
ATOM     50  C   UNL     1     -15.402   6.438  -3.240  1.00  0.00     0.037 A 
ATOM     51  C   UNL     1     -11.047  11.248  -2.642  1.00  0.00     0.049 A 
ATOM     52  C   UNL     1     -15.486   7.844  -2.715  1.00  0.00     0.074 A 
ATOM     53  C   UNL     1     -11.257  12.537  -2.182  1.00  0.00     0.029 A 
ATOM     54  N   UNL     1     -12.266  10.592  -2.559  1.00  0.00    -0.354 N 
ATOM     55  N   UNL     1     -14.549   8.758  -2.646  1.00  0.00    -0.248 NA
ATOM     56  C   UNL     1     -16.793   8.284  -2.209  1.00  0.00     0.031 C 
ATOM     57  C   UNL     1     -12.595  12.649  -1.786  1.00  0.00     0.029 A 
ATOM     58  C   UNL     1     -13.228  11.443  -2.036  1.00  0.00     0.049 A 
ATOM     59  H   UNL     1     -12.426   9.660  -2.832  1.00  0.00     0.167 HD
ATOM     60  C   UNL     1     -15.154   9.884  -2.107  1.00  0.00     0.074 A 
ATOM     61  C   UNL     1     -16.546   9.546  -1.887  1.00  0.00     0.031 C 
ATOM     62  C   UNL     1     -14.606  11.089  -1.816  1.00  0.00     0.037 A 
BRANCH  49  63
ATOM     63  C   UNL     1      -8.574  11.476  -3.080  1.00  0.00     0.064 A 
ATOM     64  C   UNL     1      -7.996  11.992  -4.250  1.00  0.00     0.173 A 
ATOM     65  C   UNL     1      -7.967  11.790  -1.855  1.00  0.00     0.173 A 
ATOM     66  F   UNL     1      -8.533  11.713  -5.447  1.00  0.00    -0.203 F 
ATOM     67  C   UNL     1      -6.842  12.770  -4.197  1.00  0.00     0.198 A 
ATOM     68  C   UNL     1      -6.828  12.589  -1.803  1.00  0.00     0.198 A 
ATOM     69  F   UNL     1      -8.483  11.327  -0.706  1.00  0.00    -0.203 F 
ATOM     70  F   UNL     1      -6.285  13.216  -5.330  1.00  0.00    -0.200 F 
ATOM     71  C   UNL     1      -6.263  13.073  -2.974  1.00  0.00     0.200 A 
ATOM     72  F   UNL     1      -6.275  12.890  -0.620  1.00  0.00    -0.200 F 
ATOM     73  F   UNL     1      -5.156  13.826  -2.924  1.00  0.00    -0.200 F 
ENDBRANCH  49  63
BRANCH  50  74
ATOM     74  C   UNL     1     -16.598   5.559  -3.253  1.00  0.00     0.064 A 
ATOM     75  C   UNL     1     -17.660   5.805  -4.134  1.00  0.00     0.173 A 
ATOM     76  C   UNL     1     -16.702   4.455  -2.395  1.00  0.00     0.173 A 
ATOM     77  F   UNL     1     -17.613   6.862  -4.959  1.00  0.00    -0.203 F 
ATOM     78  C   UNL     1     -18.789   4.989  -4.146  1.00  0.00     0.198 A 
ATOM     79  C   UNL     1     -17.820   3.625  -2.425  1.00  0.00     0.198 A 
ATOM     80  F   UNL     1     -15.709   4.175  -1.538  1.00  0.00    -0.203 F 
ATOM     81  F   UNL     1     -19.806   5.269  -4.972  1.00  0.00    -0.200 F 
ATOM     82  C   UNL     1     -18.866   3.897  -3.295  1.00  0.00     0.200 A 
ATOM     83  F   UNL     1     -17.886   2.563  -1.610  1.00  0.00    -0.200 F 
ATOM     84  F   UNL     1     -19.949   3.109  -3.310  1.00  0.00    -0.200 F 
ENDBRANCH  50  74
BRANCH  62  85
ATOM     85  C   UNL     1     -15.518  12.130  -1.239  1.00  0.00     0.064 A 
ATOM     86  C   UNL     1     -15.981  12.044   0.083  1.00  0.00     0.173 A 
ATOM     87  C   UNL     1     -15.920  13.233  -2.007  1.00  0.00     0.173 A 
ATOM     88  F   UNL     1     -15.639  10.999   0.851  1.00  0.00    -0.203 F 
ATOM     89  C   UNL     1     -16.836  13.011   0.605  1.00  0.00     0.198 A 
ATOM     90  C   UNL     1     -16.753  14.211  -1.473  1.00  0.00     0.198 A 
ATOM     91  F   UNL     1     -15.501  13.362  -3.275  1.00  0.00    -0.203 F 
ATOM     92  F   UNL     1     -17.305  12.883   1.854  1.00  0.00    -0.200 F 
ATOM     93  C   UNL     1     -17.217  14.096  -0.171  1.00  0.00     0.200 A 
ATOM     94  F   UNL     1     -17.114  15.263  -2.221  1.00  0.00    -0.200 F 
ATOM     95  F   UNL     1     -18.040  15.025   0.333  1.00  0.00    -0.200 F 
ENDBRANCH  62  85
ENDBRANCH  36  37
ENDBRANCH  28  31
ENDBRANCH  26  27
ENDBRANCH  25  26
ENDBRANCH  24  25
ENDBRANCH   1  24
TORSDOF 16
