REMARK SMILES CC(C)[C@H](Sc1ccncc1)C(=O)NCCCCCCNC(=O)c1ccc(-c2c3nc(c(-c4c(F)c(F)c(F)c(F)c4F)c4ccc([nH]4)c(-c4c(F)c(F)c(F)c(F)c4F)c4nc(c(-c5c(F)c(F)c(F)c(F)c5F)c5ccc2[nH]5)C=C4)C=C3)cc1
REMARK SMILES IDX 17 1 16 2 15 3 14 4 12 5 13 6 4 8 2 9 1 10 3 11 5 12 6 13
REMARK SMILES IDX 7 14 11 15 8 16 10 17 9 18 18 19 19 20 20 21 21 22 22 23
REMARK SMILES IDX 23 25 24 26 25 27 86 28 26 29 85 30 27 31 28 32 29 33 79 34
REMARK SMILES IDX 30 35 84 36 78 37 80 38 31 39 83 40 77 41 76 42 32 44 64 45
REMARK SMILES IDX 44 46 63 47 45 48 48 49 62 50 81 51 46 52 47 53 61 55 82 56
REMARK SMILES IDX 49 57 33 58 34 59 42 60 35 61 36 62 40 63 43 64 37 65 38 66
REMARK SMILES IDX 41 67 39 68 65 69 66 70 74 71 67 72 68 73 72 74 75 75 69 76
REMARK SMILES IDX 70 77 73 78 71 79 50 80 51 81 59 82 52 83 53 84 57 85 60 86
REMARK SMILES IDX 54 87 55 88 58 89 56 90
REMARK H PARENT 14 7 21 24 80 43 48 54
REMARK Flexibility Score: inf
ROOT
ATOM      1  C   UNL     1       0.446   6.557  -0.672  1.00  0.00     0.002 C 
ENDROOT
BRANCH   1   2
ATOM      2  C   UNL     1       0.994   5.152  -0.409  1.00  0.00     0.021 C 
BRANCH   2   3
ATOM      3  C   UNL     1      -0.039   4.165   0.119  1.00  0.00     0.116 C 
BRANCH   3   4
ATOM      4  N   UNL     1      -1.009   3.774  -0.885  1.00  0.00    -0.355 N 
ATOM      5  C   UNL     1      -1.487   2.548  -1.243  1.00  0.00     0.233 C 
ATOM      6  O   UNL     1      -2.369   2.534  -2.111  1.00  0.00    -0.274 OA
ATOM      7  H   UNL     1      -1.389   4.524  -1.397  1.00  0.00     0.163 HD
BRANCH   5   8
ATOM      8  C   UNL     1      -1.031   1.224  -0.593  1.00  0.00     0.143 C 
BRANCH   8   9
ATOM      9  C   UNL     1      -1.677   0.950   0.794  1.00  0.00     0.006 C 
ATOM     10  C   UNL     1      -1.388   1.937   1.920  1.00  0.00     0.009 C 
ATOM     11  C   UNL     1      -3.201   0.806   0.646  1.00  0.00     0.009 C 
ENDBRANCH   8   9
BRANCH   8  12
ATOM     12  S   UNL     1       0.809   1.084  -0.764  1.00  0.00    -0.112 SA
BRANCH  12  13
ATOM     13  C   UNL     1       1.253  -0.586  -0.347  1.00  0.00     0.011 A 
ATOM     14  C   UNL     1       0.375  -1.650  -0.176  1.00  0.00     0.035 A 
ATOM     15  C   UNL     1       2.622  -0.828  -0.198  1.00  0.00     0.035 A 
ATOM     16  C   UNL     1       0.894  -2.882   0.194  1.00  0.00     0.112 A 
ATOM     17  C   UNL     1       3.047  -2.096   0.153  1.00  0.00     0.112 A 
ATOM     18  N   UNL     1       2.209  -3.128   0.367  1.00  0.00    -0.265 NA
ENDBRANCH  12  13
ENDBRANCH   8  12
ENDBRANCH   5   8
ENDBRANCH   3   4
ENDBRANCH   2   3
ENDBRANCH   1   2
BRANCH   1  19
ATOM     19  C   UNL     1      -0.325   7.192   0.491  1.00  0.00     0.002 C 
BRANCH  19  20
ATOM     20  C   UNL     1       0.399   7.201   1.841  1.00  0.00     0.021 C 
BRANCH  20  21
ATOM     21  C   UNL     1       1.779   7.845   1.829  1.00  0.00     0.116 C 
BRANCH  21  22
ATOM     22  N   UNL     1       1.738   9.230   1.394  1.00  0.00    -0.352 N 
ATOM     23  C   UNL     1       2.273  10.346   1.983  1.00  0.00     0.251 C 
ATOM     24  H   UNL     1       1.256   9.391   0.550  1.00  0.00     0.163 HD
ATOM     25  O   UNL     1       1.993  11.461   1.558  1.00  0.00    -0.269 OA
BRANCH  23  26
ATOM     26  C   UNL     1       3.170  10.207   3.150  1.00  0.00     0.039 A 
ATOM     27  C   UNL     1       2.998  11.072   4.234  1.00  0.00     0.014 A 
ATOM     28  C   UNL     1       4.184   9.245   3.174  1.00  0.00     0.014 A 
ATOM     29  C   UNL     1       3.806  10.936   5.363  1.00  0.00     0.010 A 
ATOM     30  C   UNL     1       4.938   9.060   4.329  1.00  0.00     0.010 A 
ATOM     31  C   UNL     1       4.762   9.909   5.433  1.00  0.00    -0.014 A 
BRANCH  31  32
ATOM     32  C   UNL     1       5.585   9.713   6.653  1.00  0.00     0.031 A 
ATOM     33  C   UNL     1       7.076   9.892   6.597  1.00  0.00     0.074 A 
ATOM     34  C   UNL     1       4.992   9.322   7.798  1.00  0.00     0.049 A 
ATOM     35  N   UNL     1       7.967   9.717   7.540  1.00  0.00    -0.248 NA
ATOM     36  C   UNL     1       7.647  10.296   5.303  1.00  0.00     0.031 C 
ATOM     37  C   UNL     1       3.560   9.071   7.965  1.00  0.00     0.029 A 
ATOM     38  N   UNL     1       5.522   9.060   9.037  1.00  0.00    -0.354 N 
ATOM     39  C   UNL     1       9.198   9.977   6.952  1.00  0.00     0.074 A 
ATOM     40  C   UNL     1       8.947  10.268   5.557  1.00  0.00     0.031 C 
ATOM     41  C   UNL     1       3.322   8.714   9.236  1.00  0.00     0.029 A 
ATOM     42  C   UNL     1       4.586   8.672   9.964  1.00  0.00     0.049 A 
ATOM     43  H   UNL     1       6.481   9.142   9.241  1.00  0.00     0.167 HD
ATOM     44  C   UNL     1      10.423   9.997   7.529  1.00  0.00     0.037 A 
ATOM     45  C   UNL     1       4.733   8.315  11.254  1.00  0.00     0.037 A 
ATOM     46  C   UNL     1      10.665   9.729   8.923  1.00  0.00     0.049 A 
ATOM     47  C   UNL     1       6.108   8.335  11.867  1.00  0.00     0.074 A 
ATOM     48  C   UNL     1      11.861   9.781   9.617  1.00  0.00     0.029 A 
ATOM     49  N   UNL     1       9.690   9.352   9.835  1.00  0.00    -0.354 N 
ATOM     50  N   UNL     1       7.255   8.654  11.319  1.00  0.00    -0.248 NA
ATOM     51  C   UNL     1       6.206   7.951  13.283  1.00  0.00     0.031 C 
ATOM     52  C   UNL     1      11.620   9.383  10.935  1.00  0.00     0.029 A 
ATOM     53  C   UNL     1      10.263   9.142  11.080  1.00  0.00     0.049 A 
ATOM     54  H   UNL     1       8.733   9.248   9.629  1.00  0.00     0.167 HD
ATOM     55  C   UNL     1       8.204   8.541  12.326  1.00  0.00     0.074 A 
ATOM     56  C   UNL     1       7.496   8.140  13.523  1.00  0.00     0.031 C 
ATOM     57  C   UNL     1       9.543   8.750  12.265  1.00  0.00     0.037 A 
BRANCH  44  58
ATOM     58  C   UNL     1      11.601  10.321   6.654  1.00  0.00     0.064 A 
ATOM     59  C   UNL     1      11.794  11.605   6.124  1.00  0.00     0.173 A 
ATOM     60  C   UNL     1      12.572   9.346   6.379  1.00  0.00     0.173 A 
ATOM     61  F   UNL     1      10.890  12.572   6.347  1.00  0.00    -0.203 F 
ATOM     62  C   UNL     1      12.899  11.894   5.327  1.00  0.00     0.198 A 
ATOM     63  C   UNL     1      13.693   9.647   5.609  1.00  0.00     0.198 A 
ATOM     64  F   UNL     1      12.441   8.103   6.865  1.00  0.00    -0.203 F 
ATOM     65  F   UNL     1      13.036  13.115   4.791  1.00  0.00    -0.200 F 
ATOM     66  C   UNL     1      13.852  10.918   5.077  1.00  0.00     0.200 A 
ATOM     67  F   UNL     1      14.620   8.706   5.381  1.00  0.00    -0.200 F 
ATOM     68  F   UNL     1      14.920  11.200   4.319  1.00  0.00    -0.200 F 
ENDBRANCH  44  58
BRANCH  45  69
ATOM     69  C   UNL     1       3.545   7.926  12.060  1.00  0.00     0.064 A 
ATOM     70  C   UNL     1       3.095   8.730  13.116  1.00  0.00     0.173 A 
ATOM     71  C   UNL     1       2.843   6.740  11.800  1.00  0.00     0.173 A 
ATOM     72  F   UNL     1       3.745   9.865  13.417  1.00  0.00    -0.203 F 
ATOM     73  C   UNL     1       2.006   8.351  13.898  1.00  0.00     0.198 A 
ATOM     74  C   UNL     1       1.735   6.377  12.561  1.00  0.00     0.198 A 
ATOM     75  F   UNL     1       3.228   5.938  10.796  1.00  0.00    -0.203 F 
ATOM     76  F   UNL     1       1.631   9.112  14.935  1.00  0.00    -0.200 F 
ATOM     77  C   UNL     1       1.323   7.177  13.617  1.00  0.00     0.200 A 
ATOM     78  F   UNL     1       1.068   5.251  12.275  1.00  0.00    -0.200 F 
ATOM     79  F   UNL     1       0.275   6.813  14.367  1.00  0.00    -0.200 F 
ENDBRANCH  45  69
BRANCH  57  80
ATOM     80  C   UNL     1      10.324   8.588  13.537  1.00  0.00     0.064 A 
ATOM     81  C   UNL     1      10.539   7.329  14.117  1.00  0.00     0.173 A 
ATOM     82  C   UNL     1      10.898   9.706  14.164  1.00  0.00     0.173 A 
ATOM     83  F   UNL     1      10.000   6.231  13.566  1.00  0.00    -0.203 F 
ATOM     84  C   UNL     1      11.273   7.199  15.294  1.00  0.00     0.198 A 
ATOM     85  C   UNL     1      11.659   9.568  15.320  1.00  0.00     0.198 A 
ATOM     86  F   UNL     1      10.730  10.932  13.646  1.00  0.00    -0.203 F 
ATOM     87  F   UNL     1      11.419   5.993  15.859  1.00  0.00    -0.200 F 
ATOM     88  C   UNL     1      11.839   8.316  15.889  1.00  0.00     0.200 A 
ATOM     89  F   UNL     1      12.219  10.647  15.885  1.00  0.00    -0.200 F 
ATOM     90  F   UNL     1      12.551   8.188  17.017  1.00  0.00    -0.200 F 
ENDBRANCH  57  80
ENDBRANCH  31  32
ENDBRANCH  23  26
ENDBRANCH  21  22
ENDBRANCH  20  21
ENDBRANCH  19  20
ENDBRANCH   1  19
TORSDOF 16
