REMARK SMILES O=C(NCCCCCCNC(=O)[C@H](Cc1cccc(O)c1)Cc1cccc(F)c1)c1ccc(-c2c3nc(c(-c4c(F)c(F)c(F)c(F)c4F)c4ccc([nH]4)c(-c4c(F)c(F)c(F)c(F)c4F)c4nc(c(-c5c(F)c(F)c(F)c(F)c5F)c5ccc2[nH]5)C=C4)C=C3)cc1
REMARK SMILES IDX 7 1 6 2 5 3 4 4 3 5 1 6 2 7 30 9 31 10 92 11 32 12 91 13
REMARK SMILES IDX 33 14 34 15 35 16 85 17 36 18 90 19 84 20 86 21 37 22 89 23
REMARK SMILES IDX 83 24 82 25 38 27 70 28 50 29 69 30 51 31 54 32 68 33 87 34
REMARK SMILES IDX 52 35 53 36 67 38 88 39 55 40 39 41 40 42 48 43 41 44 42 45
REMARK SMILES IDX 46 46 49 47 43 48 44 49 47 50 45 51 71 52 72 53 80 54 73 55
REMARK SMILES IDX 74 56 78 57 81 58 75 59 76 60 79 61 77 62 56 63 57 64 65 65
REMARK SMILES IDX 58 66 59 67 63 68 66 69 60 70 61 71 64 72 62 73 8 74 9 75
REMARK SMILES IDX 10 76 11 77 12 79 13 80 22 81 23 82 24 83 29 84 25 85 27 86
REMARK SMILES IDX 26 87 28 88 14 89 15 90 16 91 21 92 17 93 19 94 18 95 20 96
REMARK H PARENT 3 8 86 26 54 37 10 78 20 97
REMARK Flexibility Score: inf
ROOT
ATOM      1  C   UNL     1       8.637  -8.480  -1.360  1.00  0.00     0.002 C 
ENDROOT
BRANCH   1   2
ATOM      2  C   UNL     1       9.440  -9.726  -1.736  1.00  0.00     0.002 C 
BRANCH   2   3
ATOM      3  C   UNL     1       8.857 -11.058  -1.253  1.00  0.00     0.021 C 
BRANCH   3   4
ATOM      4  C   UNL     1       7.392 -11.292  -1.611  1.00  0.00     0.116 C 
BRANCH   4   5
ATOM      5  N   UNL     1       7.180 -11.356  -3.048  1.00  0.00    -0.352 N 
ATOM      6  O   UNL     1       6.988 -12.332  -5.074  1.00  0.00    -0.269 OA
ATOM      7  C   UNL     1       6.916 -12.436  -3.847  1.00  0.00     0.251 C 
ATOM      8  H   UNL     1       7.234 -10.493  -3.518  1.00  0.00     0.163 HD
BRANCH   7   9
ATOM      9  C   UNL     1       6.557 -13.737  -3.249  1.00  0.00     0.039 A 
ATOM     10  C   UNL     1       5.607 -13.816  -2.227  1.00  0.00     0.014 A 
ATOM     11  C   UNL     1       7.147 -14.901  -3.748  1.00  0.00     0.014 A 
ATOM     12  C   UNL     1       5.343 -15.039  -1.618  1.00  0.00     0.010 A 
ATOM     13  C   UNL     1       6.823 -16.139  -3.188  1.00  0.00     0.010 A 
ATOM     14  C   UNL     1       5.938 -16.215  -2.102  1.00  0.00    -0.014 A 
BRANCH  14  15
ATOM     15  C   UNL     1       5.585 -17.527  -1.502  1.00  0.00     0.031 A 
ATOM     16  C   UNL     1       6.615 -18.345  -0.777  1.00  0.00     0.074 A 
ATOM     17  C   UNL     1       4.322 -17.979  -1.618  1.00  0.00     0.049 A 
ATOM     18  N   UNL     1       6.492 -19.529  -0.230  1.00  0.00    -0.248 NA
ATOM     19  C   UNL     1       7.960 -17.765  -0.655  1.00  0.00     0.031 C 
ATOM     20  C   UNL     1       3.236 -17.271  -2.297  1.00  0.00     0.029 A 
ATOM     21  N   UNL     1       3.736 -19.135  -1.169  1.00  0.00    -0.354 N 
ATOM     22  C   UNL     1       7.742 -19.841   0.286  1.00  0.00     0.074 A 
ATOM     23  C   UNL     1       8.620 -18.736  -0.037  1.00  0.00     0.031 C 
ATOM     24  C   UNL     1       2.110 -17.990  -2.194  1.00  0.00     0.029 A 
ATOM     25  C   UNL     1       2.407 -19.239  -1.500  1.00  0.00     0.049 A 
ATOM     26  H   UNL     1       4.220 -19.824  -0.659  1.00  0.00     0.167 HD
ATOM     27  C   UNL     1       8.117 -20.946   0.974  1.00  0.00     0.037 A 
ATOM     28  C   UNL     1       1.528 -20.237  -1.291  1.00  0.00     0.037 A 
ATOM     29  C   UNL     1       7.233 -22.037   1.298  1.00  0.00     0.049 A 
ATOM     30  C   UNL     1       1.980 -21.474  -0.570  1.00  0.00     0.074 A 
ATOM     31  C   UNL     1       7.512 -23.184   2.020  1.00  0.00     0.029 A 
ATOM     32  N   UNL     1       5.901 -22.119   0.916  1.00  0.00    -0.354 N 
ATOM     33  N   UNL     1       3.159 -21.748  -0.065  1.00  0.00    -0.248 NA
ATOM     34  C   UNL     1       0.987 -22.542  -0.392  1.00  0.00     0.031 C 
ATOM     35  C   UNL     1       6.368 -23.987   2.025  1.00  0.00     0.029 A 
ATOM     36  C   UNL     1       5.354 -23.312   1.364  1.00  0.00     0.049 A 
ATOM     37  H   UNL     1       5.417 -21.433   0.403  1.00  0.00     0.167 HD
ATOM     38  C   UNL     1       3.045 -23.006   0.509  1.00  0.00     0.074 A 
ATOM     39  C   UNL     1       1.679 -23.439   0.298  1.00  0.00     0.031 C 
ATOM     40  C   UNL     1       3.990 -23.731   1.155  1.00  0.00     0.037 A 
BRANCH  27  41
ATOM     41  C   UNL     1       9.548 -21.049   1.418  1.00  0.00     0.064 A 
ATOM     42  C   UNL     1      10.397 -22.019   0.861  1.00  0.00     0.173 A 
ATOM     43  C   UNL     1      10.062 -20.241   2.443  1.00  0.00     0.173 A 
ATOM     44  F   UNL     1       9.954 -22.823  -0.117  1.00  0.00    -0.203 F 
ATOM     45  C   UNL     1      11.700 -22.183   1.322  1.00  0.00     0.198 A 
ATOM     46  C   UNL     1      11.376 -20.388   2.881  1.00  0.00     0.198 A 
ATOM     47  F   UNL     1       9.297 -19.292   3.003  1.00  0.00    -0.203 F 
ATOM     48  F   UNL     1      12.480 -23.139   0.798  1.00  0.00    -0.200 F 
ATOM     49  C   UNL     1      12.191 -21.365   2.328  1.00  0.00     0.200 A 
ATOM     50  F   UNL     1      11.857 -19.580   3.836  1.00  0.00    -0.200 F 
ATOM     51  F   UNL     1      13.449 -21.516   2.763  1.00  0.00    -0.200 F 
ENDBRANCH  27  41
BRANCH  28  52
ATOM     52  C   UNL     1       0.131 -20.082  -1.770  1.00  0.00     0.064 A 
ATOM     53  C   UNL     1      -0.170 -20.056  -3.141  1.00  0.00     0.173 A 
ATOM     54  C   UNL     1      -0.921 -19.889  -0.866  1.00  0.00     0.173 A 
ATOM     55  F   UNL     1       0.804 -20.228  -4.046  1.00  0.00    -0.203 F 
ATOM     56  C   UNL     1      -1.466 -19.809  -3.588  1.00  0.00     0.198 A 
ATOM     57  C   UNL     1      -2.222 -19.671  -1.315  1.00  0.00     0.198 A 
ATOM     58  F   UNL     1      -0.684 -19.923   0.453  1.00  0.00    -0.203 F 
ATOM     59  F   UNL     1      -1.717 -19.738  -4.902  1.00  0.00    -0.200 F 
ATOM     60  C   UNL     1      -2.491 -19.619  -2.675  1.00  0.00     0.200 A 
ATOM     61  F   UNL     1      -3.214 -19.507  -0.429  1.00  0.00    -0.200 F 
ATOM     62  F   UNL     1      -3.738 -19.383  -3.104  1.00  0.00    -0.200 F 
ENDBRANCH  28  52
BRANCH  40  63
ATOM     63  C   UNL     1       3.588 -25.063   1.717  1.00  0.00     0.064 A 
ATOM     64  C   UNL     1       3.516 -25.250   3.106  1.00  0.00     0.173 A 
ATOM     65  C   UNL     1       3.371 -26.175   0.891  1.00  0.00     0.173 A 
ATOM     66  F   UNL     1       3.723 -24.219   3.939  1.00  0.00    -0.203 F 
ATOM     67  C   UNL     1       3.266 -26.508   3.648  1.00  0.00     0.198 A 
ATOM     68  C   UNL     1       3.091 -27.426   1.437  1.00  0.00     0.198 A 
ATOM     69  F   UNL     1       3.415 -26.044  -0.443  1.00  0.00    -0.203 F 
ATOM     70  F   UNL     1       3.247 -26.671   4.978  1.00  0.00    -0.200 F 
ATOM     71  C   UNL     1       3.052 -27.593   2.813  1.00  0.00     0.200 A 
ATOM     72  F   UNL     1       2.862 -28.470   0.629  1.00  0.00    -0.200 F 
ATOM     73  F   UNL     1       2.809 -28.803   3.335  1.00  0.00    -0.200 F 
ENDBRANCH  40  63
ENDBRANCH  14  15
ENDBRANCH   7   9
ENDBRANCH   4   5
ENDBRANCH   3   4
ENDBRANCH   2   3
ENDBRANCH   1   2
BRANCH   1  74
ATOM     74  C   UNL     1       8.279  -8.367   0.121  1.00  0.00     0.021 C 
BRANCH  74  75
ATOM     75  C   UNL     1       9.445  -8.053   1.054  1.00  0.00     0.116 C 
BRANCH  75  76
ATOM     76  N   UNL     1       9.632  -6.619   1.138  1.00  0.00    -0.356 N 
ATOM     77  C   UNL     1       9.205  -5.735   2.081  1.00  0.00     0.223 C 
ATOM     78  H   UNL     1      10.148  -6.223   0.399  1.00  0.00     0.163 HD
ATOM     79  O   UNL     1       9.250  -4.538   1.787  1.00  0.00    -0.275 OA
BRANCH  77  80
ATOM     80  C   UNL     1       8.734  -6.206   3.460  1.00  0.00     0.087 C 
BRANCH  80  81
ATOM     81  C   UNL     1       9.325  -5.196   4.479  1.00  0.00     0.049 C 
BRANCH  81  82
ATOM     82  C   UNL     1       9.045  -5.474   5.939  1.00  0.00    -0.044 A 
ATOM     83  C   UNL     1       9.202  -6.750   6.498  1.00  0.00     0.004 A 
ATOM     84  C   UNL     1       8.645  -4.419   6.773  1.00  0.00     0.043 A 
ATOM     85  C   UNL     1       8.915  -6.977   7.848  1.00  0.00     0.003 A 
ATOM     86  C   UNL     1       8.371  -4.653   8.116  1.00  0.00     0.123 A 
ATOM     87  C   UNL     1       8.493  -5.925   8.658  1.00  0.00     0.039 A 
ATOM     88  F   UNL     1       7.980  -3.637   8.896  1.00  0.00    -0.207 F 
ENDBRANCH  81  82
ENDBRANCH  80  81
BRANCH  80  89
ATOM     89  C   UNL     1       7.190  -6.230   3.546  1.00  0.00     0.049 C 
BRANCH  89  90
ATOM     90  C   UNL     1       6.535  -7.498   3.042  1.00  0.00    -0.044 A 
ATOM     91  C   UNL     1       6.795  -8.741   3.639  1.00  0.00     0.004 A 
ATOM     92  C   UNL     1       5.633  -7.446   1.971  1.00  0.00     0.049 A 
ATOM     93  C   UNL     1       6.216  -9.910   3.135  1.00  0.00     0.004 A 
ATOM     94  C   UNL     1       5.084  -8.618   1.457  1.00  0.00     0.115 A 
ATOM     95  C   UNL     1       5.366  -9.853   2.031  1.00  0.00     0.046 A 
BRANCH  94  96
ATOM     96  O   UNL     1       4.312  -8.514   0.338  1.00  0.00    -0.508 OA
ATOM     97  H   UNL     1       3.926  -9.280  -0.038  1.00  0.00     0.293 HD
ENDBRANCH  94  96
ENDBRANCH  89  90
ENDBRANCH  80  89
ENDBRANCH  77  80
ENDBRANCH  75  76
ENDBRANCH  74  75
ENDBRANCH   1  74
TORSDOF 18
