REMARK SMILES Nc1c(C(=O)NCCCCCCNC(=O)c2ccc(-c3c4nc(c(-c5c(F)c(F)c(F)c(F)c5F)c5ccc([nH]5)c(-c5c(F)c(F)c(F)c(F)c5F)c5nc(c(-c6c(F)c(F)c(F)c(F)c6F)c6ccc3[nH]6)C=C5)C=C4)cc2)cccc1-c1cc(F)c(F)c(F)c1
REMARK SMILES IDX 10 1 9 2 8 3 7 4 6 5 4 6 5 7 3 9 2 10 82 11 79 12 81 13
REMARK SMILES IDX 80 14 1 15 83 18 84 19 91 20 85 21 89 22 86 23 87 24 90 25
REMARK SMILES IDX 88 26 11 27 12 28 13 29 14 30 15 32 16 33 17 34 78 35 18 36
REMARK SMILES IDX 77 37 19 38 20 39 21 40 71 41 22 42 76 43 70 44 72 45 23 46
REMARK SMILES IDX 75 47 69 48 68 49 24 51 56 52 36 53 55 54 37 55 40 56 54 57
REMARK SMILES IDX 73 58 38 59 39 60 53 62 74 63 41 64 25 65 26 66 34 67 27 68
REMARK SMILES IDX 28 69 32 70 35 71 29 72 30 73 33 74 31 75 57 76 58 77 66 78
REMARK SMILES IDX 59 79 60 80 64 81 67 82 61 83 62 84 65 85 63 86 42 87 43 88
REMARK SMILES IDX 51 89 44 90 45 91 49 92 52 93 46 94 47 95 50 96 48 97
REMARK H PARENT 6 8 1 16 1 17 13 31 72 50 40 61
REMARK Flexibility Score: inf
ROOT
ATOM      1  C   UNL     1       5.958  -2.637   0.037  1.00  0.00     0.002 C 
ENDROOT
BRANCH   1   2
ATOM      2  C   UNL     1       5.214  -2.954   1.339  1.00  0.00     0.002 C 
BRANCH   2   3
ATOM      3  C   UNL     1       4.190  -1.929   1.835  1.00  0.00     0.021 C 
BRANCH   3   4
ATOM      4  C   UNL     1       3.170  -1.443   0.812  1.00  0.00     0.116 C 
BRANCH   4   5
ATOM      5  N   UNL     1       2.280  -2.459   0.284  1.00  0.00    -0.352 N 
ATOM      6  C   UNL     1       1.011  -2.334  -0.249  1.00  0.00     0.253 C 
ATOM      7  O   UNL     1       0.454  -3.351  -0.662  1.00  0.00    -0.269 OA
ATOM      8  H   UNL     1       2.634  -3.378   0.308  1.00  0.00     0.163 HD
BRANCH   6   9
ATOM      9  C   UNL     1       0.261  -1.039  -0.261  1.00  0.00     0.063 A 
ATOM     10  C   UNL     1       0.824   0.219  -0.574  1.00  0.00     0.052 A 
ATOM     11  C   UNL     1       0.072   1.402  -0.312  1.00  0.00     0.006 A 
ATOM     12  C   UNL     1      -1.096  -1.128   0.094  1.00  0.00     0.016 A 
ATOM     13  C   UNL     1      -1.282   1.270   0.060  1.00  0.00     0.011 A 
ATOM     14  C   UNL     1      -1.872   0.019   0.224  1.00  0.00     0.002 A 
BRANCH  10  15
ATOM     15  N   UNL     1       2.076   0.306  -1.185  1.00  0.00    -0.398 N 
ATOM     16  H   UNL     1       2.593  -0.512  -1.365  1.00  0.00     0.156 HD
ATOM     17  H   UNL     1       2.441   1.185  -1.437  1.00  0.00     0.156 HD
ENDBRANCH  10  15
BRANCH  11  18
ATOM     18  C   UNL     1       0.678   2.756  -0.347  1.00  0.00    -0.010 A 
ATOM     19  C   UNL     1       0.589   3.598   0.780  1.00  0.00     0.051 A 
ATOM     20  C   UNL     1       1.420   3.220  -1.446  1.00  0.00     0.051 A 
ATOM     21  C   UNL     1       1.260   4.821   0.817  1.00  0.00     0.162 A 
ATOM     22  C   UNL     1       2.114   4.429  -1.381  1.00  0.00     0.162 A 
ATOM     23  F   UNL     1       1.167   5.584   1.914  1.00  0.00    -0.204 F 
ATOM     24  C   UNL     1       2.039   5.229  -0.253  1.00  0.00     0.194 A 
ATOM     25  F   UNL     1       2.885   4.792  -2.415  1.00  0.00    -0.204 F 
ATOM     26  F   UNL     1       2.727   6.377  -0.190  1.00  0.00    -0.200 F 
ENDBRANCH  11  18
ENDBRANCH   6   9
ENDBRANCH   4   5
ENDBRANCH   3   4
ENDBRANCH   2   3
ENDBRANCH   1   2
BRANCH   1  27
ATOM     27  C   UNL     1       6.668  -1.284  -0.049  1.00  0.00     0.021 C 
BRANCH  27  28
ATOM     28  C   UNL     1       7.609  -0.944   1.102  1.00  0.00     0.116 C 
BRANCH  28  29
ATOM     29  N   UNL     1       8.667  -1.921   1.285  1.00  0.00    -0.352 N 
ATOM     30  C   UNL     1      10.022  -1.741   1.400  1.00  0.00     0.251 C 
ATOM     31  H   UNL     1       8.365  -2.857   1.334  1.00  0.00     0.163 HD
ATOM     32  O   UNL     1      10.770  -2.716   1.426  1.00  0.00    -0.269 OA
BRANCH  30  33
ATOM     33  C   UNL     1      10.598  -0.379   1.461  1.00  0.00     0.039 A 
ATOM     34  C   UNL     1      11.744  -0.103   0.710  1.00  0.00     0.014 A 
ATOM     35  C   UNL     1      10.029   0.618   2.258  1.00  0.00     0.014 A 
ATOM     36  C   UNL     1      12.280   1.187   0.708  1.00  0.00     0.010 A 
ATOM     37  C   UNL     1      10.519   1.922   2.195  1.00  0.00     0.010 A 
ATOM     38  C   UNL     1      11.650   2.220   1.420  1.00  0.00    -0.014 A 
BRANCH  38  39
ATOM     39  C   UNL     1      12.159   3.615   1.357  1.00  0.00     0.031 A 
ATOM     40  C   UNL     1      12.675   4.294   2.596  1.00  0.00     0.074 A 
ATOM     41  C   UNL     1      12.105   4.290   0.193  1.00  0.00     0.049 A 
ATOM     42  N   UNL     1      13.109   5.520   2.750  1.00  0.00    -0.248 NA
ATOM     43  C   UNL     1      12.681   3.497   3.833  1.00  0.00     0.031 C 
ATOM     44  C   UNL     1      11.588   3.758  -1.069  1.00  0.00     0.029 A 
ATOM     45  N   UNL     1      12.482   5.574  -0.119  1.00  0.00    -0.354 N 
ATOM     46  C   UNL     1      13.429   5.643   4.096  1.00  0.00     0.074 A 
ATOM     47  C   UNL     1      13.085   4.387   4.727  1.00  0.00     0.031 C 
ATOM     48  C   UNL     1      11.702   4.696  -2.022  1.00  0.00     0.029 A 
ATOM     49  C   UNL     1      12.258   5.910  -1.433  1.00  0.00     0.049 A 
ATOM     50  H   UNL     1      12.876   6.194   0.536  1.00  0.00     0.167 HD
ATOM     51  C   UNL     1      13.982   6.698   4.741  1.00  0.00     0.037 A 
ATOM     52  C   UNL     1      12.467   7.069  -2.085  1.00  0.00     0.037 A 
ATOM     53  C   UNL     1      14.334   7.941   4.105  1.00  0.00     0.049 A 
ATOM     54  C   UNL     1      13.057   8.236  -1.338  1.00  0.00     0.074 A 
ATOM     55  C   UNL     1      14.950   9.050   4.660  1.00  0.00     0.029 A 
ATOM     56  N   UNL     1      14.094   8.244   2.772  1.00  0.00    -0.354 N 
ATOM     57  N   UNL     1      13.425   8.315  -0.082  1.00  0.00    -0.248 NA
ATOM     58  C   UNL     1      13.265   9.473  -2.102  1.00  0.00     0.031 C 
ATOM     59  C   UNL     1      15.026  10.045   3.680  1.00  0.00     0.029 A 
ATOM     60  C   UNL     1      14.520   9.534   2.496  1.00  0.00     0.049 A 
ATOM     61  H   UNL     1      13.681   7.633   2.120  1.00  0.00     0.167 HD
ATOM     62  C   UNL     1      13.934   9.596   0.087  1.00  0.00     0.074 A 
ATOM     63  C   UNL     1      13.845  10.252  -1.200  1.00  0.00     0.031 C 
ATOM     64  C   UNL     1      14.429  10.176   1.208  1.00  0.00     0.037 A 
BRANCH  51  65
ATOM     65  C   UNL     1      14.236   6.557   6.216  1.00  0.00     0.064 A 
ATOM     66  C   UNL     1      15.210   5.680   6.717  1.00  0.00     0.173 A 
ATOM     67  C   UNL     1      13.523   7.337   7.139  1.00  0.00     0.173 A 
ATOM     68  F   UNL     1      15.915   4.904   5.879  1.00  0.00    -0.203 F 
ATOM     69  C   UNL     1      15.437   5.564   8.086  1.00  0.00     0.198 A 
ATOM     70  C   UNL     1      13.777   7.245   8.506  1.00  0.00     0.198 A 
ATOM     71  F   UNL     1      12.585   8.198   6.717  1.00  0.00    -0.203 F 
ATOM     72  F   UNL     1      16.334   4.679   8.542  1.00  0.00    -0.200 F 
ATOM     73  C   UNL     1      14.726   6.352   8.978  1.00  0.00     0.200 A 
ATOM     74  F   UNL     1      13.100   8.019   9.365  1.00  0.00    -0.200 F 
ATOM     75  F   UNL     1      14.951   6.245  10.295  1.00  0.00    -0.200 F 
ENDBRANCH  51  65
BRANCH  52  76
ATOM     76  C   UNL     1      12.131   7.182  -3.530  1.00  0.00     0.064 A 
ATOM     77  C   UNL     1      13.136   7.340  -4.495  1.00  0.00     0.173 A 
ATOM     78  C   UNL     1      10.801   7.146  -3.975  1.00  0.00     0.173 A 
ATOM     79  F   UNL     1      14.421   7.401  -4.118  1.00  0.00    -0.203 F 
ATOM     80  C   UNL     1      12.822   7.483  -5.845  1.00  0.00     0.198 A 
ATOM     81  C   UNL     1      10.491   7.255  -5.329  1.00  0.00     0.198 A 
ATOM     82  F   UNL     1       9.801   6.990  -3.095  1.00  0.00    -0.203 F 
ATOM     83  F   UNL     1      13.800   7.686  -6.739  1.00  0.00    -0.200 F 
ATOM     84  C   UNL     1      11.501   7.434  -6.262  1.00  0.00     0.200 A 
ATOM     85  F   UNL     1       9.214   7.189  -5.730  1.00  0.00    -0.200 F 
ATOM     86  F   UNL     1      11.201   7.567  -7.561  1.00  0.00    -0.200 F 
ENDBRANCH  52  76
BRANCH  64  87
ATOM     87  C   UNL     1      14.949  11.581   1.086  1.00  0.00     0.064 A 
ATOM     88  C   UNL     1      14.091  12.671   0.877  1.00  0.00     0.173 A 
ATOM     89  C   UNL     1      16.322  11.843   1.218  1.00  0.00     0.173 A 
ATOM     90  F   UNL     1      12.773  12.475   0.730  1.00  0.00    -0.203 F 
ATOM     91  C   UNL     1      14.592  13.967   0.775  1.00  0.00     0.198 A 
ATOM     92  C   UNL     1      16.814  13.143   1.151  1.00  0.00     0.198 A 
ATOM     93  F   UNL     1      17.186  10.838   1.427  1.00  0.00    -0.203 F 
ATOM     94  F   UNL     1      13.760  14.986   0.519  1.00  0.00    -0.200 F 
ATOM     95  C   UNL     1      15.951  14.202   0.920  1.00  0.00     0.200 A 
ATOM     96  F   UNL     1      18.126  13.370   1.310  1.00  0.00    -0.200 F 
ATOM     97  F   UNL     1      16.430  15.451   0.830  1.00  0.00    -0.200 F 
ENDBRANCH  64  87
ENDBRANCH  38  39
ENDBRANCH  30  33
ENDBRANCH  28  29
ENDBRANCH  27  28
ENDBRANCH   1  27
TORSDOF 15
