REMARK SMILES Cc1ccc(S(=O)(=O)n2cc(C(=O)C(=O)N[C@@H](Cc3c[nH]c4ccccc34)C(=O)NCC(=O)NCCCCCCNC(=O)c3ccc(-c4c5nc(c(-c6c(F)c(F)c(F)c(F)c6F)c6ccc([nH]6)c(-c6c(F)c(F)c(F)c(F)c6F)c6nc(c(-c7c(F)c(F)c(F)c(F)c7F)c7ccc4[nH]7)C=C6)C=C5)cc3)c3ccccc32)cc1
REMARK SMILES IDX 35 1 34 2 32 3 33 4 31 6 30 7 28 8 29 9 17 11 16 12 14 13
REMARK SMILES IDX 15 14 12 16 13 17 11 18 9 19 10 20 112 21 107 22 111 23
REMARK SMILES IDX 108 24 110 25 109 26 6 27 7 28 8 29 5 30 1 31 2 32 3 33
REMARK SMILES IDX 114 34 4 35 113 36 18 37 19 38 20 39 27 40 21 41 22 42 26 43
REMARK SMILES IDX 23 45 25 46 24 47 36 48 37 49 38 50 39 51 40 52 41 53 42 54
REMARK SMILES IDX 43 56 44 57 45 58 106 59 46 60 105 61 47 62 48 63 49 64
REMARK SMILES IDX 99 65 50 66 104 67 98 68 100 69 51 70 103 71 97 72 96 73
REMARK SMILES IDX 52 75 84 76 64 77 83 78 65 79 68 80 82 81 101 82 66 83 67 84
REMARK SMILES IDX 81 86 102 87 69 88 53 89 54 90 62 91 55 92 56 93 60 94 63 95
REMARK SMILES IDX 57 96 58 97 61 98 59 99 85 100 86 101 94 102 87 103 88 104
REMARK SMILES IDX 92 105 95 106 89 107 90 108 93 109 91 110 70 111 71 112
REMARK SMILES IDX 79 113 72 114 73 115 77 116 80 117 74 118 75 119 78 120
REMARK SMILES IDX 76 121
REMARK H PARENT 34 5 30 10 16 15 21 44 41 55 100 74 68 85
REMARK Flexibility Score: inf
ROOT
ATOM      1  C   UNL     1      -9.991   4.614  -2.718  1.00  0.00     0.116 C 
ENDROOT
BRANCH   1   2
ATOM      2  N   UNL     1     -11.172   5.424  -2.902  1.00  0.00    -0.355 N 
ATOM      3  C   UNL     1     -12.409   5.215  -2.367  1.00  0.00     0.239 C 
ATOM      4  O   UNL     1     -13.288   6.058  -2.551  1.00  0.00    -0.273 OA
ATOM      5  H   UNL     1     -11.073   6.216  -3.479  1.00  0.00     0.163 HD
BRANCH   3   6
ATOM      6  C   UNL     1     -12.605   4.050  -1.397  1.00  0.00     0.216 C 
BRANCH   6   7
ATOM      7  N   UNL     1     -12.359   2.692  -1.851  1.00  0.00    -0.345 N 
ATOM      8  C   UNL     1     -11.762   1.643  -1.215  1.00  0.00     0.243 C 
ATOM      9  O   UNL     1     -12.015   0.521  -1.673  1.00  0.00    -0.273 OA
ATOM     10  H   UNL     1     -12.674   2.497  -2.763  1.00  0.00     0.164 HD
BRANCH   8  11
ATOM     11  C   UNL     1     -10.891   1.760   0.080  1.00  0.00     0.176 C 
BRANCH  11  12
ATOM     12  N   UNL     1      -9.762   2.720   0.059  1.00  0.00    -0.337 N 
ATOM     13  C   UNL     1      -8.399   2.531  -0.158  1.00  0.00     0.293 C 
ATOM     14  O   UNL     1      -7.608   3.435   0.097  1.00  0.00    -0.265 OA
ATOM     15  H   UNL     1     -10.021   3.655   0.227  1.00  0.00     0.164 HD
BRANCH  13  16
ATOM     16  C   UNL     1      -7.866   1.252  -0.812  1.00  0.00     0.252 C 
ATOM     17  O   UNL     1      -8.500   0.864  -1.794  1.00  0.00    -0.283 OA
BRANCH  16  18
ATOM     18  C   UNL     1      -6.712   0.485  -0.289  1.00  0.00     0.054 A 
ATOM     19  N   UNL     1      -4.718  -0.270   0.521  1.00  0.00    -0.240 N 
ATOM     20  C   UNL     1      -5.402   0.863   0.052  1.00  0.00     0.117 A 
ATOM     21  C   UNL     1      -5.673  -1.295   0.656  1.00  0.00     0.065 A 
ATOM     22  C   UNL     1      -6.736  -0.939  -0.168  1.00  0.00     0.012 A 
ATOM     23  C   UNL     1      -5.563  -2.594   1.191  1.00  0.00     0.028 A 
ATOM     24  C   UNL     1      -7.586  -1.959  -0.648  1.00  0.00     0.011 A 
ATOM     25  C   UNL     1      -6.372  -3.593   0.653  1.00  0.00     0.002 A 
ATOM     26  C   UNL     1      -7.341  -3.288  -0.292  1.00  0.00     0.001 A 
BRANCH  19  27
ATOM     27  S   UNL     1      -3.193  -0.895  -0.108  1.00  0.00     0.268 S 
ATOM     28  O   UNL     1      -3.482  -1.119  -1.514  1.00  0.00    -0.201 OA
ATOM     29  O   UNL     1      -2.929  -2.010   0.793  1.00  0.00    -0.201 OA
BRANCH  27  30
ATOM     30  C   UNL     1      -1.631  -0.081  -0.071  1.00  0.00     0.088 A 
ATOM     31  C   UNL     1       2.566   0.990  -0.024  1.00  0.00     0.044 C 
ATOM     32  C   UNL     1       1.100   0.661  -0.069  1.00  0.00    -0.051 A 
ATOM     33  C   UNL     1       0.751  -0.656  -0.326  1.00  0.00     0.005 A 
ATOM     34  C   UNL     1       0.073   1.601   0.176  1.00  0.00     0.005 A 
ATOM     35  C   UNL     1      -0.588  -1.008  -0.340  1.00  0.00     0.022 A 
ATOM     36  C   UNL     1      -1.302   1.239   0.181  1.00  0.00     0.022 A 
ENDBRANCH  27  30
ENDBRANCH  19  27
ENDBRANCH  16  18
ENDBRANCH  13  16
ENDBRANCH  11  12
BRANCH  11  37
ATOM     37  C   UNL     1     -11.751   1.850   1.386  1.00  0.00     0.072 C 
BRANCH  37  38
ATOM     38  C   UNL     1     -12.525   3.123   1.645  1.00  0.00    -0.020 A 
ATOM     39  C   UNL     1     -13.905   3.251   1.601  1.00  0.00     0.087 A 
ATOM     40  C   UNL     1     -12.014   4.441   1.920  1.00  0.00     0.003 A 
ATOM     41  N   UNL     1     -14.225   4.582   1.691  1.00  0.00    -0.361 N 
ATOM     42  C   UNL     1     -13.077   5.334   1.764  1.00  0.00     0.046 A 
ATOM     43  C   UNL     1     -10.728   4.977   2.140  1.00  0.00     0.010 A 
ATOM     44  H   UNL     1     -15.140   4.944   1.701  1.00  0.00     0.166 HD
ATOM     45  C   UNL     1     -12.899   6.720   1.673  1.00  0.00     0.026 A 
ATOM     46  C   UNL     1     -10.527   6.358   2.028  1.00  0.00     0.001 A 
ATOM     47  C   UNL     1     -11.594   7.212   1.768  1.00  0.00     0.002 A 
ENDBRANCH  37  38
ENDBRANCH  11  37
ENDBRANCH   8  11
ENDBRANCH   6   7
ENDBRANCH   3   6
ENDBRANCH   1   2
BRANCH   1  48
ATOM     48  C   UNL     1      -9.261   4.371  -4.028  1.00  0.00     0.021 C 
BRANCH  48  49
ATOM     49  C   UNL     1      -8.437   5.563  -4.514  1.00  0.00     0.002 C 
BRANCH  49  50
ATOM     50  C   UNL     1      -7.397   6.114  -3.523  1.00  0.00     0.002 C 
BRANCH  50  51
ATOM     51  C   UNL     1      -6.535   5.078  -2.800  1.00  0.00     0.021 C 
BRANCH  51  52
ATOM     52  C   UNL     1      -5.669   4.228  -3.716  1.00  0.00     0.116 C 
BRANCH  52  53
ATOM     53  N   UNL     1      -4.384   4.811  -4.036  1.00  0.00    -0.352 N 
ATOM     54  C   UNL     1      -3.432   4.409  -4.979  1.00  0.00     0.251 C 
ATOM     55  H   UNL     1      -4.144   5.609  -3.512  1.00  0.00     0.163 HD
ATOM     56  O   UNL     1      -2.370   4.977  -5.046  1.00  0.00    -0.269 OA
BRANCH  54  57
ATOM     57  C   UNL     1      -3.802   3.373  -5.978  1.00  0.00     0.039 A 
ATOM     58  C   UNL     1      -3.458   3.606  -7.317  1.00  0.00     0.014 A 
ATOM     59  C   UNL     1      -4.630   2.305  -5.652  1.00  0.00     0.014 A 
ATOM     60  C   UNL     1      -4.141   2.933  -8.331  1.00  0.00     0.010 A 
ATOM     61  C   UNL     1      -5.392   1.725  -6.646  1.00  0.00     0.010 A 
ATOM     62  C   UNL     1      -5.192   2.087  -7.982  1.00  0.00    -0.014 A 
BRANCH  62  63
ATOM     63  C   UNL     1      -6.199   1.599  -8.918  1.00  0.00     0.031 A 
ATOM     64  C   UNL     1      -6.241   0.169  -9.291  1.00  0.00     0.074 A 
ATOM     65  C   UNL     1      -7.197   2.429  -9.295  1.00  0.00     0.049 A 
ATOM     66  N   UNL     1      -6.944  -0.309 -10.260  1.00  0.00    -0.248 NA
ATOM     67  C   UNL     1      -5.456  -0.845  -8.598  1.00  0.00     0.031 C 
ATOM     68  C   UNL     1      -8.474   2.065  -9.905  1.00  0.00     0.029 A 
ATOM     69  N   UNL     1      -7.164   3.831  -9.378  1.00  0.00    -0.354 N 
ATOM     70  C   UNL     1      -6.911  -1.682 -10.175  1.00  0.00     0.074 A 
ATOM     71  C   UNL     1      -5.942  -1.965  -9.141  1.00  0.00     0.031 C 
ATOM     72  C   UNL     1      -8.954   3.127 -10.569  1.00  0.00     0.029 A 
ATOM     73  C   UNL     1      -7.925   4.150 -10.533  1.00  0.00     0.049 A 
ATOM     74  H   UNL     1      -6.711   4.457  -8.768  1.00  0.00     0.167 HD
ATOM     75  C   UNL     1      -7.784  -2.413 -10.927  1.00  0.00     0.037 A 
ATOM     76  C   UNL     1      -7.326   4.701 -11.630  1.00  0.00     0.037 A 
ATOM     77  C   UNL     1      -8.544  -1.560 -11.839  1.00  0.00     0.049 A 
ATOM     78  C   UNL     1      -7.407   3.861 -12.889  1.00  0.00     0.074 A 
ATOM     79  C   UNL     1      -9.803  -0.983 -11.816  1.00  0.00     0.029 A 
ATOM     80  N   UNL     1      -7.859  -0.940 -12.865  1.00  0.00    -0.354 N 
ATOM     81  N   UNL     1      -7.903   2.656 -12.940  1.00  0.00    -0.248 NA
ATOM     82  C   UNL     1      -6.841   4.281 -14.173  1.00  0.00     0.031 C 
ATOM     83  C   UNL     1      -9.850   0.016 -12.832  1.00  0.00     0.029 A 
ATOM     84  C   UNL     1      -8.623   0.036 -13.470  1.00  0.00     0.049 A 
ATOM     85  H   UNL     1      -6.939  -1.166 -13.132  1.00  0.00     0.167 HD
ATOM     86  C   UNL     1      -7.686   2.129 -14.182  1.00  0.00     0.074 A 
ATOM     87  C   UNL     1      -7.025   3.183 -14.926  1.00  0.00     0.031 C 
ATOM     88  C   UNL     1      -8.019   0.849 -14.508  1.00  0.00     0.037 A 
BRANCH  75  89
ATOM     89  C   UNL     1      -8.088  -3.878 -10.719  1.00  0.00     0.064 A 
ATOM     90  C   UNL     1      -9.352  -4.403 -11.066  1.00  0.00     0.173 A 
ATOM     91  C   UNL     1      -7.200  -4.811 -10.154  1.00  0.00     0.173 A 
ATOM     92  F   UNL     1     -10.269  -3.662 -11.701  1.00  0.00    -0.203 F 
ATOM     93  C   UNL     1      -9.727  -5.717 -10.772  1.00  0.00     0.198 A 
ATOM     94  C   UNL     1      -7.593  -6.107  -9.803  1.00  0.00     0.198 A 
ATOM     95  F   UNL     1      -5.903  -4.527  -9.985  1.00  0.00    -0.203 F 
ATOM     96  F   UNL     1     -10.940  -6.159 -11.132  1.00  0.00    -0.200 F 
ATOM     97  C   UNL     1      -8.861  -6.558 -10.105  1.00  0.00     0.200 A 
ATOM     98  F   UNL     1      -6.727  -6.918  -9.180  1.00  0.00    -0.200 F 
ATOM     99  F   UNL     1      -9.234  -7.803  -9.784  1.00  0.00    -0.200 F 
ENDBRANCH  75  89
BRANCH  76 100
ATOM    100  C   UNL     1      -6.185   5.584 -11.264  1.00  0.00     0.064 A 
ATOM    101  C   UNL     1      -6.444   6.701 -10.444  1.00  0.00     0.173 A 
ATOM    102  C   UNL     1      -4.862   5.140 -11.357  1.00  0.00     0.173 A 
ATOM    103  F   UNL     1      -7.697   7.168 -10.323  1.00  0.00    -0.203 F 
ATOM    104  C   UNL     1      -5.448   7.255  -9.644  1.00  0.00     0.198 A 
ATOM    105  C   UNL     1      -3.862   5.715 -10.572  1.00  0.00     0.198 A 
ATOM    106  F   UNL     1      -4.553   4.074 -12.109  1.00  0.00    -0.203 F 
ATOM    107  F   UNL     1      -5.755   8.228  -8.774  1.00  0.00    -0.200 F 
ATOM    108  C   UNL     1      -4.164   6.741  -9.687  1.00  0.00     0.200 A 
ATOM    109  F   UNL     1      -2.623   5.204 -10.596  1.00  0.00    -0.200 F 
ATOM    110  F   UNL     1      -3.227   7.203  -8.847  1.00  0.00    -0.200 F 
ENDBRANCH  76 100
BRANCH  88 111
ATOM    111  C   UNL     1      -7.788   0.263 -15.865  1.00  0.00     0.064 A 
ATOM    112  C   UNL     1      -8.242   0.897 -17.030  1.00  0.00     0.173 A 
ATOM    113  C   UNL     1      -7.223  -1.018 -16.020  1.00  0.00     0.173 A 
ATOM    114  F   UNL     1      -8.819   2.107 -16.969  1.00  0.00    -0.203 F 
ATOM    115  C   UNL     1      -8.123   0.289 -18.280  1.00  0.00     0.198 A 
ATOM    116  C   UNL     1      -7.151  -1.643 -17.262  1.00  0.00     0.198 A 
ATOM    117  F   UNL     1      -6.710  -1.683 -14.974  1.00  0.00    -0.203 F 
ATOM    118  F   UNL     1      -8.532   0.940 -19.378  1.00  0.00    -0.200 F 
ATOM    119  C   UNL     1      -7.595  -0.987 -18.394  1.00  0.00     0.200 A 
ATOM    120  F   UNL     1      -6.649  -2.883 -17.355  1.00  0.00    -0.200 F 
ATOM    121  F   UNL     1      -7.508  -1.580 -19.592  1.00  0.00    -0.200 F 
ENDBRANCH  88 111
ENDBRANCH  62  63
ENDBRANCH  54  57
ENDBRANCH  52  53
ENDBRANCH  51  52
ENDBRANCH  50  51
ENDBRANCH  49  50
ENDBRANCH  48  49
ENDBRANCH   1  48
TORSDOF 22
