REMARK SMILES CN1C(=O)/C(=C\c2ccc(-c3ccccc3C(=O)NCCCCCCNC(=O)c3ccc(-c4c5nc(c(-c6c(F)c(F)c(F)c(F)c6F)c6ccc([nH]6)c(-c6c(F)c(F)c(F)c(F)c6F)c6nc(c(-c7c(F)c(F)c(F)c(F)c7F)c7ccc4[nH]7)C=C6)C=C5)cc3)o2)C(=O)[NH+]=C1S
REMARK SMILES IDX 22 1 21 2 20 3 19 4 17 5 18 6 16 8 11 9 12 10 13 11 15 12
REMARK SMILES IDX 14 13 10 14 7 15 8 16 92 17 9 18 6 19 1 20 2 21 3 22 96 23
REMARK SMILES IDX 4 24 5 25 95 26 93 27 94 29 97 30 23 32 24 33 25 34 26 35
REMARK SMILES IDX 27 36 28 38 29 39 30 40 91 41 31 42 90 43 32 44 33 45 34 46
REMARK SMILES IDX 84 47 35 48 89 49 83 50 85 51 36 52 88 53 82 54 81 55 37 57
REMARK SMILES IDX 69 58 49 59 68 60 50 61 53 62 67 63 86 64 51 65 52 66 66 68
REMARK SMILES IDX 87 69 54 70 38 71 39 72 47 73 40 74 41 75 45 76 48 77 42 78
REMARK SMILES IDX 43 79 46 80 44 81 70 82 71 83 79 84 72 85 73 86 77 87 80 88
REMARK SMILES IDX 74 89 75 90 78 91 76 92 55 93 56 94 64 95 57 96 58 97 62 98
REMARK SMILES IDX 65 99 59 100 60 101 63 102 61 103
REMARK H PARENT 19 7 95 28 97 31 26 37 85 56 53 67
REMARK Flexibility Score: inf
ROOT
ATOM      1  C   UNL     1       5.663  -5.386   1.173  1.00  0.00     0.002 C 
ENDROOT
BRANCH   1   2
ATOM      2  C   UNL     1       4.983  -5.907  -0.093  1.00  0.00     0.021 C 
BRANCH   2   3
ATOM      3  C   UNL     1       5.312  -5.241  -1.424  1.00  0.00     0.116 C 
BRANCH   3   4
ATOM      4  N   UNL     1       6.403  -5.751  -2.206  1.00  0.00    -0.352 N 
ATOM      5  C   UNL     1       6.586  -5.860  -3.571  1.00  0.00     0.252 C 
ATOM      6  O   UNL     1       7.732  -6.218  -3.880  1.00  0.00    -0.269 OA
ATOM      7  H   UNL     1       7.159  -6.085  -1.671  1.00  0.00     0.163 HD
BRANCH   5   8
ATOM      8  C   UNL     1       5.587  -5.660  -4.709  1.00  0.00     0.050 A 
ATOM      9  C   UNL     1       4.356  -4.971  -4.787  1.00  0.00     0.030 A 
ATOM     10  C   UNL     1       3.611  -4.964  -5.996  1.00  0.00     0.013 A 
ATOM     11  C   UNL     1       4.078  -5.570  -7.154  1.00  0.00     0.001 A 
ATOM     12  C   UNL     1       6.026  -6.264  -5.921  1.00  0.00     0.014 A 
ATOM     13  C   UNL     1       5.301  -6.211  -7.119  1.00  0.00     0.001 A 
BRANCH   9  14
ATOM     14  C   UNL     1       3.771  -4.141  -3.762  1.00  0.00     0.135 A 
ATOM     15  C   UNL     1       2.293  -3.783  -2.138  1.00  0.00     0.128 A 
ATOM     16  C   UNL     1       3.168  -2.697  -2.200  1.00  0.00     0.051 A 
ATOM     17  O   UNL     1       2.668  -4.650  -3.141  1.00  0.00    -0.457 OA
ATOM     18  C   UNL     1       4.064  -2.896  -3.271  1.00  0.00     0.051 A 
BRANCH  15  19
ATOM     19  C   UNL     1       1.262  -4.098  -1.203  1.00  0.00     0.071 C 
ATOM     20  C   UNL     1       0.568   0.415   0.071  1.00  0.00     0.301 C 
ATOM     21  N   UNL     1       0.064  -0.949   0.072  1.00  0.00    -0.189 N 
ATOM     22  C   UNL     1       0.483  -1.751  -0.951  1.00  0.00     0.349 C 
ATOM     23  C   UNL     1      -1.020  -1.405   0.759  1.00  0.00     0.318 C 
ATOM     24  O   UNL     1       0.789  -1.309  -2.052  1.00  0.00    -0.240 OA
ATOM     25  C   UNL     1       0.469  -3.186  -0.613  1.00  0.00     0.157 C 
ATOM     26  N   UNL     1      -1.291  -2.652   0.946  1.00  0.00    -0.200 N 
ATOM     27  C   UNL     1      -0.399  -3.595   0.517  1.00  0.00     0.347 C 
ATOM     28  H   UNL     1      -2.127  -2.920   1.391  1.00  0.00     0.316 HD
ATOM     29  O   UNL     1      -0.283  -4.693   1.056  1.00  0.00    -0.241 OA
BRANCH  23  30
ATOM     30  S   UNL     1      -2.163  -0.225   1.320  1.00  0.00    -0.055 SA
ATOM     31  H   UNL     1      -1.704   1.022   1.034  1.00  0.00     0.116 HD
ENDBRANCH  23  30
ENDBRANCH  15  19
ENDBRANCH   9  14
ENDBRANCH   5   8
ENDBRANCH   3   4
ENDBRANCH   2   3
ENDBRANCH   1   2
BRANCH   1  32
ATOM     32  C   UNL     1       5.590  -3.882   1.467  1.00  0.00     0.002 C 
BRANCH  32  33
ATOM     33  C   UNL     1       4.207  -3.223   1.487  1.00  0.00     0.021 C 
BRANCH  33  34
ATOM     34  C   UNL     1       3.162  -3.823   2.427  1.00  0.00     0.116 C 
BRANCH  34  35
ATOM     35  N   UNL     1       3.588  -3.803   3.813  1.00  0.00    -0.352 N 
ATOM     36  C   UNL     1       3.064  -3.180   4.917  1.00  0.00     0.251 C 
ATOM     37  H   UNL     1       4.399  -4.331   3.995  1.00  0.00     0.163 HD
ATOM     38  O   UNL     1       3.731  -3.146   5.950  1.00  0.00    -0.269 OA
BRANCH  36  39
ATOM     39  C   UNL     1       1.726  -2.537   4.905  1.00  0.00     0.039 A 
ATOM     40  C   UNL     1       1.534  -1.394   5.691  1.00  0.00     0.014 A 
ATOM     41  C   UNL     1       0.635  -3.086   4.232  1.00  0.00     0.014 A 
ATOM     42  C   UNL     1       0.272  -0.796   5.780  1.00  0.00     0.010 A 
ATOM     43  C   UNL     1      -0.606  -2.439   4.258  1.00  0.00     0.010 A 
ATOM     44  C   UNL     1      -0.814  -1.295   5.045  1.00  0.00    -0.014 A 
BRANCH  44  45
ATOM     45  C   UNL     1      -2.156  -0.639   5.113  1.00  0.00     0.031 A 
ATOM     46  C   UNL     1      -3.381  -1.419   5.535  1.00  0.00     0.074 A 
ATOM     47  C   UNL     1      -2.299   0.649   4.733  1.00  0.00     0.049 A 
ATOM     48  N   UNL     1      -4.630  -1.024   5.611  1.00  0.00    -0.248 NA
ATOM     49  C   UNL     1      -3.185  -2.832   5.892  1.00  0.00     0.031 C 
ATOM     50  C   UNL     1      -1.227   1.508   4.224  1.00  0.00     0.029 A 
ATOM     51  N   UNL     1      -3.416   1.449   4.667  1.00  0.00    -0.354 N 
ATOM     52  C   UNL     1      -5.357  -2.133   6.028  1.00  0.00     0.074 A 
ATOM     53  C   UNL     1      -4.429  -3.240   6.099  1.00  0.00     0.031 C 
ATOM     54  C   UNL     1      -1.737   2.703   3.885  1.00  0.00     0.029 A 
ATOM     55  C   UNL     1      -3.174   2.696   4.140  1.00  0.00     0.049 A 
ATOM     56  H   UNL     1      -4.307   1.157   4.968  1.00  0.00     0.167 HD
ATOM     57  C   UNL     1      -6.667  -2.218   6.369  1.00  0.00     0.037 A 
ATOM     58  C   UNL     1      -4.010   3.721   3.883  1.00  0.00     0.037 A 
ATOM     59  C   UNL     1      -7.590  -1.114   6.330  1.00  0.00     0.049 A 
ATOM     60  C   UNL     1      -5.464   3.600   4.251  1.00  0.00     0.074 A 
ATOM     61  C   UNL     1      -8.909  -1.077   6.750  1.00  0.00     0.029 A 
ATOM     62  N   UNL     1      -7.296   0.146   5.833  1.00  0.00    -0.354 N 
ATOM     63  N   UNL     1      -6.106   2.580   4.766  1.00  0.00    -0.248 NA
ATOM     64  C   UNL     1      -6.304   4.786   4.030  1.00  0.00     0.031 C 
ATOM     65  C   UNL     1      -9.431   0.185   6.450  1.00  0.00     0.029 A 
ATOM     66  C   UNL     1      -8.418   0.957   5.904  1.00  0.00     0.049 A 
ATOM     67  H   UNL     1      -6.419   0.424   5.481  1.00  0.00     0.167 HD
ATOM     68  C   UNL     1      -7.410   3.015   4.971  1.00  0.00     0.074 A 
ATOM     69  C   UNL     1      -7.463   4.394   4.538  1.00  0.00     0.031 C 
ATOM     70  C   UNL     1      -8.466   2.331   5.477  1.00  0.00     0.037 A 
BRANCH  57  71
ATOM     71  C   UNL     1      -7.182  -3.548   6.849  1.00  0.00     0.064 A 
ATOM     72  C   UNL     1      -6.769  -4.097   8.074  1.00  0.00     0.173 A 
ATOM     73  C   UNL     1      -8.146  -4.252   6.112  1.00  0.00     0.173 A 
ATOM     74  F   UNL     1      -5.848  -3.468   8.820  1.00  0.00    -0.203 F 
ATOM     75  C   UNL     1      -7.275  -5.314   8.525  1.00  0.00     0.198 A 
ATOM     76  C   UNL     1      -8.677  -5.451   6.583  1.00  0.00     0.198 A 
ATOM     77  F   UNL     1      -8.589  -3.769   4.941  1.00  0.00    -0.203 F 
ATOM     78  F   UNL     1      -6.827  -5.840   9.673  1.00  0.00    -0.200 F 
ATOM     79  C   UNL     1      -8.235  -5.985   7.783  1.00  0.00     0.200 A 
ATOM     80  F   UNL     1      -9.620  -6.089   5.875  1.00  0.00    -0.200 F 
ATOM     81  F   UNL     1      -8.732  -7.149   8.226  1.00  0.00    -0.200 F 
ENDBRANCH  57  71
BRANCH  58  82
ATOM     82  C   UNL     1      -3.488   4.977   3.279  1.00  0.00     0.064 A 
ATOM     83  C   UNL     1      -3.431   6.166   4.021  1.00  0.00     0.173 A 
ATOM     84  C   UNL     1      -3.061   5.023   1.944  1.00  0.00     0.173 A 
ATOM     85  F   UNL     1      -3.844   6.177   5.297  1.00  0.00    -0.203 F 
ATOM     86  C   UNL     1      -3.003   7.359   3.442  1.00  0.00     0.198 A 
ATOM     87  C   UNL     1      -2.603   6.210   1.374  1.00  0.00     0.198 A 
ATOM     88  F   UNL     1      -3.082   3.912   1.192  1.00  0.00    -0.203 F 
ATOM     89  F   UNL     1      -3.016   8.491   4.159  1.00  0.00    -0.200 F 
ATOM     90  C   UNL     1      -2.586   7.379   2.120  1.00  0.00     0.200 A 
ATOM     91  F   UNL     1      -2.183   6.222   0.102  1.00  0.00    -0.200 F 
ATOM     92  F   UNL     1      -2.176   8.526   1.563  1.00  0.00    -0.200 F 
ENDBRANCH  58  82
BRANCH  70  93
ATOM     93  C   UNL     1      -9.762   3.077   5.631  1.00  0.00     0.064 A 
ATOM     94  C   UNL     1     -10.513   3.495   4.522  1.00  0.00     0.173 A 
ATOM     95  C   UNL     1     -10.269   3.362   6.909  1.00  0.00     0.173 A 
ATOM     96  F   UNL     1     -10.068   3.262   3.278  1.00  0.00    -0.203 F 
ATOM     97  C   UNL     1     -11.701   4.203   4.687  1.00  0.00     0.198 A 
ATOM     98  C   UNL     1     -11.476   4.035   7.070  1.00  0.00     0.198 A 
ATOM     99  F   UNL     1      -9.596   2.979   8.005  1.00  0.00    -0.203 F 
ATOM    100  F   UNL     1     -12.367   4.648   3.612  1.00  0.00    -0.200 F 
ATOM    101  C   UNL     1     -12.185   4.466   5.959  1.00  0.00     0.200 A 
ATOM    102  F   UNL     1     -11.950   4.273   8.301  1.00  0.00    -0.200 F 
ATOM    103  F   UNL     1     -13.331   5.144   6.115  1.00  0.00    -0.200 F 
ENDBRANCH  70  93
ENDBRANCH  44  45
ENDBRANCH  36  39
ENDBRANCH  34  35
ENDBRANCH  33  34
ENDBRANCH  32  33
ENDBRANCH   1  32
TORSDOF 16
