REMARK SMILES O=C(NCCCCCCNC(=O)c1cc(NC(=S)NC(=O)c2ccccc2F)ccc1Cl)c1ccc(-c2c3nc(c(-c4c(F)c(F)c(F)c(F)c4F)c4ccc([nH]4)c(-c4c(F)c(F)c(F)c(F)c4F)c4nc(c(-c5c(F)c(F)c(F)c(F)c5F)c5ccc2[nH]5)C=C4)C=C3)cc1
REMARK SMILES IDX 7 1 6 2 5 3 4 4 3 5 1 6 2 7 33 9 34 10 95 11 35 12 94 13
REMARK SMILES IDX 36 14 37 15 38 16 88 17 39 18 93 19 87 20 89 21 40 22 92 23
REMARK SMILES IDX 86 24 85 25 41 27 73 28 53 29 72 30 54 31 57 32 71 33 90 34
REMARK SMILES IDX 55 35 56 36 70 38 91 39 58 40 42 41 43 42 51 43 44 44 45 45
REMARK SMILES IDX 49 46 52 47 46 48 47 49 50 50 48 51 74 52 75 53 83 54 76 55
REMARK SMILES IDX 77 56 81 57 84 58 78 59 79 60 82 61 80 62 59 63 60 64 68 65
REMARK SMILES IDX 61 66 62 67 66 68 69 69 63 70 64 71 67 72 65 73 8 74 9 75
REMARK SMILES IDX 10 76 11 77 12 79 13 80 14 81 31 82 15 83 30 84 32 85 29 86
REMARK SMILES IDX 16 87 17 89 18 90 19 91 20 92 21 94 22 95 23 96 27 97 24 98
REMARK SMILES IDX 26 99 28 100 25 101
REMARK H PARENT 3 8 89 26 57 37 10 78 16 88 19 93
REMARK Flexibility Score: inf
ROOT
ATOM      1  C   UNL     1       4.445  -2.943   3.134  1.00  0.00     0.002 C 
ENDROOT
BRANCH   1   2
ATOM      2  C   UNL     1       3.995  -1.515   3.458  1.00  0.00     0.002 C 
BRANCH   2   3
ATOM      3  C   UNL     1       4.505  -0.425   2.514  1.00  0.00     0.021 C 
BRANCH   3   4
ATOM      4  C   UNL     1       4.261  -0.688   1.035  1.00  0.00     0.116 C 
BRANCH   4   5
ATOM      5  N   UNL     1       2.849  -0.816   0.724  1.00  0.00    -0.352 N 
ATOM      6  O   UNL     1       0.879  -0.222  -0.201  1.00  0.00    -0.269 OA
ATOM      7  C   UNL     1       2.100  -0.114  -0.183  1.00  0.00     0.251 C 
ATOM      8  H   UNL     1       2.363  -1.501   1.236  1.00  0.00     0.163 HD
BRANCH   7   9
ATOM      9  C   UNL     1       2.773   0.794  -1.133  1.00  0.00     0.039 A 
ATOM     10  C   UNL     1       3.899   0.376  -1.849  1.00  0.00     0.014 A 
ATOM     11  C   UNL     1       2.251   2.076  -1.319  1.00  0.00     0.014 A 
ATOM     12  C   UNL     1       4.564   1.273  -2.678  1.00  0.00     0.010 A 
ATOM     13  C   UNL     1       2.877   2.951  -2.204  1.00  0.00     0.010 A 
ATOM     14  C   UNL     1       4.045   2.560  -2.879  1.00  0.00    -0.014 A 
BRANCH  14  15
ATOM     15  C   UNL     1       4.673   3.477  -3.858  1.00  0.00     0.031 A 
ATOM     16  C   UNL     1       5.303   4.760  -3.412  1.00  0.00     0.074 A 
ATOM     17  C   UNL     1       4.618   3.161  -5.165  1.00  0.00     0.049 A 
ATOM     18  N   UNL     1       5.791   5.735  -4.136  1.00  0.00    -0.248 NA
ATOM     19  C   UNL     1       5.389   4.986  -1.961  1.00  0.00     0.031 C 
ATOM     20  C   UNL     1       4.030   1.935  -5.707  1.00  0.00     0.029 A 
ATOM     21  N   UNL     1       5.045   3.846  -6.274  1.00  0.00    -0.354 N 
ATOM     22  C   UNL     1       6.215   6.700  -3.234  1.00  0.00     0.074 A 
ATOM     23  C   UNL     1       5.913   6.203  -1.908  1.00  0.00     0.031 C 
ATOM     24  C   UNL     1       4.142   1.949  -7.042  1.00  0.00     0.029 A 
ATOM     25  C   UNL     1       4.745   3.212  -7.453  1.00  0.00     0.049 A 
ATOM     26  H   UNL     1       5.519   4.708  -6.228  1.00  0.00     0.167 HD
ATOM     27  C   UNL     1       6.801   7.892  -3.498  1.00  0.00     0.037 A 
ATOM     28  C   UNL     1       4.902   3.617  -8.727  1.00  0.00     0.037 A 
ATOM     29  C   UNL     1       7.107   8.362  -4.825  1.00  0.00     0.049 A 
ATOM     30  C   UNL     1       5.510   4.961  -8.998  1.00  0.00     0.074 A 
ATOM     31  C   UNL     1       7.758   9.525  -5.196  1.00  0.00     0.029 A 
ATOM     32  N   UNL     1       6.770   7.699  -5.997  1.00  0.00    -0.354 N 
ATOM     33  N   UNL     1       5.941   5.853  -8.141  1.00  0.00    -0.248 NA
ATOM     34  C   UNL     1       5.647   5.361 -10.404  1.00  0.00     0.031 C 
ATOM     35  C   UNL     1       7.759   9.597  -6.592  1.00  0.00     0.029 A 
ATOM     36  C   UNL     1       7.167   8.448  -7.093  1.00  0.00     0.049 A 
ATOM     37  H   UNL     1       6.317   6.826  -6.043  1.00  0.00     0.167 HD
ATOM     38  C   UNL     1       6.418   6.912  -8.898  1.00  0.00     0.074 A 
ATOM     39  C   UNL     1       6.225   6.551 -10.288  1.00  0.00     0.031 C 
ATOM     40  C   UNL     1       6.971   8.073  -8.473  1.00  0.00     0.037 A 
BRANCH  27  41
ATOM     41  C   UNL     1       7.128   8.788  -2.339  1.00  0.00     0.064 A 
ATOM     42  C   UNL     1       6.439   9.999  -2.166  1.00  0.00     0.173 A 
ATOM     43  C   UNL     1       8.155   8.484  -1.433  1.00  0.00     0.173 A 
ATOM     44  F   UNL     1       5.455  10.344  -3.010  1.00  0.00    -0.203 F 
ATOM     45  C   UNL     1       6.769  10.872  -1.133  1.00  0.00     0.198 A 
ATOM     46  C   UNL     1       8.461   9.346  -0.382  1.00  0.00     0.198 A 
ATOM     47  F   UNL     1       8.840   7.336  -1.548  1.00  0.00    -0.203 F 
ATOM     48  F   UNL     1       6.114  12.035  -1.006  1.00  0.00    -0.200 F 
ATOM     49  C   UNL     1       7.774  10.542  -0.238  1.00  0.00     0.200 A 
ATOM     50  F   UNL     1       9.417   9.014   0.497  1.00  0.00    -0.200 F 
ATOM     51  F   UNL     1       8.079  11.375   0.767  1.00  0.00    -0.200 F 
ENDBRANCH  27  41
BRANCH  28  52
ATOM     52  C   UNL     1       4.464   2.712  -9.819  1.00  0.00     0.064 A 
ATOM     53  C   UNL     1       3.104   2.449 -10.043  1.00  0.00     0.173 A 
ATOM     54  C   UNL     1       5.402   2.005 -10.581  1.00  0.00     0.173 A 
ATOM     55  F   UNL     1       2.169   3.092  -9.328  1.00  0.00    -0.203 F 
ATOM     56  C   UNL     1       2.700   1.482 -10.961  1.00  0.00     0.198 A 
ATOM     57  C   UNL     1       4.997   1.056 -11.517  1.00  0.00     0.198 A 
ATOM     58  F   UNL     1       6.712   2.233 -10.408  1.00  0.00    -0.203 F 
ATOM     59  F   UNL     1       1.398   1.208 -11.114  1.00  0.00    -0.200 F 
ATOM     60  C   UNL     1       3.647   0.785 -11.696  1.00  0.00     0.200 A 
ATOM     61  F   UNL     1       5.913   0.393 -12.234  1.00  0.00    -0.200 F 
ATOM     62  F   UNL     1       3.261  -0.153 -12.570  1.00  0.00    -0.200 F 
ENDBRANCH  28  52
BRANCH  40  63
ATOM     63  C   UNL     1       7.439   9.050  -9.510  1.00  0.00     0.064 A 
ATOM     64  C   UNL     1       8.812   9.271  -9.701  1.00  0.00     0.173 A 
ATOM     65  C   UNL     1       6.536   9.859 -10.213  1.00  0.00     0.173 A 
ATOM     66  F   UNL     1       9.714   8.526  -9.045  1.00  0.00    -0.203 F 
ATOM     67  C   UNL     1       9.263  10.292 -10.531  1.00  0.00     0.198 A 
ATOM     68  C   UNL     1       6.992  10.863 -11.063  1.00  0.00     0.198 A 
ATOM     69  F   UNL     1       5.215   9.675 -10.073  1.00  0.00    -0.203 F 
ATOM     70  F   UNL     1      10.578  10.520 -10.656  1.00  0.00    -0.200 F 
ATOM     71  C   UNL     1       8.353  11.089 -11.209  1.00  0.00     0.200 A 
ATOM     72  F   UNL     1       6.113  11.623 -11.732  1.00  0.00    -0.200 F 
ATOM     73  F   UNL     1       8.789  12.080 -11.999  1.00  0.00    -0.200 F 
ENDBRANCH  40  63
ENDBRANCH  14  15
ENDBRANCH   7   9
ENDBRANCH   4   5
ENDBRANCH   3   4
ENDBRANCH   2   3
ENDBRANCH   1   2
BRANCH   1  74
ATOM     74  C   UNL     1       5.952  -3.150   2.963  1.00  0.00     0.021 C 
BRANCH  74  75
ATOM     75  C   UNL     1       6.813  -2.572   4.077  1.00  0.00     0.116 C 
BRANCH  75  76
ATOM     76  N   UNL     1       6.534  -3.160   5.371  1.00  0.00    -0.352 N 
ATOM     77  C   UNL     1       7.381  -3.450   6.418  1.00  0.00     0.252 C 
ATOM     78  H   UNL     1       5.589  -3.389   5.527  1.00  0.00     0.163 HD
ATOM     79  O   UNL     1       6.880  -3.761   7.494  1.00  0.00    -0.269 OA
BRANCH  77  80
ATOM     80  C   UNL     1       8.961  -3.439   6.149  1.00  0.00     0.060 A 
ATOM     81  C   UNL     1      10.639  -4.521   6.334  1.00  0.00     0.041 A 
ATOM     82  C   UNL     1       9.663  -2.566   6.158  1.00  0.00     0.053 A 
ATOM     83  C   UNL     1      11.995  -4.912   6.198  1.00  0.00     0.041 A 
ATOM     84  C   UNL     1      11.652  -2.862   6.278  1.00  0.00     0.023 A 
ATOM     85  Cl  UNL     1       8.449  -0.846   6.370  1.00  0.00    -0.083 Cl
ATOM     86  C   UNL     1      12.676  -3.829   6.158  1.00  0.00     0.028 A 
BRANCH  83  87
ATOM     87  N   UNL     1      12.361  -6.252   6.218  1.00  0.00    -0.332 N 
ATOM     88  H   UNL     1      13.332  -6.416   6.231  1.00  0.00     0.169 HD
BRANCH  87  89
ATOM     89  C   UNL     1      11.588  -7.376   6.222  1.00  0.00     0.177 C 
ATOM     90  S   UNL     1      12.391  -8.848   6.150  1.00  0.00    -0.040 S 
BRANCH  89  91
ATOM     91  N   UNL     1      10.193  -7.424   6.307  1.00  0.00    -0.299 N 
ATOM     92  C   UNL     1       8.975  -6.680   6.428  1.00  0.00     0.260 C 
ATOM     93  H   UNL     1       9.940  -8.375   6.267  1.00  0.00     0.172 HD
ATOM     94  O   UNL     1       7.908  -7.261   6.601  1.00  0.00    -0.269 OA
BRANCH  92  95
ATOM     95  C   UNL     1       8.981  -5.196   6.356  1.00  0.00     0.075 A 
ATOM     96  C   UNL     1       9.502  -3.957   7.893  1.00  0.00     0.017 A 
ATOM     97  C   UNL     1       9.624  -4.351   4.642  1.00  0.00     0.135 A 
ATOM     98  C   UNL     1      10.362  -2.158   7.759  1.00  0.00     0.001 A 
ATOM     99  C   UNL     1      10.450  -2.551   4.486  1.00  0.00     0.040 A 
ATOM    100  F   UNL     1       9.563  -5.094   3.523  1.00  0.00    -0.206 F 
ATOM    101  C   UNL     1      10.780  -1.252   5.985  1.00  0.00     0.003 A 
ENDBRANCH  92  95
ENDBRANCH  89  91
ENDBRANCH  87  89
ENDBRANCH  83  87
ENDBRANCH  77  80
ENDBRANCH  75  76
ENDBRANCH  74  75
ENDBRANCH   1  74
TORSDOF 17
