REMARK SMILES O=C(NCCCCCCNC(=O)[C@H](NC(=O)c1cccs1)[C@]12C[C@H]3C[C@H](C[C@H](C3)C1)C2)c1ccc(-c2c3nc(c(-c4c(F)c(F)c(F)c(F)c4F)c4ccc([nH]4)c(-c4c(F)c(F)c(F)c(F)c4F)c4nc(c(-c5c(F)c(F)c(F)c(F)c5F)c5ccc2[nH]5)C=C4)C=C3)cc1
REMARK SMILES IDX 6 1 5 2 4 3 3 4 1 5 2 6 32 8 33 9 94 10 34 11 93 12 35 13
REMARK SMILES IDX 36 14 37 15 87 16 38 17 92 18 86 19 88 20 39 21 91 22 85 23
REMARK SMILES IDX 84 24 40 26 72 27 52 28 71 29 53 30 56 31 70 32 89 33 54 34
REMARK SMILES IDX 55 35 69 37 90 38 57 39 41 40 42 41 50 42 43 43 44 44 48 45
REMARK SMILES IDX 51 46 45 47 46 48 49 49 47 50 73 51 74 52 82 53 75 54 76 55
REMARK SMILES IDX 80 56 83 57 77 58 78 59 81 60 79 61 58 62 59 63 67 64 60 65
REMARK SMILES IDX 61 66 65 67 68 68 62 69 63 70 66 71 64 72 7 73 8 74 9 75
REMARK SMILES IDX 10 76 11 77 12 79 13 80 14 81 15 82 16 84 17 85 18 86 21 87
REMARK SMILES IDX 19 88 20 89 22 90 23 91 30 92 31 93 24 94 28 95 26 96 25 97
REMARK SMILES IDX 29 98 27 99
REMARK H PARENT 3 7 88 25 56 36 10 78 14 83
REMARK Flexibility Score: inf
ROOT
ATOM      1  C   UNL     1      12.617   6.172   5.361  1.00  0.00     0.002 C 
ENDROOT
BRANCH   1   2
ATOM      2  C   UNL     1      13.688   7.256   5.450  1.00  0.00     0.021 C 
BRANCH   2   3
ATOM      3  C   UNL     1      13.609   8.117   6.703  1.00  0.00     0.116 C 
BRANCH   3   4
ATOM      4  N   UNL     1      13.932   7.378   7.913  1.00  0.00    -0.352 N 
ATOM      5  O   UNL     1      15.136   6.865   9.756  1.00  0.00    -0.269 OA
ATOM      6  C   UNL     1      14.869   7.671   8.877  1.00  0.00     0.251 C 
ATOM      7  H   UNL     1      13.409   6.557   8.062  1.00  0.00     0.163 HD
BRANCH   6   8
ATOM      8  C   UNL     1      15.570   8.973   8.825  1.00  0.00     0.039 A 
ATOM      9  C   UNL     1      14.853  10.148   8.591  1.00  0.00     0.014 A 
ATOM     10  C   UNL     1      16.955   9.016   9.005  1.00  0.00     0.014 A 
ATOM     11  C   UNL     1      15.533  11.341   8.392  1.00  0.00     0.010 A 
ATOM     12  C   UNL     1      17.627  10.238   8.906  1.00  0.00     0.010 A 
ATOM     13  C   UNL     1      16.923  11.408   8.579  1.00  0.00    -0.014 A 
BRANCH  13  14
ATOM     14  C   UNL     1      17.590  12.733   8.537  1.00  0.00     0.031 A 
ATOM     15  C   UNL     1      18.626  13.062   7.500  1.00  0.00     0.074 A 
ATOM     16  C   UNL     1      17.224  13.654   9.450  1.00  0.00     0.049 A 
ATOM     17  N   UNL     1      19.293  14.176   7.331  1.00  0.00    -0.248 NA
ATOM     18  C   UNL     1      18.965  12.009   6.531  1.00  0.00     0.031 C 
ATOM     19  C   UNL     1      16.237  13.437  10.513  1.00  0.00     0.029 A 
ATOM     20  N   UNL     1      17.621  14.954   9.631  1.00  0.00    -0.354 N 
ATOM     21  C   UNL     1      20.140  13.956   6.253  1.00  0.00     0.074 A 
ATOM     22  C   UNL     1      19.919  12.593   5.817  1.00  0.00     0.031 C 
ATOM     23  C   UNL     1      16.076  14.573  11.205  1.00  0.00     0.029 A 
ATOM     24  C   UNL     1      17.001  15.573  10.690  1.00  0.00     0.049 A 
ATOM     25  H   UNL     1      18.286  15.400   9.059  1.00  0.00     0.167 HD
ATOM     26  C   UNL     1      21.015  14.819   5.683  1.00  0.00     0.037 A 
ATOM     27  C   UNL     1      17.180  16.799  11.211  1.00  0.00     0.037 A 
ATOM     28  C   UNL     1      21.217  16.179   6.120  1.00  0.00     0.049 A 
ATOM     29  C   UNL     1      18.189  17.714  10.576  1.00  0.00     0.074 A 
ATOM     30  C   UNL     1      22.046  17.145   5.575  1.00  0.00     0.029 A 
ATOM     31  N   UNL     1      20.593  16.762   7.213  1.00  0.00    -0.354 N 
ATOM     32  N   UNL     1      18.942  17.512   9.523  1.00  0.00    -0.248 NA
ATOM     33  C   UNL     1      18.373  19.028  11.205  1.00  0.00     0.031 C 
ATOM     34  C   UNL     1      21.973  18.288   6.375  1.00  0.00     0.029 A 
ATOM     35  C   UNL     1      21.047  18.062   7.380  1.00  0.00     0.049 A 
ATOM     36  H   UNL     1      19.927  16.318   7.787  1.00  0.00     0.167 HD
ATOM     37  C   UNL     1      19.672  18.678   9.349  1.00  0.00     0.074 A 
ATOM     38  C   UNL     1      19.250  19.593  10.388  1.00  0.00     0.031 C 
ATOM     39  C   UNL     1      20.613  18.963   8.416  1.00  0.00     0.037 A 
BRANCH  26  40
ATOM     40  C   UNL     1      21.846  14.331   4.529  1.00  0.00     0.064 A 
ATOM     41  C   UNL     1      21.292  14.104   3.262  1.00  0.00     0.173 A 
ATOM     42  C   UNL     1      23.236  14.184   4.673  1.00  0.00     0.173 A 
ATOM     43  F   UNL     1      19.970  14.224   3.071  1.00  0.00    -0.203 F 
ATOM     44  C   UNL     1      22.095  13.739   2.183  1.00  0.00     0.198 A 
ATOM     45  C   UNL     1      24.039  13.846   3.586  1.00  0.00     0.198 A 
ATOM     46  F   UNL     1      23.819  14.397   5.862  1.00  0.00    -0.203 F 
ATOM     47  F   UNL     1      21.540  13.501   0.987  1.00  0.00    -0.200 F 
ATOM     48  C   UNL     1      23.468  13.621   2.343  1.00  0.00     0.200 A 
ATOM     49  F   UNL     1      25.367  13.750   3.740  1.00  0.00    -0.200 F 
ATOM     50  F   UNL     1      24.241  13.291   1.299  1.00  0.00    -0.200 F 
ENDBRANCH  26  40
BRANCH  27  51
ATOM     51  C   UNL     1      16.414  17.219  12.414  1.00  0.00     0.064 A 
ATOM     52  C   UNL     1      15.493  18.273  12.357  1.00  0.00     0.173 A 
ATOM     53  C   UNL     1      16.607  16.589  13.654  1.00  0.00     0.173 A 
ATOM     54  F   UNL     1      15.284  18.918  11.199  1.00  0.00    -0.203 F 
ATOM     55  C   UNL     1      14.822  18.705  13.498  1.00  0.00     0.198 A 
ATOM     56  C   UNL     1      15.905  16.995  14.786  1.00  0.00     0.198 A 
ATOM     57  F   UNL     1      17.470  15.569  13.763  1.00  0.00    -0.203 F 
ATOM     58  F   UNL     1      13.996  19.758  13.428  1.00  0.00    -0.200 F 
ATOM     59  C   UNL     1      15.024  18.062  14.711  1.00  0.00     0.200 A 
ATOM     60  F   UNL     1      16.089  16.357  15.949  1.00  0.00    -0.200 F 
ATOM     61  F   UNL     1      14.380  18.480  15.809  1.00  0.00    -0.200 F 
ENDBRANCH  27  51
BRANCH  39  62
ATOM     62  C   UNL     1      21.220  20.336   8.457  1.00  0.00     0.064 A 
ATOM     63  C   UNL     1      22.083  20.731   9.490  1.00  0.00     0.173 A 
ATOM     64  C   UNL     1      20.949  21.262   7.438  1.00  0.00     0.173 A 
ATOM     65  F   UNL     1      22.360  19.889  10.498  1.00  0.00    -0.203 F 
ATOM     66  C   UNL     1      22.625  22.013   9.519  1.00  0.00     0.198 A 
ATOM     67  C   UNL     1      21.522  22.530   7.451  1.00  0.00     0.198 A 
ATOM     68  F   UNL     1      20.135  20.934   6.424  1.00  0.00    -0.203 F 
ATOM     69  F   UNL     1      23.397  22.388  10.549  1.00  0.00    -0.200 F 
ATOM     70  C   UNL     1      22.350  22.908   8.496  1.00  0.00     0.200 A 
ATOM     71  F   UNL     1      21.268  23.388   6.453  1.00  0.00    -0.200 F 
ATOM     72  F   UNL     1      22.878  24.140   8.523  1.00  0.00    -0.200 F 
ENDBRANCH  39  62
ENDBRANCH  13  14
ENDBRANCH   6   8
ENDBRANCH   3   4
ENDBRANCH   2   3
ENDBRANCH   1   2
BRANCH   1  73
ATOM     73  C   UNL     1      11.175   6.684   5.443  1.00  0.00     0.002 C 
BRANCH  73  74
ATOM     74  C   UNL     1      10.787   7.747   4.401  1.00  0.00     0.021 C 
BRANCH  74  75
ATOM     75  C   UNL     1      10.916   7.293   2.945  1.00  0.00     0.116 C 
BRANCH  75  76
ATOM     76  N   UNL     1      10.055   6.159   2.697  1.00  0.00    -0.354 N 
ATOM     77  C   UNL     1       8.976   6.019   1.893  1.00  0.00     0.243 C 
ATOM     78  H   UNL     1      10.297   5.347   3.199  1.00  0.00     0.163 HD
ATOM     79  O   UNL     1       8.251   5.046   2.139  1.00  0.00    -0.273 OA
BRANCH  77  80
ATOM     80  C   UNL     1       8.677   6.971   0.688  1.00  0.00     0.177 C 
BRANCH  80  81
ATOM     81  N   UNL     1       7.167   6.934   0.695  1.00  0.00    -0.339 N 
ATOM     82  C   UNL     1       6.047   7.242  -0.033  1.00  0.00     0.262 C 
ATOM     83  H   UNL     1       6.875   6.538   1.548  1.00  0.00     0.164 HD
ATOM     84  O   UNL     1       5.063   7.574   0.634  1.00  0.00    -0.268 OA
BRANCH  82  85
ATOM     85  C   UNL     1       5.958   7.076  -1.462  1.00  0.00     0.092 A 
ATOM     86  C   UNL     1       6.022   5.912  -2.209  1.00  0.00     0.025 A 
ATOM     87  S   UNL     1       5.630   8.437  -2.459  1.00  0.00    -0.139 S 
ATOM     88  C   UNL     1       5.995   6.171  -3.614  1.00  0.00     0.012 A 
ATOM     89  C   UNL     1       5.842   7.513  -3.888  1.00  0.00     0.065 A 
ENDBRANCH  82  85
ENDBRANCH  80  81
BRANCH  80  90
ATOM     90  C   UNL     1       9.544   6.552  -0.558  1.00  0.00     0.000 C 
ATOM     91  C   UNL     1      11.066   6.915  -0.424  1.00  0.00     0.013 C 
ATOM     92  C   UNL     1       9.131   7.333  -1.815  1.00  0.00     0.013 C 
ATOM     93  C   UNL     1       9.487   5.018  -0.775  1.00  0.00     0.013 C 
ATOM     94  C   UNL     1      11.859   6.509  -1.701  1.00  0.00    -0.010 C 
ATOM     95  C   UNL     1       9.815   6.836  -3.088  1.00  0.00    -0.010 C 
ATOM     96  C   UNL     1      10.259   4.595  -2.029  1.00  0.00    -0.010 C 
ATOM     97  C   UNL     1      11.739   4.990  -1.894  1.00  0.00     0.007 C 
ATOM     98  C   UNL     1      11.292   7.191  -2.957  1.00  0.00     0.007 C 
ATOM     99  C   UNL     1       9.642   5.313  -3.231  1.00  0.00     0.007 C 
ENDBRANCH  80  90
ENDBRANCH  77  80
ENDBRANCH  75  76
ENDBRANCH  74  75
ENDBRANCH  73  74
ENDBRANCH   1  73
TORSDOF 16
