REMARK SMILES O=C(COc1ccc(/C=N/NC(=O)c2cc3cc([N+](=O)[O-])ccc3o2)cc1)NCCCCCCNC(=O)c1ccc(-c2c3nc(c(-c4c(F)c(F)c(F)c(F)c4F)c4ccc([nH]4)c(-c4c(F)c(F)c(F)c(F)c4F)c4nc(c(-c5c(F)c(F)c(F)c(F)c5F)c5ccc2[nH]5)C=C4)C=C3)cc1
REMARK SMILES IDX 29 1 28 2 1 3 2 4 3 6 4 7 5 8 6 9 27 10 7 11 26 12 8 13 9 14
REMARK SMILES IDX 10 15 11 16 12 17 13 19 14 20 15 21 25 22 16 23 24 24 17 25
REMARK SMILES IDX 23 26 18 27 22 28 19 29 20 30 21 31 30 32 31 33 32 34 33 35
REMARK SMILES IDX 34 36 35 37 36 38 37 40 38 41 39 42 100 43 40 44 99 45 41 46
REMARK SMILES IDX 42 47 43 48 93 49 44 50 98 51 92 52 94 53 45 54 97 55 91 56
REMARK SMILES IDX 90 57 46 59 78 60 58 61 77 62 59 63 62 64 76 65 95 66 60 67
REMARK SMILES IDX 61 68 75 70 96 71 63 72 47 73 48 74 56 75 49 76 50 77 54 78
REMARK SMILES IDX 57 79 51 80 52 81 55 82 53 83 79 84 80 85 88 86 81 87 82 88
REMARK SMILES IDX 86 89 89 90 83 91 84 92 87 93 85 94 64 95 65 96 73 97 66 98
REMARK SMILES IDX 67 99 71 100 74 101 68 102 69 103 72 104 70 105
REMARK H PARENT 28 5 11 18 35 39 94 58 62 69
REMARK Flexibility Score: inf
ROOT
ATOM      1  C   UNL     1       2.251  -2.370  -0.554  1.00  0.00     0.116 C 
ENDROOT
BRANCH   1   2
ATOM      2  N   UNL     1       2.887  -1.108  -0.247  1.00  0.00    -0.353 N 
ATOM      3  O   UNL     1       1.115   0.233  -0.840  1.00  0.00    -0.271 OA
ATOM      4  C   UNL     1       2.225   0.100  -0.335  1.00  0.00     0.257 C 
ATOM      5  H   UNL     1       3.830  -1.111   0.037  1.00  0.00     0.163 HD
BRANCH   4   6
ATOM      6  C   UNL     1       2.991   1.268   0.291  1.00  0.00     0.329 C 
BRANCH   6   7
ATOM      7  O   UNL     1       3.860   0.926   1.372  1.00  0.00    -0.484 OA
BRANCH   7   8
ATOM      8  C   UNL     1       3.231   0.762   2.578  1.00  0.00     0.120 A 
ATOM      9  C   UNL     1       3.757   1.463   3.663  1.00  0.00     0.047 A 
ATOM     10  C   UNL     1       2.199  -0.156   2.785  1.00  0.00     0.047 A 
ATOM     11  C   UNL     1       3.238   1.258   4.945  1.00  0.00     0.013 A 
ATOM     12  C   UNL     1       1.691  -0.382   4.063  1.00  0.00     0.013 A 
ATOM     13  C   UNL     1       2.212   0.324   5.142  1.00  0.00    -0.005 A 
BRANCH  13  14
ATOM     14  C   UNL     1       1.742  -0.029   6.496  1.00  0.00     0.141 C 
ATOM     15  N   UNL     1       2.069   0.702   7.504  1.00  0.00    -0.180 NA
BRANCH  15  16
ATOM     16  N   UNL     1       1.825   0.303   8.775  1.00  0.00    -0.240 N 
ATOM     17  C   UNL     1       1.071  -0.690   9.354  1.00  0.00     0.307 C 
ATOM     18  H   UNL     1       2.298   0.853   9.440  1.00  0.00     0.194 HD
ATOM     19  O   UNL     1       1.446  -1.084  10.464  1.00  0.00    -0.264 OA
BRANCH  17  20
ATOM     20  C   UNL     1      -0.172  -1.188   8.799  1.00  0.00     0.194 A 
ATOM     21  C   UNL     1      -0.444  -2.453   8.288  1.00  0.00     0.065 A 
ATOM     22  O   UNL     1      -1.305  -0.720   9.428  1.00  0.00    -0.451 OA
ATOM     23  C   UNL     1      -1.574  -2.919   9.029  1.00  0.00     0.028 A 
ATOM     24  C   UNL     1      -2.061  -1.813   9.711  1.00  0.00     0.135 A 
ATOM     25  C   UNL     1      -2.121  -4.185   9.311  1.00  0.00     0.097 A 
ATOM     26  C   UNL     1      -3.075  -1.851  10.665  1.00  0.00     0.055 A 
ATOM     27  C   UNL     1      -3.054  -4.269  10.366  1.00  0.00     0.270 A 
ATOM     28  C   UNL     1      -3.533  -3.124  11.025  1.00  0.00     0.089 A 
BRANCH  27  29
ATOM     29  N   UNL     1      -3.450  -5.597  10.858  1.00  0.00     0.062 N 
ATOM     30  O   UNL     1      -3.118  -6.582  10.184  1.00  0.00    -0.258 OA
ATOM     31  O   UNL     1      -4.072  -5.654  11.928  1.00  0.00    -0.258 OA
ENDBRANCH  27  29
ENDBRANCH  17  20
ENDBRANCH  15  16
ENDBRANCH  13  14
ENDBRANCH   7   8
ENDBRANCH   6   7
ENDBRANCH   4   6
ENDBRANCH   1   2
BRANCH   1  32
ATOM     32  C   UNL     1       2.818  -3.008  -1.814  1.00  0.00     0.021 C 
BRANCH  32  33
ATOM     33  C   UNL     1       4.316  -3.327  -1.736  1.00  0.00     0.002 C 
BRANCH  33  34
ATOM     34  C   UNL     1       4.728  -4.282  -0.612  1.00  0.00     0.002 C 
BRANCH  34  35
ATOM     35  C   UNL     1       4.027  -5.642  -0.619  1.00  0.00     0.021 C 
BRANCH  35  36
ATOM     36  C   UNL     1       4.170  -6.431  -1.915  1.00  0.00     0.116 C 
BRANCH  36  37
ATOM     37  N   UNL     1       5.551  -6.784  -2.205  1.00  0.00    -0.352 N 
ATOM     38  C   UNL     1       6.091  -8.006  -2.516  1.00  0.00     0.251 C 
ATOM     39  H   UNL     1       6.191  -6.037  -2.172  1.00  0.00     0.163 HD
ATOM     40  O   UNL     1       7.311  -8.148  -2.566  1.00  0.00    -0.269 OA
BRANCH  38  41
ATOM     41  C   UNL     1       5.207  -9.164  -2.766  1.00  0.00     0.039 A 
ATOM     42  C   UNL     1       5.528 -10.396  -2.190  1.00  0.00     0.014 A 
ATOM     43  C   UNL     1       4.067  -9.040  -3.565  1.00  0.00     0.014 A 
ATOM     44  C   UNL     1       4.671 -11.485  -2.361  1.00  0.00     0.010 A 
ATOM     45  C   UNL     1       3.175 -10.103  -3.670  1.00  0.00     0.010 A 
ATOM     46  C   UNL     1       3.468 -11.338  -3.072  1.00  0.00    -0.014 A 
BRANCH  46  47
ATOM     47  C   UNL     1       2.506 -12.463  -3.197  1.00  0.00     0.031 A 
ATOM     48  C   UNL     1       2.183 -13.038  -4.549  1.00  0.00     0.074 A 
ATOM     49  C   UNL     1       1.875 -12.926  -2.100  1.00  0.00     0.049 A 
ATOM     50  N   UNL     1       1.323 -13.972  -4.869  1.00  0.00    -0.248 NA
ATOM     51  C   UNL     1       2.905 -12.469  -5.698  1.00  0.00     0.031 C 
ATOM     52  C   UNL     1       2.068 -12.424  -0.739  1.00  0.00     0.029 A 
ATOM     53  N   UNL     1       0.934 -13.917  -1.958  1.00  0.00    -0.354 N 
ATOM     54  C   UNL     1       1.392 -14.093  -6.250  1.00  0.00     0.074 A 
ATOM     55  C   UNL     1       2.334 -13.098  -6.715  1.00  0.00     0.031 C 
ATOM     56  C   UNL     1       1.290 -13.123   0.102  1.00  0.00     0.029 A 
ATOM     57  C   UNL     1       0.511 -14.092  -0.662  1.00  0.00     0.049 A 
ATOM     58  H   UNL     1       0.596 -14.451  -2.712  1.00  0.00     0.167 HD
ATOM     59  C   UNL     1       0.747 -14.970  -7.056  1.00  0.00     0.037 A 
ATOM     60  C   UNL     1      -0.410 -14.931  -0.151  1.00  0.00     0.037 A 
ATOM     61  C   UNL     1      -0.177 -15.970  -6.588  1.00  0.00     0.049 A 
ATOM     62  C   UNL     1      -1.130 -15.880  -1.072  1.00  0.00     0.074 A 
ATOM     63  C   UNL     1      -0.840 -16.941  -7.318  1.00  0.00     0.029 A 
ATOM     64  N   UNL     1      -0.575 -16.122  -5.267  1.00  0.00    -0.354 N 
ATOM     65  N   UNL     1      -1.004 -16.033  -2.368  1.00  0.00    -0.248 NA
ATOM     66  C   UNL     1      -2.117 -16.778  -0.456  1.00  0.00     0.031 C 
ATOM     67  C   UNL     1      -1.683 -17.642  -6.450  1.00  0.00     0.029 A 
ATOM     68  C   UNL     1      -1.497 -17.153  -5.167  1.00  0.00     0.049 A 
ATOM     69  H   UNL     1      -0.251 -15.579  -4.513  1.00  0.00     0.167 HD
ATOM     70  C   UNL     1      -1.868 -17.063  -2.717  1.00  0.00     0.074 A 
ATOM     71  C   UNL     1      -2.501 -17.509  -1.493  1.00  0.00     0.031 C 
ATOM     72  C   UNL     1      -2.114 -17.593  -3.941  1.00  0.00     0.037 A 
BRANCH  59  73
ATOM     73  C   UNL     1       1.016 -14.887  -8.532  1.00  0.00     0.064 A 
ATOM     74  C   UNL     1       2.263 -15.236  -9.076  1.00  0.00     0.173 A 
ATOM     75  C   UNL     1       0.004 -14.491  -9.420  1.00  0.00     0.173 A 
ATOM     76  F   UNL     1       3.269 -15.613  -8.272  1.00  0.00    -0.203 F 
ATOM     77  C   UNL     1       2.494 -15.160 -10.447  1.00  0.00     0.198 A 
ATOM     78  C   UNL     1       0.229 -14.450 -10.793  1.00  0.00     0.198 A 
ATOM     79  F   UNL     1      -1.209 -14.153  -8.956  1.00  0.00    -0.203 F 
ATOM     80  F   UNL     1       3.709 -15.447 -10.936  1.00  0.00    -0.200 F 
ATOM     81  C   UNL     1       1.476 -14.775 -11.305  1.00  0.00     0.200 A 
ATOM     82  F   UNL     1      -0.762 -14.093 -11.623  1.00  0.00    -0.200 F 
ATOM     83  F   UNL     1       1.698 -14.712 -12.625  1.00  0.00    -0.200 F 
ENDBRANCH  59  73
BRANCH  60  84
ATOM     84  C   UNL     1      -0.695 -14.925   1.309  1.00  0.00     0.064 A 
ATOM     85  C   UNL     1      -0.353 -16.021   2.114  1.00  0.00     0.173 A 
ATOM     86  C   UNL     1      -1.323 -13.834   1.927  1.00  0.00     0.173 A 
ATOM     87  F   UNL     1       0.232 -17.097   1.567  1.00  0.00    -0.203 F 
ATOM     88  C   UNL     1      -0.651 -16.036   3.475  1.00  0.00     0.198 A 
ATOM     89  C   UNL     1      -1.591 -13.836   3.294  1.00  0.00     0.198 A 
ATOM     90  F   UNL     1      -1.666 -12.758   1.204  1.00  0.00    -0.203 F 
ATOM     91  F   UNL     1      -0.361 -17.118   4.210  1.00  0.00    -0.200 F 
ATOM     92  C   UNL     1      -1.265 -14.942   4.065  1.00  0.00     0.200 A 
ATOM     93  F   UNL     1      -2.168 -12.769   3.863  1.00  0.00    -0.200 F 
ATOM     94  F   UNL     1      -1.548 -14.955   5.375  1.00  0.00    -0.200 F 
ENDBRANCH  60  84
BRANCH  72  95
ATOM     95  C   UNL     1      -3.077 -18.743  -4.016  1.00  0.00     0.064 A 
ATOM     96  C   UNL     1      -4.453 -18.572  -3.800  1.00  0.00     0.173 A 
ATOM     97  C   UNL     1      -2.620 -20.028  -4.347  1.00  0.00     0.173 A 
ATOM     98  F   UNL     1      -4.940 -17.367  -3.467  1.00  0.00    -0.203 F 
ATOM     99  C   UNL     1      -5.330 -19.650  -3.886  1.00  0.00     0.198 A 
ATOM    100  C   UNL     1      -3.505 -21.096  -4.466  1.00  0.00     0.198 A 
ATOM    101  F   UNL     1      -1.316 -20.246  -4.571  1.00  0.00    -0.203 F 
ATOM    102  F   UNL     1      -6.633 -19.473  -3.623  1.00  0.00    -0.200 F 
ATOM    103  C   UNL     1      -4.858 -20.908  -4.226  1.00  0.00     0.200 A 
ATOM    104  F   UNL     1      -3.048 -22.308  -4.813  1.00  0.00    -0.200 F 
ATOM    105  F   UNL     1      -5.705 -21.942  -4.317  1.00  0.00    -0.200 F 
ENDBRANCH  72  95
ENDBRANCH  46  47
ENDBRANCH  38  41
ENDBRANCH  36  37
ENDBRANCH  35  36
ENDBRANCH  34  35
ENDBRANCH  33  34
ENDBRANCH  32  33
ENDBRANCH   1  32
TORSDOF 19
