REMARK SMILES O=C(NCCCCCCNC(=O)[C@H](c1c[nH]c2ccc(Cl)cc12)[NH+]1CCN(c2cccc(Cl)c2)CC1)c1ccc(-c2c3nc(c(-c4c(F)c(F)c(F)c(F)c4F)c4ccc([nH]4)c(-c4c(F)c(F)c(F)c(F)c4F)c4nc(c(-c5c(F)c(F)c(F)c(F)c5F)c5ccc2[nH]5)C=C4)C=C3)cc1
REMARK SMILES IDX 6 1 5 2 4 3 3 4 1 5 2 6 37 8 38 9 99 10 39 11 98 12 40 13
REMARK SMILES IDX 41 14 42 15 92 16 43 17 97 18 91 19 93 20 44 21 96 22 90 23
REMARK SMILES IDX 89 24 45 26 77 27 57 28 76 29 58 30 61 31 75 32 94 33 59 34
REMARK SMILES IDX 60 35 74 37 95 38 62 39 46 40 47 41 55 42 48 43 49 44 53 45
REMARK SMILES IDX 56 46 50 47 51 48 54 49 52 50 78 51 79 52 87 53 80 54 81 55
REMARK SMILES IDX 85 56 88 57 82 58 83 59 86 60 84 61 63 62 64 63 72 64 65 65
REMARK SMILES IDX 66 66 70 67 73 68 67 69 68 70 71 71 69 72 7 73 8 74 9 75
REMARK SMILES IDX 10 76 11 77 12 79 13 80 24 81 25 82 36 83 26 85 35 86 27 87
REMARK SMILES IDX 28 88 29 89 34 90 30 91 32 92 31 93 33 94 14 95 15 96 23 97
REMARK SMILES IDX 16 98 17 99 22 100 18 102 20 103 19 104 21 105
REMARK H PARENT 3 7 93 25 61 36 10 78 24 84 16 101
REMARK Flexibility Score: inf
ROOT
ATOM      1  C   UNL     1      13.331   1.795   2.406  1.00  0.00     0.002 C 
ENDROOT
BRANCH   1   2
ATOM      2  C   UNL     1      14.028   2.783   1.466  1.00  0.00     0.021 C 
BRANCH   2   3
ATOM      3  C   UNL     1      15.470   3.116   1.819  1.00  0.00     0.116 C 
BRANCH   3   4
ATOM      4  N   UNL     1      16.307   1.932   1.903  1.00  0.00    -0.352 N 
ATOM      5  O   UNL     1      17.930   0.496   1.280  1.00  0.00    -0.269 OA
ATOM      6  C   UNL     1      17.453   1.629   1.220  1.00  0.00     0.251 C 
ATOM      7  H   UNL     1      16.006   1.248   2.545  1.00  0.00     0.163 HD
BRANCH   6   8
ATOM      8  C   UNL     1      18.121   2.665   0.408  1.00  0.00     0.039 A 
ATOM      9  C   UNL     1      18.298   3.956   0.915  1.00  0.00     0.014 A 
ATOM     10  C   UNL     1      18.623   2.327  -0.851  1.00  0.00     0.014 A 
ATOM     11  C   UNL     1      18.896   4.932   0.130  1.00  0.00     0.010 A 
ATOM     12  C   UNL     1      19.300   3.287  -1.606  1.00  0.00     0.010 A 
ATOM     13  C   UNL     1      19.443   4.595  -1.118  1.00  0.00    -0.014 A 
BRANCH  13  14
ATOM     14  C   UNL     1      20.299   5.580  -1.821  1.00  0.00     0.031 A 
ATOM     15  C   UNL     1      19.906   6.153  -3.148  1.00  0.00     0.074 A 
ATOM     16  C   UNL     1      21.460   5.932  -1.234  1.00  0.00     0.049 A 
ATOM     17  N   UNL     1      20.566   6.991  -3.907  1.00  0.00    -0.248 NA
ATOM     18  C   UNL     1      18.611   5.731  -3.705  1.00  0.00     0.031 C 
ATOM     19  C   UNL     1      21.944   5.413   0.049  1.00  0.00     0.029 A 
ATOM     20  N   UNL     1      22.447   6.797  -1.631  1.00  0.00    -0.354 N 
ATOM     21  C   UNL     1      19.783   7.182  -5.036  1.00  0.00     0.074 A 
ATOM     22  C   UNL     1      18.599   6.365  -4.872  1.00  0.00     0.031 C 
ATOM     23  C   UNL     1      23.120   5.983   0.342  1.00  0.00     0.029 A 
ATOM     24  C   UNL     1      23.511   6.847  -0.763  1.00  0.00     0.049 A 
ATOM     25  H   UNL     1      22.398   7.330  -2.458  1.00  0.00     0.167 HD
ATOM     26  C   UNL     1      20.040   7.970  -6.106  1.00  0.00     0.037 A 
ATOM     27  C   UNL     1      24.692   7.482  -0.866  1.00  0.00     0.037 A 
ATOM     28  C   UNL     1      21.218   8.790  -6.242  1.00  0.00     0.049 A 
ATOM     29  C   UNL     1      24.957   8.313  -2.089  1.00  0.00     0.074 A 
ATOM     30  C   UNL     1      21.530   9.687  -7.250  1.00  0.00     0.029 A 
ATOM     31  N   UNL     1      22.284   8.800  -5.355  1.00  0.00    -0.354 N 
ATOM     32  N   UNL     1      24.172   8.553  -3.110  1.00  0.00    -0.248 NA
ATOM     33  C   UNL     1      26.274   8.956  -2.179  1.00  0.00     0.031 C 
ATOM     34  C   UNL     1      22.814  10.184  -7.010  1.00  0.00     0.029 A 
ATOM     35  C   UNL     1      23.278   9.647  -5.821  1.00  0.00     0.049 A 
ATOM     36  H   UNL     1      22.329   8.282  -4.519  1.00  0.00     0.167 HD
ATOM     37  C   UNL     1      24.893   9.380  -3.958  1.00  0.00     0.074 A 
ATOM     38  C   UNL     1      26.166   9.630  -3.314  1.00  0.00     0.031 C 
ATOM     39  C   UNL     1      24.540   9.879  -5.167  1.00  0.00     0.037 A 
BRANCH  26  40
ATOM     40  C   UNL     1      19.056   7.984  -7.239  1.00  0.00     0.064 A 
ATOM     41  C   UNL     1      17.816   8.631  -7.136  1.00  0.00     0.173 A 
ATOM     42  C   UNL     1      19.410   7.440  -8.484  1.00  0.00     0.173 A 
ATOM     43  F   UNL     1      17.427   9.162  -5.967  1.00  0.00    -0.203 F 
ATOM     44  C   UNL     1      16.967   8.729  -8.236  1.00  0.00     0.198 A 
ATOM     45  C   UNL     1      18.570   7.562  -9.588  1.00  0.00     0.198 A 
ATOM     46  F   UNL     1      20.588   6.817  -8.638  1.00  0.00    -0.203 F 
ATOM     47  F   UNL     1      15.779   9.337  -8.110  1.00  0.00    -0.200 F 
ATOM     48  C   UNL     1      17.349   8.206  -9.463  1.00  0.00     0.200 A 
ATOM     49  F   UNL     1      18.950   7.070 -10.775  1.00  0.00    -0.200 F 
ATOM     50  F   UNL     1      16.542   8.326 -10.526  1.00  0.00    -0.200 F 
ENDBRANCH  26  40
BRANCH  27  51
ATOM     51  C   UNL     1      25.729   7.309   0.186  1.00  0.00     0.064 A 
ATOM     52  C   UNL     1      26.156   8.390   0.968  1.00  0.00     0.173 A 
ATOM     53  C   UNL     1      26.334   6.063   0.410  1.00  0.00     0.173 A 
ATOM     54  F   UNL     1      25.621   9.605   0.782  1.00  0.00    -0.203 F 
ATOM     55  C   UNL     1      27.174   8.238   1.909  1.00  0.00     0.198 A 
ATOM     56  C   UNL     1      27.323   5.904   1.378  1.00  0.00     0.198 A 
ATOM     57  F   UNL     1      25.958   4.993  -0.306  1.00  0.00    -0.203 F 
ATOM     58  F   UNL     1      27.609   9.302   2.596  1.00  0.00    -0.200 F 
ATOM     59  C   UNL     1      27.752   6.995   2.116  1.00  0.00     0.200 A 
ATOM     60  F   UNL     1      27.863   4.696   1.588  1.00  0.00    -0.200 F 
ATOM     61  F   UNL     1      28.732   6.851   3.018  1.00  0.00    -0.200 F 
ENDBRANCH  27  51
BRANCH  39  62
ATOM     62  C   UNL     1      25.542  10.750  -5.865  1.00  0.00     0.064 A 
ATOM     63  C   UNL     1      26.716  10.215  -6.417  1.00  0.00     0.173 A 
ATOM     64  C   UNL     1      25.309  12.124  -6.018  1.00  0.00     0.173 A 
ATOM     65  F   UNL     1      26.993   8.909  -6.279  1.00  0.00    -0.203 F 
ATOM     66  C   UNL     1      27.631  11.030  -7.077  1.00  0.00     0.198 A 
ATOM     67  C   UNL     1      26.210  12.930  -6.708  1.00  0.00     0.198 A 
ATOM     68  F   UNL     1      24.200  12.684  -5.511  1.00  0.00    -0.203 F 
ATOM     69  F   UNL     1      28.769  10.507  -7.552  1.00  0.00    -0.200 F 
ATOM     70  C   UNL     1      27.372  12.384  -7.230  1.00  0.00     0.200 A 
ATOM     71  F   UNL     1      25.951  14.235  -6.869  1.00  0.00    -0.200 F 
ATOM     72  F   UNL     1      28.249  13.165  -7.877  1.00  0.00    -0.200 F 
ENDBRANCH  39  62
ENDBRANCH  13  14
ENDBRANCH   6   8
ENDBRANCH   3   4
ENDBRANCH   2   3
ENDBRANCH   1   2
BRANCH   1  73
ATOM     73  C   UNL     1      13.352   2.129   3.903  1.00  0.00     0.002 C 
BRANCH  73  74
ATOM     74  C   UNL     1      12.888   3.527   4.302  1.00  0.00     0.021 C 
BRANCH  74  75
ATOM     75  C   UNL     1      11.585   4.000   3.689  1.00  0.00     0.116 C 
BRANCH  75  76
ATOM     76  N   UNL     1      10.353   3.551   4.250  1.00  0.00    -0.351 N 
ATOM     77  C   UNL     1       9.114   4.146   4.193  1.00  0.00     0.283 C 
ATOM     78  H   UNL     1      10.395   2.701   4.745  1.00  0.00     0.163 HD
ATOM     79  O   UNL     1       8.205   3.329   4.416  1.00  0.00    -0.268 OA
BRANCH  77  80
ATOM     80  C   UNL     1       8.840   5.740   4.074  1.00  0.00     0.307 C 
BRANCH  80  81
ATOM     81  N   UNL     1       8.998   6.410   2.732  1.00  0.00    -0.318 N 
ATOM     82  C   UNL     1       8.693   7.891   2.776  1.00  0.00     0.284 C 
ATOM     83  C   UNL     1      10.295   6.318   2.055  1.00  0.00     0.284 C 
ATOM     84  H   UNL     1       8.324   5.861   2.198  1.00  0.00     0.349 HD
ATOM     85  C   UNL     1       9.798   8.837   3.360  1.00  0.00     0.178 C 
ATOM     86  C   UNL     1      11.428   7.133   2.721  1.00  0.00     0.178 C 
ATOM     87  N   UNL     1      11.081   8.549   2.703  1.00  0.00    -0.360 N 
BRANCH  87  88
ATOM     88  C   UNL     1      12.134   9.437   2.587  1.00  0.00     0.038 A 
ATOM     89  C   UNL     1      13.024   9.298   1.504  1.00  0.00     0.026 A 
ATOM     90  C   UNL     1      12.386  10.464   3.499  1.00  0.00     0.046 A 
ATOM     91  C   UNL     1      14.133  10.126   1.339  1.00  0.00     0.004 A 
ATOM     92  C   UNL     1      13.502  11.296   3.339  1.00  0.00     0.043 A 
ATOM     93  C   UNL     1      14.376  11.130   2.265  1.00  0.00     0.020 A 
ATOM     94  Cl  UNL     1      13.817  12.535   4.493  1.00  0.00    -0.084 Cl
ENDBRANCH  87  88
ENDBRANCH  80  81
BRANCH  80  95
ATOM     95  C   UNL     1       7.346   5.928   4.404  1.00  0.00     0.044 A 
ATOM     96  C   UNL     1       6.294   5.373   3.685  1.00  0.00     0.094 A 
ATOM     97  C   UNL     1       6.744   6.757   5.411  1.00  0.00     0.011 A 
ATOM     98  N   UNL     1       5.116   5.787   4.228  1.00  0.00    -0.361 N 
ATOM     99  C   UNL     1       5.356   6.668   5.253  1.00  0.00     0.046 A 
ATOM    100  C   UNL     1       7.246   7.615   6.411  1.00  0.00     0.031 A 
ATOM    101  H   UNL     1       4.223   5.497   3.929  1.00  0.00     0.166 HD
ATOM    102  C   UNL     1       4.447   7.389   6.034  1.00  0.00     0.028 A 
ATOM    103  C   UNL     1       6.345   8.350   7.191  1.00  0.00     0.041 A 
ATOM    104  C   UNL     1       4.969   8.242   7.007  1.00  0.00     0.022 A 
ATOM    105  Cl  UNL     1       6.955   9.425   8.390  1.00  0.00    -0.084 Cl
ENDBRANCH  80  95
ENDBRANCH  77  80
ENDBRANCH  75  76
ENDBRANCH  74  75
ENDBRANCH  73  74
ENDBRANCH   1  73
TORSDOF 16
