REMARK SMILES O=C(NCCCCCCNC(=O)[C@H](c1c[nH]c2cc(F)ccc12)[NH+]1CC[NH+](CC(=O)N2CCOCC2)CC1)c1ccc(-c2c3nc(c(-c4c(F)c(F)c(F)c(F)c4F)c4ccc([nH]4)c(-c4c(F)c(F)c(F)c(F)c4F)c4nc(c(-c5c(F)c(F)c(F)c(F)c5F)c5ccc2[nH]5)C=C4)C=C3)cc1
REMARK SMILES IDX 7 1 6 2 5 3 4 4 3 5 1 6 2 7 39 9 40 10 101 11 41 12 100 13
REMARK SMILES IDX 42 14 43 15 44 16 94 17 45 18 99 19 93 20 95 21 46 22 98 23
REMARK SMILES IDX 92 24 91 25 47 27 79 28 59 29 78 30 60 31 63 32 77 33 96 34
REMARK SMILES IDX 61 35 62 36 76 38 97 39 64 40 48 41 49 42 57 43 50 44 51 45
REMARK SMILES IDX 55 46 58 47 52 48 53 49 56 50 54 51 80 52 81 53 89 54 82 55
REMARK SMILES IDX 83 56 87 57 90 58 84 59 85 60 88 61 86 62 65 63 66 64 74 65
REMARK SMILES IDX 67 66 68 67 72 68 75 69 69 70 70 71 73 72 71 73 8 74 9 75
REMARK SMILES IDX 10 76 11 77 12 79 13 80 24 81 25 82 38 83 26 85 37 86 27 87
REMARK SMILES IDX 28 89 29 90 30 91 31 92 32 93 36 94 33 95 35 96 34 97 14 98
REMARK SMILES IDX 15 99 23 100 16 101 17 102 22 103 18 105 21 106 19 107
REMARK SMILES IDX 20 108
REMARK H PARENT 3 8 95 26 63 37 10 78 24 84 27 88 16 104
REMARK Flexibility Score: inf
ROOT
ATOM      1  C   UNL     1      11.473  -6.798  -5.829  1.00  0.00     0.002 C 
ENDROOT
BRANCH   1   2
ATOM      2  C   UNL     1      12.857  -6.144  -5.757  1.00  0.00     0.002 C 
BRANCH   2   3
ATOM      3  C   UNL     1      14.009  -7.143  -5.677  1.00  0.00     0.021 C 
BRANCH   3   4
ATOM      4  C   UNL     1      14.039  -8.123  -6.839  1.00  0.00     0.116 C 
BRANCH   4   5
ATOM      5  N   UNL     1      14.220  -7.447  -8.114  1.00  0.00    -0.352 N 
ATOM      6  O   UNL     1      15.306  -6.945 -10.031  1.00  0.00    -0.269 OA
ATOM      7  C   UNL     1      15.135  -7.715  -9.102  1.00  0.00     0.251 C 
ATOM      8  H   UNL     1      13.605  -6.699  -8.292  1.00  0.00     0.163 HD
BRANCH   7   9
ATOM      9  C   UNL     1      15.928  -8.956  -9.000  1.00  0.00     0.039 A 
ATOM     10  C   UNL     1      15.296 -10.163  -8.694  1.00  0.00     0.014 A 
ATOM     11  C   UNL     1      17.312  -8.896  -9.171  1.00  0.00     0.014 A 
ATOM     12  C   UNL     1      16.062 -11.285  -8.418  1.00  0.00     0.010 A 
ATOM     13  C   UNL     1      18.073 -10.050  -8.985  1.00  0.00     0.010 A 
ATOM     14  C   UNL     1      17.457 -11.245  -8.577  1.00  0.00    -0.014 A 
BRANCH  14  15
ATOM     15  C   UNL     1      18.243 -12.482  -8.361  1.00  0.00     0.031 A 
ATOM     16  C   UNL     1      19.251 -12.579  -7.253  1.00  0.00     0.074 A 
ATOM     17  C   UNL     1      18.016 -13.533  -9.171  1.00  0.00     0.049 A 
ATOM     18  N   UNL     1      20.013 -13.589  -6.918  1.00  0.00    -0.248 NA
ATOM     19  C   UNL     1      19.437 -11.384  -6.417  1.00  0.00     0.031 C 
ATOM     20  C   UNL     1      17.062 -13.546 -10.283  1.00  0.00     0.029 A 
ATOM     21  N   UNL     1      18.550 -14.794  -9.176  1.00  0.00    -0.354 N 
ATOM     22  C   UNL     1      20.787 -13.146  -5.854  1.00  0.00     0.074 A 
ATOM     23  C   UNL     1      20.419 -11.767  -5.613  1.00  0.00     0.031 C 
ATOM     24  C   UNL     1      17.040 -14.770 -10.828  1.00  0.00     0.029 A 
ATOM     25  C   UNL     1      18.023 -15.605 -10.149  1.00  0.00     0.049 A 
ATOM     26  H   UNL     1      19.244 -15.090  -8.543  1.00  0.00     0.167 HD
ATOM     27  C   UNL     1      21.715 -13.833  -5.144  1.00  0.00     0.037 A 
ATOM     28  C   UNL     1      18.310 -16.879 -10.470  1.00  0.00     0.037 A 
ATOM     29  C   UNL     1      22.059 -15.212  -5.385  1.00  0.00     0.049 A 
ATOM     30  C   UNL     1      19.358 -17.607  -9.681  1.00  0.00     0.074 A 
ATOM     31  C   UNL     1      22.953 -16.013  -4.695  1.00  0.00     0.029 A 
ATOM     32  N   UNL     1      21.529 -15.994  -6.402  1.00  0.00    -0.354 N 
ATOM     33  N   UNL     1      20.057 -17.191  -8.653  1.00  0.00    -0.248 NA
ATOM     34  C   UNL     1      19.658 -18.982 -10.099  1.00  0.00     0.031 C 
ATOM     35  C   UNL     1      23.003 -17.260  -5.327  1.00  0.00     0.029 A 
ATOM     36  C   UNL     1      22.096 -17.259  -6.374  1.00  0.00     0.049 A 
ATOM     37  H   UNL     1      20.849 -15.694  -7.048  1.00  0.00     0.167 HD
ATOM     38  C   UNL     1      20.861 -18.259  -8.283  1.00  0.00     0.074 A 
ATOM     39  C   UNL     1      20.552 -19.346  -9.191  1.00  0.00     0.031 C 
ATOM     40  C   UNL     1      21.772 -18.332  -7.282  1.00  0.00     0.037 A 
BRANCH  27  41
ATOM     41  C   UNL     1      22.446 -13.094  -4.059  1.00  0.00     0.064 A 
ATOM     42  C   UNL     1      21.810 -12.692  -2.874  1.00  0.00     0.173 A 
ATOM     43  C   UNL     1      23.812 -12.803  -4.198  1.00  0.00     0.173 A 
ATOM     44  F   UNL     1      20.503 -12.934  -2.693  1.00  0.00    -0.203 F 
ATOM     45  C   UNL     1      22.505 -11.996  -1.887  1.00  0.00     0.198 A 
ATOM     46  C   UNL     1      24.511 -12.135  -3.195  1.00  0.00     0.198 A 
ATOM     47  F   UNL     1      24.473 -13.171  -5.306  1.00  0.00    -0.203 F 
ATOM     48  F   UNL     1      21.862 -11.574  -0.789  1.00  0.00    -0.200 F 
ATOM     49  C   UNL     1      23.855 -11.724  -2.045  1.00  0.00     0.200 A 
ATOM     50  F   UNL     1      25.819 -11.885  -3.345  1.00  0.00    -0.200 F 
ATOM     51  F   UNL     1      24.522 -11.056  -1.094  1.00  0.00    -0.200 F 
ENDBRANCH  27  41
BRANCH  28  52
ATOM     52  C   UNL     1      17.576 -17.539 -11.579  1.00  0.00     0.064 A 
ATOM     53  C   UNL     1      16.658 -18.565 -11.320  1.00  0.00     0.173 A 
ATOM     54  C   UNL     1      17.751 -17.137 -12.911  1.00  0.00     0.173 A 
ATOM     55  F   UNL     1      16.469 -18.993 -10.063  1.00  0.00    -0.203 F 
ATOM     56  C   UNL     1      15.950 -19.172 -12.354  1.00  0.00     0.198 A 
ATOM     57  C   UNL     1      17.020 -17.724 -13.941  1.00  0.00     0.198 A 
ATOM     58  F   UNL     1      18.611 -16.152 -13.209  1.00  0.00    -0.203 F 
ATOM     59  F   UNL     1      15.102 -20.174 -12.084  1.00  0.00    -0.200 F 
ATOM     60  C   UNL     1      16.125 -18.745 -13.662  1.00  0.00     0.200 A 
ATOM     61  F   UNL     1      17.178 -17.295 -15.200  1.00  0.00    -0.200 F 
ATOM     62  F   UNL     1      15.433 -19.320 -14.655  1.00  0.00    -0.200 F 
ENDBRANCH  28  52
BRANCH  40  63
ATOM     63  C   UNL     1      22.465 -19.649  -7.087  1.00  0.00     0.064 A 
ATOM     64  C   UNL     1      23.424 -20.122  -7.995  1.00  0.00     0.173 A 
ATOM     65  C   UNL     1      22.177 -20.440  -5.964  1.00  0.00     0.173 A 
ATOM     66  F   UNL     1      23.721 -19.413  -9.094  1.00  0.00    -0.203 F 
ATOM     67  C   UNL     1      24.046 -21.353  -7.801  1.00  0.00     0.198 A 
ATOM     68  C   UNL     1      22.824 -21.654  -5.757  1.00  0.00     0.198 A 
ATOM     69  F   UNL     1      21.271 -20.030  -5.063  1.00  0.00    -0.203 F 
ATOM     70  F   UNL     1      24.917 -21.811  -8.711  1.00  0.00    -0.200 F 
ATOM     71  C   UNL     1      23.750 -22.114  -6.680  1.00  0.00     0.200 A 
ATOM     72  F   UNL     1      22.546 -22.382  -4.667  1.00  0.00    -0.200 F 
ATOM     73  F   UNL     1      24.352 -23.297  -6.494  1.00  0.00    -0.200 F 
ENDBRANCH  40  63
ENDBRANCH  14  15
ENDBRANCH   7   9
ENDBRANCH   4   5
ENDBRANCH   3   4
ENDBRANCH   2   3
ENDBRANCH   1   2
BRANCH   1  74
ATOM     74  C   UNL     1      11.150  -7.712  -4.636  1.00  0.00     0.021 C 
BRANCH  74  75
ATOM     75  C   UNL     1      11.301  -6.988  -3.299  1.00  0.00     0.116 C 
BRANCH  75  76
ATOM     76  N   UNL     1      10.465  -5.801  -3.306  1.00  0.00    -0.351 N 
ATOM     77  C   UNL     1       9.148  -5.688  -2.924  1.00  0.00     0.283 C 
ATOM     78  H   UNL     1      10.894  -4.974  -3.625  1.00  0.00     0.163 HD
ATOM     79  O   UNL     1       8.542  -4.663  -3.242  1.00  0.00    -0.268 OA
BRANCH  77  80
ATOM     80  C   UNL     1       8.586  -6.783  -2.006  1.00  0.00     0.308 C 
BRANCH  80  81
ATOM     81  N   UNL     1       8.911  -6.526  -0.586  1.00  0.00    -0.312 N 
ATOM     82  C   UNL     1       9.637  -5.320  -0.145  1.00  0.00     0.325 C 
ATOM     83  C   UNL     1       7.924  -6.899   0.406  1.00  0.00     0.325 C 
ATOM     84  H   UNL     1       9.652  -7.225  -0.629  1.00  0.00     0.349 HD
ATOM     85  C   UNL     1       8.789  -4.198   0.528  1.00  0.00     0.325 C 
ATOM     86  C   UNL     1       6.977  -5.760   0.814  1.00  0.00     0.325 C 
ATOM     87  N   UNL     1       7.680  -4.625   1.401  1.00  0.00    -0.318 N 
ATOM     88  H   UNL     1       7.045  -3.828   1.422  1.00  0.00     0.348 HD
BRANCH  87  89
ATOM     89  C   UNL     1       7.953  -4.749   2.843  1.00  0.00     0.364 C 
BRANCH  89  90
ATOM     90  C   UNL     1       9.114  -5.652   3.283  1.00  0.00     0.277 C 
ATOM     91  O   UNL     1      10.273  -5.223   3.209  1.00  0.00    -0.268 OA
ATOM     92  N   UNL     1       8.849  -6.905   3.851  1.00  0.00    -0.333 N 
ATOM     93  C   UNL     1       7.700  -7.764   3.521  1.00  0.00     0.148 C 
ATOM     94  C   UNL     1       9.994  -7.622   4.417  1.00  0.00     0.148 C 
ATOM     95  C   UNL     1       7.414  -8.876   4.527  1.00  0.00     0.181 C 
ATOM     96  C   UNL     1       9.575  -8.700   5.419  1.00  0.00     0.181 C 
ATOM     97  O   UNL     1       8.610  -9.593   4.850  1.00  0.00    -0.378 OA
ENDBRANCH  89  90
ENDBRANCH  87  89
ENDBRANCH  80  81
BRANCH  80  98
ATOM     98  C   UNL     1       7.141  -7.172  -2.257  1.00  0.00     0.044 A 
ATOM     99  C   UNL     1       6.040  -6.352  -2.418  1.00  0.00     0.094 A 
ATOM    100  C   UNL     1       6.633  -8.527  -2.259  1.00  0.00     0.009 A 
ATOM    101  N   UNL     1       4.909  -7.121  -2.377  1.00  0.00    -0.361 N 
ATOM    102  C   UNL     1       5.239  -8.450  -2.256  1.00  0.00     0.049 A 
ATOM    103  C   UNL     1       7.234  -9.806  -2.171  1.00  0.00     0.014 A 
ATOM    104  H   UNL     1       3.990  -6.772  -2.426  1.00  0.00     0.166 HD
ATOM    105  C   UNL     1       4.419  -9.579  -2.127  1.00  0.00     0.065 A 
ATOM    106  C   UNL     1       6.428 -10.947  -2.071  1.00  0.00     0.040 A 
ATOM    107  C   UNL     1       5.048 -10.820  -2.036  1.00  0.00     0.125 A 
ATOM    108  F   UNL     1       4.296 -11.922  -1.905  1.00  0.00    -0.207 F 
ENDBRANCH  80  98
ENDBRANCH  77  80
ENDBRANCH  75  76
ENDBRANCH  74  75
ENDBRANCH   1  74
TORSDOF 17
