REMARK SMILES CCc1cc(/C=C/C(=O)NCCCCCCNC(=O)c2ccc(-c3c4nc(c(-c5c(F)c(F)c(F)c(F)c5F)c5ccc([nH]5)c(-c5c(F)c(F)c(F)c(F)c5F)c5nc(c(-c6c(F)c(F)c(F)c(F)c6F)c6ccc3[nH]6)C=C5)C=C4)cc2)cc(C(=O)c2ccccc2)c1
REMARK SMILES IDX 13 1 12 2 11 3 10 4 8 5 9 6 7 8 6 9 5 10 3 11 4 12 93 13
REMARK SMILES IDX 84 14 83 15 2 16 1 17 85 18 86 19 87 20 88 21 92 22 89 23
REMARK SMILES IDX 91 24 90 25 14 26 15 27 16 28 17 29 18 30 19 32 20 33 21 34
REMARK SMILES IDX 82 35 22 36 81 37 23 38 24 39 25 40 75 41 26 42 80 43 74 44
REMARK SMILES IDX 76 45 27 46 79 47 73 48 72 49 28 51 60 52 40 53 59 54 41 55
REMARK SMILES IDX 44 56 58 57 77 58 42 59 43 60 57 62 78 63 45 64 29 65 30 66
REMARK SMILES IDX 38 67 31 68 32 69 36 70 39 71 33 72 34 73 37 74 35 75 61 76
REMARK SMILES IDX 62 77 70 78 63 79 64 80 68 81 71 82 65 83 66 84 69 85 67 86
REMARK SMILES IDX 46 87 47 88 55 89 48 90 49 91 53 92 56 93 50 94 51 95 54 96
REMARK SMILES IDX 52 97
REMARK H PARENT 10 7 17 31 76 50 44 61
REMARK Flexibility Score: inf
ROOT
ATOM      1  C   UNL     1       2.731   6.359   8.864  1.00  0.00     0.002 C 
ENDROOT
BRANCH   1   2
ATOM      2  C   UNL     1       2.377   5.816   7.471  1.00  0.00     0.021 C 
BRANCH   2   3
ATOM      3  C   UNL     1       3.564   5.155   6.765  1.00  0.00     0.116 C 
BRANCH   3   4
ATOM      4  N   UNL     1       3.747   3.803   7.255  1.00  0.00    -0.353 N 
ATOM      5  C   UNL     1       3.527   2.588   6.697  1.00  0.00     0.243 C 
ATOM      6  O   UNL     1       3.805   1.582   7.351  1.00  0.00    -0.270 OA
ATOM      7  H   UNL     1       4.101   3.760   8.173  1.00  0.00     0.163 HD
BRANCH   5   8
ATOM      8  C   UNL     1       3.034   2.411   5.309  1.00  0.00     0.072 C 
ATOM      9  C   UNL     1       2.191   3.208   4.640  1.00  0.00     0.014 C 
BRANCH   9  10
ATOM     10  C   UNL     1       1.686   2.973   3.278  1.00  0.00    -0.024 A 
ATOM     11  C   UNL     1       0.832   1.508   1.519  1.00  0.00    -0.047 A 
ATOM     12  C   UNL     1       1.444   1.689   2.769  1.00  0.00     0.011 A 
ATOM     13  C   UNL     1       0.460   2.637   0.776  1.00  0.00     0.016 A 
ATOM     14  C   UNL     1       0.682   3.926   1.273  1.00  0.00     0.023 A 
ATOM     15  C   UNL     1       1.314   4.086   2.512  1.00  0.00     0.020 A 
BRANCH  11  16
ATOM     16  C   UNL     1       0.490   0.119   1.034  1.00  0.00     0.032 C 
ATOM     17  C   UNL     1       1.080  -0.221  -0.327  1.00  0.00     0.009 C 
ENDBRANCH  11  16
BRANCH  14  18
ATOM     18  C   UNL     1       0.258   5.152   0.536  1.00  0.00     0.193 C 
ATOM     19  O   UNL     1       0.733   6.246   0.829  1.00  0.00    -0.289 OA
BRANCH  18  20
ATOM     20  C   UNL     1      -0.723   5.074  -0.568  1.00  0.00     0.022 A 
ATOM     21  C   UNL     1      -0.397   5.665  -1.791  1.00  0.00     0.012 A 
ATOM     22  C   UNL     1      -1.948   4.415  -0.403  1.00  0.00     0.012 A 
ATOM     23  C   UNL     1      -1.271   5.541  -2.871  1.00  0.00     0.001 A 
ATOM     24  C   UNL     1      -2.816   4.292  -1.487  1.00  0.00     0.001 A 
ATOM     25  C   UNL     1      -2.472   4.845  -2.722  1.00  0.00     0.000 A 
ENDBRANCH  18  20
ENDBRANCH  14  18
ENDBRANCH   9  10
ENDBRANCH   5   8
ENDBRANCH   3   4
ENDBRANCH   2   3
ENDBRANCH   1   2
BRANCH   1  26
ATOM     26  C   UNL     1       3.830   7.430   8.873  1.00  0.00     0.002 C 
BRANCH  26  27
ATOM     27  C   UNL     1       3.570   8.622   7.949  1.00  0.00     0.021 C 
BRANCH  27  28
ATOM     28  C   UNL     1       2.312   9.410   8.300  1.00  0.00     0.116 C 
BRANCH  28  29
ATOM     29  N   UNL     1       2.417  10.015   9.621  1.00  0.00    -0.352 N 
ATOM     30  C   UNL     1       2.455  11.343   9.967  1.00  0.00     0.251 C 
ATOM     31  H   UNL     1       2.467   9.382  10.372  1.00  0.00     0.163 HD
ATOM     32  O   UNL     1       2.813  11.687  11.086  1.00  0.00    -0.269 OA
BRANCH  30  33
ATOM     33  C   UNL     1       2.070  12.359   8.968  1.00  0.00     0.039 A 
ATOM     34  C   UNL     1       2.885  13.477   8.782  1.00  0.00     0.014 A 
ATOM     35  C   UNL     1       0.910  12.191   8.207  1.00  0.00     0.014 A 
ATOM     36  C   UNL     1       2.578  14.390   7.772  1.00  0.00     0.010 A 
ATOM     37  C   UNL     1       0.645  13.062   7.157  1.00  0.00     0.010 A 
ATOM     38  C   UNL     1       1.483  14.162   6.923  1.00  0.00    -0.014 A 
BRANCH  38  39
ATOM     39  C   UNL     1       1.215  15.035   5.754  1.00  0.00     0.031 A 
ATOM     40  C   UNL     1      -0.052  15.836   5.684  1.00  0.00     0.074 A 
ATOM     41  C   UNL     1       2.076  15.030   4.718  1.00  0.00     0.049 A 
ATOM     42  N   UNL     1      -0.517  16.564   4.701  1.00  0.00    -0.248 NA
ATOM     43  C   UNL     1      -0.924  15.793   6.867  1.00  0.00     0.031 C 
ATOM     44  C   UNL     1       3.321  14.264   4.659  1.00  0.00     0.029 A 
ATOM     45  N   UNL     1       2.024  15.673   3.506  1.00  0.00    -0.354 N 
ATOM     46  C   UNL     1      -1.737  17.058   5.142  1.00  0.00     0.074 A 
ATOM     47  C   UNL     1      -1.965  16.506   6.461  1.00  0.00     0.031 C 
ATOM     48  C   UNL     1       3.922  14.491   3.480  1.00  0.00     0.029 A 
ATOM     49  C   UNL     1       3.080  15.375   2.681  1.00  0.00     0.049 A 
ATOM     50  H   UNL     1       1.298  16.288   3.253  1.00  0.00     0.167 HD
ATOM     51  C   UNL     1      -2.578  17.910   4.510  1.00  0.00     0.037 A 
ATOM     52  C   UNL     1       3.330  15.753   1.412  1.00  0.00     0.037 A 
ATOM     53  C   UNL     1      -2.338  18.457   3.200  1.00  0.00     0.049 A 
ATOM     54  C   UNL     1       2.349  16.654   0.712  1.00  0.00     0.074 A 
ATOM     55  C   UNL     1      -3.099  19.375   2.497  1.00  0.00     0.029 A 
ATOM     56  N   UNL     1      -1.262  18.125   2.390  1.00  0.00    -0.354 N 
ATOM     57  N   UNL     1       1.236  17.178   1.166  1.00  0.00    -0.248 NA
ATOM     58  C   UNL     1       2.655  17.012  -0.680  1.00  0.00     0.031 C 
ATOM     59  C   UNL     1      -2.517  19.550   1.238  1.00  0.00     0.029 A 
ATOM     60  C   UNL     1      -1.361  18.789   1.177  1.00  0.00     0.049 A 
ATOM     61  H   UNL     1      -0.535  17.510   2.640  1.00  0.00     0.167 HD
ATOM     62  C   UNL     1       0.722  17.942   0.127  1.00  0.00     0.074 A 
ATOM     63  C   UNL     1       1.655  17.830  -0.975  1.00  0.00     0.031 C 
ATOM     64  C   UNL     1      -0.423  18.667   0.089  1.00  0.00     0.037 A 
BRANCH  51  65
ATOM     65  C   UNL     1      -3.843  18.296   5.223  1.00  0.00     0.064 A 
ATOM     66  C   UNL     1      -3.825  19.102   6.372  1.00  0.00     0.173 A 
ATOM     67  C   UNL     1      -5.091  17.888   4.729  1.00  0.00     0.173 A 
ATOM     68  F   UNL     1      -2.658  19.513   6.890  1.00  0.00    -0.203 F 
ATOM     69  C   UNL     1      -5.006  19.457   7.017  1.00  0.00     0.198 A 
ATOM     70  C   UNL     1      -6.272  18.273   5.358  1.00  0.00     0.198 A 
ATOM     71  F   UNL     1      -5.168  17.123   3.630  1.00  0.00    -0.203 F 
ATOM     72  F   UNL     1      -4.960  20.183   8.143  1.00  0.00    -0.200 F 
ATOM     73  C   UNL     1      -6.229  19.049   6.506  1.00  0.00     0.200 A 
ATOM     74  F   UNL     1      -7.454  17.891   4.854  1.00  0.00    -0.200 F 
ATOM     75  F   UNL     1      -7.365  19.398   7.124  1.00  0.00    -0.200 F 
ENDBRANCH  51  65
BRANCH  52  76
ATOM     76  C   UNL     1       4.559  15.279   0.724  1.00  0.00     0.064 A 
ATOM     77  C   UNL     1       5.586  16.172   0.390  1.00  0.00     0.173 A 
ATOM     78  C   UNL     1       4.734  13.929   0.384  1.00  0.00     0.173 A 
ATOM     79  F   UNL     1       5.457  17.476   0.675  1.00  0.00    -0.203 F 
ATOM     80  C   UNL     1       6.731  15.738  -0.274  1.00  0.00     0.198 A 
ATOM     81  C   UNL     1       5.894  13.490  -0.252  1.00  0.00     0.198 A 
ATOM     82  F   UNL     1       3.784  13.031   0.684  1.00  0.00    -0.203 F 
ATOM     83  F   UNL     1       7.676  16.622  -0.623  1.00  0.00    -0.200 F 
ATOM     84  C   UNL     1       6.887  14.396  -0.588  1.00  0.00     0.200 A 
ATOM     85  F   UNL     1       6.048  12.190  -0.539  1.00  0.00    -0.200 F 
ATOM     86  F   UNL     1       7.992  13.979  -1.222  1.00  0.00    -0.200 F 
ENDBRANCH  52  76
BRANCH  64  87
ATOM     87  C   UNL     1      -0.727  19.413  -1.178  1.00  0.00     0.064 A 
ATOM     88  C   UNL     1      -1.126  18.744  -2.345  1.00  0.00     0.173 A 
ATOM     89  C   UNL     1      -0.681  20.815  -1.207  1.00  0.00     0.173 A 
ATOM     90  F   UNL     1      -1.169  17.404  -2.374  1.00  0.00    -0.203 F 
ATOM     91  C   UNL     1      -1.453  19.452  -3.498  1.00  0.00     0.198 A 
ATOM     92  C   UNL     1      -1.040  21.520  -2.352  1.00  0.00     0.198 A 
ATOM     93  F   UNL     1      -0.311  21.503  -0.116  1.00  0.00    -0.203 F 
ATOM     94  F   UNL     1      -1.793  18.791  -4.614  1.00  0.00    -0.200 F 
ATOM     95  C   UNL     1      -1.421  20.839  -3.498  1.00  0.00     0.200 A 
ATOM     96  F   UNL     1      -1.025  22.861  -2.344  1.00  0.00    -0.200 F 
ATOM     97  F   UNL     1      -1.754  21.518  -4.604  1.00  0.00    -0.200 F 
ENDBRANCH  64  87
ENDBRANCH  38  39
ENDBRANCH  30  33
ENDBRANCH  28  29
ENDBRANCH  27  28
ENDBRANCH  26  27
ENDBRANCH   1  26
TORSDOF 17
