REMARK SMILES Cc1nn(C)cc1C[NH+]1CCN(C(=O)Cn2ccc(C(=O)NCCCCCCNC(=O)c3ccc(-c4c5nc(c(-c6c(F)c(F)c(F)c(F)c6F)c6ccc([nH]6)c(-c6c(F)c(F)c(F)c(F)c6F)c6nc(c(-c7c(F)c(F)c(F)c(F)c7F)c7ccc4[nH]7)C=C6)C=C5)cc3)n2)CC1
REMARK SMILES IDX 24 1 23 2 22 3 20 4 21 5 19 7 16 8 17 9 95 10 18 11 15 12
REMARK SMILES IDX 13 13 9 14 10 15 97 16 11 18 96 19 12 20 14 21 8 22 7 23
REMARK SMILES IDX 1 24 2 25 3 26 4 27 6 28 5 29 25 30 26 31 27 32 28 33 29 34
REMARK SMILES IDX 30 35 31 37 32 38 33 39 94 40 34 41 93 42 35 43 36 44 37 45
REMARK SMILES IDX 87 46 38 47 92 48 86 49 88 50 39 51 91 52 85 53 84 54 40 56
REMARK SMILES IDX 72 57 52 58 71 59 53 60 56 61 70 62 89 63 54 64 55 65 69 67
REMARK SMILES IDX 90 68 57 69 41 70 42 71 50 72 43 73 44 74 48 75 51 76 45 77
REMARK SMILES IDX 46 78 49 79 47 80 73 81 74 82 82 83 75 84 76 85 80 86 83 87
REMARK SMILES IDX 77 88 78 89 81 90 79 91 58 92 59 93 67 94 60 95 61 96 65 97
REMARK SMILES IDX 68 98 62 99 63 100 66 101 64 102
REMARK H PARENT 22 6 9 17 29 36 88 55 56 66
REMARK Flexibility Score: inf
ROOT
ATOM      1  C   UNL     1       7.554   3.945  -2.111  1.00  0.00     0.021 C 
ENDROOT
BRANCH   1   2
ATOM      2  C   UNL     1       7.243   3.116  -3.357  1.00  0.00     0.116 C 
BRANCH   2   3
ATOM      3  N   UNL     1       7.774   1.778  -3.223  1.00  0.00    -0.351 N 
ATOM      4  C   UNL     1       7.189   0.538  -3.146  1.00  0.00     0.271 C 
ATOM      5  O   UNL     1       7.977  -0.408  -3.052  1.00  0.00    -0.267 OA
ATOM      6  H   UNL     1       8.757   1.750  -3.178  1.00  0.00     0.163 HD
BRANCH   4   7
ATOM      7  C   UNL     1       5.723   0.338  -3.196  1.00  0.00     0.150 A 
ATOM      8  N   UNL     1       3.905  -0.763  -3.512  1.00  0.00    -0.263 N 
ATOM      9  C   UNL     1       3.491   0.497  -3.210  1.00  0.00     0.110 A 
ATOM     10  N   UNL     1       5.242  -0.893  -3.469  1.00  0.00    -0.167 NA
ATOM     11  C   UNL     1       4.633   1.223  -2.969  1.00  0.00     0.056 A 
BRANCH   8  12
ATOM     12  C   UNL     1       3.113  -1.968  -3.740  1.00  0.00     0.244 C 
BRANCH  12  13
ATOM     13  C   UNL     1       1.633  -1.685  -3.907  1.00  0.00     0.244 C 
ATOM     14  N   UNL     1      -1.314  -3.119  -1.030  1.00  0.00    -0.328 N 
ATOM     15  C   UNL     1      -1.682  -2.400  -2.252  1.00  0.00     0.284 C 
ATOM     16  C   UNL     1      -0.045  -3.828  -1.192  1.00  0.00     0.284 C 
ATOM     17  H   UNL     1      -2.023  -3.842  -0.912  1.00  0.00     0.348 HD
ATOM     18  C   UNL     1      -0.576  -1.540  -2.887  1.00  0.00     0.181 C 
ATOM     19  C   UNL     1       1.116  -3.054  -1.848  1.00  0.00     0.181 C 
ATOM     20  N   UNL     1       0.736  -2.190  -2.967  1.00  0.00    -0.330 N 
ATOM     21  O   UNL     1       1.246  -0.974  -4.840  1.00  0.00    -0.273 OA
BRANCH  14  22
ATOM     22  C   UNL     1      -1.525  -2.421   0.242  1.00  0.00     0.302 C 
BRANCH  22  23
ATOM     23  C   UNL     1      -0.736  -1.167   0.390  1.00  0.00     0.047 A 
ATOM     24  C   UNL     1      -2.529   0.708  -0.051  1.00  0.00     0.069 C 
ATOM     25  C   UNL     1      -1.168   0.184   0.227  1.00  0.00     0.068 A 
ATOM     26  N   UNL     1      -0.142   1.043   0.301  1.00  0.00    -0.178 NA
ATOM     27  N   UNL     1       0.922   0.258   0.529  1.00  0.00    -0.275 N 
ATOM     28  C   UNL     1       0.591  -1.042   0.753  1.00  0.00     0.118 A 
ATOM     29  C   UNL     1       2.253   0.795   0.388  1.00  0.00     0.173 C 
ENDBRANCH  22  23
ENDBRANCH  14  22
ENDBRANCH  12  13
ENDBRANCH   8  12
ENDBRANCH   4   7
ENDBRANCH   2   3
ENDBRANCH   1   2
BRANCH   1  30
ATOM     30  C   UNL     1       9.008   4.435  -2.045  1.00  0.00     0.002 C 
BRANCH  30  31
ATOM     31  C   UNL     1       9.501   5.221  -3.271  1.00  0.00     0.002 C 
BRANCH  31  32
ATOM     32  C   UNL     1       8.600   6.369  -3.752  1.00  0.00     0.021 C 
BRANCH  32  33
ATOM     33  C   UNL     1       8.505   7.521  -2.766  1.00  0.00     0.116 C 
BRANCH  33  34
ATOM     34  N   UNL     1       9.781   8.216  -2.603  1.00  0.00    -0.352 N 
ATOM     35  C   UNL     1      10.100   9.248  -1.741  1.00  0.00     0.251 C 
ATOM     36  H   UNL     1      10.512   7.907  -3.187  1.00  0.00     0.163 HD
ATOM     37  O   UNL     1      11.056   9.973  -1.945  1.00  0.00    -0.269 OA
BRANCH  35  38
ATOM     38  C   UNL     1       9.254   9.448  -0.552  1.00  0.00     0.039 A 
ATOM     39  C   UNL     1       8.902  10.727  -0.112  1.00  0.00     0.014 A 
ATOM     40  C   UNL     1       8.793   8.313   0.108  1.00  0.00     0.014 A 
ATOM     41  C   UNL     1       8.018  10.847   0.956  1.00  0.00     0.010 A 
ATOM     42  C   UNL     1       7.791   8.429   1.032  1.00  0.00     0.010 A 
ATOM     43  C   UNL     1       7.453   9.688   1.511  1.00  0.00    -0.014 A 
BRANCH  43  44
ATOM     44  C   UNL     1       6.420   9.762   2.536  1.00  0.00     0.031 A 
ATOM     45  C   UNL     1       5.218  10.545   2.140  1.00  0.00     0.074 A 
ATOM     46  C   UNL     1       6.450   8.987   3.643  1.00  0.00     0.049 A 
ATOM     47  N   UNL     1       4.779  11.637   2.669  1.00  0.00    -0.248 NA
ATOM     48  C   UNL     1       4.487  10.138   0.927  1.00  0.00     0.031 C 
ATOM     49  C   UNL     1       7.420   7.940   3.992  1.00  0.00     0.029 A 
ATOM     50  N   UNL     1       5.542   8.890   4.651  1.00  0.00    -0.354 N 
ATOM     51  C   UNL     1       3.606  11.953   1.988  1.00  0.00     0.074 A 
ATOM     52  C   UNL     1       3.579  11.111   0.822  1.00  0.00     0.031 C 
ATOM     53  C   UNL     1       6.922   7.168   4.983  1.00  0.00     0.029 A 
ATOM     54  C   UNL     1       5.691   7.767   5.457  1.00  0.00     0.049 A 
ATOM     55  H   UNL     1       4.837   9.562   4.797  1.00  0.00     0.167 HD
ATOM     56  C   UNL     1       2.635  12.699   2.585  1.00  0.00     0.037 A 
ATOM     57  C   UNL     1       4.845   7.349   6.432  1.00  0.00     0.037 A 
ATOM     58  C   UNL     1       3.158  13.384   3.742  1.00  0.00     0.049 A 
ATOM     59  C   UNL     1       3.999   8.509   6.802  1.00  0.00     0.074 A 
ATOM     60  C   UNL     1       4.148  14.323   3.953  1.00  0.00     0.029 A 
ATOM     61  N   UNL     1       2.895  12.836   4.972  1.00  0.00    -0.354 N 
ATOM     62  N   UNL     1       4.452   9.573   7.403  1.00  0.00    -0.248 NA
ATOM     63  C   UNL     1       2.741   8.679   6.094  1.00  0.00     0.031 C 
ATOM     64  C   UNL     1       4.754  13.948   5.190  1.00  0.00     0.029 A 
ATOM     65  C   UNL     1       4.055  12.854   5.700  1.00  0.00     0.049 A 
ATOM     66  H   UNL     1       2.025  12.490   5.278  1.00  0.00     0.167 HD
ATOM     67  C   UNL     1       3.797  10.627   6.786  1.00  0.00     0.074 A 
ATOM     68  C   UNL     1       2.685  10.013   6.065  1.00  0.00     0.031 C 
ATOM     69  C   UNL     1       4.394  11.851   6.682  1.00  0.00     0.037 A 
BRANCH  56  70
ATOM     70  C   UNL     1       1.147  12.494   2.390  1.00  0.00     0.064 A 
ATOM     71  C   UNL     1       0.252  13.381   3.026  1.00  0.00     0.173 A 
ATOM     72  C   UNL     1       0.567  11.309   1.889  1.00  0.00     0.173 A 
ATOM     73  F   UNL     1       0.689  14.537   3.548  1.00  0.00    -0.203 F 
ATOM     74  C   UNL     1      -1.091  13.054   3.236  1.00  0.00     0.198 A 
ATOM     75  C   UNL     1      -0.785  11.012   2.053  1.00  0.00     0.198 A 
ATOM     76  F   UNL     1       1.292  10.338   1.324  1.00  0.00    -0.203 F 
ATOM     77  F   UNL     1      -1.865  13.864   3.971  1.00  0.00    -0.200 F 
ATOM     78  C   UNL     1      -1.606  11.864   2.758  1.00  0.00     0.200 A 
ATOM     79  F   UNL     1      -1.261   9.845   1.595  1.00  0.00    -0.200 F 
ATOM     80  F   UNL     1      -2.872  11.516   3.018  1.00  0.00    -0.200 F 
ENDBRANCH  56  70
BRANCH  57  81
ATOM     81  C   UNL     1       4.520   5.970   6.863  1.00  0.00     0.064 A 
ATOM     82  C   UNL     1       3.883   5.727   8.091  1.00  0.00     0.173 A 
ATOM     83  C   UNL     1       4.558   4.896   5.953  1.00  0.00     0.173 A 
ATOM     84  F   UNL     1       3.769   6.709   8.996  1.00  0.00    -0.203 F 
ATOM     85  C   UNL     1       3.286   4.495   8.377  1.00  0.00     0.198 A 
ATOM     86  C   UNL     1       3.966   3.664   6.242  1.00  0.00     0.198 A 
ATOM     87  F   UNL     1       5.082   5.051   4.728  1.00  0.00    -0.203 F 
ATOM     88  F   UNL     1       2.627   4.323   9.532  1.00  0.00    -0.200 F 
ATOM     89  C   UNL     1       3.316   3.469   7.447  1.00  0.00     0.200 A 
ATOM     90  F   UNL     1       3.970   2.692   5.318  1.00  0.00    -0.200 F 
ATOM     91  F   UNL     1       2.686   2.312   7.691  1.00  0.00    -0.200 F 
ENDBRANCH  57  81
BRANCH  69  92
ATOM     92  C   UNL     1       5.629  12.094   7.506  1.00  0.00     0.064 A 
ATOM     93  C   UNL     1       6.836  11.387   7.362  1.00  0.00     0.173 A 
ATOM     94  C   UNL     1       5.622  13.173   8.400  1.00  0.00     0.173 A 
ATOM     95  F   UNL     1       6.960  10.407   6.459  1.00  0.00    -0.203 F 
ATOM     96  C   UNL     1       7.963  11.714   8.115  1.00  0.00     0.198 A 
ATOM     97  C   UNL     1       6.758  13.523   9.122  1.00  0.00     0.198 A 
ATOM     98  F   UNL     1       4.515  13.919   8.541  1.00  0.00    -0.203 F 
ATOM     99  F   UNL     1       9.096  11.010   7.973  1.00  0.00    -0.200 F 
ATOM    100  C   UNL     1       7.924  12.786   8.990  1.00  0.00     0.200 A 
ATOM    101  F   UNL     1       6.729  14.591   9.930  1.00  0.00    -0.200 F 
ATOM    102  F   UNL     1       9.017  13.125   9.689  1.00  0.00    -0.200 F 
ENDBRANCH  69  92
ENDBRANCH  43  44
ENDBRANCH  35  38
ENDBRANCH  33  34
ENDBRANCH  32  33
ENDBRANCH  31  32
ENDBRANCH  30  31
ENDBRANCH   1  30
TORSDOF 17
