REMARK SMILES O=C(NCCCCCCNC(=O)[C@H]1CC2(CCN(S(=O)(=O)N3CCOCC3)CC2)C[NH2+]1)c1ccc(-c2c3nc(c(-c4c(F)c(F)c(F)c(F)c4F)c4ccc([nH]4)c(-c4c(F)c(F)c(F)c(F)c4F)c4nc(c(-c5c(F)c(F)c(F)c(F)c5F)c5ccc2[nH]5)C=C4)C=C3)cc1
REMARK SMILES IDX 6 1 5 2 4 3 3 4 1 5 2 6 32 8 33 9 94 10 34 11 93 12 35 13
REMARK SMILES IDX 36 14 37 15 87 16 38 17 92 18 86 19 88 20 39 21 91 22 85 23
REMARK SMILES IDX 84 24 40 26 72 27 52 28 71 29 53 30 56 31 70 32 89 33 54 34
REMARK SMILES IDX 55 35 69 37 90 38 57 39 41 40 42 41 50 42 43 43 44 44 48 45
REMARK SMILES IDX 51 46 45 47 46 48 49 49 47 50 73 51 74 52 82 53 75 54 76 55
REMARK SMILES IDX 80 56 83 57 77 58 78 59 81 60 79 61 58 62 59 63 67 64 60 65
REMARK SMILES IDX 61 66 65 67 68 68 62 69 63 70 66 71 64 72 7 73 8 74 9 75
REMARK SMILES IDX 10 76 11 77 12 79 13 80 14 81 31 82 15 83 30 84 16 87 29 88
REMARK SMILES IDX 17 89 28 90 18 91 19 92 20 93 21 94 22 95 23 96 27 97 24 98
REMARK SMILES IDX 26 99 25 100
REMARK H PARENT 3 7 88 25 56 36 10 78 31 85 31 86
REMARK Flexibility Score: inf
ROOT
ATOM      1  C   UNL     1      11.647   8.300  -6.717  1.00  0.00     0.002 C 
ENDROOT
BRANCH   1   2
ATOM      2  C   UNL     1      11.610   8.811  -5.280  1.00  0.00     0.021 C 
BRANCH   2   3
ATOM      3  C   UNL     1      12.975   8.949  -4.629  1.00  0.00     0.116 C 
BRANCH   3   4
ATOM      4  N   UNL     1      13.794   9.974  -5.258  1.00  0.00    -0.352 N 
ATOM      5  O   UNL     1      14.908  11.941  -5.371  1.00  0.00    -0.269 OA
ATOM      6  C   UNL     1      14.388  11.072  -4.681  1.00  0.00     0.251 C 
ATOM      7  H   UNL     1      13.942   9.868  -6.225  1.00  0.00     0.163 HD
BRANCH   6   8
ATOM      8  C   UNL     1      14.372  11.199  -3.209  1.00  0.00     0.039 A 
ATOM      9  C   UNL     1      14.654  10.086  -2.416  1.00  0.00     0.014 A 
ATOM     10  C   UNL     1      14.034  12.419  -2.620  1.00  0.00     0.014 A 
ATOM     11  C   UNL     1      14.421  10.143  -1.052  1.00  0.00     0.010 A 
ATOM     12  C   UNL     1      13.929  12.508  -1.228  1.00  0.00     0.010 A 
ATOM     13  C   UNL     1      14.094  11.363  -0.434  1.00  0.00    -0.014 A 
BRANCH  13  14
ATOM     14  C   UNL     1      14.034  11.401   1.049  1.00  0.00     0.031 A 
ATOM     15  C   UNL     1      12.772  11.748   1.785  1.00  0.00     0.074 A 
ATOM     16  C   UNL     1      15.142  11.045   1.729  1.00  0.00     0.049 A 
ATOM     17  N   UNL     1      12.552  11.758   3.078  1.00  0.00    -0.248 NA
ATOM     18  C   UNL     1      11.609  12.144   0.979  1.00  0.00     0.031 C 
ATOM     19  C   UNL     1      16.432  10.713   1.115  1.00  0.00     0.029 A 
ATOM     20  N   UNL     1      15.362  10.868   3.070  1.00  0.00    -0.354 N 
ATOM     21  C   UNL     1      11.234  12.162   3.239  1.00  0.00     0.074 A 
ATOM     22  C   UNL     1      10.712  12.429   1.915  1.00  0.00     0.031 C 
ATOM     23  C   UNL     1      17.284  10.309   2.066  1.00  0.00     0.029 A 
ATOM     24  C   UNL     1      16.633  10.437   3.362  1.00  0.00     0.049 A 
ATOM     25  H   UNL     1      14.676  11.034   3.757  1.00  0.00     0.167 HD
ATOM     26  C   UNL     1      10.524  12.283   4.388  1.00  0.00     0.037 A 
ATOM     27  C   UNL     1      17.223  10.194   4.545  1.00  0.00     0.037 A 
ATOM     28  C   UNL     1      11.057  12.019   5.702  1.00  0.00     0.049 A 
ATOM     29  C   UNL     1      16.418  10.370   5.800  1.00  0.00     0.074 A 
ATOM     30  C   UNL     1      10.419  12.109   6.928  1.00  0.00     0.029 A 
ATOM     31  N   UNL     1      12.361  11.617   5.964  1.00  0.00    -0.354 N 
ATOM     32  N   UNL     1      15.163  10.723   5.934  1.00  0.00    -0.248 NA
ATOM     33  C   UNL     1      17.111  10.111   7.066  1.00  0.00     0.031 C 
ATOM     34  C   UNL     1      11.348  11.812   7.931  1.00  0.00     0.029 A 
ATOM     35  C   UNL     1      12.549  11.474   7.331  1.00  0.00     0.049 A 
ATOM     36  H   UNL     1      13.050  11.458   5.279  1.00  0.00     0.167 HD
ATOM     37  C   UNL     1      14.912  10.717   7.298  1.00  0.00     0.074 A 
ATOM     38  C   UNL     1      16.135  10.285   7.944  1.00  0.00     0.031 C 
ATOM     39  C   UNL     1      13.775  11.049   7.958  1.00  0.00     0.037 A 
BRANCH  26  40
ATOM     40  C   UNL     1       9.091  12.726   4.284  1.00  0.00     0.064 A 
ATOM     41  C   UNL     1       8.101  11.893   3.742  1.00  0.00     0.173 A 
ATOM     42  C   UNL     1       8.689  13.972   4.791  1.00  0.00     0.173 A 
ATOM     43  F   UNL     1       8.430  10.695   3.235  1.00  0.00    -0.203 F 
ATOM     44  C   UNL     1       6.768  12.297   3.694  1.00  0.00     0.198 A 
ATOM     45  C   UNL     1       7.351  14.361   4.769  1.00  0.00     0.198 A 
ATOM     46  F   UNL     1       9.592  14.807   5.327  1.00  0.00    -0.203 F 
ATOM     47  F   UNL     1       5.848  11.499   3.135  1.00  0.00    -0.200 F 
ATOM     48  C   UNL     1       6.393  13.526   4.216  1.00  0.00     0.200 A 
ATOM     49  F   UNL     1       6.989  15.542   5.289  1.00  0.00    -0.200 F 
ATOM     50  F   UNL     1       5.109  13.906   4.182  1.00  0.00    -0.200 F 
ENDBRANCH  26  40
BRANCH  27  51
ATOM     51  C   UNL     1      18.654   9.793   4.592  1.00  0.00     0.064 A 
ATOM     52  C   UNL     1      19.045   8.534   5.064  1.00  0.00     0.173 A 
ATOM     53  C   UNL     1      19.664  10.674   4.171  1.00  0.00     0.173 A 
ATOM     54  F   UNL     1      18.120   7.661   5.490  1.00  0.00    -0.203 F 
ATOM     55  C   UNL     1      20.391   8.182   5.144  1.00  0.00     0.198 A 
ATOM     56  C   UNL     1      21.005  10.305   4.212  1.00  0.00     0.198 A 
ATOM     57  F   UNL     1      19.344  11.888   3.700  1.00  0.00    -0.203 F 
ATOM     58  F   UNL     1      20.741   6.995   5.657  1.00  0.00    -0.200 F 
ATOM     59  C   UNL     1      21.369   9.065   4.712  1.00  0.00     0.200 A 
ATOM     60  F   UNL     1      21.943  11.153   3.769  1.00  0.00    -0.200 F 
ATOM     61  F   UNL     1      22.663   8.725   4.785  1.00  0.00    -0.200 F 
ENDBRANCH  27  51
BRANCH  39  62
ATOM     62  C   UNL     1      13.804  10.926   9.455  1.00  0.00     0.064 A 
ATOM     63  C   UNL     1      14.582  11.779  10.252  1.00  0.00     0.173 A 
ATOM     64  C   UNL     1      13.047   9.936  10.101  1.00  0.00     0.173 A 
ATOM     65  F   UNL     1      15.338  12.731   9.682  1.00  0.00    -0.203 F 
ATOM     66  C   UNL     1      14.639  11.616  11.633  1.00  0.00     0.198 A 
ATOM     67  C   UNL     1      13.076   9.801  11.486  1.00  0.00     0.198 A 
ATOM     68  F   UNL     1      12.280   9.097   9.388  1.00  0.00    -0.203 F 
ATOM     69  F   UNL     1      15.449  12.395  12.364  1.00  0.00    -0.200 F 
ATOM     70  C   UNL     1      13.883  10.631  12.249  1.00  0.00     0.200 A 
ATOM     71  F   UNL     1      12.333   8.858  12.081  1.00  0.00    -0.200 F 
ATOM     72  F   UNL     1      13.941  10.473  13.579  1.00  0.00    -0.200 F 
ENDBRANCH  39  62
ENDBRANCH  13  14
ENDBRANCH   6   8
ENDBRANCH   3   4
ENDBRANCH   2   3
ENDBRANCH   1   2
BRANCH   1  73
ATOM     73  C   UNL     1      12.388   6.974  -6.917  1.00  0.00     0.002 C 
BRANCH  73  74
ATOM     74  C   UNL     1      11.966   5.838  -5.984  1.00  0.00     0.021 C 
BRANCH  74  75
ATOM     75  C   UNL     1      10.470   5.538  -5.956  1.00  0.00     0.116 C 
BRANCH  75  76
ATOM     76  N   UNL     1       9.985   5.067  -7.239  1.00  0.00    -0.351 N 
ATOM     77  C   UNL     1       9.088   4.107  -7.581  1.00  0.00     0.278 C 
ATOM     78  H   UNL     1      10.383   5.533  -8.009  1.00  0.00     0.163 HD
ATOM     79  O   UNL     1       8.865   3.983  -8.793  1.00  0.00    -0.268 OA
BRANCH  77  80
ATOM     80  C   UNL     1       8.400   3.145  -6.596  1.00  0.00     0.273 C 
ATOM     81  C   UNL     1       8.922   1.739  -6.834  1.00  0.00     0.088 C 
ATOM     82  N   UNL     1       8.633   3.412  -5.176  1.00  0.00    -0.336 N 
ATOM     83  C   UNL     1       8.763   1.016  -5.489  1.00  0.00     0.028 C 
ATOM     84  C   UNL     1       8.800   2.154  -4.459  1.00  0.00     0.268 C 
ATOM     85  H   UNL     1       7.836   3.918  -4.791  1.00  0.00     0.346 HD
ATOM     86  H   UNL     1       9.479   3.973  -5.073  1.00  0.00     0.346 HD
ATOM     87  C   UNL     1       9.956   0.062  -5.297  1.00  0.00     0.030 C 
ATOM     88  C   UNL     1       7.391   0.278  -5.399  1.00  0.00     0.030 C 
ATOM     89  C   UNL     1       9.746  -1.203  -6.101  1.00  0.00     0.104 C 
ATOM     90  C   UNL     1       7.350  -1.114  -6.041  1.00  0.00     0.104 C 
ATOM     91  N   UNL     1       8.543  -1.921  -5.651  1.00  0.00    -0.189 NA
BRANCH  91  92
ATOM     92  S   UNL     1       8.451  -2.588  -4.089  1.00  0.00     0.282 S 
ATOM     93  O   UNL     1       8.552  -1.520  -3.118  1.00  0.00    -0.195 OA
ATOM     94  O   UNL     1       7.306  -3.464  -4.087  1.00  0.00    -0.195 OA
BRANCH  92  95
ATOM     95  N   UNL     1       9.813  -3.521  -3.972  1.00  0.00    -0.184 NA
ATOM     96  C   UNL     1       9.928  -4.798  -4.687  1.00  0.00     0.132 C 
ATOM     97  C   UNL     1      11.094  -3.045  -3.421  1.00  0.00     0.132 C 
ATOM     98  C   UNL     1      10.952  -4.636  -5.804  1.00  0.00     0.177 C 
ATOM     99  C   UNL     1      12.217  -3.082  -4.470  1.00  0.00     0.177 C 
ATOM    100  O   UNL     1      12.238  -4.270  -5.276  1.00  0.00    -0.379 OA
ENDBRANCH  92  95
ENDBRANCH  91  92
ENDBRANCH  77  80
ENDBRANCH  75  76
ENDBRANCH  74  75
ENDBRANCH  73  74
ENDBRANCH   1  73
TORSDOF 15
