REMARK SMILES CC[C@@H](C(=O)NCCCCCCNC(=O)c1ccc(-c2c3nc(c(-c4c(F)c(F)c(F)c(F)c4F)c4ccc([nH]4)c(-c4c(F)c(F)c(F)c(F)c4F)c4nc(c(-c5c(F)c(F)c(F)c(F)c5F)c5ccc2[nH]5)C=C4)C=C3)cc1)c1cc(Br)ccc1F
REMARK SMILES IDX 10 1 9 2 8 3 7 4 6 5 4 6 5 7 3 9 2 10 1 11 79 12 80 13 85 14
REMARK SMILES IDX 81 15 84 16 86 17 82 18 83 19 11 20 12 21 13 22 14 23 15 25
REMARK SMILES IDX 16 26 17 27 78 28 18 29 77 30 19 31 20 32 21 33 71 34 22 35
REMARK SMILES IDX 76 36 70 37 72 38 23 39 75 40 69 41 68 42 24 44 56 45 36 46
REMARK SMILES IDX 55 47 37 48 40 49 54 50 73 51 38 52 39 53 53 55 74 56 41 57
REMARK SMILES IDX 25 58 26 59 34 60 27 61 28 62 32 63 35 64 29 65 30 66 33 67
REMARK SMILES IDX 31 68 57 69 58 70 66 71 59 72 60 73 64 74 67 75 61 76 62 77
REMARK SMILES IDX 65 78 63 79 42 80 43 81 51 82 44 83 45 84 49 85 52 86 46 87
REMARK SMILES IDX 47 88 50 89 48 90
REMARK H PARENT 6 8 13 24 72 43 40 54
REMARK Flexibility Score: inf
ROOT
ATOM      1  C   UNL     1       1.921  -3.235   3.846  1.00  0.00     0.002 C 
ENDROOT
BRANCH   1   2
ATOM      2  C   UNL     1       0.685  -2.660   3.153  1.00  0.00     0.002 C 
BRANCH   2   3
ATOM      3  C   UNL     1       0.981  -1.596   2.091  1.00  0.00     0.021 C 
BRANCH   3   4
ATOM      4  C   UNL     1       1.648  -2.141   0.821  1.00  0.00     0.116 C 
BRANCH   4   5
ATOM      5  N   UNL     1       0.631  -2.707  -0.041  1.00  0.00    -0.356 N 
ATOM      6  C   UNL     1      -0.011  -2.148  -1.109  1.00  0.00     0.227 C 
ATOM      7  O   UNL     1      -1.149  -2.559  -1.350  1.00  0.00    -0.274 OA
ATOM      8  H   UNL     1       0.363  -3.629   0.175  1.00  0.00     0.163 HD
BRANCH   6   9
ATOM      9  C   UNL     1       0.697  -1.109  -2.014  1.00  0.00     0.111 C 
BRANCH   9  10
ATOM     10  C   UNL     1       0.317   0.345  -1.642  1.00  0.00     0.015 C 
ATOM     11  C   UNL     1       0.685   0.867  -0.269  1.00  0.00     0.005 C 
ENDBRANCH   9  10
BRANCH   9  12
ATOM     12  C   UNL     1       0.344  -1.411  -3.494  1.00  0.00     0.001 A 
ATOM     13  C   UNL     1      -0.194  -0.446  -4.370  1.00  0.00     0.023 A 
ATOM     14  C   UNL     1       0.494  -2.713  -3.999  1.00  0.00     0.127 A 
ATOM     15  C   UNL     1      -0.617  -0.791  -5.657  1.00  0.00     0.018 A 
ATOM     16  C   UNL     1       0.056  -3.062  -5.278  1.00  0.00     0.041 A 
ATOM     17  F   UNL     1       1.052  -3.666  -3.239  1.00  0.00    -0.207 F 
ATOM     18  Br  UNL     1      -1.361   0.540  -6.778  1.00  0.00    -0.051 Br
ATOM     19  C   UNL     1      -0.513  -2.100  -6.110  1.00  0.00     0.019 A 
ENDBRANCH   9  12
ENDBRANCH   6   9
ENDBRANCH   4   5
ENDBRANCH   3   4
ENDBRANCH   2   3
ENDBRANCH   1   2
BRANCH   1  20
ATOM     20  C   UNL     1       2.851  -2.198   4.478  1.00  0.00     0.021 C 
BRANCH  20  21
ATOM     21  C   UNL     1       2.176  -1.254   5.468  1.00  0.00     0.116 C 
BRANCH  21  22
ATOM     22  N   UNL     1       1.639  -1.963   6.620  1.00  0.00    -0.352 N 
ATOM     23  C   UNL     1       1.939  -1.810   7.947  1.00  0.00     0.251 C 
ATOM     24  H   UNL     1       0.965  -2.650   6.415  1.00  0.00     0.163 HD
ATOM     25  O   UNL     1       1.554  -2.640   8.771  1.00  0.00    -0.269 OA
BRANCH  23  26
ATOM     26  C   UNL     1       2.736  -0.650   8.394  1.00  0.00     0.039 A 
ATOM     27  C   UNL     1       3.770  -0.848   9.312  1.00  0.00     0.014 A 
ATOM     28  C   UNL     1       2.450   0.634   7.920  1.00  0.00     0.014 A 
ATOM     29  C   UNL     1       4.548   0.236   9.720  1.00  0.00     0.010 A 
ATOM     30  C   UNL     1       3.274   1.699   8.268  1.00  0.00     0.010 A 
ATOM     31  C   UNL     1       4.322   1.514   9.183  1.00  0.00    -0.014 A 
BRANCH  31  32
ATOM     32  C   UNL     1       5.150   2.678   9.589  1.00  0.00     0.031 A 
ATOM     33  C   UNL     1       4.517   3.830  10.319  1.00  0.00     0.074 A 
ATOM     34  C   UNL     1       6.453   2.724   9.253  1.00  0.00     0.049 A 
ATOM     35  N   UNL     1       5.048   4.965  10.700  1.00  0.00    -0.248 NA
ATOM     36  C   UNL     1       3.086   3.702  10.638  1.00  0.00     0.031 C 
ATOM     37  C   UNL     1       7.173   1.687   8.512  1.00  0.00     0.029 A 
ATOM     38  N   UNL     1       7.404   3.686   9.485  1.00  0.00    -0.354 N 
ATOM     39  C   UNL     1       4.017   5.685  11.288  1.00  0.00     0.074 A 
ATOM     40  C   UNL     1       2.816   4.889  11.158  1.00  0.00     0.031 C 
ATOM     41  C   UNL     1       8.456   2.057   8.373  1.00  0.00     0.029 A 
ATOM     42  C   UNL     1       8.641   3.372   8.979  1.00  0.00     0.049 A 
ATOM     43  H   UNL     1       7.216   4.523   9.969  1.00  0.00     0.167 HD
ATOM     44  C   UNL     1       4.071   6.890  11.905  1.00  0.00     0.037 A 
ATOM     45  C   UNL     1       9.792   4.070   8.998  1.00  0.00     0.037 A 
ATOM     46  C   UNL     1       5.273   7.670  12.049  1.00  0.00     0.049 A 
ATOM     47  C   UNL     1       9.823   5.414   9.677  1.00  0.00     0.074 A 
ATOM     48  C   UNL     1       5.445   8.881  12.694  1.00  0.00     0.029 A 
ATOM     49  N   UNL     1       6.511   7.311  11.535  1.00  0.00    -0.354 N 
ATOM     50  N   UNL     1       8.856   6.060  10.282  1.00  0.00    -0.248 NA
ATOM     51  C   UNL     1      11.111   6.121   9.682  1.00  0.00     0.031 C 
ATOM     52  C   UNL     1       6.776   9.280  12.528  1.00  0.00     0.029 A 
ATOM     53  C   UNL     1       7.448   8.287  11.833  1.00  0.00     0.049 A 
ATOM     54  H   UNL     1       6.697   6.484  11.033  1.00  0.00     0.167 HD
ATOM     55  C   UNL     1       9.425   7.227  10.773  1.00  0.00     0.074 A 
ATOM     56  C   UNL     1      10.825   7.196  10.402  1.00  0.00     0.031 C 
ATOM     57  C   UNL     1       8.842   8.233  11.471  1.00  0.00     0.037 A 
BRANCH  44  58
ATOM     58  C   UNL     1       2.791   7.437  12.470  1.00  0.00     0.064 A 
ATOM     59  C   UNL     1       2.157   6.841  13.572  1.00  0.00     0.173 A 
ATOM     60  C   UNL     1       2.199   8.583  11.917  1.00  0.00     0.173 A 
ATOM     61  F   UNL     1       2.673   5.737  14.131  1.00  0.00    -0.203 F 
ATOM     62  C   UNL     1       0.961   7.349  14.074  1.00  0.00     0.198 A 
ATOM     63  C   UNL     1       1.022   9.109  12.444  1.00  0.00     0.198 A 
ATOM     64  F   UNL     1       2.764   9.198  10.867  1.00  0.00    -0.203 F 
ATOM     65  F   UNL     1       0.344   6.726  15.087  1.00  0.00    -0.200 F 
ATOM     66  C   UNL     1       0.399   8.486  13.514  1.00  0.00     0.200 A 
ATOM     67  F   UNL     1       0.487  10.216  11.912  1.00  0.00    -0.200 F 
ATOM     68  F   UNL     1      -0.750   8.976  14.001  1.00  0.00    -0.200 F 
ENDBRANCH  44  58
BRANCH  45  69
ATOM     69  C   UNL     1      11.019   3.497   8.385  1.00  0.00     0.064 A 
ATOM     70  C   UNL     1      12.102   3.100   9.182  1.00  0.00     0.173 A 
ATOM     71  C   UNL     1      11.140   3.340   6.997  1.00  0.00     0.173 A 
ATOM     72  F   UNL     1      12.042   3.248  10.514  1.00  0.00    -0.203 F 
ATOM     73  C   UNL     1      13.267   2.589   8.613  1.00  0.00     0.198 A 
ATOM     74  C   UNL     1      12.293   2.801   6.431  1.00  0.00     0.198 A 
ATOM     75  F   UNL     1      10.131   3.699   6.189  1.00  0.00    -0.203 F 
ATOM     76  F   UNL     1      14.305   2.263   9.396  1.00  0.00    -0.200 F 
ATOM     77  C   UNL     1      13.360   2.435   7.238  1.00  0.00     0.200 A 
ATOM     78  F   UNL     1      12.373   2.639   5.103  1.00  0.00    -0.200 F 
ATOM     79  F   UNL     1      14.478   1.940   6.692  1.00  0.00    -0.200 F 
ENDBRANCH  45  69
BRANCH  57  80
ATOM     80  C   UNL     1       9.726   9.357  11.930  1.00  0.00     0.064 A 
ATOM     81  C   UNL     1      10.267  10.290  11.034  1.00  0.00     0.173 A 
ATOM     82  C   UNL     1      10.005   9.522  13.296  1.00  0.00     0.173 A 
ATOM     83  F   UNL     1      10.043  10.169   9.716  1.00  0.00    -0.203 F 
ATOM     84  C   UNL     1      11.078  11.328  11.485  1.00  0.00     0.198 A 
ATOM     85  C   UNL     1      10.788  10.581  13.747  1.00  0.00     0.198 A 
ATOM     86  F   UNL     1       9.506   8.662  14.197  1.00  0.00    -0.203 F 
ATOM     87  F   UNL     1      11.628  12.176  10.604  1.00  0.00    -0.200 F 
ATOM     88  C   UNL     1      11.331  11.477  12.840  1.00  0.00     0.200 A 
ATOM     89  F   UNL     1      11.017  10.732  15.058  1.00  0.00    -0.200 F 
ATOM     90  F   UNL     1      12.106  12.482  13.272  1.00  0.00    -0.200 F 
ENDBRANCH  57  80
ENDBRANCH  31  32
ENDBRANCH  23  26
ENDBRANCH  21  22
ENDBRANCH  20  21
ENDBRANCH   1  20
TORSDOF 15
