REMARK SMILES O=C(COc1ccccc1/C=N/NC(=O)c1cc(-c2ccc(F)cc2)nc2ccccc12)NCCCCCCNC(=O)c1ccc(-c2c3nc(c(-c4c(F)c(F)c(F)c(F)c4F)c4ccc([nH]4)c(-c4c(F)c(F)c(F)c(F)c4F)c4nc(c(-c5c(F)c(F)c(F)c(F)c5F)c5ccc2[nH]5)C=C4)C=C3)cc1
REMARK SMILES IDX 34 1 33 2 1 3 2 4 3 6 4 7 5 8 6 9 10 10 7 11 9 12 8 13 11 14
REMARK SMILES IDX 12 15 13 16 14 17 15 19 16 20 17 21 32 22 18 23 27 24 31 25
REMARK SMILES IDX 26 26 28 27 30 28 29 29 19 30 20 31 25 32 21 33 24 34 22 35
REMARK SMILES IDX 23 36 35 37 36 38 37 39 38 40 39 41 40 42 41 43 42 45 43 46
REMARK SMILES IDX 44 47 105 48 45 49 104 50 46 51 47 52 48 53 98 54 49 55
REMARK SMILES IDX 103 56 97 57 99 58 50 59 102 60 96 61 95 62 51 64 83 65
REMARK SMILES IDX 63 66 82 67 64 68 67 69 81 70 100 71 65 72 66 73 80 75
REMARK SMILES IDX 101 76 68 77 52 78 53 79 61 80 54 81 55 82 59 83 62 84 56 85
REMARK SMILES IDX 57 86 60 87 58 88 84 89 85 90 93 91 86 92 87 93 91 94 94 95
REMARK SMILES IDX 88 96 89 97 92 98 90 99 69 100 70 101 78 102 71 103 72 104
REMARK SMILES IDX 76 105 79 106 73 107 74 108 77 109 75 110
REMARK H PARENT 33 5 13 18 40 44 99 63 67 74
REMARK Flexibility Score: inf
ROOT
ATOM      1  C   UNL     1       2.959   0.622  -2.079  1.00  0.00     0.116 C 
ENDROOT
BRANCH   1   2
ATOM      2  N   UNL     1       3.543   0.453  -0.764  1.00  0.00    -0.353 N 
ATOM      3  O   UNL     1       1.831   1.013   0.746  1.00  0.00    -0.271 OA
ATOM      4  C   UNL     1       2.839   0.410   0.431  1.00  0.00     0.257 C 
ATOM      5  H   UNL     1       4.521   0.361  -0.714  1.00  0.00     0.163 HD
BRANCH   4   6
ATOM      6  C   UNL     1       3.384  -0.548   1.432  1.00  0.00     0.329 C 
BRANCH   6   7
ATOM      7  O   UNL     1       3.789  -1.661   0.660  1.00  0.00    -0.483 OA
BRANCH   7   8
ATOM      8  C   UNL     1       2.850  -2.656   0.552  1.00  0.00     0.128 A 
ATOM      9  C   UNL     1       3.370  -3.836   1.134  1.00  0.00     0.047 A 
ATOM     10  C   UNL     1       1.709  -2.685  -0.289  1.00  0.00     0.037 A 
ATOM     11  C   UNL     1       2.857  -5.081   0.813  1.00  0.00     0.004 A 
ATOM     12  C   UNL     1       1.237  -3.976  -0.621  1.00  0.00     0.013 A 
ATOM     13  C   UNL     1       1.811  -5.152  -0.095  1.00  0.00     0.001 A 
BRANCH  10  14
ATOM     14  C   UNL     1       1.022  -1.578  -1.100  1.00  0.00     0.145 C 
ATOM     15  N   UNL     1       0.403  -0.490  -0.681  1.00  0.00    -0.180 NA
BRANCH  15  16
ATOM     16  N   UNL     1      -0.265   0.275  -1.669  1.00  0.00    -0.243 N 
ATOM     17  C   UNL     1      -0.489   1.671  -1.912  1.00  0.00     0.272 C 
ATOM     18  H   UNL     1      -0.678  -0.293  -2.360  1.00  0.00     0.194 HD
ATOM     19  O   UNL     1      -1.321   1.858  -2.818  1.00  0.00    -0.267 OA
BRANCH  17  20
ATOM     20  C   UNL     1       0.284   2.939  -1.474  1.00  0.00     0.053 A 
ATOM     21  C   UNL     1       1.015   3.135  -0.300  1.00  0.00     0.043 A 
ATOM     22  C   UNL     1       0.191   4.174  -2.233  1.00  0.00     0.013 A 
ATOM     23  C   UNL     1       2.059   4.065  -0.310  1.00  0.00     0.072 A 
ATOM     24  C   UNL     1       1.282   5.050  -2.118  1.00  0.00     0.072 A 
ATOM     25  C   UNL     1      -0.917   4.739  -2.923  1.00  0.00     0.011 A 
ATOM     26  N   UNL     1       2.337   4.729  -1.436  1.00  0.00    -0.248 NA
ATOM     27  C   UNL     1       1.267   6.384  -2.471  1.00  0.00     0.029 A 
ATOM     28  C   UNL     1      -0.963   6.119  -3.232  1.00  0.00     0.001 A 
ATOM     29  C   UNL     1       0.114   6.953  -2.961  1.00  0.00     0.002 A 
BRANCH  23  30
ATOM     30  C   UNL     1       2.691   4.881   0.757  1.00  0.00     0.000 A 
ATOM     31  C   UNL     1       1.923   5.999   1.163  1.00  0.00     0.013 A 
ATOM     32  C   UNL     1       4.101   5.040   0.715  1.00  0.00     0.013 A 
ATOM     33  C   UNL     1       2.505   7.269   1.260  1.00  0.00     0.040 A 
ATOM     34  C   UNL     1       4.683   6.311   0.850  1.00  0.00     0.040 A 
ATOM     35  C   UNL     1       3.872   7.417   1.068  1.00  0.00     0.123 A 
ATOM     36  F   UNL     1       4.401   8.648   1.014  1.00  0.00    -0.207 F 
ENDBRANCH  23  30
ENDBRANCH  17  20
ENDBRANCH  15  16
ENDBRANCH  10  14
ENDBRANCH   7   8
ENDBRANCH   6   7
ENDBRANCH   4   6
ENDBRANCH   1   2
BRANCH   1  37
ATOM     37  C   UNL     1       3.324   1.894  -2.789  1.00  0.00     0.021 C 
BRANCH  37  38
ATOM     38  C   UNL     1       4.739   1.888  -3.313  1.00  0.00     0.002 C 
BRANCH  38  39
ATOM     39  C   UNL     1       4.939   0.894  -4.456  1.00  0.00     0.002 C 
BRANCH  39  40
ATOM     40  C   UNL     1       4.026   1.137  -5.661  1.00  0.00     0.021 C 
BRANCH  40  41
ATOM     41  C   UNL     1       4.074   2.572  -6.171  1.00  0.00     0.116 C 
BRANCH  41  42
ATOM     42  N   UNL     1       5.442   2.961  -6.482  1.00  0.00    -0.352 N 
ATOM     43  C   UNL     1       6.003   3.249  -7.700  1.00  0.00     0.251 C 
ATOM     44  H   UNL     1       6.049   3.027  -5.710  1.00  0.00     0.163 HD
ATOM     45  O   UNL     1       7.208   3.225  -7.857  1.00  0.00    -0.269 OA
BRANCH  43  46
ATOM     46  C   UNL     1       5.102   3.583  -8.819  1.00  0.00     0.039 A 
ATOM     47  C   UNL     1       5.360   3.043 -10.078  1.00  0.00     0.014 A 
ATOM     48  C   UNL     1       3.997   4.414  -8.608  1.00  0.00     0.014 A 
ATOM     49  C   UNL     1       4.475   3.303 -11.120  1.00  0.00     0.010 A 
ATOM     50  C   UNL     1       3.062   4.580  -9.618  1.00  0.00     0.010 A 
ATOM     51  C   UNL     1       3.299   4.038 -10.888  1.00  0.00    -0.014 A 
BRANCH  51  52
ATOM     52  C   UNL     1       2.302   4.239 -11.965  1.00  0.00     0.031 A 
ATOM     53  C   UNL     1       1.965   5.625 -12.435  1.00  0.00     0.074 A 
ATOM     54  C   UNL     1       1.674   3.171 -12.492  1.00  0.00     0.049 A 
ATOM     55  N   UNL     1       1.099   5.998 -13.343  1.00  0.00    -0.248 NA
ATOM     56  C   UNL     1       2.677   6.740 -11.790  1.00  0.00     0.031 C 
ATOM     57  C   UNL     1       1.896   1.780 -12.092  1.00  0.00     0.029 A 
ATOM     58  N   UNL     1       0.723   3.085 -13.477  1.00  0.00    -0.354 N 
ATOM     59  C   UNL     1       1.165   7.384 -13.377  1.00  0.00     0.074 A 
ATOM     60  C   UNL     1       2.102   7.791 -12.354  1.00  0.00     0.031 C 
ATOM     61  C   UNL     1       1.138   0.978 -12.854  1.00  0.00     0.029 A 
ATOM     62  C   UNL     1       0.329   1.798 -13.748  1.00  0.00     0.049 A 
ATOM     63  H   UNL     1       0.359   3.871 -13.944  1.00  0.00     0.167 HD
ATOM     64  C   UNL     1       0.520   8.237 -14.207  1.00  0.00     0.037 A 
ATOM     65  C   UNL     1      -0.597   1.333 -14.608  1.00  0.00     0.037 A 
ATOM     66  C   UNL     1      -0.419   7.823 -15.216  1.00  0.00     0.049 A 
ATOM     67  C   UNL     1      -1.355   2.312 -15.463  1.00  0.00     0.074 A 
ATOM     68  C   UNL     1      -1.104   8.609 -16.126  1.00  0.00     0.029 A 
ATOM     69  N   UNL     1      -0.823   6.514 -15.436  1.00  0.00    -0.354 N 
ATOM     70  N   UNL     1      -1.240   3.616 -15.532  1.00  0.00    -0.248 NA
ATOM     71  C   UNL     1      -2.372   1.753 -16.364  1.00  0.00     0.031 C 
ATOM     72  C   UNL     1      -1.986   7.790 -16.833  1.00  0.00     0.029 A 
ATOM     73  C   UNL     1      -1.779   6.478 -16.439  1.00  0.00     0.049 A 
ATOM     74  H   UNL     1      -0.481   5.728 -14.952  1.00  0.00     0.167 HD
ATOM     75  C   UNL     1      -2.138   4.028 -16.508  1.00  0.00     0.074 A 
ATOM     76  C   UNL     1      -2.776   2.833 -17.016  1.00  0.00     0.031 C 
ATOM     77  C   UNL     1      -2.405   5.283 -16.945  1.00  0.00     0.037 A 
BRANCH  64  78
ATOM     78  C   UNL     1       0.792   9.706 -14.048  1.00  0.00     0.064 A 
ATOM     79  C   UNL     1       2.050  10.261 -14.331  1.00  0.00     0.173 A 
ATOM     80  C   UNL     1      -0.233  10.578 -13.651  1.00  0.00     0.173 A 
ATOM     81  F   UNL     1       3.067   9.473 -14.712  1.00  0.00    -0.203 F 
ATOM     82  C   UNL     1       2.281  11.625 -14.183  1.00  0.00     0.198 A 
ATOM     83  C   UNL     1      -0.011  11.948 -13.550  1.00  0.00     0.198 A 
ATOM     84  F   UNL     1      -1.459  10.105 -13.378  1.00  0.00    -0.203 F 
ATOM     85  F   UNL     1       3.507  12.122 -14.398  1.00  0.00    -0.200 F 
ATOM     86  C   UNL     1       1.248  12.469 -13.803  1.00  0.00     0.200 A 
ATOM     87  F   UNL     1      -1.018  12.764 -13.209  1.00  0.00    -0.200 F 
ATOM     88  F   UNL     1       1.468  13.785 -13.676  1.00  0.00    -0.200 F 
ENDBRANCH  64  78
BRANCH  65  89
ATOM     89  C   UNL     1      -0.859  -0.128 -14.707  1.00  0.00     0.064 A 
ATOM     90  C   UNL     1      -0.603  -0.830 -15.893  1.00  0.00     0.173 A 
ATOM     91  C   UNL     1      -1.400  -0.847 -13.630  1.00  0.00     0.173 A 
ATOM     92  F   UNL     1      -0.099  -0.186 -16.957  1.00  0.00    -0.203 F 
ATOM     93  C   UNL     1      -0.915  -2.182 -16.012  1.00  0.00     0.198 A 
ATOM     94  C   UNL     1      -1.669  -2.209 -13.735  1.00  0.00     0.198 A 
ATOM     95  F   UNL     1      -1.659  -0.228 -12.469  1.00  0.00    -0.203 F 
ATOM     96  F   UNL     1      -0.729  -2.809 -17.181  1.00  0.00    -0.200 F 
ATOM     97  C   UNL     1      -1.441  -2.872 -14.931  1.00  0.00     0.200 A 
ATOM     98  F   UNL     1      -2.155  -2.877 -12.680  1.00  0.00    -0.200 F 
ATOM     99  F   UNL     1      -1.741  -4.173 -15.045  1.00  0.00    -0.200 F 
ENDBRANCH  65  89
BRANCH  77 100
ATOM    100  C   UNL     1      -3.393   5.434 -18.069  1.00  0.00     0.064 A 
ATOM    101  C   UNL     1      -4.754   5.135 -17.912  1.00  0.00     0.173 A 
ATOM    102  C   UNL     1      -2.972   5.927 -19.315  1.00  0.00     0.173 A 
ATOM    103  F   UNL     1      -5.212   4.655 -16.745  1.00  0.00    -0.203 F 
ATOM    104  C   UNL     1      -5.647   5.284 -18.971  1.00  0.00     0.198 A 
ATOM    105  C   UNL     1      -3.876   6.122 -20.354  1.00  0.00     0.198 A 
ATOM    106  F   UNL     1      -1.684   6.242 -19.520  1.00  0.00    -0.203 F 
ATOM    107  F   UNL     1      -6.929   4.924 -18.818  1.00  0.00    -0.200 F 
ATOM    108  C   UNL     1      -5.210   5.787 -20.186  1.00  0.00     0.200 A 
ATOM    109  F   UNL     1      -3.455   6.636 -21.518  1.00  0.00    -0.200 F 
ATOM    110  F   UNL     1      -6.073   5.941 -21.199  1.00  0.00    -0.200 F 
ENDBRANCH  77 100
ENDBRANCH  51  52
ENDBRANCH  43  46
ENDBRANCH  41  42
ENDBRANCH  40  41
ENDBRANCH  39  40
ENDBRANCH  38  39
ENDBRANCH  37  38
ENDBRANCH   1  37
TORSDOF 19
