REMARK SMILES CCN(Cc1ccccn1)C(=O)NC(CC)(CC)C(=O)NCCCCCCNC(=O)c1ccc(-c2c3nc(c(-c4c(F)c(F)c(F)c(F)c4F)c4ccc([nH]4)c(-c4c(F)c(F)c(F)c(F)c4F)c4nc(c(-c5c(F)c(F)c(F)c(F)c5F)c5ccc2[nH]5)C=C4)C=C3)cc1
REMARK SMILES IDX 23 1 22 2 21 3 19 4 20 5 14 7 13 8 11 9 12 10 3 12 2 13 1 14
REMARK SMILES IDX 4 15 5 16 6 17 10 18 7 19 9 20 8 21 15 22 16 23 17 24 18 25
REMARK SMILES IDX 24 26 25 27 26 28 27 29 28 30 29 31 30 33 31 34 32 35 93 36
REMARK SMILES IDX 33 37 92 38 34 39 35 40 36 41 86 42 37 43 91 44 85 45 87 46
REMARK SMILES IDX 38 47 90 48 84 49 83 50 39 52 71 53 51 54 70 55 52 56 55 57
REMARK SMILES IDX 69 58 88 59 53 60 54 61 68 63 89 64 56 65 40 66 41 67 49 68
REMARK SMILES IDX 42 69 43 70 47 71 50 72 44 73 45 74 48 75 46 76 72 77 73 78
REMARK SMILES IDX 81 79 74 80 75 81 79 82 82 83 76 84 77 85 80 86 78 87 57 88
REMARK SMILES IDX 58 89 66 90 59 91 60 92 64 93 67 94 61 95 62 96 65 97 63 98
REMARK H PARENT 21 6 13 11 28 32 87 51 55 62
REMARK Flexibility Score: inf
ROOT
ATOM      1  C   UNL     1      -1.329   7.459   1.933  1.00  0.00     0.021 C 
ENDROOT
BRANCH   1   2
ATOM      2  C   UNL     1      -0.291   6.489   2.496  1.00  0.00     0.116 C 
BRANCH   2   3
ATOM      3  N   UNL     1      -0.278   5.265   1.730  1.00  0.00    -0.354 N 
ATOM      4  C   UNL     1       0.684   4.348   1.472  1.00  0.00     0.245 C 
ATOM      5  O   UNL     1       0.392   3.580   0.544  1.00  0.00    -0.272 OA
ATOM      6  H   UNL     1      -1.143   5.054   1.311  1.00  0.00     0.163 HD
BRANCH   4   7
ATOM      7  C   UNL     1       2.081   4.319   2.157  1.00  0.00     0.120 C 
BRANCH   7   8
ATOM      8  N   UNL     1       2.657   2.959   1.998  1.00  0.00    -0.323 N 
ATOM      9  C   UNL     1       2.324   1.670   2.166  1.00  0.00     0.318 C 
ATOM     10  O   UNL     1       3.283   0.900   2.005  1.00  0.00    -0.249 OA
ATOM     11  H   UNL     1       3.580   3.024   1.660  1.00  0.00     0.166 HD
BRANCH   9  12
ATOM     12  N   UNL     1       1.056   1.182   2.306  1.00  0.00    -0.319 N 
BRANCH  12  13
ATOM     13  C   UNL     1       0.831  -0.106   1.636  1.00  0.00     0.118 C 
ATOM     14  C   UNL     1       0.960   0.004   0.116  1.00  0.00     0.027 C 
ENDBRANCH  12  13
BRANCH  12  15
ATOM     15  C   UNL     1      -0.127   1.742   2.981  1.00  0.00     0.177 C 
BRANCH  15  16
ATOM     16  C   UNL     1       0.026   2.166   4.426  1.00  0.00     0.060 A 
ATOM     17  C   UNL     1      -0.674   3.284   4.889  1.00  0.00     0.026 A 
ATOM     18  N   UNL     1       0.787   1.407   5.252  1.00  0.00    -0.259 NA
ATOM     19  C   UNL     1      -0.524   3.679   6.216  1.00  0.00     0.004 A 
ATOM     20  C   UNL     1       0.901   1.802   6.539  1.00  0.00     0.111 A 
ATOM     21  C   UNL     1       0.282   2.927   7.059  1.00  0.00     0.020 A 
ENDBRANCH  15  16
ENDBRANCH  12  15
ENDBRANCH   9  12
ENDBRANCH   7   8
BRANCH   7  22
ATOM     22  C   UNL     1       2.176   4.673   3.664  1.00  0.00     0.035 C 
ATOM     23  C   UNL     1       3.570   5.049   4.174  1.00  0.00     0.007 C 
ENDBRANCH   7  22
BRANCH   7  24
ATOM     24  C   UNL     1       2.961   5.328   1.338  1.00  0.00     0.035 C 
ATOM     25  C   UNL     1       2.858   5.232  -0.183  1.00  0.00     0.007 C 
ENDBRANCH   7  24
ENDBRANCH   4   7
ENDBRANCH   2   3
ENDBRANCH   1   2
BRANCH   1  26
ATOM     26  C   UNL     1      -2.781   6.966   2.025  1.00  0.00     0.002 C 
BRANCH  26  27
ATOM     27  C   UNL     1      -3.312   6.737   3.443  1.00  0.00     0.002 C 
BRANCH  27  28
ATOM     28  C   UNL     1      -3.229   7.945   4.378  1.00  0.00     0.021 C 
BRANCH  28  29
ATOM     29  C   UNL     1      -3.777   9.246   3.805  1.00  0.00     0.116 C 
BRANCH  29  30
ATOM     30  N   UNL     1      -5.174   9.170   3.421  1.00  0.00    -0.352 N 
ATOM     31  C   UNL     1      -6.096  10.186   3.383  1.00  0.00     0.251 C 
ATOM     32  H   UNL     1      -5.501   8.280   3.155  1.00  0.00     0.163 HD
ATOM     33  O   UNL     1      -7.271   9.956   3.117  1.00  0.00    -0.269 OA
BRANCH  31  34
ATOM     34  C   UNL     1      -5.669  11.564   3.708  1.00  0.00     0.039 A 
ATOM     35  C   UNL     1      -6.411  12.293   4.640  1.00  0.00     0.014 A 
ATOM     36  C   UNL     1      -4.539  12.129   3.108  1.00  0.00     0.014 A 
ATOM     37  C   UNL     1      -5.995  13.574   5.006  1.00  0.00     0.010 A 
ATOM     38  C   UNL     1      -4.089  13.380   3.521  1.00  0.00     0.010 A 
ATOM     39  C   UNL     1      -4.819  14.118   4.465  1.00  0.00    -0.014 A 
BRANCH  39  40
ATOM     40  C   UNL     1      -4.363  15.478   4.842  1.00  0.00     0.031 A 
ATOM     41  C   UNL     1      -4.369  16.577   3.816  1.00  0.00     0.074 A 
ATOM     42  C   UNL     1      -3.903  15.713   6.086  1.00  0.00     0.049 A 
ATOM     43  N   UNL     1      -3.949  17.812   3.922  1.00  0.00    -0.248 NA
ATOM     44  C   UNL     1      -4.891  16.233   2.484  1.00  0.00     0.031 C 
ATOM     45  C   UNL     1      -3.808  14.718   7.156  1.00  0.00     0.029 A 
ATOM     46  N   UNL     1      -3.420  16.863   6.658  1.00  0.00    -0.354 N 
ATOM     47  C   UNL     1      -4.144  18.385   2.672  1.00  0.00     0.074 A 
ATOM     48  C   UNL     1      -4.671  17.351   1.808  1.00  0.00     0.031 C 
ATOM     49  C   UNL     1      -3.315  15.306   8.259  1.00  0.00     0.029 A 
ATOM     50  C   UNL     1      -3.034  16.708   7.966  1.00  0.00     0.049 A 
ATOM     51  H   UNL     1      -3.357  17.719   6.175  1.00  0.00     0.167 HD
ATOM     52  C   UNL     1      -3.928  19.664   2.286  1.00  0.00     0.037 A 
ATOM     53  C   UNL     1      -2.512  17.600   8.830  1.00  0.00     0.037 A 
ATOM     54  C   UNL     1      -3.438  20.700   3.155  1.00  0.00     0.049 A 
ATOM     55  C   UNL     1      -2.305  19.022   8.380  1.00  0.00     0.074 A 
ATOM     56  C   UNL     1      -3.217  22.036   2.869  1.00  0.00     0.029 A 
ATOM     57  N   UNL     1      -3.103  20.514   4.488  1.00  0.00    -0.354 N 
ATOM     58  N   UNL     1      -2.538  19.562   7.209  1.00  0.00    -0.248 NA
ATOM     59  C   UNL     1      -1.774  19.962   9.378  1.00  0.00     0.031 C 
ATOM     60  C   UNL     1      -2.725  22.654   4.024  1.00  0.00     0.029 A 
ATOM     61  C   UNL     1      -2.675  21.712   5.038  1.00  0.00     0.049 A 
ATOM     62  H   UNL     1      -3.160  19.659   4.972  1.00  0.00     0.167 HD
ATOM     63  C   UNL     1      -2.215  20.906   7.338  1.00  0.00     0.074 A 
ATOM     64  C   UNL     1      -1.780  21.103   8.705  1.00  0.00     0.031 C 
ATOM     65  C   UNL     1      -2.271  21.890   6.407  1.00  0.00     0.037 A 
BRANCH  52  66
ATOM     66  C   UNL     1      -4.237  20.020   0.862  1.00  0.00     0.064 A 
ATOM     67  C   UNL     1      -5.559  20.109   0.402  1.00  0.00     0.173 A 
ATOM     68  C   UNL     1      -3.204  20.312  -0.041  1.00  0.00     0.173 A 
ATOM     69  F   UNL     1      -6.580  19.824   1.224  1.00  0.00    -0.203 F 
ATOM     70  C   UNL     1      -5.836  20.457  -0.917  1.00  0.00     0.198 A 
ATOM     71  C   UNL     1      -3.486  20.686  -1.353  1.00  0.00     0.198 A 
ATOM     72  F   UNL     1      -1.923  20.244   0.350  1.00  0.00    -0.203 F 
ATOM     73  F   UNL     1      -7.105  20.494  -1.346  1.00  0.00    -0.200 F 
ATOM     74  C   UNL     1      -4.800  20.753  -1.791  1.00  0.00     0.200 A 
ATOM     75  F   UNL     1      -2.485  20.982  -2.194  1.00  0.00    -0.200 F 
ATOM     76  F   UNL     1      -5.069  21.095  -3.058  1.00  0.00    -0.200 F 
ENDBRANCH  52  66
BRANCH  53  77
ATOM     77  C   UNL     1      -2.175  17.189  10.217  1.00  0.00     0.064 A 
ATOM     78  C   UNL     1      -2.925  17.652  11.307  1.00  0.00     0.173 A 
ATOM     79  C   UNL     1      -1.087  16.346  10.484  1.00  0.00     0.173 A 
ATOM     80  F   UNL     1      -3.963  18.477  11.102  1.00  0.00    -0.203 F 
ATOM     81  C   UNL     1      -2.583  17.312  12.614  1.00  0.00     0.198 A 
ATOM     82  C   UNL     1      -0.762  15.985  11.790  1.00  0.00     0.198 A 
ATOM     83  F   UNL     1      -0.342  15.871   9.476  1.00  0.00    -0.203 F 
ATOM     84  F   UNL     1      -3.286  17.811  13.639  1.00  0.00    -0.200 F 
ATOM     85  C   UNL     1      -1.503  16.476  12.854  1.00  0.00     0.200 A 
ATOM     86  F   UNL     1       0.275  15.166  12.018  1.00  0.00    -0.200 F 
ATOM     87  F   UNL     1      -1.172  16.151  14.111  1.00  0.00    -0.200 F 
ENDBRANCH  53  77
BRANCH  65  88
ATOM     88  C   UNL     1      -1.901  23.274   6.848  1.00  0.00     0.064 A 
ATOM     89  C   UNL     1      -0.569  23.637   7.091  1.00  0.00     0.173 A 
ATOM     90  C   UNL     1      -2.890  24.259   6.990  1.00  0.00     0.173 A 
ATOM     91  F   UNL     1       0.410  22.726   6.983  1.00  0.00    -0.203 F 
ATOM     92  C   UNL     1      -0.242  24.932   7.484  1.00  0.00     0.198 A 
ATOM     93  C   UNL     1      -2.557  25.559   7.358  1.00  0.00     0.198 A 
ATOM     94  F   UNL     1      -4.178  23.962   6.763  1.00  0.00    -0.203 F 
ATOM     95  F   UNL     1       1.032  25.247   7.753  1.00  0.00    -0.200 F 
ATOM     96  C   UNL     1      -1.235  25.893   7.611  1.00  0.00     0.200 A 
ATOM     97  F   UNL     1      -3.515  26.489   7.469  1.00  0.00    -0.200 F 
ATOM     98  F   UNL     1      -0.917  27.140   7.984  1.00  0.00    -0.200 F 
ENDBRANCH  65  88
ENDBRANCH  39  40
ENDBRANCH  31  34
ENDBRANCH  29  30
ENDBRANCH  28  29
ENDBRANCH  27  28
ENDBRANCH  26  27
ENDBRANCH   1  26
TORSDOF 20
