REMARK SMILES Cc1nc(-c2ccccc2Cl)nc2sc(C(=O)NCCCCCCNC(=O)c3ccc(-c4c5nc(c(-c6c(F)c(F)c(F)c(F)c6F)c6ccc([nH]6)c(-c6c(F)c(F)c(F)c(F)c6F)c6nc(c(-c7c(F)c(F)c(F)c(F)c7F)c7ccc4[nH]7)C=C6)C=C5)cc3)c(N)c12
REMARK SMILES IDX 22 1 21 2 20 3 19 4 18 5 16 6 17 7 15 9 1 10 2 11 3 12 93 13
REMARK SMILES IDX 4 14 13 15 91 16 12 17 14 18 5 19 6 20 10 21 7 22 9 23 11 24
REMARK SMILES IDX 8 25 92 26 23 29 24 30 25 31 26 32 27 34 28 35 29 36 90 37
REMARK SMILES IDX 30 38 89 39 31 40 32 41 33 42 83 43 34 44 88 45 82 46 84 47
REMARK SMILES IDX 35 48 87 49 81 50 80 51 36 53 68 54 48 55 67 56 49 57 52 58
REMARK SMILES IDX 66 59 85 60 50 61 51 62 65 64 86 65 53 66 37 67 38 68 46 69
REMARK SMILES IDX 39 70 40 71 44 72 47 73 41 74 42 75 45 76 43 77 69 78 70 79
REMARK SMILES IDX 78 80 71 81 72 82 76 83 79 84 73 85 74 86 77 87 75 88 54 89
REMARK SMILES IDX 55 90 63 91 56 92 57 93 61 94 64 95 58 96 59 97 62 98 60 99
REMARK H PARENT 18 8 92 27 92 28 25 33 84 52 52 63
REMARK Flexibility Score: inf
ROOT
ATOM      1  C   UNL     1       1.042   9.775  -4.473  1.00  0.00     0.002 C 
ENDROOT
BRANCH   1   2
ATOM      2  C   UNL     1       0.055   9.258  -3.412  1.00  0.00     0.002 C 
BRANCH   2   3
ATOM      3  C   UNL     1      -0.122   7.736  -3.351  1.00  0.00     0.021 C 
BRANCH   3   4
ATOM      4  C   UNL     1       1.179   6.976  -3.073  1.00  0.00     0.116 C 
BRANCH   4   5
ATOM      5  N   UNL     1       1.442   6.863  -1.646  1.00  0.00    -0.351 N 
ATOM      6  C   UNL     1       1.331   5.811  -0.757  1.00  0.00     0.263 C 
ATOM      7  O   UNL     1       1.790   6.025   0.371  1.00  0.00    -0.268 OA
ATOM      8  H   UNL     1       1.760   7.699  -1.234  1.00  0.00     0.163 HD
BRANCH   6   9
ATOM      9  C   UNL     1       0.777   4.516  -1.131  1.00  0.00     0.118 A 
ATOM     10  C   UNL     1       0.981  -0.011  -0.026  1.00  0.00     0.067 C 
ATOM     11  C   UNL     1       0.472   0.766  -1.203  1.00  0.00     0.052 A 
ATOM     12  N   UNL     1       0.000   0.036  -2.262  1.00  0.00    -0.233 NA
ATOM     13  C   UNL     1       0.462   2.176  -1.296  1.00  0.00     0.056 A 
ATOM     14  C   UNL     1      -0.536   0.680  -3.315  1.00  0.00     0.162 A 
ATOM     15  C   UNL     1      -0.194   2.678  -2.404  1.00  0.00     0.130 A 
ATOM     16  C   UNL     1       0.988   3.278  -0.523  1.00  0.00     0.067 A 
ATOM     17  N   UNL     1      -0.696   1.997  -3.432  1.00  0.00    -0.217 NA
ATOM     18  S   UNL     1      -0.402   4.349  -2.352  1.00  0.00    -0.108 S 
BRANCH  14  19
ATOM     19  C   UNL     1      -1.000  -0.064  -4.481  1.00  0.00     0.038 A 
ATOM     20  C   UNL     1      -0.326   0.108  -5.711  1.00  0.00     0.013 A 
ATOM     21  C   UNL     1      -2.204  -0.781  -4.484  1.00  0.00     0.052 A 
ATOM     22  C   UNL     1      -0.857  -0.382  -6.905  1.00  0.00     0.001 A 
ATOM     23  C   UNL     1      -2.736  -1.271  -5.683  1.00  0.00     0.021 A 
ATOM     24  Cl  UNL     1      -3.134  -1.020  -3.043  1.00  0.00    -0.084 Cl
ATOM     25  C   UNL     1      -2.071  -1.059  -6.892  1.00  0.00     0.002 A 
ENDBRANCH  14  19
BRANCH  16  26
ATOM     26  N   UNL     1       1.693   3.146   0.623  1.00  0.00    -0.397 N 
ATOM     27  H   UNL     1       2.019   3.945   1.095  1.00  0.00     0.156 HD
ATOM     28  H   UNL     1       1.880   2.249   0.985  1.00  0.00     0.156 HD
ENDBRANCH  16  26
ENDBRANCH   6   9
ENDBRANCH   4   5
ENDBRANCH   3   4
ENDBRANCH   2   3
ENDBRANCH   1   2
BRANCH   1  29
ATOM     29  C   UNL     1       0.838   9.263  -5.907  1.00  0.00     0.021 C 
BRANCH  29  30
ATOM     30  C   UNL     1      -0.474   9.709  -6.534  1.00  0.00     0.116 C 
BRANCH  30  31
ATOM     31  N   UNL     1      -0.536  11.156  -6.721  1.00  0.00    -0.352 N 
ATOM     32  C   UNL     1      -1.566  11.928  -7.221  1.00  0.00     0.251 C 
ATOM     33  H   UNL     1       0.271  11.651  -6.452  1.00  0.00     0.163 HD
ATOM     34  O   UNL     1      -1.348  13.048  -7.653  1.00  0.00    -0.269 OA
BRANCH  32  35
ATOM     35  C   UNL     1      -2.937  11.380  -7.240  1.00  0.00     0.039 A 
ATOM     36  C   UNL     1      -3.810  11.697  -8.282  1.00  0.00     0.014 A 
ATOM     37  C   UNL     1      -3.352  10.547  -6.204  1.00  0.00     0.014 A 
ATOM     38  C   UNL     1      -5.068  11.104  -8.302  1.00  0.00     0.010 A 
ATOM     39  C   UNL     1      -4.522   9.835  -6.310  1.00  0.00     0.010 A 
ATOM     40  C   UNL     1      -5.407  10.145  -7.329  1.00  0.00    -0.014 A 
BRANCH  40  41
ATOM     41  C   UNL     1      -6.635   9.369  -7.466  1.00  0.00     0.031 A 
ATOM     42  C   UNL     1      -6.780   8.764  -8.811  1.00  0.00     0.074 A 
ATOM     43  C   UNL     1      -7.498   9.092  -6.463  1.00  0.00     0.049 A 
ATOM     44  N   UNL     1      -7.544   9.193  -9.758  1.00  0.00    -0.248 NA
ATOM     45  C   UNL     1      -5.860   7.694  -9.228  1.00  0.00     0.031 C 
ATOM     46  C   UNL     1      -7.329   9.357  -5.030  1.00  0.00     0.029 A 
ATOM     47  N   UNL     1      -8.697   8.435  -6.503  1.00  0.00    -0.354 N 
ATOM     48  C   UNL     1      -7.400   8.283 -10.797  1.00  0.00     0.074 A 
ATOM     49  C   UNL     1      -6.211   7.527 -10.508  1.00  0.00     0.031 C 
ATOM     50  C   UNL     1      -8.252   8.666  -4.325  1.00  0.00     0.029 A 
ATOM     51  C   UNL     1      -9.191   8.067  -5.254  1.00  0.00     0.049 A 
ATOM     52  H   UNL     1      -9.171   8.238  -7.344  1.00  0.00     0.167 HD
ATOM     53  C   UNL     1      -8.471   8.016 -11.594  1.00  0.00     0.037 A 
ATOM     54  C   UNL     1     -10.302   7.333  -5.002  1.00  0.00     0.037 A 
ATOM     55  C   UNL     1      -9.510   8.993 -11.378  1.00  0.00     0.049 A 
ATOM     56  C   UNL     1     -11.197   7.488  -6.169  1.00  0.00     0.074 A 
ATOM     57  C   UNL     1      -9.755  10.306 -11.714  1.00  0.00     0.029 A 
ATOM     58  N   UNL     1     -10.310   8.692 -10.310  1.00  0.00    -0.354 N 
ATOM     59  N   UNL     1     -11.786   8.609  -6.477  1.00  0.00    -0.248 NA
ATOM     60  C   UNL     1     -11.197   6.466  -7.211  1.00  0.00     0.031 C 
ATOM     61  C   UNL     1     -10.667  10.809 -10.736  1.00  0.00     0.029 A 
ATOM     62  C   UNL     1     -10.993   9.783  -9.855  1.00  0.00     0.049 A 
ATOM     63  H   UNL     1     -10.386   7.792  -9.916  1.00  0.00     0.167 HD
ATOM     64  C   UNL     1     -11.823   8.594  -7.854  1.00  0.00     0.074 A 
ATOM     65  C   UNL     1     -11.636   7.200  -8.236  1.00  0.00     0.031 C 
ATOM     66  C   UNL     1     -11.636   9.742  -8.563  1.00  0.00     0.037 A 
BRANCH  53  67
ATOM     67  C   UNL     1      -8.838   6.642 -12.116  1.00  0.00     0.064 A 
ATOM     68  C   UNL     1      -9.941   6.527 -12.991  1.00  0.00     0.173 A 
ATOM     69  C   UNL     1      -8.394   5.432 -11.541  1.00  0.00     0.173 A 
ATOM     70  F   UNL     1     -10.469   7.615 -13.569  1.00  0.00    -0.203 F 
ATOM     71  C   UNL     1     -10.585   5.306 -13.214  1.00  0.00     0.198 A 
ATOM     72  C   UNL     1      -9.008   4.209 -11.806  1.00  0.00     0.198 A 
ATOM     73  F   UNL     1      -7.436   5.392 -10.610  1.00  0.00    -0.203 F 
ATOM     74  F   UNL     1     -11.702   5.266 -13.953  1.00  0.00    -0.200 F 
ATOM     75  C   UNL     1     -10.119   4.148 -12.618  1.00  0.00     0.200 A 
ATOM     76  F   UNL     1      -8.561   3.103 -11.193  1.00  0.00    -0.200 F 
ATOM     77  F   UNL     1     -10.766   2.987 -12.783  1.00  0.00    -0.200 F 
ENDBRANCH  53  67
BRANCH  54  78
ATOM     78  C   UNL     1     -10.578   6.329  -3.944  1.00  0.00     0.064 A 
ATOM     79  C   UNL     1     -11.881   5.828  -3.763  1.00  0.00     0.173 A 
ATOM     80  C   UNL     1      -9.539   5.600  -3.340  1.00  0.00     0.173 A 
ATOM     81  F   UNL     1     -12.930   6.455  -4.315  1.00  0.00    -0.203 F 
ATOM     82  C   UNL     1     -12.121   4.624  -3.095  1.00  0.00     0.198 A 
ATOM     83  C   UNL     1      -9.781   4.400  -2.665  1.00  0.00     0.198 A 
ATOM     84  F   UNL     1      -8.261   5.978  -3.482  1.00  0.00    -0.203 F 
ATOM     85  F   UNL     1     -13.366   4.131  -3.033  1.00  0.00    -0.200 F 
ATOM     86  C   UNL     1     -11.068   3.899  -2.568  1.00  0.00     0.200 A 
ATOM     87  F   UNL     1      -8.752   3.691  -2.180  1.00  0.00    -0.200 F 
ATOM     88  F   UNL     1     -11.285   2.701  -2.008  1.00  0.00    -0.200 F 
ENDBRANCH  54  78
BRANCH  66  89
ATOM     89  C   UNL     1     -11.983  11.035  -7.903  1.00  0.00     0.064 A 
ATOM     90  C   UNL     1     -11.289  11.597  -6.821  1.00  0.00     0.173 A 
ATOM     91  C   UNL     1     -13.028  11.779  -8.467  1.00  0.00     0.173 A 
ATOM     92  F   UNL     1     -10.242  10.968  -6.269  1.00  0.00    -0.203 F 
ATOM     93  C   UNL     1     -11.643  12.850  -6.320  1.00  0.00     0.198 A 
ATOM     94  C   UNL     1     -13.355  13.041  -7.989  1.00  0.00     0.198 A 
ATOM     95  F   UNL     1     -13.706  11.293  -9.520  1.00  0.00    -0.203 F 
ATOM     96  F   UNL     1     -10.975  13.372  -5.281  1.00  0.00    -0.200 F 
ATOM     97  C   UNL     1     -12.667  13.574  -6.912  1.00  0.00     0.200 A 
ATOM     98  F   UNL     1     -14.321  13.749  -8.589  1.00  0.00    -0.200 F 
ATOM     99  F   UNL     1     -12.978  14.796  -6.458  1.00  0.00    -0.200 F 
ENDBRANCH  66  89
ENDBRANCH  40  41
ENDBRANCH  32  35
ENDBRANCH  30  31
ENDBRANCH  29  30
ENDBRANCH   1  29
TORSDOF 15
