REMARK SMILES Cc1[nH]c2ccccc2c1[C@@H](C(=O)NCCCCCCNC(=O)c1ccc(-c2c3nc(c(-c4c(F)c(F)c(F)c(F)c4F)c4ccc([nH]4)c(-c4c(F)c(F)c(F)c(F)c4F)c4nc(c(-c5c(F)c(F)c(F)c(F)c5F)c5ccc2[nH]5)C=C4)C=C3)cc1)[NH+]1CCCC1
REMARK SMILES IDX 18 1 17 2 16 3 15 4 14 5 12 6 13 7 11 9 10 10 1 11 2 12 3 13
REMARK SMILES IDX 4 14 9 16 5 17 8 18 6 19 7 20 87 21 88 22 91 23 89 25 90 26
REMARK SMILES IDX 19 27 20 28 21 29 22 30 23 32 24 33 25 34 86 35 26 36 85 37
REMARK SMILES IDX 27 38 28 39 29 40 79 41 30 42 84 43 78 44 80 45 31 46 83 47
REMARK SMILES IDX 77 48 76 49 32 51 64 52 44 53 63 54 45 55 48 56 62 57 81 58
REMARK SMILES IDX 46 59 47 60 61 62 82 63 49 64 33 65 34 66 42 67 35 68 36 69
REMARK SMILES IDX 40 70 43 71 37 72 38 73 41 74 39 75 65 76 66 77 74 78 67 79
REMARK SMILES IDX 68 80 72 81 75 82 69 83 70 84 73 85 71 86 50 87 51 88 59 89
REMARK SMILES IDX 52 90 53 91 57 92 60 93 54 94 55 95 58 96 56 97
REMARK H PARENT 14 8 3 15 87 24 21 31 80 50 48 61
REMARK Flexibility Score: inf
ROOT
ATOM      1  C   UNL     1      -2.291  -1.930  -5.863  1.00  0.00     0.002 C 
ENDROOT
BRANCH   1   2
ATOM      2  C   UNL     1      -1.160  -1.523  -4.912  1.00  0.00     0.002 C 
BRANCH   2   3
ATOM      3  C   UNL     1      -1.617  -1.035  -3.533  1.00  0.00     0.021 C 
BRANCH   3   4
ATOM      4  C   UNL     1      -2.424  -2.070  -2.748  1.00  0.00     0.116 C 
BRANCH   4   5
ATOM      5  N   UNL     1      -1.581  -3.160  -2.301  1.00  0.00    -0.351 N 
ATOM      6  C   UNL     1      -1.044  -3.381  -1.056  1.00  0.00     0.283 C 
ATOM      7  O   UNL     1      -0.245  -4.319  -0.970  1.00  0.00    -0.268 OA
ATOM      8  H   UNL     1      -1.364  -3.835  -2.984  1.00  0.00     0.163 HD
BRANCH   6   9
ATOM      9  C   UNL     1      -1.514  -2.503   0.145  1.00  0.00     0.307 C 
BRANCH   9  10
ATOM     10  C   UNL     1      -1.051  -1.059   0.060  1.00  0.00     0.047 A 
ATOM     11  C   UNL     1      -3.341   0.224   0.331  1.00  0.00     0.065 C 
ATOM     12  C   UNL     1      -1.869   0.068   0.174  1.00  0.00     0.022 A 
ATOM     13  N   UNL     1      -1.066   1.178   0.135  1.00  0.00    -0.358 N 
ATOM     14  C   UNL     1       0.245   0.823  -0.047  1.00  0.00     0.046 A 
ATOM     15  H   UNL     1      -1.387   2.104   0.225  1.00  0.00     0.166 HD
ATOM     16  C   UNL     1       0.284  -0.565  -0.170  1.00  0.00     0.009 A 
ATOM     17  C   UNL     1       1.387   1.631  -0.111  1.00  0.00     0.027 A 
ATOM     18  C   UNL     1       1.534  -1.163  -0.443  1.00  0.00     0.011 A 
ATOM     19  C   UNL     1       2.615   1.004  -0.325  1.00  0.00     0.002 A 
ATOM     20  C   UNL     1       2.688  -0.373  -0.504  1.00  0.00     0.001 A 
ENDBRANCH   9  10
BRANCH   9  21
ATOM     21  N   UNL     1      -1.270  -3.151   1.462  1.00  0.00    -0.321 N 
ATOM     22  C   UNL     1      -1.878  -2.481   2.611  1.00  0.00     0.263 C 
ATOM     23  C   UNL     1       0.117  -3.414   1.842  1.00  0.00     0.263 C 
ATOM     24  H   UNL     1      -1.729  -4.039   1.261  1.00  0.00     0.349 HD
ATOM     25  C   UNL     1      -0.775  -1.656   3.252  1.00  0.00     0.067 C 
ATOM     26  C   UNL     1       0.511  -2.372   2.880  1.00  0.00     0.067 C 
ENDBRANCH   9  21
ENDBRANCH   6   9
ENDBRANCH   4   5
ENDBRANCH   3   4
ENDBRANCH   2   3
ENDBRANCH   1   2
BRANCH   1  27
ATOM     27  C   UNL     1      -3.357  -0.857  -6.098  1.00  0.00     0.021 C 
BRANCH  27  28
ATOM     28  C   UNL     1      -2.828   0.443  -6.695  1.00  0.00     0.116 C 
BRANCH  28  29
ATOM     29  N   UNL     1      -2.277   0.248  -8.027  1.00  0.00    -0.352 N 
ATOM     30  C   UNL     1      -2.582   0.891  -9.200  1.00  0.00     0.251 C 
ATOM     31  H   UNL     1      -1.584  -0.447  -8.097  1.00  0.00     0.163 HD
ATOM     32  O   UNL     1      -2.161   0.461 -10.269  1.00  0.00    -0.269 OA
BRANCH  30  33
ATOM     33  C   UNL     1      -3.436   2.098  -9.181  1.00  0.00     0.039 A 
ATOM     34  C   UNL     1      -4.452   2.221 -10.132  1.00  0.00     0.014 A 
ATOM     35  C   UNL     1      -3.224   3.113  -8.243  1.00  0.00     0.014 A 
ATOM     36  C   UNL     1      -5.292   3.335 -10.108  1.00  0.00     0.010 A 
ATOM     37  C   UNL     1      -4.103   4.190  -8.178  1.00  0.00     0.010 A 
ATOM     38  C   UNL     1      -5.144   4.314  -9.111  1.00  0.00    -0.014 A 
BRANCH  38  39
ATOM     39  C   UNL     1      -6.068   5.473  -9.029  1.00  0.00     0.031 A 
ATOM     40  C   UNL     1      -5.554   6.867  -9.248  1.00  0.00     0.074 A 
ATOM     41  C   UNL     1      -7.356   5.272  -8.688  1.00  0.00     0.049 A 
ATOM     42  N   UNL     1      -6.186   8.009  -9.144  1.00  0.00    -0.248 NA
ATOM     43  C   UNL     1      -4.133   6.999  -9.606  1.00  0.00     0.031 C 
ATOM     44  C   UNL     1      -7.962   3.971  -8.404  1.00  0.00     0.029 A 
ATOM     45  N   UNL     1      -8.384   6.164  -8.510  1.00  0.00    -0.354 N 
ATOM     46  C   UNL     1      -5.239   8.991  -9.406  1.00  0.00     0.074 A 
ATOM     47  C   UNL     1      -3.979   8.315  -9.626  1.00  0.00     0.031 C 
ATOM     48  C   UNL     1      -9.259   4.147  -8.103  1.00  0.00     0.029 A 
ATOM     49  C   UNL     1      -9.567   5.573  -8.139  1.00  0.00     0.049 A 
ATOM     50  H   UNL     1      -8.283   7.135  -8.637  1.00  0.00     0.167 HD
ATOM     51  C   UNL     1      -5.411  10.332  -9.477  1.00  0.00     0.037 A 
ATOM     52  C   UNL     1     -10.762   6.122  -7.850  1.00  0.00     0.037 A 
ATOM     53  C   UNL     1      -6.673  10.998  -9.287  1.00  0.00     0.049 A 
ATOM     54  C   UNL     1     -10.927   7.614  -7.942  1.00  0.00     0.074 A 
ATOM     55  C   UNL     1      -6.963  12.346  -9.405  1.00  0.00     0.029 A 
ATOM     56  N   UNL     1      -7.856  10.363  -8.938  1.00  0.00    -0.354 N 
ATOM     57  N   UNL     1     -10.041   8.527  -8.259  1.00  0.00    -0.248 NA
ATOM     58  C   UNL     1     -12.262   8.153  -7.643  1.00  0.00     0.031 C 
ATOM     59  C   UNL     1      -8.312  12.533  -9.082  1.00  0.00     0.029 A 
ATOM     60  C   UNL     1      -8.874  11.296  -8.813  1.00  0.00     0.049 A 
ATOM     61  H   UNL     1      -7.957   9.394  -8.798  1.00  0.00     0.167 HD
ATOM     62  C   UNL     1     -10.714   9.740  -8.226  1.00  0.00     0.074 A 
ATOM     63  C   UNL     1     -12.087   9.447  -7.872  1.00  0.00     0.031 C 
ATOM     64  C   UNL     1     -10.237  10.986  -8.468  1.00  0.00     0.037 A 
BRANCH  51  65
ATOM     65  C   UNL     1      -4.204  11.174  -9.776  1.00  0.00     0.064 A 
ATOM     66  C   UNL     1      -3.597  11.168 -11.041  1.00  0.00     0.173 A 
ATOM     67  C   UNL     1      -3.672  12.027  -8.797  1.00  0.00     0.173 A 
ATOM     68  F   UNL     1      -4.061  10.362 -12.008  1.00  0.00    -0.203 F 
ATOM     69  C   UNL     1      -2.487  11.965 -11.307  1.00  0.00     0.198 A 
ATOM     70  C   UNL     1      -2.580  12.845  -9.077  1.00  0.00     0.198 A 
ATOM     71  F   UNL     1      -4.217  12.076  -7.573  1.00  0.00    -0.203 F 
ATOM     72  F   UNL     1      -1.896  11.907 -12.509  1.00  0.00    -0.200 F 
ATOM     73  C   UNL     1      -1.984  12.808 -10.328  1.00  0.00     0.200 A 
ATOM     74  F   UNL     1      -2.103  13.669  -8.133  1.00  0.00    -0.200 F 
ATOM     75  F   UNL     1      -0.920  13.580 -10.588  1.00  0.00    -0.200 F 
ENDBRANCH  51  65
BRANCH  52  76
ATOM     76  C   UNL     1     -11.905   5.251  -7.469  1.00  0.00     0.064 A 
ATOM     77  C   UNL     1     -12.998   5.081  -8.329  1.00  0.00     0.173 A 
ATOM     78  C   UNL     1     -11.929   4.575  -6.241  1.00  0.00     0.173 A 
ATOM     79  F   UNL     1     -13.029   5.723  -9.507  1.00  0.00    -0.203 F 
ATOM     80  C   UNL     1     -14.083   4.285  -7.967  1.00  0.00     0.198 A 
ATOM     81  C   UNL     1     -13.001   3.757  -5.891  1.00  0.00     0.198 A 
ATOM     82  F   UNL     1     -10.905   4.700  -5.384  1.00  0.00    -0.203 F 
ATOM     83  F   UNL     1     -15.136   4.177  -8.789  1.00  0.00    -0.200 F 
ATOM     84  C   UNL     1     -14.081   3.619  -6.751  1.00  0.00     0.200 A 
ATOM     85  F   UNL     1     -12.989   3.103  -4.721  1.00  0.00    -0.200 F 
ATOM     86  F   UNL     1     -15.122   2.851  -6.404  1.00  0.00    -0.200 F 
ENDBRANCH  52  76
BRANCH  64  87
ATOM     87  C   UNL     1     -11.214  12.123  -8.393  1.00  0.00     0.064 A 
ATOM     88  C   UNL     1     -11.725  12.575  -7.168  1.00  0.00     0.173 A 
ATOM     89  C   UNL     1     -11.611  12.795  -9.559  1.00  0.00     0.173 A 
ATOM     90  F   UNL     1     -11.388  11.957  -6.026  1.00  0.00    -0.203 F 
ATOM     91  C   UNL     1     -12.616  13.644  -7.115  1.00  0.00     0.198 A 
ATOM     92  C   UNL     1     -12.479  13.881  -9.500  1.00  0.00     0.198 A 
ATOM     93  F   UNL     1     -11.146  12.405 -10.756  1.00  0.00    -0.203 F 
ATOM     94  F   UNL     1     -13.127  14.030  -5.938  1.00  0.00    -0.200 F 
ATOM     95  C   UNL     1     -12.986  14.300  -8.280  1.00  0.00     0.200 A 
ATOM     96  F   UNL     1     -12.825  14.522 -10.625  1.00  0.00    -0.200 F 
ATOM     97  F   UNL     1     -13.838  15.333  -8.226  1.00  0.00    -0.200 F 
ENDBRANCH  64  87
ENDBRANCH  38  39
ENDBRANCH  30  33
ENDBRANCH  28  29
ENDBRANCH  27  28
ENDBRANCH   1  27
TORSDOF 15
