REMARK SMILES CC(C)C[C@H](NC(=O)CNC(=O)[C@@H](NC(=O)OCc1ccccc1)C(C)C)C(=O)NCCCCCCNC(=O)c1ccc(-c2c3nc(c(-c4c(F)c(F)c(F)c(F)c4F)c4ccc([nH]4)c(-c4c(F)c(F)c(F)c(F)c4F)c4nc(c(-c5c(F)c(F)c(F)c(F)c5F)c5ccc2[nH]5)C=C4)C=C3)cc1
REMARK SMILES IDX 28 1 29 2 30 3 5 5 4 6 2 7 1 8 3 9 6 10 7 11 8 13 9 14 10 15
REMARK SMILES IDX 11 16 12 18 13 19 14 20 15 21 16 23 17 24 18 25 19 26 20 27
REMARK SMILES IDX 24 28 21 29 23 30 22 31 25 32 26 33 27 34 31 35 32 36 33 37
REMARK SMILES IDX 34 38 35 39 36 40 37 41 38 42 39 44 40 45 41 46 102 47 42 48
REMARK SMILES IDX 101 49 43 50 44 51 45 52 95 53 46 54 100 55 94 56 96 57
REMARK SMILES IDX 47 58 99 59 93 60 92 61 48 63 80 64 60 65 79 66 61 67 64 68
REMARK SMILES IDX 78 69 97 70 62 71 63 72 77 74 98 75 65 76 49 77 50 78 58 79
REMARK SMILES IDX 51 80 52 81 56 82 59 83 53 84 54 85 57 86 55 87 81 88 82 89
REMARK SMILES IDX 90 90 83 91 84 92 88 93 91 94 85 95 86 96 89 97 87 98 66 99
REMARK SMILES IDX 67 100 75 101 68 102 69 103 73 104 76 105 70 106 71 107
REMARK SMILES IDX 74 108 72 109
REMARK H PARENT 30 4 6 12 10 17 14 22 37 43 96 62 64 73
REMARK Flexibility Score: inf
ROOT
ATOM      1  C   UNL     1      -3.401   0.609  -0.922  1.00  0.00     0.242 C 
ATOM      2  O   UNL     1      -3.749  -0.578  -0.936  1.00  0.00    -0.273 OA
ATOM      3  N   UNL     1      -4.359   1.509  -0.613  1.00  0.00    -0.354 N 
ATOM      4  H   UNL     1      -5.226   1.129  -0.340  1.00  0.00     0.163 HD
ENDROOT
BRANCH   1   5
ATOM      5  C   UNL     1      -1.899   0.980  -0.993  1.00  0.00     0.171 C 
BRANCH   5   6
ATOM      6  C   UNL     1      -1.309   0.482   0.323  1.00  0.00     0.038 C 
BRANCH   6   7
ATOM      7  C   UNL     1      -1.222   1.657   1.256  1.00  0.00    -0.015 C 
ATOM      8  C   UNL     1      -1.972   1.464   2.564  1.00  0.00     0.007 C 
ATOM      9  C   UNL     1       0.254   2.004   1.237  1.00  0.00     0.007 C 
ENDBRANCH   6   7
ENDBRANCH   5   6
BRANCH   5  10
ATOM     10  N   UNL     1      -1.363   2.290  -1.553  1.00  0.00    -0.343 N 
ATOM     11  C   UNL     1      -0.949   3.567  -1.325  1.00  0.00     0.240 C 
ATOM     12  H   UNL     1      -1.276   2.150  -2.523  1.00  0.00     0.164 HD
ATOM     13  O   UNL     1      -0.580   4.092  -2.399  1.00  0.00    -0.273 OA
BRANCH  11  14
ATOM     14  C   UNL     1      -0.672   4.487  -0.004  1.00  0.00     0.216 C 
BRANCH  14  15
ATOM     15  N   UNL     1      -1.423   4.676   1.274  1.00  0.00    -0.345 N 
ATOM     16  C   UNL     1      -1.217   4.921   2.601  1.00  0.00     0.243 C 
ATOM     17  H   UNL     1      -2.389   4.595   1.101  1.00  0.00     0.164 HD
ATOM     18  O   UNL     1      -2.170   5.588   3.062  1.00  0.00    -0.273 OA
BRANCH  16  19
ATOM     19  C   UNL     1      -0.083   4.494   3.694  1.00  0.00     0.177 C 
BRANCH  19  20
ATOM     20  N   UNL     1       0.145   3.076   4.050  1.00  0.00    -0.309 N 
ATOM     21  C   UNL     1       1.199   2.212   3.911  1.00  0.00     0.408 C 
ATOM     22  H   UNL     1      -0.635   2.660   4.482  1.00  0.00     0.167 HD
ATOM     23  O   UNL     1       1.038   1.026   4.160  1.00  0.00    -0.225 OA
BRANCH  21  24
ATOM     24  O   UNL     1       2.333   2.759   3.408  1.00  0.00    -0.445 OA
BRANCH  24  25
ATOM     25  C   UNL     1       3.287   1.886   2.764  1.00  0.00     0.270 C 
BRANCH  25  26
ATOM     26  C   UNL     1       4.199   0.991   3.574  1.00  0.00    -0.011 A 
ATOM     27  C   UNL     1       3.933   0.588   4.885  1.00  0.00     0.007 A 
ATOM     28  C   UNL     1       5.307   0.421   2.916  1.00  0.00     0.007 A 
ATOM     29  C   UNL     1       4.731  -0.373   5.513  1.00  0.00     0.000 A 
ATOM     30  C   UNL     1       6.115  -0.526   3.548  1.00  0.00     0.000 A 
ATOM     31  C   UNL     1       5.820  -0.930   4.846  1.00  0.00     0.000 A 
ENDBRANCH  25  26
ENDBRANCH  24  25
ENDBRANCH  21  24
ENDBRANCH  19  20
BRANCH  19  32
ATOM     32  C   UNL     1       1.135   5.417   3.953  1.00  0.00     0.015 C 
ATOM     33  C   UNL     1       0.717   6.889   4.009  1.00  0.00     0.010 C 
ATOM     34  C   UNL     1       1.798   5.104   5.323  1.00  0.00     0.010 C 
ENDBRANCH  19  32
ENDBRANCH  16  19
ENDBRANCH  14  15
ENDBRANCH  11  14
ENDBRANCH   5  10
ENDBRANCH   1   5
BRANCH   3  35
ATOM     35  C   UNL     1      -4.289   2.938  -0.628  1.00  0.00     0.116 C 
BRANCH  35  36
ATOM     36  C   UNL     1      -4.729   3.468  -1.985  1.00  0.00     0.021 C 
BRANCH  36  37
ATOM     37  C   UNL     1      -6.120   4.093  -1.918  1.00  0.00     0.002 C 
BRANCH  37  38
ATOM     38  C   UNL     1      -6.224   5.287  -0.960  1.00  0.00     0.002 C 
BRANCH  38  39
ATOM     39  C   UNL     1      -5.199   6.399  -1.200  1.00  0.00     0.021 C 
BRANCH  39  40
ATOM     40  C   UNL     1      -5.160   6.928  -2.629  1.00  0.00     0.116 C 
BRANCH  40  41
ATOM     41  N   UNL     1      -6.480   7.288  -3.118  1.00  0.00    -0.352 N 
ATOM     42  C   UNL     1      -6.901   8.424  -3.750  1.00  0.00     0.251 C 
ATOM     43  H   UNL     1      -7.178   6.609  -2.970  1.00  0.00     0.163 HD
ATOM     44  O   UNL     1      -8.096   8.613  -3.951  1.00  0.00    -0.269 OA
BRANCH  42  45
ATOM     45  C   UNL     1      -5.914   9.432  -4.176  1.00  0.00     0.039 A 
ATOM     46  C   UNL     1      -6.185  10.778  -3.923  1.00  0.00     0.014 A 
ATOM     47  C   UNL     1      -4.744   9.055  -4.842  1.00  0.00     0.014 A 
ATOM     48  C   UNL     1      -5.261  11.750  -4.304  1.00  0.00     0.010 A 
ATOM     49  C   UNL     1      -3.795  10.018  -5.165  1.00  0.00     0.010 A 
ATOM     50  C   UNL     1      -4.052  11.373  -4.909  1.00  0.00    -0.014 A 
BRANCH  50  51
ATOM     51  C   UNL     1      -3.053  12.388  -5.316  1.00  0.00     0.031 A 
ATOM     52  C   UNL     1      -2.761  12.599  -6.774  1.00  0.00     0.074 A 
ATOM     53  C   UNL     1      -2.370  13.066  -4.375  1.00  0.00     0.049 A 
ATOM     54  N   UNL     1      -1.857  13.360  -7.336  1.00  0.00    -0.248 NA
ATOM     55  C   UNL     1      -3.576  11.829  -7.729  1.00  0.00     0.031 C 
ATOM     56  C   UNL     1      -2.544  12.915  -2.930  1.00  0.00     0.029 A 
ATOM     57  N   UNL     1      -1.380  14.007  -4.496  1.00  0.00    -0.354 N 
ATOM     58  C   UNL     1      -1.979  13.142  -8.702  1.00  0.00     0.074 A 
ATOM     59  C   UNL     1      -3.015  12.150  -8.885  1.00  0.00     0.031 C 
ATOM     60  C   UNL     1      -1.697  13.743  -2.297  1.00  0.00     0.029 A 
ATOM     61  C   UNL     1      -0.899  14.456  -3.290  1.00  0.00     0.049 A 
ATOM     62  H   UNL     1      -1.046  14.330  -5.363  1.00  0.00     0.167 HD
ATOM     63  C   UNL     1      -1.297  13.732  -9.711  1.00  0.00     0.037 A 
ATOM     64  C   UNL     1       0.083  15.337  -3.022  1.00  0.00     0.037 A 
ATOM     65  C   UNL     1      -0.298  14.749  -9.523  1.00  0.00     0.049 A 
ATOM     66  C   UNL     1       0.808  15.993  -4.165  1.00  0.00     0.074 A 
ATOM     67  C   UNL     1       0.407  15.455 -10.482  1.00  0.00     0.029 A 
ATOM     68  N   UNL     1       0.132  15.210  -8.287  1.00  0.00    -0.354 N 
ATOM     69  N   UNL     1       0.647  15.822  -5.455  1.00  0.00    -0.248 NA
ATOM     70  C   UNL     1       1.848  16.972  -3.816  1.00  0.00     0.031 C 
ATOM     71  C   UNL     1       1.288  16.321  -9.826  1.00  0.00     0.029 A 
ATOM     72  C   UNL     1       1.101  16.184  -8.460  1.00  0.00     0.049 A 
ATOM     73  H   UNL     1      -0.203  14.893  -7.418  1.00  0.00     0.167 HD
ATOM     74  C   UNL     1       1.537  16.691  -6.069  1.00  0.00     0.074 A 
ATOM     75  C   UNL     1       2.231  17.396  -5.012  1.00  0.00     0.031 C 
ATOM     76  C   UNL     1       1.760  16.889  -7.391  1.00  0.00     0.037 A 
BRANCH  63  77
ATOM     77  C   UNL     1      -1.614  13.301 -11.112  1.00  0.00     0.064 A 
ATOM     78  C   UNL     1      -2.819  13.656 -11.736  1.00  0.00     0.173 A 
ATOM     79  C   UNL     1      -0.681  12.563 -11.857  1.00  0.00     0.173 A 
ATOM     80  F   UNL     1      -3.749  14.349 -11.061  1.00  0.00    -0.203 F 
ATOM     81  C   UNL     1      -3.088  13.271 -13.046  1.00  0.00     0.198 A 
ATOM     82  C   UNL     1      -0.942  12.203 -13.176  1.00  0.00     0.198 A 
ATOM     83  F   UNL     1       0.488  12.201 -11.308  1.00  0.00    -0.203 F 
ATOM     84  F   UNL     1      -4.262  13.588 -13.608  1.00  0.00    -0.200 F 
ATOM     85  C   UNL     1      -2.146  12.553 -13.768  1.00  0.00     0.200 A 
ATOM     86  F   UNL     1      -0.026  11.518 -13.876  1.00  0.00    -0.200 F 
ATOM     87  F   UNL     1      -2.402  12.192 -15.033  1.00  0.00    -0.200 F 
ENDBRANCH  63  77
BRANCH  64  88
ATOM     88  C   UNL     1       0.422  15.667  -1.615  1.00  0.00     0.064 A 
ATOM     89  C   UNL     1       0.122  16.928  -1.081  1.00  0.00     0.173 A 
ATOM     90  C   UNL     1       1.063  14.740  -0.781  1.00  0.00     0.173 A 
ATOM     91  F   UNL     1      -0.472  17.855  -1.846  1.00  0.00    -0.203 F 
ATOM     92  C   UNL     1       0.473  17.258   0.227  1.00  0.00     0.198 A 
ATOM     93  C   UNL     1       1.389  15.062   0.535  1.00  0.00     0.198 A 
ATOM     94  F   UNL     1       1.366  13.518  -1.242  1.00  0.00    -0.203 F 
ATOM     95  F   UNL     1       0.219  18.487   0.696  1.00  0.00    -0.200 F 
ATOM     96  C   UNL     1       1.103  16.323   1.035  1.00  0.00     0.200 A 
ATOM     97  F   UNL     1       1.987  14.152   1.317  1.00  0.00    -0.200 F 
ATOM     98  F   UNL     1       1.442  16.641   2.292  1.00  0.00    -0.200 F 
ENDBRANCH  64  88
BRANCH  76  99
ATOM     99  C   UNL     1       2.760  17.940  -7.770  1.00  0.00     0.064 A 
ATOM    100  C   UNL     1       4.138  17.730  -7.622  1.00  0.00     0.173 A 
ATOM    101  C   UNL     1       2.332  19.150  -8.335  1.00  0.00     0.173 A 
ATOM    102  F   UNL     1       4.593  16.595  -7.072  1.00  0.00    -0.203 F 
ATOM    103  C   UNL     1       5.053  18.705  -8.011  1.00  0.00     0.198 A 
ATOM    104  C   UNL     1       3.250  20.111  -8.747  1.00  0.00     0.198 A 
ATOM    105  F   UNL     1       1.023  19.393  -8.502  1.00  0.00    -0.203 F 
ATOM    106  F   UNL     1       6.364  18.501  -7.826  1.00  0.00    -0.200 F 
ATOM    107  C   UNL     1       4.609  19.890  -8.579  1.00  0.00     0.200 A 
ATOM    108  F   UNL     1       2.821  21.250  -9.307  1.00  0.00    -0.200 F 
ATOM    109  F   UNL     1       5.492  20.822  -8.962  1.00  0.00    -0.200 F 
ENDBRANCH  76  99
ENDBRANCH  50  51
ENDBRANCH  42  45
ENDBRANCH  40  41
ENDBRANCH  39  40
ENDBRANCH  38  39
ENDBRANCH  37  38
ENDBRANCH  36  37
ENDBRANCH  35  36
ENDBRANCH   3  35
TORSDOF 24
