REMARK SMILES Cc1ccc2oc(CCCC(=O)NCCCCCCNC(=O)c3ccc(-c4c5nc(c(-c6c(F)c(F)c(F)c(F)c6F)c6ccc([nH]6)c(-c6c(F)c(F)c(F)c(F)c6F)c6nc(c(-c7c(F)c(F)c(F)c(F)c7F)c7ccc4[nH]7)C=C6)C=C5)cc3)cc(=O)c2c1
REMARK SMILES IDX 16 1 15 2 14 3 13 4 11 5 12 6 10 8 9 9 8 10 7 11 1 12 2 13
REMARK SMILES IDX 3 14 90 15 4 16 89 17 5 18 87 19 6 20 86 21 88 22 17 23
REMARK SMILES IDX 18 24 19 25 20 26 21 27 22 29 23 30 24 31 85 32 25 33 84 34
REMARK SMILES IDX 26 35 27 36 28 37 78 38 29 39 83 40 77 41 79 42 30 43 82 44
REMARK SMILES IDX 76 45 75 46 31 48 63 49 43 50 62 51 44 52 47 53 61 54 80 55
REMARK SMILES IDX 45 56 46 57 60 59 81 60 48 61 32 62 33 63 41 64 34 65 35 66
REMARK SMILES IDX 39 67 42 68 36 69 37 70 40 71 38 72 64 73 65 74 73 75 66 76
REMARK SMILES IDX 67 77 71 78 74 79 68 80 69 81 72 82 70 83 49 84 50 85 58 86
REMARK SMILES IDX 51 87 52 88 56 89 59 90 53 91 54 92 57 93 55 94
REMARK H PARENT 13 7 20 28 79 47 47 58
REMARK Flexibility Score: inf
ROOT
ATOM      1  C   UNL     1       3.759  -2.986  -4.014  1.00  0.00     0.002 C 
ENDROOT
BRANCH   1   2
ATOM      2  C   UNL     1       3.695  -2.551  -2.550  1.00  0.00     0.021 C 
BRANCH   2   3
ATOM      3  C   UNL     1       2.549  -3.211  -1.782  1.00  0.00     0.116 C 
BRANCH   3   4
ATOM      4  N   UNL     1       2.987  -4.459  -1.200  1.00  0.00    -0.356 N 
ATOM      5  C   UNL     1       3.191  -4.785   0.104  1.00  0.00     0.220 C 
ATOM      6  O   UNL     1       3.687  -5.885   0.356  1.00  0.00    -0.275 OA
ATOM      7  H   UNL     1       3.165  -5.181  -1.845  1.00  0.00     0.163 HD
BRANCH   5   8
ATOM      8  C   UNL     1       2.752  -3.854   1.217  1.00  0.00     0.100 C 
BRANCH   8   9
ATOM      9  C   UNL     1       3.746  -2.769   1.654  1.00  0.00     0.018 C 
BRANCH   9  10
ATOM     10  C   UNL     1       3.804  -1.423   0.902  1.00  0.00     0.076 C 
BRANCH  10  11
ATOM     11  C   UNL     1       2.543  -0.595   0.762  1.00  0.00     0.108 A 
ATOM     12  C   UNL     1      -3.675   1.040  -0.184  1.00  0.00     0.044 C 
ATOM     13  C   UNL     1      -2.322   0.421   0.012  1.00  0.00    -0.050 A 
ATOM     14  C   UNL     1      -2.196  -0.958   0.226  1.00  0.00     0.007 A 
ATOM     15  C   UNL     1      -1.172   1.228   0.022  1.00  0.00     0.019 A 
ATOM     16  C   UNL     1      -0.947  -1.518   0.492  1.00  0.00     0.048 A 
ATOM     17  C   UNL     1       0.078   0.657   0.279  1.00  0.00     0.065 A 
ATOM     18  C   UNL     1       0.182  -0.703   0.539  1.00  0.00     0.138 A 
ATOM     19  C   UNL     1       1.315   1.455   0.266  1.00  0.00     0.192 A 
ATOM     20  O   UNL     1       1.364  -1.307   0.863  1.00  0.00    -0.461 OA
ATOM     21  C   UNL     1       2.577   0.722   0.500  1.00  0.00     0.095 A 
ATOM     22  O   UNL     1       1.319   2.656   0.026  1.00  0.00    -0.289 OA
ENDBRANCH  10  11
ENDBRANCH   9  10
ENDBRANCH   8   9
ENDBRANCH   5   8
ENDBRANCH   3   4
ENDBRANCH   2   3
ENDBRANCH   1   2
BRANCH   1  23
ATOM     23  C   UNL     1       2.576  -2.505  -4.863  1.00  0.00     0.002 C 
BRANCH  23  24
ATOM     24  C   UNL     1       2.373  -0.988  -4.891  1.00  0.00     0.021 C 
BRANCH  24  25
ATOM     25  C   UNL     1       3.587  -0.196  -5.366  1.00  0.00     0.116 C 
BRANCH  25  26
ATOM     26  N   UNL     1       3.997  -0.590  -6.706  1.00  0.00    -0.352 N 
ATOM     27  C   UNL     1       4.062   0.154  -7.854  1.00  0.00     0.251 C 
ATOM     28  H   UNL     1       4.269  -1.532  -6.801  1.00  0.00     0.163 HD
ATOM     29  O   UNL     1       4.189  -0.400  -8.944  1.00  0.00    -0.269 OA
BRANCH  27  30
ATOM     30  C   UNL     1       3.971   1.625  -7.783  1.00  0.00     0.039 A 
ATOM     31  C   UNL     1       3.181   2.301  -8.716  1.00  0.00     0.014 A 
ATOM     32  C   UNL     1       4.678   2.337  -6.810  1.00  0.00     0.014 A 
ATOM     33  C   UNL     1       3.057   3.688  -8.636  1.00  0.00     0.010 A 
ATOM     34  C   UNL     1       4.491   3.709  -6.683  1.00  0.00     0.010 A 
ATOM     35  C   UNL     1       3.683   4.400  -7.598  1.00  0.00    -0.014 A 
BRANCH  35  36
ATOM     36  C   UNL     1       3.495   5.865  -7.456  1.00  0.00     0.031 A 
ATOM     37  C   UNL     1       4.665   6.798  -7.597  1.00  0.00     0.074 A 
ATOM     38  C   UNL     1       2.277   6.348  -7.145  1.00  0.00     0.049 A 
ATOM     39  N   UNL     1       4.704   8.101  -7.472  1.00  0.00    -0.248 NA
ATOM     40  C   UNL     1       5.970   6.186  -7.893  1.00  0.00     0.031 C 
ATOM     41  C   UNL     1       1.078   5.536  -6.929  1.00  0.00     0.029 A 
ATOM     42  N   UNL     1       1.845   7.635  -6.949  1.00  0.00    -0.354 N 
ATOM     43  C   UNL     1       6.031   8.460  -7.664  1.00  0.00     0.074 A 
ATOM     44  C   UNL     1       6.777   7.236  -7.855  1.00  0.00     0.031 C 
ATOM     45  C   UNL     1       0.042   6.345  -6.659  1.00  0.00     0.029 A 
ATOM     46  C   UNL     1       0.510   7.727  -6.641  1.00  0.00     0.049 A 
ATOM     47  H   UNL     1       2.437   8.419  -7.022  1.00  0.00     0.167 HD
ATOM     48  C   UNL     1       6.573   9.701  -7.703  1.00  0.00     0.037 A 
ATOM     49  C   UNL     1      -0.250   8.805  -6.368  1.00  0.00     0.037 A 
ATOM     50  C   UNL     1       5.821  10.916  -7.527  1.00  0.00     0.049 A 
ATOM     51  C   UNL     1       0.381  10.171  -6.402  1.00  0.00     0.074 A 
ATOM     52  C   UNL     1       6.264  12.224  -7.609  1.00  0.00     0.029 A 
ATOM     53  N   UNL     1       4.467  10.970  -7.226  1.00  0.00    -0.354 N 
ATOM     54  N   UNL     1       1.621  10.505  -6.668  1.00  0.00    -0.248 NA
ATOM     55  C   UNL     1      -0.496  11.312  -6.106  1.00  0.00     0.031 C 
ATOM     56  C   UNL     1       5.193  13.069  -7.299  1.00  0.00     0.029 A 
ATOM     57  C   UNL     1       4.066  12.290  -7.088  1.00  0.00     0.049 A 
ATOM     58  H   UNL     1       3.879  10.188  -7.124  1.00  0.00     0.167 HD
ATOM     59  C   UNL     1       1.666  11.890  -6.601  1.00  0.00     0.074 A 
ATOM     60  C   UNL     1       0.325  12.337  -6.286  1.00  0.00     0.031 C 
ATOM     61  C   UNL     1       2.724  12.719  -6.784  1.00  0.00     0.037 A 
BRANCH  48  62
ATOM     62  C   UNL     1       8.052   9.809  -7.946  1.00  0.00     0.064 A 
ATOM     63  C   UNL     1       8.622   9.473  -9.184  1.00  0.00     0.173 A 
ATOM     64  C   UNL     1       8.905  10.293  -6.943  1.00  0.00     0.173 A 
ATOM     65  F   UNL     1       7.854   8.996 -10.175  1.00  0.00    -0.203 F 
ATOM     66  C   UNL     1       9.994   9.588  -9.397  1.00  0.00     0.198 A 
ATOM     67  C   UNL     1      10.271  10.439  -7.171  1.00  0.00     0.198 A 
ATOM     68  F   UNL     1       8.414  10.636  -5.742  1.00  0.00    -0.203 F 
ATOM     69  F   UNL     1      10.521   9.211 -10.570  1.00  0.00    -0.200 F 
ATOM     70  C   UNL     1      10.815  10.078  -8.394  1.00  0.00     0.200 A 
ATOM     71  F   UNL     1      11.062  10.928  -6.205  1.00  0.00    -0.200 F 
ATOM     72  F   UNL     1      12.134  10.197  -8.604  1.00  0.00    -0.200 F 
ENDBRANCH  48  62
BRANCH  49  73
ATOM     73  C   UNL     1      -1.695   8.638  -6.061  1.00  0.00     0.064 A 
ATOM     74  C   UNL     1      -2.678   9.104  -6.946  1.00  0.00     0.173 A 
ATOM     75  C   UNL     1      -2.124   8.015  -4.880  1.00  0.00     0.173 A 
ATOM     76  F   UNL     1      -2.319   9.723  -8.080  1.00  0.00    -0.203 F 
ATOM     77  C   UNL     1      -4.034   8.976  -6.649  1.00  0.00     0.198 A 
ATOM     78  C   UNL     1      -3.480   7.858  -4.600  1.00  0.00     0.198 A 
ATOM     79  F   UNL     1      -1.226   7.545  -4.003  1.00  0.00    -0.203 F 
ATOM     80  F   UNL     1      -4.951   9.476  -7.488  1.00  0.00    -0.200 F 
ATOM     81  C   UNL     1      -4.434   8.348  -5.479  1.00  0.00     0.200 A 
ATOM     82  F   UNL     1      -3.863   7.235  -3.477  1.00  0.00    -0.200 F 
ATOM     83  F   UNL     1      -5.737   8.221  -5.196  1.00  0.00    -0.200 F 
ENDBRANCH  49  73
BRANCH  61  84
ATOM     84  C   UNL     1       2.469  14.196  -6.688  1.00  0.00     0.064 A 
ATOM     85  C   UNL     1       2.184  14.819  -5.465  1.00  0.00     0.173 A 
ATOM     86  C   UNL     1       2.556  15.004  -7.832  1.00  0.00     0.173 A 
ATOM     87  F   UNL     1       2.075  14.090  -4.344  1.00  0.00    -0.203 F 
ATOM     88  C   UNL     1       1.970  16.194  -5.395  1.00  0.00     0.198 A 
ATOM     89  C   UNL     1       2.376  16.382  -7.753  1.00  0.00     0.198 A 
ATOM     90  F   UNL     1       2.833  14.460  -9.027  1.00  0.00    -0.203 F 
ATOM     91  F   UNL     1       1.650  16.761  -4.223  1.00  0.00    -0.200 F 
ATOM     92  C   UNL     1       2.075  16.974  -6.536  1.00  0.00     0.200 A 
ATOM     93  F   UNL     1       2.494  17.137  -8.854  1.00  0.00    -0.200 F 
ATOM     94  F   UNL     1       1.880  18.298  -6.464  1.00  0.00    -0.200 F 
ENDBRANCH  61  84
ENDBRANCH  35  36
ENDBRANCH  27  30
ENDBRANCH  25  26
ENDBRANCH  24  25
ENDBRANCH  23  24
ENDBRANCH   1  23
TORSDOF 16
