REMARK SMILES CN(CC(=O)NCC(=O)NCCCCCCNC(=O)c1ccc(-c2c3nc(c(-c4c(F)c(F)c(F)c(F)c4F)c4ccc([nH]4)c(-c4c(F)c(F)c(F)c(F)c4F)c4nc(c(-c5c(F)c(F)c(F)c(F)c5F)c5ccc2[nH]5)C=C4)C=C3)cc1)c1ncccn1
REMARK SMILES IDX 12 1 11 2 10 3 8 4 9 5 7 7 6 8 4 9 5 10 3 12 2 13 1 14 83 15
REMARK SMILES IDX 84 16 88 17 85 18 87 19 86 20 13 21 14 22 15 23 16 24 17 25
REMARK SMILES IDX 18 26 19 28 20 29 21 30 82 31 22 32 81 33 23 34 24 35 25 36
REMARK SMILES IDX 75 37 26 38 80 39 74 40 76 41 27 42 79 43 73 44 72 45 28 47
REMARK SMILES IDX 60 48 40 49 59 50 41 51 44 52 58 53 77 54 42 55 43 56 57 58
REMARK SMILES IDX 78 59 45 60 29 61 30 62 38 63 31 64 32 65 36 66 39 67 33 68
REMARK SMILES IDX 34 69 37 70 35 71 61 72 62 73 70 74 63 75 64 76 68 77 71 78
REMARK SMILES IDX 65 79 66 80 69 81 67 82 46 83 47 84 55 85 48 86 49 87 53 88
REMARK SMILES IDX 56 89 50 90 51 91 54 92 52 93
REMARK H PARENT 10 6 6 11 17 27 76 46 44 57
REMARK Flexibility Score: inf
ROOT
ATOM      1  C   UNL     1      -0.904   1.448   4.051  1.00  0.00     0.021 C 
ENDROOT
BRANCH   1   2
ATOM      2  C   UNL     1      -0.653   0.485   2.893  1.00  0.00     0.116 C 
BRANCH   2   3
ATOM      3  N   UNL     1      -1.629  -0.586   2.822  1.00  0.00    -0.355 N 
ATOM      4  C   UNL     1      -2.332  -1.040   1.742  1.00  0.00     0.239 C 
ATOM      5  O   UNL     1      -2.936  -2.111   1.862  1.00  0.00    -0.273 OA
ATOM      6  H   UNL     1      -1.810  -1.050   3.671  1.00  0.00     0.163 HD
BRANCH   4   7
ATOM      7  C   UNL     1      -2.253  -0.340   0.378  1.00  0.00     0.216 C 
BRANCH   7   8
ATOM      8  N   UNL     1      -2.547   1.081   0.397  1.00  0.00    -0.345 N 
ATOM      9  C   UNL     1      -1.961   2.090  -0.317  1.00  0.00     0.240 C 
ATOM     10  O   UNL     1      -2.507   3.197  -0.288  1.00  0.00    -0.273 OA
ATOM     11  H   UNL     1      -3.267   1.358   1.009  1.00  0.00     0.164 HD
BRANCH   9  12
ATOM     12  C   UNL     1      -0.718   1.816  -1.186  1.00  0.00     0.219 C 
BRANCH  12  13
ATOM     13  N   UNL     1       0.470   1.417  -0.429  1.00  0.00    -0.335 N 
ATOM     14  C   UNL     1       1.178   0.194  -0.733  1.00  0.00     0.147 C 
BRANCH  13  15
ATOM     15  C   UNL     1       1.039   2.295   0.467  1.00  0.00     0.225 A 
ATOM     16  N   UNL     1       0.404   3.442   0.745  1.00  0.00    -0.221 NA
ATOM     17  N   UNL     1       2.172   1.939   1.096  1.00  0.00    -0.221 NA
ATOM     18  C   UNL     1       0.926   4.252   1.683  1.00  0.00     0.117 A 
ATOM     19  C   UNL     1       2.680   2.790   2.008  1.00  0.00     0.117 A 
ATOM     20  C   UNL     1       2.083   3.972   2.358  1.00  0.00     0.040 A 
ENDBRANCH  13  15
ENDBRANCH  12  13
ENDBRANCH   9  12
ENDBRANCH   7   8
ENDBRANCH   4   7
ENDBRANCH   2   3
ENDBRANCH   1   2
BRANCH   1  21
ATOM     21  C   UNL     1      -0.612   0.890   5.449  1.00  0.00     0.002 C 
BRANCH  21  22
ATOM     22  C   UNL     1       0.855   0.571   5.772  1.00  0.00     0.002 C 
BRANCH  22  23
ATOM     23  C   UNL     1       1.876   1.693   5.566  1.00  0.00     0.021 C 
BRANCH  23  24
ATOM     24  C   UNL     1       1.562   3.044   6.207  1.00  0.00     0.116 C 
BRANCH  24  25
ATOM     25  N   UNL     1       1.945   3.109   7.607  1.00  0.00    -0.352 N 
ATOM     26  C   UNL     1       2.839   3.941   8.238  1.00  0.00     0.251 C 
ATOM     27  H   UNL     1       1.496   2.459   8.194  1.00  0.00     0.163 HD
ATOM     28  O   UNL     1       3.144   3.728   9.413  1.00  0.00    -0.269 OA
BRANCH  26  29
ATOM     29  C   UNL     1       3.461   5.090   7.533  1.00  0.00     0.039 A 
ATOM     30  C   UNL     1       4.820   5.355   7.741  1.00  0.00     0.014 A 
ATOM     31  C   UNL     1       2.707   5.956   6.736  1.00  0.00     0.014 A 
ATOM     32  C   UNL     1       5.429   6.457   7.126  1.00  0.00     0.010 A 
ATOM     33  C   UNL     1       3.326   7.021   6.076  1.00  0.00     0.010 A 
ATOM     34  C   UNL     1       4.690   7.295   6.277  1.00  0.00    -0.014 A 
BRANCH  34  35
ATOM     35  C   UNL     1       5.297   8.501   5.650  1.00  0.00     0.031 A 
ATOM     36  C   UNL     1       4.823   9.872   6.056  1.00  0.00     0.074 A 
ATOM     37  C   UNL     1       6.230   8.381   4.686  1.00  0.00     0.049 A 
ATOM     38  N   UNL     1       5.129  11.043   5.554  1.00  0.00    -0.248 NA
ATOM     39  C   UNL     1       3.856   9.928   7.163  1.00  0.00     0.031 C 
ATOM     40  C   UNL     1       6.783   7.120   4.196  1.00  0.00     0.029 A 
ATOM     41  N   UNL     1       6.869   9.340   3.936  1.00  0.00    -0.354 N 
ATOM     42  C   UNL     1       4.376  11.968   6.265  1.00  0.00     0.074 A 
ATOM     43  C   UNL     1       3.566  11.220   7.203  1.00  0.00     0.031 C 
ATOM     44  C   UNL     1       7.689   7.382   3.239  1.00  0.00     0.029 A 
ATOM     45  C   UNL     1       7.752   8.825   3.019  1.00  0.00     0.049 A 
ATOM     46  H   UNL     1       6.709  10.305   4.047  1.00  0.00     0.167 HD
ATOM     47  C   UNL     1       4.371  13.319   6.163  1.00  0.00     0.037 A 
ATOM     48  C   UNL     1       8.517   9.445   2.099  1.00  0.00     0.037 A 
ATOM     49  C   UNL     1       5.197  14.070   5.254  1.00  0.00     0.049 A 
ATOM     50  C   UNL     1       8.472  10.946   1.979  1.00  0.00     0.074 A 
ATOM     51  C   UNL     1       5.286  15.443   5.101  1.00  0.00     0.029 A 
ATOM     52  N   UNL     1       6.080  13.509   4.345  1.00  0.00    -0.354 N 
ATOM     53  N   UNL     1       7.777  11.811   2.675  1.00  0.00    -0.248 NA
ATOM     54  C   UNL     1       9.320  11.556   0.943  1.00  0.00     0.031 C 
ATOM     55  C   UNL     1       6.197  15.711   4.074  1.00  0.00     0.029 A 
ATOM     56  C   UNL     1       6.710  14.508   3.619  1.00  0.00     0.049 A 
ATOM     57  H   UNL     1       6.238  12.543   4.232  1.00  0.00     0.167 HD
ATOM     58  C   UNL     1       8.133  13.064   2.194  1.00  0.00     0.074 A 
ATOM     59  C   UNL     1       9.104  12.849   1.142  1.00  0.00     0.031 C 
ATOM     60  C   UNL     1       7.698  14.283   2.596  1.00  0.00     0.037 A 
BRANCH  47  61
ATOM     61  C   UNL     1       3.431  14.074   7.059  1.00  0.00     0.064 A 
ATOM     62  C   UNL     1       3.642  14.156   8.444  1.00  0.00     0.173 A 
ATOM     63  C   UNL     1       2.314  14.734   6.525  1.00  0.00     0.173 A 
ATOM     64  F   UNL     1       4.689  13.534   9.005  1.00  0.00    -0.203 F 
ATOM     65  C   UNL     1       2.746  14.835   9.266  1.00  0.00     0.198 A 
ATOM     66  C   UNL     1       1.438  15.439   7.346  1.00  0.00     0.198 A 
ATOM     67  F   UNL     1       2.071  14.695   5.207  1.00  0.00    -0.203 F 
ATOM     68  F   UNL     1       2.935  14.848  10.593  1.00  0.00    -0.200 F 
ATOM     69  C   UNL     1       1.648  15.480   8.716  1.00  0.00     0.200 A 
ATOM     70  F   UNL     1       0.385  16.073   6.812  1.00  0.00    -0.200 F 
ATOM     71  F   UNL     1       0.786  16.132   9.509  1.00  0.00    -0.200 F 
ENDBRANCH  47  61
BRANCH  48  72
ATOM     72  C   UNL     1       9.423   8.647   1.232  1.00  0.00     0.064 A 
ATOM     73  C   UNL     1      10.813   8.702   1.409  1.00  0.00     0.173 A 
ATOM     74  C   UNL     1       8.926   7.818   0.216  1.00  0.00     0.173 A 
ATOM     75  F   UNL     1      11.336   9.499   2.352  1.00  0.00    -0.203 F 
ATOM     76  C   UNL     1      11.672   7.966   0.595  1.00  0.00     0.198 A 
ATOM     77  C   UNL     1       9.785   7.064  -0.581  1.00  0.00     0.198 A 
ATOM     78  F   UNL     1       7.604   7.731   0.007  1.00  0.00    -0.203 F 
ATOM     79  F   UNL     1      12.997   8.065   0.762  1.00  0.00    -0.200 F 
ATOM     80  C   UNL     1      11.157   7.143  -0.395  1.00  0.00     0.200 A 
ATOM     81  F   UNL     1       9.283   6.261  -1.530  1.00  0.00    -0.200 F 
ATOM     82  F   UNL     1      11.983   6.430  -1.173  1.00  0.00    -0.200 F 
ENDBRANCH  48  72
BRANCH  60  83
ATOM     83  C   UNL     1       8.309  15.491   1.948  1.00  0.00     0.064 A 
ATOM     84  C   UNL     1       7.973  15.880   0.644  1.00  0.00     0.173 A 
ATOM     85  C   UNL     1       9.190  16.308   2.673  1.00  0.00     0.173 A 
ATOM     86  F   UNL     1       7.146  15.125  -0.095  1.00  0.00    -0.203 F 
ATOM     87  C   UNL     1       8.507  17.039   0.085  1.00  0.00     0.198 A 
ATOM     88  C   UNL     1       9.702  17.478   2.120  1.00  0.00     0.198 A 
ATOM     89  F   UNL     1       9.538  15.981   3.926  1.00  0.00    -0.203 F 
ATOM     90  F   UNL     1       8.196  17.378  -1.174  1.00  0.00    -0.200 F 
ATOM     91  C   UNL     1       9.363  17.841   0.826  1.00  0.00     0.200 A 
ATOM     92  F   UNL     1      10.519  18.258   2.842  1.00  0.00    -0.200 F 
ATOM     93  F   UNL     1       9.863  18.963   0.290  1.00  0.00    -0.200 F 
ENDBRANCH  60  83
ENDBRANCH  34  35
ENDBRANCH  26  29
ENDBRANCH  24  25
ENDBRANCH  23  24
ENDBRANCH  22  23
ENDBRANCH  21  22
ENDBRANCH   1  21
TORSDOF 17
