REMARK SMILES O=C(NCCCCCCNC(=O)[C@H]1O[C@@H](Oc2c(-c3cc(O)c(O)c(O)c3)oc3cc(O)cc(O)c3c2=O)[C@H](O)[C@@H](O)[C@@H]1O)c1ccc(-c2c3nc(c(-c4c(F)c(F)c(F)c(F)c4F)c4ccc([nH]4)c(-c4c(F)c(F)c(F)c(F)c4F)c4nc(c(-c5c(F)c(F)c(F)c(F)c5F)c5ccc2[nH]5)C=C4)C=C3)cc1
REMARK SMILES IDX 7 1 6 2 5 3 4 4 3 5 1 6 2 7 45 9 46 10 107 11 47 12 106 13
REMARK SMILES IDX 48 14 49 15 50 16 100 17 51 18 105 19 99 20 101 21 52 22
REMARK SMILES IDX 104 23 98 24 97 25 53 27 85 28 65 29 84 30 66 31 69 32 83 33
REMARK SMILES IDX 102 34 67 35 68 36 82 38 103 39 70 40 54 41 55 42 63 43
REMARK SMILES IDX 56 44 57 45 61 46 64 47 58 48 59 49 62 50 60 51 86 52 87 53
REMARK SMILES IDX 95 54 88 55 89 56 93 57 96 58 90 59 91 60 94 61 92 62 71 63
REMARK SMILES IDX 72 64 80 65 73 66 74 67 78 68 81 69 75 70 76 71 79 72 77 73
REMARK SMILES IDX 8 74 9 75 10 76 11 77 12 79 13 80 14 81 43 82 15 83 41 84
REMARK SMILES IDX 39 85 44 86 16 88 17 89 18 90 37 91 28 92 36 93 38 94 29 95
REMARK SMILES IDX 34 96 30 97 33 98 31 99 19 100 20 101 27 102 21 103 25 104
REMARK SMILES IDX 23 105 22 106 26 108 24 110 35 112 32 114 42 116 40 118
REMARK H PARENT 3 8 101 26 69 37 10 78 44 87 22 107 26 109 24 111 35 113
REMARK H PARENT 32 115 42 117 40 119
REMARK Flexibility Score: inf
ROOT
ATOM      1  C   UNL     1       8.016  -1.704  -3.450  1.00  0.00     0.002 C 
ENDROOT
BRANCH   1   2
ATOM      2  C   UNL     1       9.209  -1.776  -2.493  1.00  0.00     0.002 C 
BRANCH   2   3
ATOM      3  C   UNL     1       9.053  -1.005  -1.183  1.00  0.00     0.021 C 
BRANCH   3   4
ATOM      4  C   UNL     1       7.806  -1.343  -0.384  1.00  0.00     0.116 C 
BRANCH   4   5
ATOM      5  N   UNL     1       7.785  -2.720   0.081  1.00  0.00    -0.352 N 
ATOM      6  O   UNL     1       7.631  -4.382   1.607  1.00  0.00    -0.269 OA
ATOM      7  C   UNL     1       7.477  -3.196   1.332  1.00  0.00     0.251 C 
ATOM      8  H   UNL     1       8.024  -3.401  -0.588  1.00  0.00     0.163 HD
BRANCH   7   9
ATOM      9  C   UNL     1       6.984  -2.257   2.362  1.00  0.00     0.039 A 
ATOM     10  C   UNL     1       6.000  -1.318   2.049  1.00  0.00     0.014 A 
ATOM     11  C   UNL     1       7.529  -2.304   3.649  1.00  0.00     0.014 A 
ATOM     12  C   UNL     1       5.668  -0.336   2.972  1.00  0.00     0.010 A 
ATOM     13  C   UNL     1       7.124  -1.371   4.608  1.00  0.00     0.010 A 
ATOM     14  C   UNL     1       6.211  -0.361   4.268  1.00  0.00    -0.014 A 
BRANCH  14  15
ATOM     15  C   UNL     1       5.741   0.642   5.255  1.00  0.00     0.031 A 
ATOM     16  C   UNL     1       6.663   1.688   5.814  1.00  0.00     0.074 A 
ATOM     17  C   UNL     1       4.439   0.631   5.598  1.00  0.00     0.049 A 
ATOM     18  N   UNL     1       6.389   2.674   6.632  1.00  0.00    -0.248 NA
ATOM     19  C   UNL     1       8.076   1.618   5.415  1.00  0.00     0.031 C 
ATOM     20  C   UNL     1       3.459  -0.355   5.137  1.00  0.00     0.029 A 
ATOM     21  N   UNL     1       3.707   1.484   6.382  1.00  0.00    -0.354 N 
ATOM     22  C   UNL     1       7.590   3.335   6.851  1.00  0.00     0.074 A 
ATOM     23  C   UNL     1       8.604   2.620   6.106  1.00  0.00     0.031 C 
ATOM     24  C   UNL     1       2.246  -0.020   5.597  1.00  0.00     0.029 A 
ATOM     25  C   UNL     1       2.371   1.169   6.431  1.00  0.00     0.049 A 
ATOM     26  H   UNL     1       4.100   2.248   6.863  1.00  0.00     0.167 HD
ATOM     27  C   UNL     1       7.817   4.444   7.596  1.00  0.00     0.037 A 
ATOM     28  C   UNL     1       1.357   1.767   7.081  1.00  0.00     0.037 A 
ATOM     29  C   UNL     1       6.800   5.154   8.330  1.00  0.00     0.049 A 
ATOM     30  C   UNL     1       1.640   2.999   7.890  1.00  0.00     0.074 A 
ATOM     31  C   UNL     1       6.930   6.289   9.113  1.00  0.00     0.029 A 
ATOM     32  N   UNL     1       5.459   4.798   8.367  1.00  0.00    -0.354 N 
ATOM     33  N   UNL     1       2.778   3.623   8.073  1.00  0.00    -0.248 NA
ATOM     34  C   UNL     1       0.499   3.610   8.582  1.00  0.00     0.031 C 
ATOM     35  C   UNL     1       5.675   6.600   9.650  1.00  0.00     0.029 A 
ATOM     36  C   UNL     1       4.754   5.685   9.167  1.00  0.00     0.049 A 
ATOM     37  H   UNL     1       5.066   4.029   7.894  1.00  0.00     0.167 HD
ATOM     38  C   UNL     1       2.492   4.699   8.898  1.00  0.00     0.074 A 
ATOM     39  C   UNL     1       1.066   4.665   9.150  1.00  0.00     0.031 C 
ATOM     40  C   UNL     1       3.336   5.627   9.412  1.00  0.00     0.037 A 
BRANCH  27  41
ATOM     41  C   UNL     1       9.225   4.963   7.665  1.00  0.00     0.064 A 
ATOM     42  C   UNL     1       9.822   5.608   6.572  1.00  0.00     0.173 A 
ATOM     43  C   UNL     1       9.964   4.868   8.854  1.00  0.00     0.173 A 
ATOM     44  F   UNL     1       9.164   5.713   5.408  1.00  0.00    -0.203 F 
ATOM     45  C   UNL     1      11.113   6.125   6.662  1.00  0.00     0.198 A 
ATOM     46  C   UNL     1      11.245   5.408   8.948  1.00  0.00     0.198 A 
ATOM     47  F   UNL     1       9.439   4.265   9.931  1.00  0.00    -0.203 F 
ATOM     48  F   UNL     1      11.678   6.703   5.593  1.00  0.00    -0.200 F 
ATOM     49  C   UNL     1      11.820   6.032   7.851  1.00  0.00     0.200 A 
ATOM     50  F   UNL     1      11.923   5.326  10.102  1.00  0.00    -0.200 F 
ATOM     51  F   UNL     1      13.058   6.537   7.938  1.00  0.00    -0.200 F 
ENDBRANCH  27  41
BRANCH  28  52
ATOM     52  C   UNL     1      -0.012   1.200   6.989  1.00  0.00     0.064 A 
ATOM     53  C   UNL     1      -1.032   1.875   6.306  1.00  0.00     0.173 A 
ATOM     54  C   UNL     1      -0.321  -0.039   7.568  1.00  0.00     0.173 A 
ATOM     55  F   UNL     1      -0.789   3.071   5.749  1.00  0.00    -0.203 F 
ATOM     56  C   UNL     1      -2.316   1.339   6.221  1.00  0.00     0.198 A 
ATOM     57  C   UNL     1      -1.595  -0.589   7.456  1.00  0.00     0.198 A 
ATOM     58  F   UNL     1       0.624  -0.728   8.225  1.00  0.00    -0.203 F 
ATOM     59  F   UNL     1      -3.285   2.024   5.599  1.00  0.00    -0.200 F 
ATOM     60  C   UNL     1      -2.594   0.105   6.790  1.00  0.00     0.200 A 
ATOM     61  F   UNL     1      -1.854  -1.790   7.990  1.00  0.00    -0.200 F 
ATOM     62  F   UNL     1      -3.826  -0.414   6.700  1.00  0.00    -0.200 F 
ENDBRANCH  28  52
BRANCH  40  63
ATOM     63  C   UNL     1       2.727   6.678  10.292  1.00  0.00     0.064 A 
ATOM     64  C   UNL     1       2.274   6.375  11.584  1.00  0.00     0.173 A 
ATOM     65  C   UNL     1       2.598   7.999   9.840  1.00  0.00     0.173 A 
ATOM     66  F   UNL     1       2.360   5.121  12.053  1.00  0.00    -0.203 F 
ATOM     67  C   UNL     1       1.681   7.351  12.381  1.00  0.00     0.198 A 
ATOM     68  C   UNL     1       2.030   8.978  10.650  1.00  0.00     0.198 A 
ATOM     69  F   UNL     1       3.021   8.339   8.613  1.00  0.00    -0.203 F 
ATOM     70  F   UNL     1       1.204   7.027  13.590  1.00  0.00    -0.200 F 
ATOM     71  C   UNL     1       1.564   8.652  11.915  1.00  0.00     0.200 A 
ATOM     72  F   UNL     1       1.925  10.237  10.202  1.00  0.00    -0.200 F 
ATOM     73  F   UNL     1       0.990   9.589  12.681  1.00  0.00    -0.200 F 
ENDBRANCH  40  63
ENDBRANCH  14  15
ENDBRANCH   7   9
ENDBRANCH   4   5
ENDBRANCH   3   4
ENDBRANCH   2   3
ENDBRANCH   1   2
BRANCH   1  74
ATOM     74  C   UNL     1       7.527  -0.295  -3.798  1.00  0.00     0.021 C 
BRANCH  74  75
ATOM     75  C   UNL     1       8.615   0.672  -4.252  1.00  0.00     0.116 C 
BRANCH  75  76
ATOM     76  N   UNL     1       9.350   0.173  -5.399  1.00  0.00    -0.354 N 
ATOM     77  C   UNL     1       9.702   0.862  -6.530  1.00  0.00     0.252 C 
ATOM     78  H   UNL     1       9.628  -0.771  -5.361  1.00  0.00     0.163 HD
ATOM     79  O   UNL     1      10.503   0.350  -7.311  1.00  0.00    -0.272 OA
BRANCH  77  80
ATOM     80  C   UNL     1       9.065   2.236  -6.737  1.00  0.00     0.242 C 
ATOM     81  O   UNL     1       9.660   3.126  -5.778  1.00  0.00    -0.324 OA
ATOM     82  C   UNL     1       9.283   2.771  -8.148  1.00  0.00     0.184 C 
ATOM     83  C   UNL     1       8.959   4.362  -5.706  1.00  0.00     0.340 C 
ATOM     84  C   UNL     1       8.680   4.173  -8.258  1.00  0.00     0.181 C 
ATOM     85  C   UNL     1       9.017   5.082  -7.073  1.00  0.00     0.214 C 
BRANCH  82  86
ATOM     86  O   UNL     1       8.621   1.961  -9.127  1.00  0.00    -0.387 OA
ATOM     87  H   UNL     1       7.666   1.965  -8.958  1.00  0.00     0.211 HD
ENDBRANCH  82  86
BRANCH  83  88
ATOM     88  O   UNL     1       9.404   5.255  -4.662  1.00  0.00    -0.454 OA
BRANCH  88  89
ATOM     89  C   UNL     1      10.707   5.106  -4.212  1.00  0.00     0.214 A 
ATOM     90  C   UNL     1      11.731   5.873  -4.643  1.00  0.00     0.181 A 
ATOM     91  C   UNL     1      10.957   4.195  -3.050  1.00  0.00     0.239 A 
ATOM     92  O   UNL     1      13.028   5.788  -4.189  1.00  0.00    -0.452 OA
ATOM     93  C   UNL     1      12.304   4.282  -2.418  1.00  0.00     0.111 A 
ATOM     94  O   UNL     1      10.071   3.450  -2.643  1.00  0.00    -0.285 OA
ATOM     95  C   UNL     1      13.270   5.068  -3.050  1.00  0.00     0.146 A 
ATOM     96  C   UNL     1      12.648   3.637  -1.219  1.00  0.00     0.134 A 
ATOM     97  C   UNL     1      14.561   5.182  -2.528  1.00  0.00     0.094 A 
ATOM     98  C   UNL     1      13.939   3.759  -0.683  1.00  0.00     0.093 A 
ATOM     99  C   UNL     1      14.886   4.528  -1.350  1.00  0.00     0.123 A 
BRANCH  90 100
ATOM    100  C   UNL     1      11.567   6.863  -5.719  1.00  0.00     0.029 A 
ATOM    101  C   UNL     1      12.205   6.648  -6.955  1.00  0.00     0.062 A 
ATOM    102  C   UNL     1      10.667   7.932  -5.575  1.00  0.00     0.062 A 
ATOM    103  C   UNL     1      11.837   7.416  -8.055  1.00  0.00     0.162 A 
ATOM    104  C   UNL     1      10.352   8.716  -6.678  1.00  0.00     0.162 A 
ATOM    105  C   UNL     1      10.927   8.458  -7.917  1.00  0.00     0.200 A 
BRANCH 103 106
ATOM    106  O   UNL     1      12.290   7.044  -9.289  1.00  0.00    -0.504 OA
ATOM    107  H   UNL     1      12.904   6.340  -9.370  1.00  0.00     0.293 HD
ENDBRANCH 103 106
BRANCH 104 108
ATOM    108  O   UNL     1       9.427   9.711  -6.543  1.00  0.00    -0.504 OA
ATOM    109  H   UNL     1       9.205  10.248  -7.278  1.00  0.00     0.293 HD
ENDBRANCH 104 108
BRANCH 105 110
ATOM    110  O   UNL     1      10.565   9.234  -8.983  1.00  0.00    -0.502 OA
ATOM    111  H   UNL     1      10.941   9.076  -9.827  1.00  0.00     0.293 HD
ENDBRANCH 105 110
ENDBRANCH  90 100
BRANCH  96 112
ATOM    112  O   UNL     1      11.730   2.892  -0.533  1.00  0.00    -0.507 OA
ATOM    113  H   UNL     1      11.974   2.467   0.266  1.00  0.00     0.293 HD
ENDBRANCH  96 112
BRANCH  99 114
ATOM    114  O   UNL     1      16.155   4.677  -0.876  1.00  0.00    -0.508 OA
ATOM    115  H   UNL     1      16.773   5.202  -1.347  1.00  0.00     0.293 HD
ENDBRANCH  99 114
ENDBRANCH  88  89
ENDBRANCH  83  88
BRANCH  84 116
ATOM    116  O   UNL     1       9.142   4.751  -9.499  1.00  0.00    -0.387 OA
ATOM    117  H   UNL     1      10.110   4.818  -9.483  1.00  0.00     0.211 HD
ENDBRANCH  84 116
BRANCH  85 118
ATOM    118  O   UNL     1       8.190   6.251  -7.121  1.00  0.00    -0.384 OA
ATOM    119  H   UNL     1       7.259   5.992  -7.038  1.00  0.00     0.211 HD
ENDBRANCH  85 118
ENDBRANCH  77  80
ENDBRANCH  75  76
ENDBRANCH  74  75
ENDBRANCH   1  74
TORSDOF 24
