REMARK SMILES O=C(NCCCCCCNC(=O)[C@@H]1CC(=O)N(c2ccc(Cl)cc2C(=O)c2ccccc2)C1)c1ccc(-c2c3nc(c(-c4c(F)c(F)c(F)c(F)c4F)c4ccc([nH]4)c(-c4c(F)c(F)c(F)c(F)c4F)c4nc(c(-c5c(F)c(F)c(F)c(F)c5F)c5ccc2[nH]5)C=C4)C=C3)cc1
REMARK SMILES IDX 7 1 6 2 5 3 4 4 3 5 1 6 2 7 34 9 35 10 96 11 36 12 95 13
REMARK SMILES IDX 37 14 38 15 39 16 89 17 40 18 94 19 88 20 90 21 41 22 93 23
REMARK SMILES IDX 87 24 86 25 42 27 74 28 54 29 73 30 55 31 58 32 72 33 91 34
REMARK SMILES IDX 56 35 57 36 71 38 92 39 59 40 43 41 44 42 52 43 45 44 46 45
REMARK SMILES IDX 50 46 53 47 47 48 48 49 51 50 49 51 75 52 76 53 84 54 77 55
REMARK SMILES IDX 78 56 82 57 85 58 79 59 80 60 83 61 81 62 60 63 61 64 69 65
REMARK SMILES IDX 62 66 63 67 67 68 70 69 64 70 65 71 68 72 66 73 8 74 9 75
REMARK SMILES IDX 10 76 11 77 12 79 13 80 14 81 33 82 15 83 17 84 16 85 18 86
REMARK SMILES IDX 19 87 24 88 20 89 23 90 21 91 22 92 25 93 26 94 27 95 28 96
REMARK SMILES IDX 32 97 29 98 31 99 30 100
REMARK H PARENT 3 8 90 26 58 37 10 78
REMARK Flexibility Score: inf
ROOT
ATOM      1  C   UNL     1       3.519  -2.602   3.232  1.00  0.00     0.002 C 
ENDROOT
BRANCH   1   2
ATOM      2  C   UNL     1       3.308  -1.089   3.374  1.00  0.00     0.002 C 
BRANCH   2   3
ATOM      3  C   UNL     1       4.152  -0.222   2.439  1.00  0.00     0.021 C 
BRANCH   3   4
ATOM      4  C   UNL     1       4.107  -0.660   0.982  1.00  0.00     0.116 C 
BRANCH   4   5
ATOM      5  N   UNL     1       2.735  -0.847   0.537  1.00  0.00    -0.352 N 
ATOM      6  O   UNL     1       0.782  -0.152  -0.352  1.00  0.00    -0.269 OA
ATOM      7  C   UNL     1       2.004  -0.075  -0.317  1.00  0.00     0.251 C 
ATOM      8  H   UNL     1       2.273  -1.637   0.900  1.00  0.00     0.163 HD
BRANCH   7   9
ATOM      9  C   UNL     1       2.724   0.847  -1.203  1.00  0.00     0.039 A 
ATOM     10  C   UNL     1       3.854   0.398  -1.897  1.00  0.00     0.014 A 
ATOM     11  C   UNL     1       2.262   2.154  -1.339  1.00  0.00     0.014 A 
ATOM     12  C   UNL     1       4.583   1.288  -2.666  1.00  0.00     0.010 A 
ATOM     13  C   UNL     1       2.942   3.021  -2.185  1.00  0.00     0.010 A 
ATOM     14  C   UNL     1       4.105   2.591  -2.849  1.00  0.00    -0.014 A 
BRANCH  14  15
ATOM     15  C   UNL     1       4.764   3.488  -3.818  1.00  0.00     0.031 A 
ATOM     16  C   UNL     1       5.387   4.766  -3.363  1.00  0.00     0.074 A 
ATOM     17  C   UNL     1       4.715   3.162  -5.122  1.00  0.00     0.049 A 
ATOM     18  N   UNL     1       5.864   5.751  -4.079  1.00  0.00    -0.248 NA
ATOM     19  C   UNL     1       5.464   4.977  -1.911  1.00  0.00     0.031 C 
ATOM     20  C   UNL     1       4.125   1.935  -5.661  1.00  0.00     0.029 A 
ATOM     21  N   UNL     1       5.141   3.844  -6.230  1.00  0.00    -0.354 N 
ATOM     22  C   UNL     1       6.272   6.712  -3.167  1.00  0.00     0.074 A 
ATOM     23  C   UNL     1       5.957   6.205  -1.847  1.00  0.00     0.031 C 
ATOM     24  C   UNL     1       4.225   1.950  -6.997  1.00  0.00     0.029 A 
ATOM     25  C   UNL     1       4.812   3.220  -7.407  1.00  0.00     0.049 A 
ATOM     26  H   UNL     1       5.633   4.695  -6.187  1.00  0.00     0.167 HD
ATOM     27  C   UNL     1       6.858   7.907  -3.420  1.00  0.00     0.037 A 
ATOM     28  C   UNL     1       4.920   3.646  -8.678  1.00  0.00     0.037 A 
ATOM     29  C   UNL     1       7.146   8.388  -4.747  1.00  0.00     0.049 A 
ATOM     30  C   UNL     1       5.517   4.997  -8.937  1.00  0.00     0.074 A 
ATOM     31  C   UNL     1       7.772   9.562  -5.122  1.00  0.00     0.029 A 
ATOM     32  N   UNL     1       6.804   7.725  -5.920  1.00  0.00    -0.354 N 
ATOM     33  N   UNL     1       5.939   5.890  -8.074  1.00  0.00    -0.248 NA
ATOM     34  C   UNL     1       5.656   5.403 -10.340  1.00  0.00     0.031 C 
ATOM     35  C   UNL     1       7.734   9.650  -6.516  1.00  0.00     0.029 A 
ATOM     36  C   UNL     1       7.171   8.487  -7.019  1.00  0.00     0.049 A 
ATOM     37  H   UNL     1       6.366   6.844  -5.965  1.00  0.00     0.167 HD
ATOM     38  C   UNL     1       6.427   6.948  -8.826  1.00  0.00     0.074 A 
ATOM     39  C   UNL     1       6.242   6.587 -10.218  1.00  0.00     0.031 C 
ATOM     40  C   UNL     1       6.987   8.106  -8.400  1.00  0.00     0.037 A 
BRANCH  27  41
ATOM     41  C   UNL     1       7.165   8.789  -2.243  1.00  0.00     0.064 A 
ATOM     42  C   UNL     1       8.105   8.430  -1.264  1.00  0.00     0.173 A 
ATOM     43  C   UNL     1       6.495  10.013  -2.084  1.00  0.00     0.173 A 
ATOM     44  F   UNL     1       8.773   7.270  -1.361  1.00  0.00    -0.203 F 
ATOM     45  C   UNL     1       8.319   9.231  -0.145  1.00  0.00     0.198 A 
ATOM     46  C   UNL     1       6.743  10.832  -0.986  1.00  0.00     0.198 A 
ATOM     47  F   UNL     1       5.593  10.415  -2.992  1.00  0.00    -0.203 F 
ATOM     48  F   UNL     1       9.159   8.825   0.817  1.00  0.00    -0.200 F 
ATOM     49  C   UNL     1       7.641  10.433  -0.008  1.00  0.00     0.200 A 
ATOM     50  F   UNL     1       6.101  12.002  -0.867  1.00  0.00    -0.200 F 
ATOM     51  F   UNL     1       7.842  11.199   1.072  1.00  0.00    -0.200 F 
ENDBRANCH  27  41
BRANCH  28  52
ATOM     52  C   UNL     1       4.433   2.773  -9.774  1.00  0.00     0.064 A 
ATOM     53  C   UNL     1       5.328   2.142 -10.646  1.00  0.00     0.173 A 
ATOM     54  C   UNL     1       3.064   2.499  -9.928  1.00  0.00     0.173 A 
ATOM     55  F   UNL     1       6.643   2.381 -10.542  1.00  0.00    -0.203 F 
ATOM     56  C   UNL     1       4.873   1.273 -11.635  1.00  0.00     0.198 A 
ATOM     57  C   UNL     1       2.614   1.606 -10.897  1.00  0.00     0.198 A 
ATOM     58  F   UNL     1       2.168   3.067  -9.107  1.00  0.00    -0.203 F 
ATOM     59  F   UNL     1       5.748   0.703 -12.475  1.00  0.00    -0.200 F 
ATOM     60  C   UNL     1       3.518   0.998 -11.753  1.00  0.00     0.200 A 
ATOM     61  F   UNL     1       1.307   1.323 -10.990  1.00  0.00    -0.200 F 
ATOM     62  F   UNL     1       3.085   0.145 -12.692  1.00  0.00    -0.200 F 
ENDBRANCH  28  52
BRANCH  40  63
ATOM     63  C   UNL     1       7.507   9.054  -9.442  1.00  0.00     0.064 A 
ATOM     64  C   UNL     1       6.652   9.809 -10.256  1.00  0.00     0.173 A 
ATOM     65  C   UNL     1       8.889   9.275  -9.556  1.00  0.00     0.173 A 
ATOM     66  F   UNL     1       5.325   9.624 -10.199  1.00  0.00    -0.203 F 
ATOM     67  C   UNL     1       7.162  10.748 -11.149  1.00  0.00     0.198 A 
ATOM     68  C   UNL     1       9.393  10.238 -10.423  1.00  0.00     0.198 A 
ATOM     69  F   UNL     1       9.750   8.579  -8.797  1.00  0.00    -0.203 F 
ATOM     70  F   UNL     1       6.330  11.439 -11.941  1.00  0.00    -0.200 F 
ATOM     71  C   UNL     1       8.530  10.973 -11.221  1.00  0.00     0.200 A 
ATOM     72  F   UNL     1      10.713  10.466 -10.475  1.00  0.00    -0.200 F 
ATOM     73  F   UNL     1       9.016  11.898 -12.059  1.00  0.00    -0.200 F 
ENDBRANCH  40  63
ENDBRANCH  14  15
ENDBRANCH   7   9
ENDBRANCH   4   5
ENDBRANCH   3   4
ENDBRANCH   2   3
ENDBRANCH   1   2
BRANCH   1  74
ATOM     74  C   UNL     1       4.970  -3.055   3.314  1.00  0.00     0.021 C 
BRANCH  74  75
ATOM     75  C   UNL     1       5.654  -2.520   4.570  1.00  0.00     0.116 C 
BRANCH  75  76
ATOM     76  N   UNL     1       6.407  -3.728   5.363  1.00  0.00    -0.356 N 
ATOM     77  C   UNL     1       8.100  -4.347   6.126  1.00  0.00     0.225 C 
ATOM     78  H   UNL     1       5.739  -4.433   5.524  1.00  0.00     0.163 HD
ATOM     79  O   UNL     1       8.317  -5.382   6.850  1.00  0.00    -0.275 OA
BRANCH  77  80
ATOM     80  C   UNL     1       9.747  -3.683   6.061  1.00  0.00     0.107 C 
ATOM     81  C   UNL     1      10.207  -2.558   7.013  1.00  0.00     0.116 C 
ATOM     82  C   UNL     1      10.589  -3.401   4.832  1.00  0.00     0.139 C 
ATOM     83  C   UNL     1      10.511  -1.413   6.056  1.00  0.00     0.227 C 
ATOM     84  N   UNL     1      10.580  -1.962   4.759  1.00  0.00    -0.311 N 
ATOM     85  O   UNL     1      10.526  -0.235   6.375  1.00  0.00    -0.274 OA
BRANCH  84  86
ATOM     86  C   UNL     1      10.188  -1.221   3.617  1.00  0.00     0.055 A 
ATOM     87  C   UNL     1      10.786   0.025   3.379  1.00  0.00     0.028 A 
ATOM     88  C   UNL     1       9.200  -1.668   2.721  1.00  0.00     0.048 A 
ATOM     89  C   UNL     1      10.446   0.784   2.252  1.00  0.00     0.023 A 
ATOM     90  C   UNL     1       8.859  -0.903   1.592  1.00  0.00     0.035 A 
ATOM     91  C   UNL     1       9.485   0.316   1.363  1.00  0.00     0.041 A 
ATOM     92  Cl  UNL     1       9.047   1.252  -0.013  1.00  0.00    -0.084 Cl
BRANCH  88  93
ATOM     93  C   UNL     1       8.427  -2.912   2.900  1.00  0.00     0.195 C 
ATOM     94  O   UNL     1       8.110  -3.566   1.910  1.00  0.00    -0.289 OA
BRANCH  93  95
ATOM     95  C   UNL     1       7.994  -3.405   4.227  1.00  0.00     0.023 A 
ATOM     96  C   UNL     1       7.381  -5.124   4.268  1.00  0.00     0.012 A 
ATOM     97  C   UNL     1       7.758  -2.315   5.710  1.00  0.00     0.012 A 
ATOM     98  C   UNL     1       6.477  -5.755   5.713  1.00  0.00     0.001 A 
ATOM     99  C   UNL     1       6.875  -2.969   7.175  1.00  0.00     0.001 A 
ATOM    100  C   UNL     1       6.218  -4.667   7.172  1.00  0.00     0.000 A 
ENDBRANCH  93  95
ENDBRANCH  88  93
ENDBRANCH  84  86
ENDBRANCH  77  80
ENDBRANCH  75  76
ENDBRANCH  74  75
ENDBRANCH   1  74
TORSDOF 16
