REMARK SMILES COCC[C@H](NC(=O)c1ccc(C)cc1F)C(=O)NCCCCCCNC(=O)c1ccc(-c2c3nc(c(-c4c(F)c(F)c(F)c(F)c4F)c4ccc([nH]4)c(-c4c(F)c(F)c(F)c(F)c4F)c4nc(c(-c5c(F)c(F)c(F)c(F)c5F)c5ccc2[nH]5)C=C4)C=C3)cc1
REMARK SMILES IDX 22 1 21 2 20 3 19 4 17 5 18 6 5 8 4 9 3 10 2 11 1 12 6 13
REMARK SMILES IDX 7 14 8 16 9 17 10 18 15 19 11 20 14 21 16 22 12 23 13 24
REMARK SMILES IDX 23 25 24 26 25 27 26 28 27 29 28 31 29 32 30 33 91 34 31 35
REMARK SMILES IDX 90 36 32 37 33 38 34 39 84 40 35 41 89 42 83 43 85 44 36 45
REMARK SMILES IDX 88 46 82 47 81 48 37 50 69 51 49 52 68 53 50 54 53 55 67 56
REMARK SMILES IDX 86 57 51 58 52 59 66 61 87 62 54 63 38 64 39 65 47 66 40 67
REMARK SMILES IDX 41 68 45 69 48 70 42 71 43 72 46 73 44 74 70 75 71 76 79 77
REMARK SMILES IDX 72 78 73 79 77 80 80 81 74 82 75 83 78 84 76 85 55 86 56 87
REMARK SMILES IDX 64 88 57 89 58 90 62 91 65 92 59 93 60 94 63 95 61 96
REMARK H PARENT 19 7 6 15 26 30 85 49 53 60
REMARK Flexibility Score: inf
ROOT
ATOM      1  C   UNL     1       0.726   4.648   5.572  1.00  0.00     0.002 C 
ENDROOT
BRANCH   1   2
ATOM      2  C   UNL     1       1.045   4.545   4.079  1.00  0.00     0.021 C 
BRANCH   2   3
ATOM      3  C   UNL     1       2.001   3.405   3.733  1.00  0.00     0.116 C 
BRANCH   3   4
ATOM      4  N   UNL     1       1.572   2.128   4.274  1.00  0.00    -0.354 N 
ATOM      5  C   UNL     1       1.038   1.049   3.634  1.00  0.00     0.242 C 
ATOM      6  O   UNL     1       0.796   0.039   4.299  1.00  0.00    -0.273 OA
ATOM      7  H   UNL     1       1.682   2.027   5.247  1.00  0.00     0.163 HD
BRANCH   5   8
ATOM      8  C   UNL     1       0.936   1.049   2.107  1.00  0.00     0.173 C 
BRANCH   8   9
ATOM      9  C   UNL     1       2.407   0.812   1.670  1.00  0.00     0.063 C 
BRANCH   9  10
ATOM     10  C   UNL     1       2.630   0.506   0.205  1.00  0.00     0.162 C 
BRANCH  10  11
ATOM     11  O   UNL     1       2.192   1.604  -0.586  1.00  0.00    -0.385 OA
ATOM     12  C   UNL     1       1.112   1.244  -1.439  1.00  0.00     0.194 C 
ENDBRANCH  10  11
ENDBRANCH   9  10
ENDBRANCH   8   9
BRANCH   8  13
ATOM     13  N   UNL     1       0.350   2.283   1.552  1.00  0.00    -0.340 N 
ATOM     14  C   UNL     1      -0.934   2.787   1.574  1.00  0.00     0.254 C 
ATOM     15  H   UNL     1       0.996   2.854   1.077  1.00  0.00     0.164 HD
ATOM     16  O   UNL     1      -1.202   3.730   0.831  1.00  0.00    -0.269 OA
BRANCH  14  17
ATOM     17  C   UNL     1      -1.976   2.284   2.498  1.00  0.00     0.075 A 
ATOM     18  C   UNL     1      -1.753   2.200   3.872  1.00  0.00     0.017 A 
ATOM     19  C   UNL     1      -3.262   2.023   2.034  1.00  0.00     0.136 A 
ATOM     20  C   UNL     1      -2.728   1.726   4.747  1.00  0.00     0.004 A 
ATOM     21  C   UNL     1      -4.263   1.575   2.906  1.00  0.00     0.043 A 
ATOM     22  F   UNL     1      -3.575   2.184   0.740  1.00  0.00    -0.206 F 
ATOM     23  C   UNL     1      -3.986   1.376   4.266  1.00  0.00    -0.048 A 
ATOM     24  C   UNL     1      -5.020   0.829   5.202  1.00  0.00     0.044 C 
ENDBRANCH  14  17
ENDBRANCH   8  13
ENDBRANCH   5   8
ENDBRANCH   3   4
ENDBRANCH   2   3
ENDBRANCH   1   2
BRANCH   1  25
ATOM     25  C   UNL     1       1.956   4.564   6.484  1.00  0.00     0.002 C 
BRANCH  25  26
ATOM     26  C   UNL     1       3.123   5.467   6.078  1.00  0.00     0.021 C 
BRANCH  26  27
ATOM     27  C   UNL     1       2.710   6.908   6.080  1.00  0.00     0.116 C 
BRANCH  27  28
ATOM     28  N   UNL     1       2.518   7.359   7.450  1.00  0.00    -0.352 N 
ATOM     29  C   UNL     1       2.776   8.629   7.905  1.00  0.00     0.251 C 
ATOM     30  H   UNL     1       2.177   6.704   8.101  1.00  0.00     0.163 HD
ATOM     31  O   UNL     1       3.085   8.856   9.058  1.00  0.00    -0.269 OA
BRANCH  29  32
ATOM     32  C   UNL     1       2.596   9.700   6.916  1.00  0.00     0.039 A 
ATOM     33  C   UNL     1       3.372  10.860   6.909  1.00  0.00     0.014 A 
ATOM     34  C   UNL     1       1.590   9.488   5.975  1.00  0.00     0.014 A 
ATOM     35  C   UNL     1       3.076  11.838   5.968  1.00  0.00     0.010 A 
ATOM     36  C   UNL     1       1.510  10.293   4.895  1.00  0.00     0.010 A 
ATOM     37  C   UNL     1       2.115  11.540   5.000  1.00  0.00    -0.014 A 
BRANCH  37  38
ATOM     38  C   UNL     1       1.473  12.489   4.119  1.00  0.00     0.031 A 
ATOM     39  C   UNL     1       2.201  12.997   2.968  1.00  0.00     0.074 A 
ATOM     40  C   UNL     1       0.141  12.600   4.329  1.00  0.00     0.049 A 
ATOM     41  N   UNL     1       1.895  14.072   2.342  1.00  0.00    -0.248 NA
ATOM     42  C   UNL     1       3.393  12.335   2.451  1.00  0.00     0.031 C 
ATOM     43  C   UNL     1      -0.932  13.103   3.492  1.00  0.00     0.029 A 
ATOM     44  N   UNL     1      -0.511  12.275   5.535  1.00  0.00    -0.354 N 
ATOM     45  C   UNL     1       2.593  14.046   1.155  1.00  0.00     0.074 A 
ATOM     46  C   UNL     1       3.637  13.072   1.363  1.00  0.00     0.031 C 
ATOM     47  C   UNL     1      -1.989  13.379   4.286  1.00  0.00     0.029 A 
ATOM     48  C   UNL     1      -1.558  13.197   5.669  1.00  0.00     0.049 A 
ATOM     49  H   UNL     1      -0.279  11.548   6.157  1.00  0.00     0.167 HD
ATOM     50  C   UNL     1       2.054  14.709   0.090  1.00  0.00     0.037 A 
ATOM     51  C   UNL     1      -1.378  14.180   6.605  1.00  0.00     0.037 A 
ATOM     52  C   UNL     1       0.817  15.386   0.511  1.00  0.00     0.049 A 
ATOM     53  C   UNL     1      -1.126  15.531   5.970  1.00  0.00     0.074 A 
ATOM     54  C   UNL     1      -0.525  15.047   0.440  1.00  0.00     0.029 A 
ATOM     55  N   UNL     1       0.901  16.394   1.456  1.00  0.00    -0.354 N 
ATOM     56  N   UNL     1      -0.871  15.710   4.703  1.00  0.00    -0.248 NA
ATOM     57  C   UNL     1      -1.059  16.771   6.737  1.00  0.00     0.031 C 
ATOM     58  C   UNL     1      -1.222  15.803   1.436  1.00  0.00     0.029 A 
ATOM     59  C   UNL     1      -0.308  16.612   2.091  1.00  0.00     0.049 A 
ATOM     60  H   UNL     1       1.725  16.895   1.654  1.00  0.00     0.167 HD
ATOM     61  C   UNL     1      -0.619  17.026   4.469  1.00  0.00     0.074 A 
ATOM     62  C   UNL     1      -0.709  17.648   5.781  1.00  0.00     0.031 C 
ATOM     63  C   UNL     1      -0.350  17.524   3.227  1.00  0.00     0.037 A 
BRANCH  50  64
ATOM     64  C   UNL     1       2.441  14.545  -1.367  1.00  0.00     0.064 A 
ATOM     65  C   UNL     1       1.593  15.064  -2.372  1.00  0.00     0.173 A 
ATOM     66  C   UNL     1       3.575  13.870  -1.862  1.00  0.00     0.173 A 
ATOM     67  F   UNL     1       0.523  15.810  -2.065  1.00  0.00    -0.203 F 
ATOM     68  C   UNL     1       1.813  14.847  -3.736  1.00  0.00     0.198 A 
ATOM     69  C   UNL     1       3.787  13.637  -3.226  1.00  0.00     0.198 A 
ATOM     70  F   UNL     1       4.555  13.438  -1.069  1.00  0.00    -0.203 F 
ATOM     71  F   UNL     1       0.956  15.352  -4.633  1.00  0.00    -0.200 F 
ATOM     72  C   UNL     1       2.900  14.116  -4.163  1.00  0.00     0.200 A 
ATOM     73  F   UNL     1       4.869  12.948  -3.619  1.00  0.00    -0.200 F 
ATOM     74  F   UNL     1       3.105  13.894  -5.467  1.00  0.00    -0.200 F 
ENDBRANCH  50  64
BRANCH  51  75
ATOM     75  C   UNL     1      -0.643  13.670   7.817  1.00  0.00     0.064 A 
ATOM     76  C   UNL     1      -1.167  12.547   8.497  1.00  0.00     0.173 A 
ATOM     77  C   UNL     1       0.705  13.980   8.046  1.00  0.00     0.173 A 
ATOM     78  F   UNL     1      -2.451  12.194   8.321  1.00  0.00    -0.203 F 
ATOM     79  C   UNL     1      -0.349  11.700   9.244  1.00  0.00     0.198 A 
ATOM     80  C   UNL     1       1.511  13.150   8.828  1.00  0.00     0.198 A 
ATOM     81  F   UNL     1       1.278  15.027   7.437  1.00  0.00    -0.203 F 
ATOM     82  F   UNL     1      -0.847  10.559   9.745  1.00  0.00    -0.200 F 
ATOM     83  C   UNL     1       0.994  11.996   9.396  1.00  0.00     0.200 A 
ATOM     84  F   UNL     1       2.818  13.425   8.959  1.00  0.00    -0.200 F 
ATOM     85  F   UNL     1       1.796  11.156  10.062  1.00  0.00    -0.200 F 
ENDBRANCH  51  75
BRANCH  63  86
ATOM     86  C   UNL     1      -0.120  18.984   3.018  1.00  0.00     0.064 A 
ATOM     87  C   UNL     1      -0.996  19.943   3.547  1.00  0.00     0.173 A 
ATOM     88  C   UNL     1       0.928  19.463   2.210  1.00  0.00     0.173 A 
ATOM     89  F   UNL     1      -2.065  19.572   4.270  1.00  0.00    -0.203 F 
ATOM     90  C   UNL     1      -0.790  21.304   3.345  1.00  0.00     0.198 A 
ATOM     91  C   UNL     1       1.086  20.818   1.945  1.00  0.00     0.198 A 
ATOM     92  F   UNL     1       1.845  18.637   1.685  1.00  0.00    -0.203 F 
ATOM     93  F   UNL     1      -1.594  22.192   3.943  1.00  0.00    -0.200 F 
ATOM     94  C   UNL     1       0.242  21.740   2.533  1.00  0.00     0.200 A 
ATOM     95  F   UNL     1       2.069  21.224   1.130  1.00  0.00    -0.200 F 
ATOM     96  F   UNL     1       0.430  23.049   2.323  1.00  0.00    -0.200 F 
ENDBRANCH  63  86
ENDBRANCH  37  38
ENDBRANCH  29  32
ENDBRANCH  27  28
ENDBRANCH  26  27
ENDBRANCH  25  26
ENDBRANCH   1  25
TORSDOF 18
