REMARK SMILES CCCOc1ccc(Nc2snc(C)c2C(=O)NCCCCCCNC(=O)c2ccc(-c3c4nc(c(-c5c(F)c(F)c(F)c(F)c5F)c5ccc([nH]5)c(-c5c(F)c(F)c(F)c(F)c5F)c5nc(c(-c6c(F)c(F)c(F)c(F)c6F)c6ccc3[nH]6)C=C5)C=C4)cc2)cc1
REMARK SMILES IDX 20 1 19 2 18 3 16 4 17 5 15 7 10 8 11 9 12 10 13 11 14 12
REMARK SMILES IDX 9 13 8 15 5 16 6 17 92 18 7 19 91 20 4 21 3 22 2 23 1 24
REMARK SMILES IDX 21 25 22 26 23 27 24 28 25 29 26 30 27 32 28 33 29 34 90 35
REMARK SMILES IDX 30 36 89 37 31 38 32 39 33 40 83 41 34 42 88 43 82 44 84 45
REMARK SMILES IDX 35 46 87 47 81 48 80 49 36 51 68 52 48 53 67 54 49 55 52 56
REMARK SMILES IDX 66 57 85 58 50 59 51 60 65 62 86 63 53 64 37 65 38 66 46 67
REMARK SMILES IDX 39 68 40 69 44 70 47 71 41 72 42 73 45 74 43 75 69 76 70 77
REMARK SMILES IDX 78 78 71 79 72 80 76 81 79 82 73 83 74 84 77 85 75 86 54 87
REMARK SMILES IDX 55 88 63 89 56 90 57 91 61 92 64 93 58 94 59 95 62 96 60 97
REMARK H PARENT 18 6 9 14 25 31 84 50 52 61
REMARK Flexibility Score: inf
ROOT
ATOM      1  C   UNL     1       4.153   2.222   3.748  1.00  0.00     0.021 C 
ENDROOT
BRANCH   1   2
ATOM      2  C   UNL     1       3.230   1.295   4.531  1.00  0.00     0.116 C 
BRANCH   2   3
ATOM      3  N   UNL     1       3.857   0.193   5.222  1.00  0.00    -0.352 N 
ATOM      4  C   UNL     1       3.392  -0.559   6.283  1.00  0.00     0.256 C 
ATOM      5  O   UNL     1       4.005  -1.600   6.524  1.00  0.00    -0.269 OA
ATOM      6  H   UNL     1       4.747  -0.060   4.887  1.00  0.00     0.163 HD
BRANCH   4   7
ATOM      7  C   UNL     1       2.314  -0.098   7.162  1.00  0.00     0.097 A 
ATOM      8  C   UNL     1       1.072   0.437   6.818  1.00  0.00     0.127 A 
ATOM      9  S   UNL     1       0.331   1.039   8.254  1.00  0.00    -0.018 S 
ATOM     10  N   UNL     1       1.394   0.364   9.305  1.00  0.00    -0.195 NA
ATOM     11  C   UNL     1       2.368  -0.231   8.615  1.00  0.00     0.066 A 
ATOM     12  C   UNL     1       3.391  -0.956   9.426  1.00  0.00     0.069 C 
BRANCH   8  13
ATOM     13  N   UNL     1       0.418   0.595   5.640  1.00  0.00    -0.345 N 
ATOM     14  H   UNL     1      -0.076   1.439   5.527  1.00  0.00     0.167 HD
BRANCH  13  15
ATOM     15  C   UNL     1       0.361  -0.304   4.563  1.00  0.00     0.039 A 
ATOM     16  C   UNL     1       0.449  -1.954   2.269  1.00  0.00     0.119 A 
ATOM     17  C   UNL     1       0.564  -2.505   3.545  1.00  0.00     0.048 A 
ATOM     18  C   UNL     1       0.279  -0.584   2.154  1.00  0.00     0.048 A 
ATOM     19  C   UNL     1       0.554  -1.683   4.683  1.00  0.00     0.030 A 
ATOM     20  C   UNL     1       0.197   0.228   3.283  1.00  0.00     0.030 A 
BRANCH  16  21
ATOM     21  O   UNL     1       0.413  -2.819   1.215  1.00  0.00    -0.494 OA
BRANCH  21  22
ATOM     22  C   UNL     1       1.032  -2.403  -0.011  1.00  0.00     0.229 C 
BRANCH  22  23
ATOM     23  C   UNL     1       0.052  -1.776  -1.017  1.00  0.00     0.038 C 
ATOM     24  C   UNL     1       0.347  -0.320  -1.373  1.00  0.00     0.007 C 
ENDBRANCH  22  23
ENDBRANCH  21  22
ENDBRANCH  16  21
ENDBRANCH  13  15
ENDBRANCH   8  13
ENDBRANCH   4   7
ENDBRANCH   2   3
ENDBRANCH   1   2
BRANCH   1  25
ATOM     25  C   UNL     1       4.930   1.584   2.590  1.00  0.00     0.002 C 
BRANCH  25  26
ATOM     26  C   UNL     1       4.129   0.753   1.574  1.00  0.00     0.002 C 
BRANCH  26  27
ATOM     27  C   UNL     1       2.912   1.423   0.929  1.00  0.00     0.021 C 
BRANCH  27  28
ATOM     28  C   UNL     1       3.227   2.630   0.071  1.00  0.00     0.116 C 
BRANCH  28  29
ATOM     29  N   UNL     1       3.971   2.317  -1.157  1.00  0.00    -0.352 N 
ATOM     30  C   UNL     1       4.249   3.145  -2.247  1.00  0.00     0.251 C 
ATOM     31  H   UNL     1       4.322   1.399  -1.219  1.00  0.00     0.163 HD
ATOM     32  O   UNL     1       4.581   2.696  -3.324  1.00  0.00    -0.269 OA
BRANCH  30  33
ATOM     33  C   UNL     1       4.170   4.607  -2.043  1.00  0.00     0.039 A 
ATOM     34  C   UNL     1       3.704   5.532  -2.989  1.00  0.00     0.014 A 
ATOM     35  C   UNL     1       4.519   5.035  -0.787  1.00  0.00     0.014 A 
ATOM     36  C   UNL     1       3.597   6.875  -2.605  1.00  0.00     0.010 A 
ATOM     37  C   UNL     1       3.866   6.136  -0.360  1.00  0.00     0.010 A 
ATOM     38  C   UNL     1       3.731   7.171  -1.251  1.00  0.00    -0.014 A 
BRANCH  38  39
ATOM     39  C   UNL     1       3.587   8.470  -0.615  1.00  0.00     0.031 A 
ATOM     40  C   UNL     1       2.190   8.959  -0.642  1.00  0.00     0.074 A 
ATOM     41  C   UNL     1       4.558   8.946   0.207  1.00  0.00     0.049 A 
ATOM     42  N   UNL     1       1.693   9.877  -1.402  1.00  0.00    -0.248 NA
ATOM     43  C   UNL     1       1.168   8.175   0.079  1.00  0.00     0.031 C 
ATOM     44  C   UNL     1       5.835   8.312   0.580  1.00  0.00     0.029 A 
ATOM     45  N   UNL     1       4.567  10.075   0.975  1.00  0.00    -0.354 N 
ATOM     46  C   UNL     1       0.351   9.958  -1.039  1.00  0.00     0.074 A 
ATOM     47  C   UNL     1       0.045   8.710  -0.403  1.00  0.00     0.031 C 
ATOM     48  C   UNL     1       6.379   8.947   1.645  1.00  0.00     0.029 A 
ATOM     49  C   UNL     1       5.585  10.122   1.937  1.00  0.00     0.049 A 
ATOM     50  H   UNL     1       3.911  10.800   0.861  1.00  0.00     0.167 HD
ATOM     51  C   UNL     1      -0.263  11.171  -0.941  1.00  0.00     0.037 A 
ATOM     52  C   UNL     1       5.715  11.061   2.914  1.00  0.00     0.037 A 
ATOM     53  C   UNL     1       0.557  12.183  -1.570  1.00  0.00     0.049 A 
ATOM     54  C   UNL     1       4.873  12.216   2.505  1.00  0.00     0.074 A 
ATOM     55  C   UNL     1       1.049  12.399  -2.841  1.00  0.00     0.029 A 
ATOM     56  N   UNL     1       1.335  12.941  -0.729  1.00  0.00    -0.354 N 
ATOM     57  N   UNL     1       5.117  12.946   1.450  1.00  0.00    -0.248 NA
ATOM     58  C   UNL     1       3.493  12.217   2.964  1.00  0.00     0.031 C 
ATOM     59  C   UNL     1       2.365  12.917  -2.648  1.00  0.00     0.029 A 
ATOM     60  C   UNL     1       2.578  13.090  -1.279  1.00  0.00     0.049 A 
ATOM     61  H   UNL     1       1.044  13.318   0.133  1.00  0.00     0.167 HD
ATOM     62  C   UNL     1       3.874  13.134   0.858  1.00  0.00     0.074 A 
ATOM     63  C   UNL     1       2.906  12.714   1.871  1.00  0.00     0.031 C 
ATOM     64  C   UNL     1       3.771  13.310  -0.493  1.00  0.00     0.037 A 
BRANCH  51  65
ATOM     65  C   UNL     1      -1.305  11.546   0.105  1.00  0.00     0.064 A 
ATOM     66  C   UNL     1      -1.809  12.866   0.085  1.00  0.00     0.173 A 
ATOM     67  C   UNL     1      -1.598  10.818   1.280  1.00  0.00     0.173 A 
ATOM     68  F   UNL     1      -1.622  13.653  -0.985  1.00  0.00    -0.203 F 
ATOM     69  C   UNL     1      -2.423  13.446   1.198  1.00  0.00     0.198 A 
ATOM     70  C   UNL     1      -2.251  11.388   2.373  1.00  0.00     0.198 A 
ATOM     71  F   UNL     1      -1.196   9.561   1.482  1.00  0.00    -0.203 F 
ATOM     72  F   UNL     1      -2.747  14.745   1.175  1.00  0.00    -0.200 F 
ATOM     73  C   UNL     1      -2.627  12.711   2.349  1.00  0.00     0.200 A 
ATOM     74  F   UNL     1      -2.434  10.655   3.481  1.00  0.00    -0.200 F 
ATOM     75  F   UNL     1      -3.145  13.282   3.443  1.00  0.00    -0.200 F 
ENDBRANCH  51  65
BRANCH  52  76
ATOM     76  C   UNL     1       6.207  10.902   4.308  1.00  0.00     0.064 A 
ATOM     77  C   UNL     1       6.593  12.008   5.086  1.00  0.00     0.173 A 
ATOM     78  C   UNL     1       6.027   9.690   5.001  1.00  0.00     0.173 A 
ATOM     79  F   UNL     1       6.731  13.215   4.517  1.00  0.00    -0.203 F 
ATOM     80  C   UNL     1       6.775  11.909   6.472  1.00  0.00     0.198 A 
ATOM     81  C   UNL     1       6.207   9.591   6.384  1.00  0.00     0.198 A 
ATOM     82  F   UNL     1       5.572   8.601   4.364  1.00  0.00    -0.203 F 
ATOM     83  F   UNL     1       7.090  12.998   7.188  1.00  0.00    -0.200 F 
ATOM     84  C   UNL     1       6.572  10.702   7.121  1.00  0.00     0.200 A 
ATOM     85  F   UNL     1       5.960   8.429   7.004  1.00  0.00    -0.200 F 
ATOM     86  F   UNL     1       6.684  10.619   8.454  1.00  0.00    -0.200 F 
ENDBRANCH  52  76
BRANCH  64  87
ATOM     87  C   UNL     1       5.035  13.579  -1.265  1.00  0.00     0.064 A 
ATOM     88  C   UNL     1       6.078  12.652  -1.442  1.00  0.00     0.173 A 
ATOM     89  C   UNL     1       5.109  14.775  -1.989  1.00  0.00     0.173 A 
ATOM     90  F   UNL     1       6.040  11.451  -0.853  1.00  0.00    -0.203 F 
ATOM     91  C   UNL     1       7.154  12.927  -2.286  1.00  0.00     0.198 A 
ATOM     92  C   UNL     1       6.165  15.032  -2.857  1.00  0.00     0.198 A 
ATOM     93  F   UNL     1       4.116  15.674  -1.897  1.00  0.00    -0.203 F 
ATOM     94  F   UNL     1       8.137  12.026  -2.439  1.00  0.00    -0.200 F 
ATOM     95  C   UNL     1       7.191  14.113  -3.001  1.00  0.00     0.200 A 
ATOM     96  F   UNL     1       6.168  16.159  -3.582  1.00  0.00    -0.200 F 
ATOM     97  F   UNL     1       8.200  14.359  -3.848  1.00  0.00    -0.200 F 
ENDBRANCH  64  87
ENDBRANCH  38  39
ENDBRANCH  30  33
ENDBRANCH  28  29
ENDBRANCH  27  28
ENDBRANCH  26  27
ENDBRANCH  25  26
ENDBRANCH   1  25
TORSDOF 18
