REMARK SMILES [NH3+]C[C@H]1CC[C@@H](C(=O)N[C@H](CC(=O)NCCCCCCNC(=O)c2ccc(-c3c4nc(c(-c5c(F)c(F)c(F)c(F)c5F)c5ccc([nH]5)c(-c5c(F)c(F)c(F)c(F)c5F)c5nc(c(-c6c(F)c(F)c(F)c(F)c6F)c6ccc3[nH]6)C=C5)C=C4)cc2)c2cccs2)O1
REMARK SMILES IDX 16 1 15 2 14 3 12 4 13 5 11 7 10 8 9 9 7 10 8 11 6 13 3 14
REMARK SMILES IDX 4 15 92 16 5 17 2 18 1 19 87 23 88 24 91 25 89 26 90 27
REMARK SMILES IDX 17 28 18 29 19 30 20 31 21 32 22 33 23 35 24 36 25 37 86 38
REMARK SMILES IDX 26 39 85 40 27 41 28 42 29 43 79 44 30 45 84 46 78 47 80 48
REMARK SMILES IDX 31 49 83 50 77 51 76 52 32 54 64 55 44 56 63 57 45 58 48 59
REMARK SMILES IDX 62 60 81 61 46 62 47 63 61 65 82 66 49 67 33 68 34 69 42 70
REMARK SMILES IDX 35 71 36 72 40 73 43 74 37 75 38 76 41 77 39 78 65 79 66 80
REMARK SMILES IDX 74 81 67 82 68 83 72 84 75 85 69 86 70 87 73 88 71 89 50 90
REMARK SMILES IDX 51 91 59 92 52 93 53 94 57 95 60 96 54 97 55 98 58 99 56 100
REMARK H PARENT 14 6 9 12 1 20 1 21 1 22 21 34 80 53 48 64
REMARK Flexibility Score: inf
ROOT
ATOM      1  C   UNL     1       5.464  -2.421  -4.787  1.00  0.00     0.021 C 
ENDROOT
BRANCH   1   2
ATOM      2  C   UNL     1       4.485  -1.756  -5.755  1.00  0.00     0.116 C 
BRANCH   2   3
ATOM      3  N   UNL     1       3.497  -2.713  -6.214  1.00  0.00    -0.356 N 
ATOM      4  C   UNL     1       2.204  -2.897  -5.838  1.00  0.00     0.222 C 
ATOM      5  O   UNL     1       1.589  -3.844  -6.333  1.00  0.00    -0.275 OA
ATOM      6  H   UNL     1       3.815  -3.331  -6.912  1.00  0.00     0.163 HD
BRANCH   4   7
ATOM      7  C   UNL     1       1.501  -1.913  -4.942  1.00  0.00     0.130 C 
BRANCH   7   8
ATOM      8  C   UNL     1       1.433  -2.187  -3.437  1.00  0.00     0.132 C 
BRANCH   8   9
ATOM      9  N   UNL     1       0.757  -3.400  -2.992  1.00  0.00    -0.346 N 
ATOM     10  C   UNL     1       0.984  -4.735  -2.992  1.00  0.00     0.249 C 
ATOM     11  O   UNL     1       0.065  -5.413  -2.510  1.00  0.00    -0.272 OA
ATOM     12  H   UNL     1      -0.109  -3.189  -2.573  1.00  0.00     0.164 HD
BRANCH  10  13
ATOM     13  C   UNL     1       2.232  -5.423  -3.588  1.00  0.00     0.207 C 
ATOM     14  C   UNL     1       4.461  -5.961  -3.088  1.00  0.00     0.174 C 
ATOM     15  C   UNL     1       3.720  -7.258  -3.349  1.00  0.00     0.041 C 
ATOM     16  O   UNL     1       3.520  -4.883  -3.302  1.00  0.00    -0.359 OA
ATOM     17  C   UNL     1       2.288  -6.875  -3.107  1.00  0.00     0.045 C 
BRANCH  14  18
ATOM     18  C   UNL     1       5.030  -5.877  -1.657  1.00  0.00     0.291 C 
BRANCH  18  19
ATOM     19  N   UNL     1       5.911  -4.709  -1.496  1.00  0.00    -0.355 N 
ATOM     20  H   UNL     1       6.269  -4.683  -0.541  1.00  0.00     0.344 HD
ATOM     21  H   UNL     1       5.383  -3.857  -1.684  1.00  0.00     0.344 HD
ATOM     22  H   UNL     1       6.690  -4.779  -2.150  1.00  0.00     0.344 HD
ENDBRANCH  18  19
ENDBRANCH  14  18
ENDBRANCH  10  13
ENDBRANCH   8   9
BRANCH   8  23
ATOM     23  C   UNL     1       2.598  -1.718  -2.583  1.00  0.00     0.027 A 
ATOM     24  C   UNL     1       3.242  -0.489  -2.658  1.00  0.00     0.017 A 
ATOM     25  S   UNL     1       3.140  -2.568  -1.193  1.00  0.00    -0.147 S 
ATOM     26  C   UNL     1       4.275  -0.331  -1.689  1.00  0.00     0.012 A 
ATOM     27  C   UNL     1       4.352  -1.416  -0.852  1.00  0.00     0.065 A 
ENDBRANCH   8  23
ENDBRANCH   7   8
ENDBRANCH   4   7
ENDBRANCH   2   3
ENDBRANCH   1   2
BRANCH   1  28
ATOM     28  C   UNL     1       6.867  -2.620  -5.359  1.00  0.00     0.002 C 
BRANCH  28  29
ATOM     29  C   UNL     1       7.662  -1.328  -5.571  1.00  0.00     0.002 C 
BRANCH  29  30
ATOM     30  C   UNL     1       7.845  -0.446  -4.331  1.00  0.00     0.021 C 
BRANCH  30  31
ATOM     31  C   UNL     1       8.450  -1.142  -3.111  1.00  0.00     0.116 C 
BRANCH  31  32
ATOM     32  N   UNL     1       9.761  -1.706  -3.392  1.00  0.00    -0.352 N 
ATOM     33  C   UNL     1      11.005  -1.351  -2.939  1.00  0.00     0.251 C 
ATOM     34  H   UNL     1       9.754  -2.471  -4.011  1.00  0.00     0.163 HD
ATOM     35  O   UNL     1      12.004  -1.839  -3.465  1.00  0.00    -0.269 OA
BRANCH  33  36
ATOM     36  C   UNL     1      11.170  -0.375  -1.841  1.00  0.00     0.039 A 
ATOM     37  C   UNL     1      12.166   0.601  -1.958  1.00  0.00     0.014 A 
ATOM     38  C   UNL     1      10.397  -0.443  -0.679  1.00  0.00     0.014 A 
ATOM     39  C   UNL     1      12.337   1.550  -0.947  1.00  0.00     0.010 A 
ATOM     40  C   UNL     1      10.530   0.538   0.305  1.00  0.00     0.010 A 
ATOM     41  C   UNL     1      11.495   1.549   0.176  1.00  0.00    -0.014 A 
BRANCH  41  42
ATOM     42  C   UNL     1      11.586   2.617   1.205  1.00  0.00     0.031 A 
ATOM     43  C   UNL     1      12.029   2.298   2.604  1.00  0.00     0.074 A 
ATOM     44  C   UNL     1      11.197   3.869   0.892  1.00  0.00     0.049 A 
ATOM     45  N   UNL     1      12.080   3.079   3.654  1.00  0.00    -0.248 NA
ATOM     46  C   UNL     1      12.453   0.914   2.863  1.00  0.00     0.031 C 
ATOM     47  C   UNL     1      10.718   4.300  -0.421  1.00  0.00     0.029 A 
ATOM     48  N   UNL     1      11.126   5.004   1.661  1.00  0.00    -0.354 N 
ATOM     49  C   UNL     1      12.531   2.283   4.698  1.00  0.00     0.074 A 
ATOM     50  C   UNL     1      12.701   0.947   4.165  1.00  0.00     0.031 C 
ATOM     51  C   UNL     1      10.410   5.605  -0.370  1.00  0.00     0.029 A 
ATOM     52  C   UNL     1      10.631   6.093   0.988  1.00  0.00     0.049 A 
ATOM     53  H   UNL     1      11.404   5.034   2.605  1.00  0.00     0.167 HD
ATOM     54  C   UNL     1      12.793   2.637   5.979  1.00  0.00     0.037 A 
ATOM     55  C   UNL     1      10.367   7.342   1.419  1.00  0.00     0.037 A 
ATOM     56  C   UNL     1      12.640   3.970   6.504  1.00  0.00     0.049 A 
ATOM     57  C   UNL     1      10.641   7.702   2.853  1.00  0.00     0.074 A 
ATOM     58  C   UNL     1      12.939   4.437   7.772  1.00  0.00     0.029 A 
ATOM     59  N   UNL     1      12.138   5.048   5.790  1.00  0.00    -0.354 N 
ATOM     60  N   UNL     1      11.123   6.954   3.815  1.00  0.00    -0.248 NA
ATOM     61  C   UNL     1      10.334   9.080   3.260  1.00  0.00     0.031 C 
ATOM     62  C   UNL     1      12.577   5.787   7.840  1.00  0.00     0.029 A 
ATOM     63  C   UNL     1      12.094   6.172   6.600  1.00  0.00     0.049 A 
ATOM     64  H   UNL     1      11.855   5.018   4.848  1.00  0.00     0.167 HD
ATOM     65  C   UNL     1      11.198   7.773   4.933  1.00  0.00     0.074 A 
ATOM     66  C   UNL     1      10.725   9.080   4.527  1.00  0.00     0.031 C 
ATOM     67  C   UNL     1      11.621   7.467   6.184  1.00  0.00     0.037 A 
BRANCH  54  68
ATOM     68  C   UNL     1      13.277   1.565   6.911  1.00  0.00     0.064 A 
ATOM     69  C   UNL     1      14.569   1.028   6.804  1.00  0.00     0.173 A 
ATOM     70  C   UNL     1      12.458   1.104   7.953  1.00  0.00     0.173 A 
ATOM     71  F   UNL     1      15.387   1.430   5.820  1.00  0.00    -0.203 F 
ATOM     72  C   UNL     1      15.014   0.051   7.691  1.00  0.00     0.198 A 
ATOM     73  C   UNL     1      12.916   0.146   8.854  1.00  0.00     0.198 A 
ATOM     74  F   UNL     1      11.217   1.591   8.104  1.00  0.00    -0.203 F 
ATOM     75  F   UNL     1      16.237  -0.476   7.545  1.00  0.00    -0.200 F 
ATOM     76  C   UNL     1      14.190  -0.384   8.719  1.00  0.00     0.200 A 
ATOM     77  F   UNL     1      12.124  -0.263   9.855  1.00  0.00    -0.200 F 
ATOM     78  F   UNL     1      14.624  -1.317   9.577  1.00  0.00    -0.200 F 
ENDBRANCH  54  68
BRANCH  55  79
ATOM     79  C   UNL     1       9.816   8.347   0.475  1.00  0.00     0.064 A 
ATOM     80  C   UNL     1      10.597   9.424   0.036  1.00  0.00     0.173 A 
ATOM     81  C   UNL     1       8.503   8.250  -0.008  1.00  0.00     0.173 A 
ATOM     82  F   UNL     1      11.851   9.570   0.488  1.00  0.00    -0.203 F 
ATOM     83  C   UNL     1      10.080  10.377  -0.840  1.00  0.00     0.198 A 
ATOM     84  C   UNL     1       7.996   9.188  -0.905  1.00  0.00     0.198 A 
ATOM     85  F   UNL     1       7.717   7.235   0.379  1.00  0.00    -0.203 F 
ATOM     86  F   UNL     1      10.835  11.419  -1.214  1.00  0.00    -0.200 F 
ATOM     87  C   UNL     1       8.783  10.254  -1.315  1.00  0.00     0.200 A 
ATOM     88  F   UNL     1       6.747   9.059  -1.372  1.00  0.00    -0.200 F 
ATOM     89  F   UNL     1       8.288  11.167  -2.162  1.00  0.00    -0.200 F 
ENDBRANCH  55  79
BRANCH  67  90
ATOM     90  C   UNL     1      11.611   8.570   7.201  1.00  0.00     0.064 A 
ATOM     91  C   UNL     1      10.415   9.042   7.760  1.00  0.00     0.173 A 
ATOM     92  C   UNL     1      12.815   9.133   7.652  1.00  0.00     0.173 A 
ATOM     93  F   UNL     1       9.237   8.548   7.348  1.00  0.00    -0.203 F 
ATOM     94  C   UNL     1      10.422  10.050   8.720  1.00  0.00     0.198 A 
ATOM     95  C   UNL     1      12.821  10.122   8.631  1.00  0.00     0.198 A 
ATOM     96  F   UNL     1      13.987   8.713   7.151  1.00  0.00    -0.203 F 
ATOM     97  F   UNL     1       9.265  10.515   9.210  1.00  0.00    -0.200 F 
ATOM     98  C   UNL     1      11.625  10.584   9.160  1.00  0.00     0.200 A 
ATOM     99  F   UNL     1      13.983  10.629   9.063  1.00  0.00    -0.200 F 
ATOM    100  F   UNL     1      11.630  11.549  10.089  1.00  0.00    -0.200 F 
ENDBRANCH  67  90
ENDBRANCH  41  42
ENDBRANCH  33  36
ENDBRANCH  31  32
ENDBRANCH  30  31
ENDBRANCH  29  30
ENDBRANCH  28  29
ENDBRANCH   1  28
TORSDOF 19
