REMARK SMILES CS(=O)(=O)c1ccc(NS(=O)(=O)c2ccc(F)c(C(=O)NCCCCCCNC(=O)c3ccc(-c4c5nc(c(-c6c(F)c(F)c(F)c(F)c6F)c6ccc([nH]6)c(-c6c(F)c(F)c(F)c(F)c6F)c6nc(c(-c7c(F)c(F)c(F)c(F)c7F)c7ccc4[nH]7)C=C6)C=C5)cc3)c2)cc1
REMARK SMILES IDX 23 1 22 2 21 3 19 4 20 5 18 7 13 8 14 9 94 10 15 11 16 12
REMARK SMILES IDX 17 13 10 14 11 15 12 16 9 17 8 19 5 20 6 21 96 22 7 23 95 24
REMARK SMILES IDX 2 25 1 26 3 27 4 28 24 29 25 30 26 31 27 32 28 33 29 34
REMARK SMILES IDX 30 36 31 37 32 38 93 39 33 40 92 41 34 42 35 43 36 44 86 45
REMARK SMILES IDX 37 46 91 47 85 48 87 49 38 50 90 51 84 52 83 53 39 55 71 56
REMARK SMILES IDX 51 57 70 58 52 59 55 60 69 61 88 62 53 63 54 64 68 66 89 67
REMARK SMILES IDX 56 68 40 69 41 70 49 71 42 72 43 73 47 74 50 75 44 76 45 77
REMARK SMILES IDX 48 78 46 79 72 80 73 81 81 82 74 83 75 84 79 85 82 86 76 87
REMARK SMILES IDX 77 88 80 89 78 90 57 91 58 92 66 93 59 94 60 95 64 96 67 97
REMARK SMILES IDX 61 98 62 99 65 100 63 101
REMARK H PARENT 21 6 9 18 28 35 87 54 55 65
REMARK Flexibility Score: inf
ROOT
ATOM      1  C   UNL     1       2.670 -12.124  -2.171  1.00  0.00     0.021 C 
ENDROOT
BRANCH   1   2
ATOM      2  C   UNL     1       1.465 -11.211  -2.352  1.00  0.00     0.116 C 
BRANCH   2   3
ATOM      3  N   UNL     1       0.548 -11.208  -1.232  1.00  0.00    -0.352 N 
ATOM      4  C   UNL     1      -0.289 -10.248  -0.710  1.00  0.00     0.254 C 
ATOM      5  O   UNL     1      -0.979 -10.604   0.245  1.00  0.00    -0.269 OA
ATOM      6  H   UNL     1       0.517 -12.064  -0.747  1.00  0.00     0.163 HD
BRANCH   4   7
ATOM      7  C   UNL     1      -0.391  -8.844  -1.219  1.00  0.00     0.076 A 
ATOM      8  C   UNL     1       0.060  -7.059  -2.820  1.00  0.00     0.088 A 
ATOM      9  C   UNL     1      -0.676  -6.152  -2.062  1.00  0.00     0.025 A 
ATOM     10  C   UNL     1       0.091  -8.415  -2.462  1.00  0.00     0.039 A 
ATOM     11  C   UNL     1      -1.195  -6.565  -0.838  1.00  0.00     0.041 A 
ATOM     12  C   UNL     1      -1.017  -7.883  -0.407  1.00  0.00     0.136 A 
ATOM     13  F   UNL     1      -1.460  -8.181   0.822  1.00  0.00    -0.206 F 
BRANCH   8  14
ATOM     14  S   UNL     1       0.979  -6.499  -4.242  1.00  0.00     0.261 S 
ATOM     15  O   UNL     1       0.133  -5.616  -5.004  1.00  0.00    -0.201 OA
ATOM     16  O   UNL     1       1.569  -7.676  -4.860  1.00  0.00    -0.201 OA
BRANCH  14  17
ATOM     17  N   UNL     1       2.316  -5.589  -3.666  1.00  0.00    -0.280 N 
ATOM     18  H   UNL     1       3.227  -5.781  -3.989  1.00  0.00     0.180 HD
BRANCH  17  19
ATOM     19  C   UNL     1       2.090  -4.545  -2.710  1.00  0.00     0.049 A 
ATOM     20  C   UNL     1       1.298  -2.633  -0.837  1.00  0.00     0.067 A 
ATOM     21  C   UNL     1       1.576  -3.939  -0.424  1.00  0.00     0.022 A 
ATOM     22  C   UNL     1       1.501  -2.254  -2.167  1.00  0.00     0.022 A 
ATOM     23  C   UNL     1       1.999  -4.884  -1.359  1.00  0.00     0.028 A 
ATOM     24  C   UNL     1       1.885  -3.222  -3.109  1.00  0.00     0.028 A 
BRANCH  20  25
ATOM     25  S   UNL     1       0.569  -1.523   0.348  1.00  0.00     0.175 S 
ATOM     26  C   UNL     1       1.193   0.095   0.005  1.00  0.00     0.163 C 
ATOM     27  O   UNL     1       1.078  -1.908   1.651  1.00  0.00    -0.224 OA
ATOM     28  O   UNL     1      -0.854  -1.529   0.068  1.00  0.00    -0.224 OA
ENDBRANCH  20  25
ENDBRANCH  17  19
ENDBRANCH  14  17
ENDBRANCH   8  14
ENDBRANCH   4   7
ENDBRANCH   2   3
ENDBRANCH   1   2
BRANCH   1  29
ATOM     29  C   UNL     1       2.398 -13.624  -2.073  1.00  0.00     0.002 C 
BRANCH  29  30
ATOM     30  C   UNL     1       1.592 -14.253  -3.211  1.00  0.00     0.002 C 
BRANCH  30  31
ATOM     31  C   UNL     1       2.066 -13.940  -4.631  1.00  0.00     0.021 C 
BRANCH  31  32
ATOM     32  C   UNL     1       3.539 -14.214  -4.910  1.00  0.00     0.116 C 
BRANCH  32  33
ATOM     33  N   UNL     1       3.891 -15.616  -4.760  1.00  0.00    -0.352 N 
ATOM     34  C   UNL     1       4.522 -16.448  -5.652  1.00  0.00     0.251 C 
ATOM     35  H   UNL     1       3.644 -16.026  -3.899  1.00  0.00     0.163 HD
ATOM     36  O   UNL     1       4.615 -17.651  -5.431  1.00  0.00    -0.269 OA
BRANCH  34  37
ATOM     37  C   UNL     1       5.072 -15.885  -6.903  1.00  0.00     0.039 A 
ATOM     38  C   UNL     1       4.766 -16.501  -8.119  1.00  0.00     0.014 A 
ATOM     39  C   UNL     1       5.866 -14.736  -6.871  1.00  0.00     0.014 A 
ATOM     40  C   UNL     1       5.199 -15.922  -9.314  1.00  0.00     0.010 A 
ATOM     41  C   UNL     1       6.234 -14.123  -8.063  1.00  0.00     0.010 A 
ATOM     42  C   UNL     1       5.904 -14.709  -9.296  1.00  0.00    -0.014 A 
BRANCH  42  43
ATOM     43  C   UNL     1       6.324 -14.026 -10.546  1.00  0.00     0.031 A 
ATOM     44  C   UNL     1       7.787 -13.832 -10.827  1.00  0.00     0.074 A 
ATOM     45  C   UNL     1       5.399 -13.495 -11.368  1.00  0.00     0.049 A 
ATOM     46  N   UNL     1       8.367 -13.124 -11.762  1.00  0.00    -0.248 NA
ATOM     47  C   UNL     1       8.725 -14.503  -9.913  1.00  0.00     0.031 C 
ATOM     48  C   UNL     1       3.950 -13.597 -11.190  1.00  0.00     0.029 A 
ATOM     49  N   UNL     1       5.541 -12.741 -12.507  1.00  0.00    -0.354 N 
ATOM     50  C   UNL     1       9.731 -13.245 -11.534  1.00  0.00     0.074 A 
ATOM     51  C   UNL     1       9.893 -14.053 -10.346  1.00  0.00     0.031 C 
ATOM     52  C   UNL     1       3.337 -12.936 -12.185  1.00  0.00     0.029 A 
ATOM     53  C   UNL     1       4.347 -12.321 -13.042  1.00  0.00     0.049 A 
ATOM     54  H   UNL     1       6.416 -12.522 -12.903  1.00  0.00     0.167 HD
ATOM     55  C   UNL     1      10.755 -12.739 -12.262  1.00  0.00     0.037 A 
ATOM     56  C   UNL     1       4.097 -11.512 -14.090  1.00  0.00     0.037 A 
ATOM     57  C   UNL     1      10.584 -11.955 -13.456  1.00  0.00     0.049 A 
ATOM     58  C   UNL     1       5.254 -10.935 -14.864  1.00  0.00     0.074 A 
ATOM     59  C   UNL     1      11.556 -11.439 -14.294  1.00  0.00     0.029 A 
ATOM     60  N   UNL     1       9.358 -11.571 -13.978  1.00  0.00    -0.354 N 
ATOM     61  N   UNL     1       6.540 -11.095 -14.670  1.00  0.00    -0.248 NA
ATOM     62  C   UNL     1       4.925 -10.064 -16.002  1.00  0.00     0.031 C 
ATOM     63  C   UNL     1      10.920 -10.696 -15.293  1.00  0.00     0.029 A 
ATOM     64  C   UNL     1       9.550 -10.804 -15.115  1.00  0.00     0.049 A 
ATOM     65  H   UNL     1       8.481 -11.809 -13.598  1.00  0.00     0.167 HD
ATOM     66  C   UNL     1       7.171 -10.384 -15.682  1.00  0.00     0.074 A 
ATOM     67  C   UNL     1       6.127  -9.788 -16.488  1.00  0.00     0.031 C 
ATOM     68  C   UNL     1       8.497 -10.243 -15.923  1.00  0.00     0.037 A 
BRANCH  55  69
ATOM     69  C   UNL     1      12.152 -13.013 -11.784  1.00  0.00     0.064 A 
ATOM     70  C   UNL     1      12.708 -14.301 -11.827  1.00  0.00     0.173 A 
ATOM     71  C   UNL     1      12.959 -11.967 -11.312  1.00  0.00     0.173 A 
ATOM     72  F   UNL     1      11.976 -15.338 -12.260  1.00  0.00    -0.203 F 
ATOM     73  C   UNL     1      14.008 -14.536 -11.385  1.00  0.00     0.198 A 
ATOM     74  C   UNL     1      14.270 -12.199 -10.903  1.00  0.00     0.198 A 
ATOM     75  F   UNL     1      12.481 -10.714 -11.256  1.00  0.00    -0.203 F 
ATOM     76  F   UNL     1      14.498 -15.783 -11.385  1.00  0.00    -0.200 F 
ATOM     77  C   UNL     1      14.790 -13.484 -10.931  1.00  0.00     0.200 A 
ATOM     78  F   UNL     1      15.030 -11.179 -10.481  1.00  0.00    -0.200 F 
ATOM     79  F   UNL     1      16.043 -13.711 -10.515  1.00  0.00    -0.200 F 
ENDBRANCH  55  69
BRANCH  56  80
ATOM     80  C   UNL     1       2.694 -11.204 -14.474  1.00  0.00     0.064 A 
ATOM     81  C   UNL     1       2.155 -11.686 -15.675  1.00  0.00     0.173 A 
ATOM     82  C   UNL     1       1.866 -10.419 -13.658  1.00  0.00     0.173 A 
ATOM     83  F   UNL     1       2.914 -12.423 -16.500  1.00  0.00    -0.203 F 
ATOM     84  C   UNL     1       0.850 -11.378 -16.055  1.00  0.00     0.198 A 
ATOM     85  C   UNL     1       0.551 -10.137 -14.024  1.00  0.00     0.198 A 
ATOM     86  F   UNL     1       2.330  -9.935 -12.496  1.00  0.00    -0.203 F 
ATOM     87  F   UNL     1       0.378 -11.812 -17.232  1.00  0.00    -0.200 F 
ATOM     88  C   UNL     1       0.047 -10.609 -15.227  1.00  0.00     0.200 A 
ATOM     89  F   UNL     1      -0.226  -9.406 -13.213  1.00  0.00    -0.200 F 
ATOM     90  F   UNL     1      -1.208 -10.316 -15.591  1.00  0.00    -0.200 F 
ENDBRANCH  56  80
BRANCH  68  91
ATOM     91  C   UNL     1       8.909  -9.469 -17.142  1.00  0.00     0.064 A 
ATOM     92  C   UNL     1       8.808  -8.072 -17.201  1.00  0.00     0.173 A 
ATOM     93  C   UNL     1       9.501 -10.134 -18.228  1.00  0.00     0.173 A 
ATOM     94  F   UNL     1       8.238  -7.393 -16.195  1.00  0.00    -0.203 F 
ATOM     95  C   UNL     1       9.277  -7.370 -18.308  1.00  0.00     0.198 A 
ATOM     96  C   UNL     1       9.996  -9.426 -19.318  1.00  0.00     0.198 A 
ATOM     97  F   UNL     1       9.627 -11.470 -18.215  1.00  0.00    -0.203 F 
ATOM     98  F   UNL     1       9.146  -6.037 -18.358  1.00  0.00    -0.200 F 
ATOM     99  C   UNL     1       9.882  -8.045 -19.359  1.00  0.00     0.200 A 
ATOM    100  F   UNL     1      10.595 -10.079 -20.323  1.00  0.00    -0.200 F 
ATOM    101  F   UNL     1      10.356  -7.364 -20.411  1.00  0.00    -0.200 F 
ENDBRANCH  68  91
ENDBRANCH  42  43
ENDBRANCH  34  37
ENDBRANCH  32  33
ENDBRANCH  31  32
ENDBRANCH  30  31
ENDBRANCH  29  30
ENDBRANCH   1  29
TORSDOF 17
