REMARK SMILES Nc1ccc(-c2cc(Cl)cc3c2O[C@H](C(F)(F)F)C(C(=O)NCCCCCCNC(=O)c2ccc(-c4c5nc(c(-c6c(F)c(F)c(F)c(F)c6F)c6ccc([nH]6)c(-c6c(F)c(F)c(F)c(F)c6F)c6nc(c(-c7c(F)c(F)c(F)c(F)c7F)c7ccc4[nH]7)C=C6)C=C5)cc2)=C3)cc1
REMARK SMILES IDX 25 1 24 2 23 3 22 4 20 5 21 6 19 8 6 9 7 10 12 11 8 12 11 13
REMARK SMILES IDX 13 14 9 15 10 16 95 17 14 18 5 19 2 20 3 21 97 22 4 23 96 24
REMARK SMILES IDX 1 25 15 28 16 29 17 30 18 31 26 32 27 33 28 34 29 35 30 36
REMARK SMILES IDX 31 38 32 39 33 40 94 41 34 42 93 43 35 44 36 45 37 46 87 47
REMARK SMILES IDX 38 48 92 49 86 50 88 51 39 52 91 53 85 54 84 55 40 57 72 58
REMARK SMILES IDX 52 59 71 60 53 61 56 62 70 63 89 64 54 65 55 66 69 68 90 69
REMARK SMILES IDX 57 70 41 71 42 72 50 73 43 74 44 75 48 76 51 77 45 78 46 79
REMARK SMILES IDX 49 80 47 81 73 82 74 83 82 84 75 85 76 86 80 87 83 88 77 89
REMARK SMILES IDX 78 90 81 91 79 92 58 93 59 94 67 95 60 96 61 97 65 98 68 99
REMARK SMILES IDX 62 100 63 101 66 102 64 103
REMARK H PARENT 22 7 1 26 1 27 29 37 88 56 56 67
REMARK Flexibility Score: inf
ROOT
ATOM      1  C   UNL     1      -4.525  -3.308   8.205  1.00  0.00     0.002 C 
ENDROOT
BRANCH   1   2
ATOM      2  C   UNL     1      -4.008  -2.567   6.968  1.00  0.00     0.021 C 
BRANCH   2   3
ATOM      3  C   UNL     1      -4.336  -3.258   5.646  1.00  0.00     0.116 C 
BRANCH   3   4
ATOM      4  N   UNL     1      -5.662  -2.907   5.166  1.00  0.00    -0.352 N 
ATOM      5  C   UNL     1      -6.202  -2.298   4.084  1.00  0.00     0.251 C 
ATOM      6  O   UNL     1      -7.436  -2.241   4.077  1.00  0.00    -0.270 OA
ATOM      7  H   UNL     1      -6.358  -3.191   5.801  1.00  0.00     0.163 HD
BRANCH   5   8
ATOM      8  C   UNL     1      -5.435  -1.712   2.944  1.00  0.00     0.067 C 
ATOM      9  C   UNL     1      -3.373   0.132  -0.240  1.00  0.00     0.026 A 
ATOM     10  C   UNL     1      -4.113   0.693  -1.290  1.00  0.00     0.033 A 
ATOM     11  C   UNL     1      -4.080  -0.428   0.843  1.00  0.00     0.135 A 
ATOM     12  C   UNL     1      -5.509   0.684  -1.251  1.00  0.00     0.042 A 
ATOM     13  C   UNL     1      -5.478  -0.447   0.881  1.00  0.00     0.019 A 
ATOM     14  O   UNL     1      -3.339  -0.889   1.897  1.00  0.00    -0.475 OA
ATOM     15  Cl  UNL     1      -6.398   1.387  -2.548  1.00  0.00    -0.084 Cl
ATOM     16  C   UNL     1      -6.195   0.116  -0.176  1.00  0.00     0.032 A 
ATOM     17  C   UNL     1      -6.156  -1.023   2.039  1.00  0.00     0.025 C 
ATOM     18  C   UNL     1      -3.956  -1.876   2.754  1.00  0.00     0.314 C 
BRANCH   9  19
ATOM     19  C   UNL     1      -1.900   0.121  -0.267  1.00  0.00    -0.014 A 
ATOM     20  C   UNL     1       0.931   0.075  -0.136  1.00  0.00     0.031 A 
ATOM     21  C   UNL     1       0.203  -1.113  -0.191  1.00  0.00     0.026 A 
ATOM     22  C   UNL     1       0.234   1.285  -0.129  1.00  0.00     0.026 A 
ATOM     23  C   UNL     1      -1.193  -1.091  -0.273  1.00  0.00     0.011 A 
ATOM     24  C   UNL     1      -1.165   1.312  -0.206  1.00  0.00     0.011 A 
BRANCH  20  25
ATOM     25  N   UNL     1       2.304   0.050   0.043  1.00  0.00    -0.399 N 
ATOM     26  H   UNL     1       2.785  -0.809   0.036  1.00  0.00     0.156 HD
ATOM     27  H   UNL     1       2.798   0.891   0.176  1.00  0.00     0.156 HD
ENDBRANCH  20  25
ENDBRANCH   9  19
BRANCH  18  28
ATOM     28  C   UNL     1      -3.561  -3.284   2.274  1.00  0.00     0.429 C 
ATOM     29  F   UNL     1      -2.227  -3.482   2.421  1.00  0.00    -0.167 F 
ATOM     30  F   UNL     1      -4.170  -4.265   2.980  1.00  0.00    -0.167 F 
ATOM     31  F   UNL     1      -3.858  -3.492   0.971  1.00  0.00    -0.167 F 
ENDBRANCH  18  28
ENDBRANCH   5   8
ENDBRANCH   3   4
ENDBRANCH   2   3
ENDBRANCH   1   2
BRANCH   1  32
ATOM     32  C   UNL     1      -4.053  -4.762   8.354  1.00  0.00     0.002 C 
BRANCH  32  33
ATOM     33  C   UNL     1      -2.549  -4.992   8.189  1.00  0.00     0.021 C 
BRANCH  33  34
ATOM     34  C   UNL     1      -1.669  -4.207   9.154  1.00  0.00     0.116 C 
BRANCH  34  35
ATOM     35  N   UNL     1      -1.883  -4.587  10.541  1.00  0.00    -0.352 N 
ATOM     36  C   UNL     1      -0.965  -4.945  11.497  1.00  0.00     0.251 C 
ATOM     37  H   UNL     1      -2.822  -4.587  10.838  1.00  0.00     0.163 HD
ATOM     38  O   UNL     1      -1.334  -5.381  12.583  1.00  0.00    -0.269 OA
BRANCH  36  39
ATOM     39  C   UNL     1       0.479  -4.836  11.201  1.00  0.00     0.039 A 
ATOM     40  C   UNL     1       0.998  -3.688  10.598  1.00  0.00     0.014 A 
ATOM     41  C   UNL     1       1.319  -5.909  11.512  1.00  0.00     0.014 A 
ATOM     42  C   UNL     1       2.318  -3.678  10.161  1.00  0.00     0.010 A 
ATOM     43  C   UNL     1       2.666  -5.865  11.143  1.00  0.00     0.010 A 
ATOM     44  C   UNL     1       3.164  -4.769  10.421  1.00  0.00    -0.014 A 
BRANCH  44  45
ATOM     45  C   UNL     1       4.560  -4.747   9.915  1.00  0.00     0.031 A 
ATOM     46  C   UNL     1       5.005  -5.708   8.848  1.00  0.00     0.074 A 
ATOM     47  C   UNL     1       5.410  -3.811  10.374  1.00  0.00     0.049 A 
ATOM     48  N   UNL     1       6.171  -5.810   8.262  1.00  0.00    -0.248 NA
ATOM     49  C   UNL     1       4.011  -6.686   8.378  1.00  0.00     0.031 C 
ATOM     50  C   UNL     1       5.087  -2.812  11.393  1.00  0.00     0.029 A 
ATOM     51  N   UNL     1       6.704  -3.523  10.023  1.00  0.00    -0.354 N 
ATOM     52  C   UNL     1       6.056  -6.865   7.366  1.00  0.00     0.074 A 
ATOM     53  C   UNL     1       4.718  -7.396   7.509  1.00  0.00     0.031 C 
ATOM     54  C   UNL     1       6.129  -1.982  11.539  1.00  0.00     0.029 A 
ATOM     55  C   UNL     1       7.215  -2.426  10.670  1.00  0.00     0.049 A 
ATOM     56  H   UNL     1       7.217  -4.053   9.371  1.00  0.00     0.167 HD
ATOM     57  C   UNL     1       6.978  -7.336   6.492  1.00  0.00     0.037 A 
ATOM     58  C   UNL     1       8.424  -1.842  10.576  1.00  0.00     0.037 A 
ATOM     59  C   UNL     1       8.305  -6.798   6.342  1.00  0.00     0.049 A 
ATOM     60  C   UNL     1       9.449  -2.421   9.645  1.00  0.00     0.074 A 
ATOM     61  C   UNL     1       9.308  -7.200   5.477  1.00  0.00     0.029 A 
ATOM     62  N   UNL     1       8.815  -5.737   7.077  1.00  0.00    -0.354 N 
ATOM     63  N   UNL     1       9.331  -3.422   8.809  1.00  0.00    -0.248 NA
ATOM     64  C   UNL     1      10.779  -1.798   9.657  1.00  0.00     0.031 C 
ATOM     65  C   UNL     1      10.437  -6.410   5.717  1.00  0.00     0.029 A 
ATOM     66  C   UNL     1      10.125  -5.485   6.701  1.00  0.00     0.049 A 
ATOM     67  H   UNL     1       8.318  -5.236   7.765  1.00  0.00     0.167 HD
ATOM     68  C   UNL     1      10.566  -3.550   8.191  1.00  0.00     0.074 A 
ATOM     69  C   UNL     1      11.415  -2.508   8.734  1.00  0.00     0.031 C 
ATOM     70  C   UNL     1      10.961  -4.453   7.260  1.00  0.00     0.037 A 
BRANCH  57  71
ATOM     71  C   UNL     1       6.585  -8.505   5.635  1.00  0.00     0.064 A 
ATOM     72  C   UNL     1       5.669  -8.367   4.580  1.00  0.00     0.173 A 
ATOM     73  C   UNL     1       7.154  -9.769   5.848  1.00  0.00     0.173 A 
ATOM     74  F   UNL     1       5.087  -7.182   4.343  1.00  0.00    -0.203 F 
ATOM     75  C   UNL     1       5.318  -9.458   3.789  1.00  0.00     0.198 A 
ATOM     76  C   UNL     1       6.821 -10.852   5.038  1.00  0.00     0.198 A 
ATOM     77  F   UNL     1       8.040  -9.954   6.838  1.00  0.00    -0.203 F 
ATOM     78  F   UNL     1       4.406  -9.312   2.817  1.00  0.00    -0.200 F 
ATOM     79  C   UNL     1       5.898 -10.697   4.014  1.00  0.00     0.200 A 
ATOM     80  F   UNL     1       7.390 -12.046   5.249  1.00  0.00    -0.200 F 
ATOM     81  F   UNL     1       5.561 -11.745   3.249  1.00  0.00    -0.200 F 
ENDBRANCH  57  71
BRANCH  58  82
ATOM     82  C   UNL     1       8.705  -0.627  11.380  1.00  0.00     0.064 A 
ATOM     83  C   UNL     1       8.786   0.630  10.769  1.00  0.00     0.173 A 
ATOM     84  C   UNL     1       8.829  -0.687  12.776  1.00  0.00     0.173 A 
ATOM     85  F   UNL     1       8.691   0.734   9.435  1.00  0.00    -0.203 F 
ATOM     86  C   UNL     1       8.971   1.785  11.526  1.00  0.00     0.198 A 
ATOM     87  C   UNL     1       8.990   0.470  13.534  1.00  0.00     0.198 A 
ATOM     88  F   UNL     1       8.754  -1.869  13.406  1.00  0.00    -0.203 F 
ATOM     89  F   UNL     1       9.057   2.976  10.917  1.00  0.00    -0.200 F 
ATOM     90  C   UNL     1       9.061   1.706  12.908  1.00  0.00     0.200 A 
ATOM     91  F   UNL     1       9.059   0.390  14.869  1.00  0.00    -0.200 F 
ATOM     92  F   UNL     1       9.213   2.819  13.637  1.00  0.00    -0.200 F 
ENDBRANCH  58  82
BRANCH  70  93
ATOM     93  C   UNL     1      12.374  -4.361   6.767  1.00  0.00     0.064 A 
ATOM     94  C   UNL     1      13.451  -4.782   7.560  1.00  0.00     0.173 A 
ATOM     95  C   UNL     1      12.649  -3.905   5.469  1.00  0.00     0.173 A 
ATOM     96  F   UNL     1      13.239  -5.210   8.813  1.00  0.00    -0.203 F 
ATOM     97  C   UNL     1      14.755  -4.739   7.074  1.00  0.00     0.198 A 
ATOM     98  C   UNL     1      13.951  -3.887   4.978  1.00  0.00     0.198 A 
ATOM     99  F   UNL     1      11.651  -3.497   4.670  1.00  0.00    -0.203 F 
ATOM    100  F   UNL     1      15.774  -5.116   7.860  1.00  0.00    -0.200 F 
ATOM    101  C   UNL     1      15.003  -4.300   5.782  1.00  0.00     0.200 A 
ATOM    102  F   UNL     1      14.188  -3.474   3.725  1.00  0.00    -0.200 F 
ATOM    103  F   UNL     1      16.258  -4.271   5.312  1.00  0.00    -0.200 F 
ENDBRANCH  70  93
ENDBRANCH  44  45
ENDBRANCH  36  39
ENDBRANCH  34  35
ENDBRANCH  33  34
ENDBRANCH  32  33
ENDBRANCH   1  32
TORSDOF 16
