REMARK SMILES COc1cc(OC)cc(-c2cc3nc(C)c(CCC(=O)NCCCCCCNC(=O)c4ccc(-c5c6nc(c(-c7c(F)c(F)c(F)c(F)c7F)c7ccc([nH]7)c(-c7c(F)c(F)c(F)c(F)c7F)c7nc(c(-c8c(F)c(F)c(F)c(F)c8F)c8ccc5[nH]8)C=C7)C=C6)cc4)c(C)n3n2)c1
REMARK SMILES IDX 23 1 22 2 21 3 19 4 20 5 18 7 17 8 16 9 10 10 11 11 97 12
REMARK SMILES IDX 12 13 96 14 13 15 94 16 14 17 95 18 15 19 9 20 3 21 4 22
REMARK SMILES IDX 98 23 5 24 8 25 2 26 1 27 6 28 7 29 24 30 25 31 26 32 27 33
REMARK SMILES IDX 28 34 29 35 30 37 31 38 32 39 93 40 33 41 92 42 34 43 35 44
REMARK SMILES IDX 36 45 86 46 37 47 91 48 85 49 87 50 38 51 90 52 84 53 83 54
REMARK SMILES IDX 39 56 71 57 51 58 70 59 52 60 55 61 69 62 88 63 53 64 54 65
REMARK SMILES IDX 68 67 89 68 56 69 40 70 41 71 49 72 42 73 43 74 47 75 50 76
REMARK SMILES IDX 44 77 45 78 48 79 46 80 72 81 73 82 81 83 74 84 75 85 79 86
REMARK SMILES IDX 82 87 76 88 77 89 80 90 78 91 57 92 58 93 66 94 59 95 60 96
REMARK SMILES IDX 64 97 67 98 61 99 62 100 65 101 63 102
REMARK H PARENT 21 6 28 36 87 55 55 66
REMARK Flexibility Score: inf
ROOT
ATOM      1  C   UNL     1       6.739   2.387  -0.604  1.00  0.00     0.021 C 
ENDROOT
BRANCH   1   2
ATOM      2  C   UNL     1       7.991   1.747  -0.031  1.00  0.00     0.116 C 
BRANCH   2   3
ATOM      3  N   UNL     1       8.890   1.341  -1.107  1.00  0.00    -0.356 N 
ATOM      4  C   UNL     1       9.890   2.031  -1.729  1.00  0.00     0.220 C 
ATOM      5  O   UNL     1      10.386   1.555  -2.751  1.00  0.00    -0.275 OA
ATOM      6  H   UNL     1       8.755   0.422  -1.435  1.00  0.00     0.163 HD
BRANCH   4   7
ATOM      7  C   UNL     1      10.400   3.346  -1.166  1.00  0.00     0.105 C 
BRANCH   7   8
ATOM      8  C   UNL     1      10.191   4.532  -2.123  1.00  0.00     0.049 C 
BRANCH   8   9
ATOM      9  C   UNL     1       8.744   4.955  -2.231  1.00  0.00    -0.005 A 
ATOM     10  C   UNL     1       4.337   4.311  -2.882  1.00  0.00     0.095 A 
ATOM     11  C   UNL     1       4.731   5.149  -1.820  1.00  0.00     0.080 A 
ATOM     12  N   UNL     1       5.409   4.137  -3.687  1.00  0.00    -0.166 NA
ATOM     13  C   UNL     1       6.057   5.426  -1.915  1.00  0.00     0.156 A 
ATOM     14  N   UNL     1       6.486   4.737  -3.030  1.00  0.00    -0.219 N 
ATOM     15  N   UNL     1       6.866   6.049  -1.020  1.00  0.00    -0.234 NA
ATOM     16  C   UNL     1       7.879   4.558  -3.211  1.00  0.00     0.046 A 
ATOM     17  C   UNL     1       8.139   5.808  -1.127  1.00  0.00     0.045 A 
ATOM     18  C   UNL     1       8.268   3.775  -4.426  1.00  0.00     0.067 C 
ATOM     19  C   UNL     1       8.998   6.455  -0.050  1.00  0.00     0.067 C 
BRANCH  10  20
ATOM     20  C   UNL     1       2.973   3.707  -3.086  1.00  0.00     0.009 A 
ATOM     21  C   UNL     1       1.278   1.957  -2.664  1.00  0.00     0.123 A 
ATOM     22  C   UNL     1       0.295   2.744  -3.233  1.00  0.00     0.092 A 
ATOM     23  C   UNL     1       2.594   2.440  -2.583  1.00  0.00     0.057 A 
ATOM     24  C   UNL     1       0.625   3.986  -3.769  1.00  0.00     0.123 A 
ATOM     25  C   UNL     1       1.957   4.442  -3.720  1.00  0.00     0.057 A 
BRANCH  21  26
ATOM     26  O   UNL     1       0.956   0.649  -2.407  1.00  0.00    -0.497 OA
ATOM     27  C   UNL     1       0.884   0.296  -1.032  1.00  0.00     0.278 C 
ENDBRANCH  21  26
BRANCH  24  28
ATOM     28  O   UNL     1      -0.453   4.638  -4.299  1.00  0.00    -0.497 OA
ATOM     29  C   UNL     1      -0.263   5.918  -4.873  1.00  0.00     0.278 C 
ENDBRANCH  24  28
ENDBRANCH  10  20
ENDBRANCH   8   9
ENDBRANCH   7   8
ENDBRANCH   4   7
ENDBRANCH   2   3
ENDBRANCH   1   2
BRANCH   1  30
ATOM     30  C   UNL     1       5.578   1.452  -0.876  1.00  0.00     0.002 C 
BRANCH  30  31
ATOM     31  C   UNL     1       4.601   1.108   0.263  1.00  0.00     0.002 C 
BRANCH  31  32
ATOM     32  C   UNL     1       4.076   2.137   1.292  1.00  0.00     0.021 C 
BRANCH  32  33
ATOM     33  C   UNL     1       3.129   3.300   0.911  1.00  0.00     0.116 C 
BRANCH  33  34
ATOM     34  N   UNL     1       1.690   3.057   0.694  1.00  0.00    -0.352 N 
ATOM     35  C   UNL     1       0.594   3.856   0.293  1.00  0.00     0.251 C 
ATOM     36  H   UNL     1       1.434   2.123   0.868  1.00  0.00     0.163 HD
ATOM     37  O   UNL     1      -0.525   3.382   0.442  1.00  0.00    -0.269 OA
BRANCH  35  38
ATOM     38  C   UNL     1       0.690   5.216  -0.354  1.00  0.00     0.039 A 
ATOM     39  C   UNL     1      -0.405   5.940  -0.858  1.00  0.00     0.014 A 
ATOM     40  C   UNL     1       1.913   5.814  -0.507  1.00  0.00     0.014 A 
ATOM     41  C   UNL     1      -0.206   7.137  -1.599  1.00  0.00     0.010 A 
ATOM     42  C   UNL     1       2.143   6.894  -1.349  1.00  0.00     0.010 A 
ATOM     43  C   UNL     1       1.091   7.561  -1.931  1.00  0.00    -0.014 A 
BRANCH  43  44
ATOM     44  C   UNL     1       1.431   8.882  -2.486  1.00  0.00     0.031 A 
ATOM     45  C   UNL     1       1.190   9.929  -1.458  1.00  0.00     0.074 A 
ATOM     46  C   UNL     1       2.236   9.177  -3.539  1.00  0.00     0.049 A 
ATOM     47  N   UNL     1       0.234  10.794  -1.425  1.00  0.00    -0.248 NA
ATOM     48  C   UNL     1       1.968   9.845  -0.205  1.00  0.00     0.031 C 
ATOM     49  C   UNL     1       2.981   8.270  -4.410  1.00  0.00     0.029 A 
ATOM     50  N   UNL     1       2.636  10.404  -4.004  1.00  0.00    -0.354 N 
ATOM     51  C   UNL     1       0.422  11.489  -0.236  1.00  0.00     0.074 A 
ATOM     52  C   UNL     1       1.282  10.677   0.576  1.00  0.00     0.031 C 
ATOM     53  C   UNL     1       3.858   8.962  -5.175  1.00  0.00     0.029 A 
ATOM     54  C   UNL     1       3.681  10.379  -4.931  1.00  0.00     0.049 A 
ATOM     55  H   UNL     1       2.216  11.243  -3.706  1.00  0.00     0.167 HD
ATOM     56  C   UNL     1       0.129  12.814  -0.147  1.00  0.00     0.037 A 
ATOM     57  C   UNL     1       4.373  11.443  -5.424  1.00  0.00     0.037 A 
ATOM     58  C   UNL     1      -0.698  13.227  -1.257  1.00  0.00     0.049 A 
ATOM     59  C   UNL     1       3.581  12.660  -5.121  1.00  0.00     0.074 A 
ATOM     60  C   UNL     1      -1.916  12.813  -1.765  1.00  0.00     0.029 A 
ATOM     61  N   UNL     1      -0.096  13.930  -2.272  1.00  0.00    -0.354 N 
ATOM     62  N   UNL     1       2.441  12.951  -5.678  1.00  0.00    -0.248 NA
ATOM     63  C   UNL     1       3.858  13.342  -3.867  1.00  0.00     0.031 C 
ATOM     64  C   UNL     1      -1.770  12.874  -3.183  1.00  0.00     0.029 A 
ATOM     65  C   UNL     1      -0.504  13.389  -3.464  1.00  0.00     0.049 A 
ATOM     66  H   UNL     1       0.521  14.689  -2.163  1.00  0.00     0.167 HD
ATOM     67  C   UNL     1       1.679  13.483  -4.650  1.00  0.00     0.074 A 
ATOM     68  C   UNL     1       2.632  13.791  -3.588  1.00  0.00     0.031 C 
ATOM     69  C   UNL     1       0.321  13.343  -4.648  1.00  0.00     0.037 A 
BRANCH  56  70
ATOM     70  C   UNL     1       0.918  13.798   0.692  1.00  0.00     0.064 A 
ATOM     71  C   UNL     1       0.450  15.123   0.785  1.00  0.00     0.173 A 
ATOM     72  C   UNL     1       2.233  13.591   1.173  1.00  0.00     0.173 A 
ATOM     73  F   UNL     1      -0.778  15.444   0.351  1.00  0.00    -0.203 F 
ATOM     74  C   UNL     1       1.265  16.166   1.232  1.00  0.00     0.198 A 
ATOM     75  C   UNL     1       3.021  14.625   1.674  1.00  0.00     0.198 A 
ATOM     76  F   UNL     1       2.867  12.418   1.083  1.00  0.00    -0.203 F 
ATOM     77  F   UNL     1       0.819  17.427   1.170  1.00  0.00    -0.200 F 
ATOM     78  C   UNL     1       2.552  15.918   1.670  1.00  0.00     0.200 A 
ATOM     79  F   UNL     1       4.272  14.360   2.079  1.00  0.00    -0.200 F 
ATOM     80  F   UNL     1       3.356  16.923   2.037  1.00  0.00    -0.200 F 
ENDBRANCH  56  70
BRANCH  57  81
ATOM     81  C   UNL     1       5.781  11.548  -5.900  1.00  0.00     0.064 A 
ATOM     82  C   UNL     1       6.224  12.669  -6.631  1.00  0.00     0.173 A 
ATOM     83  C   UNL     1       6.788  10.704  -5.397  1.00  0.00     0.173 A 
ATOM     84  F   UNL     1       5.339  13.552  -7.117  1.00  0.00    -0.203 F 
ATOM     85  C   UNL     1       7.586  12.947  -6.808  1.00  0.00     0.198 A 
ATOM     86  C   UNL     1       8.147  10.978  -5.581  1.00  0.00     0.198 A 
ATOM     87  F   UNL     1       6.479   9.650  -4.629  1.00  0.00    -0.203 F 
ATOM     88  F   UNL     1       7.965  14.063  -7.446  1.00  0.00    -0.200 F 
ATOM     89  C   UNL     1       8.546  12.108  -6.271  1.00  0.00     0.200 A 
ATOM     90  F   UNL     1       9.067  10.178  -5.023  1.00  0.00    -0.200 F 
ATOM     91  F   UNL     1       9.848  12.408  -6.377  1.00  0.00    -0.200 F 
ENDBRANCH  57  81
BRANCH  69  92
ATOM     92  C   UNL     1      -0.334  12.889  -5.924  1.00  0.00     0.064 A 
ATOM     93  C   UNL     1      -0.098  11.649  -6.544  1.00  0.00     0.173 A 
ATOM     94  C   UNL     1      -1.335  13.701  -6.473  1.00  0.00     0.173 A 
ATOM     95  F   UNL     1       0.771  10.771  -6.028  1.00  0.00    -0.203 F 
ATOM     96  C   UNL     1      -0.801  11.265  -7.686  1.00  0.00     0.198 A 
ATOM     97  C   UNL     1      -2.063  13.298  -7.589  1.00  0.00     0.198 A 
ATOM     98  F   UNL     1      -1.639  14.875  -5.897  1.00  0.00    -0.203 F 
ATOM     99  F   UNL     1      -0.545  10.084  -8.268  1.00  0.00    -0.200 F 
ATOM    100  C   UNL     1      -1.788  12.087  -8.203  1.00  0.00     0.200 A 
ATOM    101  F   UNL     1      -3.050  14.076  -8.056  1.00  0.00    -0.200 F 
ATOM    102  F   UNL     1      -2.493  11.701  -9.275  1.00  0.00    -0.200 F 
ENDBRANCH  69  92
ENDBRANCH  43  44
ENDBRANCH  35  38
ENDBRANCH  33  34
ENDBRANCH  32  33
ENDBRANCH  31  32
ENDBRANCH  30  31
ENDBRANCH   1  30
TORSDOF 18
