REMARK SMILES COc1ccc(-n2c(SCc3cn(-c4ccc(C(=O)NCCCCCCNC(=O)c5ccc(-c6c7nc(c(-c8c(F)c(F)c(F)c(F)c8F)c8ccc([nH]8)c(-c8c(F)c(F)c(F)c(F)c8F)c8nc(c(-c9c(F)c(F)c(F)c(F)c9F)c9ccc6[nH]9)C=C8)C=C7)cc5)cc4)nn3)nc3ccccc3c2=O)cc1
REMARK SMILES IDX 21 1 20 2 18 3 19 4 17 6 14 7 15 8 94 9 16 10 93 11 13 12
REMARK SMILES IDX 11 13 12 14 96 15 95 16 10 17 9 18 8 19 7 20 104 21 97 22
REMARK SMILES IDX 103 23 105 24 98 25 102 26 99 27 101 28 100 29 6 30 3 31
REMARK SMILES IDX 4 32 107 33 5 34 106 35 2 36 1 37 22 38 23 39 24 40 25 41
REMARK SMILES IDX 26 42 27 43 28 44 29 46 30 47 31 48 92 49 32 50 91 51 33 52
REMARK SMILES IDX 34 53 35 54 85 55 36 56 90 57 84 58 86 59 37 60 89 61 83 62
REMARK SMILES IDX 82 63 38 65 70 66 50 67 69 68 51 69 54 70 68 71 87 72 52 73
REMARK SMILES IDX 53 74 67 76 88 77 55 78 39 79 40 80 48 81 41 82 42 83 46 84
REMARK SMILES IDX 49 85 43 86 44 87 47 88 45 89 71 90 72 91 80 92 73 93 74 94
REMARK SMILES IDX 78 95 81 96 75 97 76 98 79 99 77 100 56 101 57 102 65 103
REMARK SMILES IDX 58 104 59 105 63 106 66 107 60 108 61 109 64 110 62 111
REMARK H PARENT 20 5 27 45 86 64 54 75
REMARK Flexibility Score: inf
ROOT
ATOM      1  C   UNL     1      -2.602   0.366   4.116  1.00  0.00     0.116 C 
ENDROOT
BRANCH   1   2
ATOM      2  N   UNL     1      -3.606   1.306   3.655  1.00  0.00    -0.352 N 
ATOM      3  C   UNL     1      -3.551   2.344   2.760  1.00  0.00     0.251 C 
ATOM      4  O   UNL     1      -4.583   2.970   2.529  1.00  0.00    -0.269 OA
ATOM      5  H   UNL     1      -4.493   1.175   4.062  1.00  0.00     0.163 HD
BRANCH   3   6
ATOM      6  C   UNL     1      -2.309   2.694   2.027  1.00  0.00     0.039 A 
ATOM      7  C   UNL     1      -0.061   3.263   0.507  1.00  0.00     0.066 A 
ATOM      8  C   UNL     1      -1.317   3.634   0.023  1.00  0.00     0.029 A 
ATOM      9  C   UNL     1       0.093   2.667   1.754  1.00  0.00     0.029 A 
ATOM     10  C   UNL     1      -2.444   3.313   0.774  1.00  0.00     0.016 A 
ATOM     11  C   UNL     1      -1.030   2.456   2.534  1.00  0.00     0.016 A 
BRANCH   7  12
ATOM     12  N   UNL     1       1.087   3.542  -0.232  1.00  0.00    -0.220 N 
ATOM     13  C   UNL     1       3.085   3.574  -1.043  1.00  0.00     0.093 A 
ATOM     14  C   UNL     1       2.261   2.838  -0.233  1.00  0.00     0.141 A 
ATOM     15  N   UNL     1       2.428   4.714  -1.419  1.00  0.00    -0.134 NA
ATOM     16  N   UNL     1       1.177   4.627  -1.014  1.00  0.00    -0.062 NA
BRANCH  13  17
ATOM     17  C   UNL     1       4.420   3.217  -1.544  1.00  0.00     0.138 C 
BRANCH  17  18
ATOM     18  S   UNL     1       5.035   4.301  -2.817  1.00  0.00    -0.081 SA
BRANCH  18  19
ATOM     19  C   UNL     1       3.565   4.642  -3.830  1.00  0.00     0.176 A 
ATOM     20  N   UNL     1       3.292   3.614  -4.710  1.00  0.00    -0.255 N 
ATOM     21  C   UNL     1       3.904   3.705  -5.954  1.00  0.00     0.266 A 
ATOM     22  N   UNL     1       3.471   5.865  -4.261  1.00  0.00    -0.223 NA
ATOM     23  C   UNL     1       4.729   4.951  -6.124  1.00  0.00     0.066 A 
ATOM     24  O   UNL     1       3.865   2.865  -6.846  1.00  0.00    -0.268 OA
ATOM     25  C   UNL     1       4.399   6.048  -5.301  1.00  0.00     0.079 A 
ATOM     26  C   UNL     1       5.934   4.939  -6.817  1.00  0.00     0.016 A 
ATOM     27  C   UNL     1       5.216   7.175  -5.255  1.00  0.00     0.029 A 
ATOM     28  C   UNL     1       6.800   6.031  -6.683  1.00  0.00     0.001 A 
ATOM     29  C   UNL     1       6.433   7.153  -5.929  1.00  0.00     0.002 A 
BRANCH  20  30
ATOM     30  C   UNL     1       2.451   2.547  -4.311  1.00  0.00     0.052 A 
ATOM     31  C   UNL     1       0.951   0.604  -2.959  1.00  0.00     0.119 A 
ATOM     32  C   UNL     1       0.351   1.806  -3.322  1.00  0.00     0.048 A 
ATOM     33  C   UNL     1       2.255   0.324  -3.369  1.00  0.00     0.048 A 
ATOM     34  C   UNL     1       1.112   2.792  -3.966  1.00  0.00     0.030 A 
ATOM     35  C   UNL     1       2.995   1.283  -4.071  1.00  0.00     0.030 A 
BRANCH  31  36
ATOM     36  O   UNL     1       0.205  -0.308  -2.264  1.00  0.00    -0.497 OA
ATOM     37  C   UNL     1       0.720  -0.552  -0.953  1.00  0.00     0.278 C 
ENDBRANCH  31  36
ENDBRANCH  20  30
ENDBRANCH  18  19
ENDBRANCH  17  18
ENDBRANCH  13  17
ENDBRANCH   7  12
ENDBRANCH   3   6
ENDBRANCH   1   2
BRANCH   1  38
ATOM     38  C   UNL     1      -2.055   0.796   5.481  1.00  0.00     0.021 C 
BRANCH  38  39
ATOM     39  C   UNL     1      -2.990   0.444   6.641  1.00  0.00     0.002 C 
BRANCH  39  40
ATOM     40  C   UNL     1      -3.321  -1.049   6.774  1.00  0.00     0.002 C 
BRANCH  40  41
ATOM     41  C   UNL     1      -2.114  -1.999   6.799  1.00  0.00     0.021 C 
BRANCH  41  42
ATOM     42  C   UNL     1      -1.241  -1.833   8.034  1.00  0.00     0.116 C 
BRANCH  42  43
ATOM     43  N   UNL     1      -1.946  -2.232   9.246  1.00  0.00    -0.352 N 
ATOM     44  C   UNL     1      -1.525  -2.166  10.557  1.00  0.00     0.251 C 
ATOM     45  H   UNL     1      -2.849  -2.599   9.110  1.00  0.00     0.163 HD
ATOM     46  O   UNL     1      -2.036  -2.868  11.411  1.00  0.00    -0.269 OA
BRANCH  44  47
ATOM     47  C   UNL     1      -0.438  -1.236  10.914  1.00  0.00     0.039 A 
ATOM     48  C   UNL     1       0.529  -1.617  11.847  1.00  0.00     0.014 A 
ATOM     49  C   UNL     1      -0.391   0.022  10.314  1.00  0.00     0.014 A 
ATOM     50  C   UNL     1       1.585  -0.752  12.108  1.00  0.00     0.010 A 
ATOM     51  C   UNL     1       0.716   0.822  10.476  1.00  0.00     0.010 A 
ATOM     52  C   UNL     1       1.691   0.456  11.396  1.00  0.00    -0.014 A 
BRANCH  52  53
ATOM     53  C   UNL     1       2.921   1.240  11.488  1.00  0.00     0.031 A 
ATOM     54  C   UNL     1       4.142   0.435  11.221  1.00  0.00     0.074 A 
ATOM     55  C   UNL     1       2.965   2.584  11.616  1.00  0.00     0.049 A 
ATOM     56  N   UNL     1       5.047   0.093  12.074  1.00  0.00    -0.248 NA
ATOM     57  C   UNL     1       4.293  -0.210   9.905  1.00  0.00     0.031 C 
ATOM     58  C   UNL     1       1.837   3.521  11.584  1.00  0.00     0.029 A 
ATOM     59  N   UNL     1       4.043   3.419  11.701  1.00  0.00    -0.354 N 
ATOM     60  C   UNL     1       6.003  -0.614  11.352  1.00  0.00     0.074 A 
ATOM     61  C   UNL     1       5.395  -0.942  10.091  1.00  0.00     0.031 C 
ATOM     62  C   UNL     1       2.296   4.779  11.407  1.00  0.00     0.029 A 
ATOM     63  C   UNL     1       3.745   4.762  11.480  1.00  0.00     0.049 A 
ATOM     64  H   UNL     1       4.952   3.099  11.901  1.00  0.00     0.167 HD
ATOM     65  C   UNL     1       7.307  -0.570  11.740  1.00  0.00     0.037 A 
ATOM     66  C   UNL     1       4.626   5.784  11.347  1.00  0.00     0.037 A 
ATOM     67  C   UNL     1       7.407  -0.084  13.098  1.00  0.00     0.049 A 
ATOM     68  C   UNL     1       5.888   5.353  11.987  1.00  0.00     0.074 A 
ATOM     69  C   UNL     1       7.004  -0.509  14.345  1.00  0.00     0.029 A 
ATOM     70  N   UNL     1       7.658   1.258  13.197  1.00  0.00    -0.354 N 
ATOM     71  N   UNL     1       6.028   5.178  13.270  1.00  0.00    -0.248 NA
ATOM     72  C   UNL     1       6.930   4.764  11.159  1.00  0.00     0.031 C 
ATOM     73  C   UNL     1       6.738   0.681  15.092  1.00  0.00     0.029 A 
ATOM     74  C   UNL     1       7.049   1.785  14.298  1.00  0.00     0.049 A 
ATOM     75  H   UNL     1       8.205   1.773  12.560  1.00  0.00     0.167 HD
ATOM     76  C   UNL     1       6.876   4.093  13.374  1.00  0.00     0.074 A 
ATOM     77  C   UNL     1       7.537   4.009  12.077  1.00  0.00     0.031 C 
ATOM     78  C   UNL     1       6.708   3.188  14.384  1.00  0.00     0.037 A 
BRANCH  65  79
ATOM     79  C   UNL     1       8.476  -0.413  10.777  1.00  0.00     0.064 A 
ATOM     80  C   UNL     1       9.783  -0.354  11.313  1.00  0.00     0.173 A 
ATOM     81  C   UNL     1       8.357   0.035   9.443  1.00  0.00     0.173 A 
ATOM     82  F   UNL     1      10.019  -0.735  12.578  1.00  0.00    -0.203 F 
ATOM     83  C   UNL     1      10.852   0.205  10.605  1.00  0.00     0.198 A 
ATOM     84  C   UNL     1       9.437   0.546   8.724  1.00  0.00     0.198 A 
ATOM     85  F   UNL     1       7.182   0.115   8.811  1.00  0.00    -0.203 F 
ATOM     86  F   UNL     1      12.036   0.371  11.210  1.00  0.00    -0.200 F 
ATOM     87  C   UNL     1      10.675   0.664   9.314  1.00  0.00     0.200 A 
ATOM     88  F   UNL     1       9.237   1.008   7.481  1.00  0.00    -0.200 F 
ATOM     89  F   UNL     1      11.677   1.264   8.658  1.00  0.00    -0.200 F 
ENDBRANCH  65  79
BRANCH  66  90
ATOM     90  C   UNL     1       4.550   7.012  10.515  1.00  0.00     0.064 A 
ATOM     91  C   UNL     1       5.482   8.054  10.683  1.00  0.00     0.173 A 
ATOM     92  C   UNL     1       3.773   7.057   9.343  1.00  0.00     0.173 A 
ATOM     93  F   UNL     1       6.287   8.075  11.755  1.00  0.00    -0.203 F 
ATOM     94  C   UNL     1       5.665   9.043   9.711  1.00  0.00     0.198 A 
ATOM     95  C   UNL     1       3.950   8.051   8.378  1.00  0.00     0.198 A 
ATOM     96  F   UNL     1       2.898   6.082   9.059  1.00  0.00    -0.203 F 
ATOM     97  F   UNL     1       6.624   9.966   9.869  1.00  0.00    -0.200 F 
ATOM     98  C   UNL     1       4.910   9.031   8.551  1.00  0.00     0.200 A 
ATOM     99  F   UNL     1       3.237   8.007   7.243  1.00  0.00    -0.200 F 
ATOM    100  F   UNL     1       5.139   9.929   7.583  1.00  0.00    -0.200 F 
ENDBRANCH  66  90
BRANCH  78 101
ATOM    101  C   UNL     1       5.976   3.654  15.609  1.00  0.00     0.064 A 
ATOM    102  C   UNL     1       4.636   4.077  15.639  1.00  0.00     0.173 A 
ATOM    103  C   UNL     1       6.664   3.600  16.829  1.00  0.00     0.173 A 
ATOM    104  F   UNL     1       3.881   4.072  14.533  1.00  0.00    -0.203 F 
ATOM    105  C   UNL     1       4.038   4.479  16.833  1.00  0.00     0.198 A 
ATOM    106  C   UNL     1       6.051   3.960  18.023  1.00  0.00     0.198 A 
ATOM    107  F   UNL     1       7.934   3.164  16.866  1.00  0.00    -0.203 F 
ATOM    108  F   UNL     1       2.768   4.912  16.835  1.00  0.00    -0.200 F 
ATOM    109  C   UNL     1       4.743   4.415  18.023  1.00  0.00     0.200 A 
ATOM    110  F   UNL     1       6.725   3.851  19.176  1.00  0.00    -0.200 F 
ATOM    111  F   UNL     1       4.158   4.772  19.175  1.00  0.00    -0.200 F 
ENDBRANCH  78 101
ENDBRANCH  52  53
ENDBRANCH  44  47
ENDBRANCH  42  43
ENDBRANCH  41  42
ENDBRANCH  40  41
ENDBRANCH  39  40
ENDBRANCH  38  39
ENDBRANCH   1  38
TORSDOF 19
