REMARK SMILES Cc1nc[nH]c1C(=O)N1CCC2(CC1)C[C@@H](C(=O)NCCCCCCNC(=O)c1ccc(-c3c4nc(c(-c5c(F)c(F)c(F)c(F)c5F)c5ccc([nH]5)c(-c5c(F)c(F)c(F)c(F)c5F)c5nc(c(-c6c(F)c(F)c(F)c(F)c6F)c6ccc3[nH]6)C=C5)C=C4)cc1)N(C(=O)C1CC1)C2
REMARK SMILES IDX 22 1 21 2 20 3 19 4 17 5 18 6 16 8 7 9 8 10 9 11 10 12 14 13
REMARK SMILES IDX 11 14 13 15 12 16 15 17 98 18 92 19 6 20 1 21 2 22 3 23 4 24
REMARK SMILES IDX 5 25 93 27 94 28 95 29 96 30 97 31 23 32 24 33 25 34 26 35
REMARK SMILES IDX 27 36 28 38 29 39 30 40 91 41 31 42 90 43 32 44 33 45 34 46
REMARK SMILES IDX 84 47 35 48 89 49 83 50 85 51 36 52 88 53 82 54 81 55 37 57
REMARK SMILES IDX 69 58 49 59 68 60 50 61 53 62 67 63 86 64 51 65 52 66 66 68
REMARK SMILES IDX 87 69 54 70 38 71 39 72 47 73 40 74 41 75 45 76 48 77 42 78
REMARK SMILES IDX 43 79 46 80 44 81 70 82 71 83 79 84 72 85 73 86 77 87 80 88
REMARK SMILES IDX 74 89 75 90 78 91 76 92 55 93 56 94 64 95 57 96 58 97 62 98
REMARK SMILES IDX 65 99 59 100 60 101 63 102 61 103
REMARK H PARENT 19 7 5 26 26 37 85 56 53 67
REMARK Flexibility Score: inf
ROOT
ATOM      1  C   UNL     1       6.813  -3.058   4.421  1.00  0.00     0.002 C 
ENDROOT
BRANCH   1   2
ATOM      2  C   UNL     1       6.638  -3.657   3.026  1.00  0.00     0.021 C 
BRANCH   2   3
ATOM      3  C   UNL     1       6.574  -2.626   1.912  1.00  0.00     0.116 C 
BRANCH   3   4
ATOM      4  N   UNL     1       7.775  -2.394   1.161  1.00  0.00    -0.354 N 
ATOM      5  C   UNL     1       7.893  -2.260  -0.199  1.00  0.00     0.242 C 
ATOM      6  O   UNL     1       8.780  -1.494  -0.593  1.00  0.00    -0.273 OA
ATOM      7  H   UNL     1       8.608  -2.322   1.681  1.00  0.00     0.163 HD
BRANCH   5   8
ATOM      8  C   UNL     1       6.888  -2.884  -1.222  1.00  0.00     0.175 C 
ATOM      9  C   UNL     1       0.176  -2.357  -0.410  1.00  0.00     0.272 C 
ATOM     10  O   UNL     1      -0.616  -3.260  -0.677  1.00  0.00    -0.267 OA
ATOM     11  N   UNL     1       1.542  -2.562  -0.520  1.00  0.00    -0.337 N 
ATOM     12  C   UNL     1       2.030  -3.441  -1.569  1.00  0.00     0.120 C 
ATOM     13  C   UNL     1       2.451  -2.336   0.587  1.00  0.00     0.120 C 
ATOM     14  C   UNL     1       3.329  -2.866  -2.151  1.00  0.00     0.030 C 
ATOM     15  C   UNL     1       3.796  -1.843   0.074  1.00  0.00     0.030 C 
ATOM     16  C   UNL     1       4.416  -2.713  -1.052  1.00  0.00    -0.006 C 
ATOM     17  C   UNL     1       5.690  -2.004  -1.580  1.00  0.00     0.044 C 
ATOM     18  C   UNL     1       4.893  -4.130  -0.654  1.00  0.00     0.127 C 
ATOM     19  N   UNL     1       6.327  -4.184  -0.871  1.00  0.00    -0.330 N 
BRANCH   9  20
ATOM     20  C   UNL     1      -0.300  -1.034  -0.070  1.00  0.00     0.127 A 
ATOM     21  C   UNL     1       1.597   0.740  -0.389  1.00  0.00     0.069 C 
ATOM     22  C   UNL     1       0.242   0.246  -0.062  1.00  0.00     0.068 A 
ATOM     23  N   UNL     1      -0.722   1.184   0.240  1.00  0.00    -0.241 NA
ATOM     24  C   UNL     1      -1.843   0.517   0.351  1.00  0.00     0.197 A 
ATOM     25  N   UNL     1      -1.637  -0.818   0.197  1.00  0.00    -0.340 N 
ATOM     26  H   UNL     1      -2.328  -1.516   0.266  1.00  0.00     0.168 HD
ENDBRANCH   9  20
BRANCH  19  27
ATOM     27  C   UNL     1       7.143  -5.295  -1.031  1.00  0.00     0.226 C 
ATOM     28  O   UNL     1       8.268  -5.187  -1.506  1.00  0.00    -0.275 OA
BRANCH  27  29
ATOM     29  C   UNL     1       6.741  -6.668  -0.616  1.00  0.00     0.079 C 
ATOM     30  C   UNL     1       5.503  -7.144   0.084  1.00  0.00     0.014 C 
ATOM     31  C   UNL     1       5.691  -7.440  -1.378  1.00  0.00     0.014 C 
ENDBRANCH  27  29
ENDBRANCH  19  27
ENDBRANCH   5   8
ENDBRANCH   3   4
ENDBRANCH   2   3
ENDBRANCH   1   2
BRANCH   1  32
ATOM     32  C   UNL     1       5.746  -2.040   4.855  1.00  0.00     0.002 C 
BRANCH  32  33
ATOM     33  C   UNL     1       4.294  -2.527   4.833  1.00  0.00     0.021 C 
BRANCH  33  34
ATOM     34  C   UNL     1       4.014  -3.767   5.677  1.00  0.00     0.116 C 
BRANCH  34  35
ATOM     35  N   UNL     1       4.432  -3.601   7.060  1.00  0.00    -0.352 N 
ATOM     36  C   UNL     1       3.726  -3.764   8.224  1.00  0.00     0.251 C 
ATOM     37  H   UNL     1       5.370  -3.329   7.180  1.00  0.00     0.163 HD
ATOM     38  O   UNL     1       4.203  -3.386   9.290  1.00  0.00    -0.269 OA
BRANCH  36  39
ATOM     39  C   UNL     1       2.385  -4.383   8.200  1.00  0.00     0.039 A 
ATOM     40  C   UNL     1       1.374  -3.837   8.995  1.00  0.00     0.014 A 
ATOM     41  C   UNL     1       2.131  -5.514   7.420  1.00  0.00     0.014 A 
ATOM     42  C   UNL     1       0.094  -4.391   8.964  1.00  0.00     0.010 A 
ATOM     43  C   UNL     1       0.837  -6.016   7.329  1.00  0.00     0.010 A 
ATOM     44  C   UNL     1      -0.193  -5.465   8.105  1.00  0.00    -0.014 A 
BRANCH  44  45
ATOM     45  C   UNL     1      -1.562  -6.028   8.008  1.00  0.00     0.031 A 
ATOM     46  C   UNL     1      -1.827  -7.448   8.422  1.00  0.00     0.074 A 
ATOM     47  C   UNL     1      -2.554  -5.277   7.492  1.00  0.00     0.049 A 
ATOM     48  N   UNL     1      -2.939  -8.137   8.362  1.00  0.00    -0.248 NA
ATOM     49  C   UNL     1      -0.680  -8.206   8.946  1.00  0.00     0.031 C 
ATOM     50  C   UNL     1      -2.412  -3.898   7.024  1.00  0.00     0.029 A 
ATOM     51  N   UNL     1      -3.876  -5.569   7.272  1.00  0.00    -0.354 N 
ATOM     52  C   UNL     1      -2.624  -9.405   8.832  1.00  0.00     0.074 A 
ATOM     53  C   UNL     1      -1.203  -9.412   9.106  1.00  0.00     0.031 C 
ATOM     54  C   UNL     1      -3.607  -3.451   6.608  1.00  0.00     0.029 A 
ATOM     55  C   UNL     1      -4.588  -4.525   6.736  1.00  0.00     0.049 A 
ATOM     56  H   UNL     1      -4.276  -6.444   7.479  1.00  0.00     0.167 HD
ATOM     57  C   UNL     1      -3.448 -10.459   9.043  1.00  0.00     0.037 A 
ATOM     58  C   UNL     1      -5.885  -4.445   6.386  1.00  0.00     0.037 A 
ATOM     59  C   UNL     1      -4.863 -10.442   8.772  1.00  0.00     0.049 A 
ATOM     60  C   UNL     1      -6.771  -5.645   6.584  1.00  0.00     0.074 A 
ATOM     61  C   UNL     1      -5.797 -11.439   8.990  1.00  0.00     0.029 A 
ATOM     62  N   UNL     1      -5.546  -9.371   8.213  1.00  0.00    -0.354 N 
ATOM     63  N   UNL     1      -6.479  -6.818   7.093  1.00  0.00    -0.248 NA
ATOM     64  C   UNL     1      -8.171  -5.507   6.160  1.00  0.00     0.031 C 
ATOM     65  C   UNL     1      -7.032 -10.994   8.507  1.00  0.00     0.029 A 
ATOM     66  C   UNL     1      -6.884  -9.695   8.049  1.00  0.00     0.049 A 
ATOM     67  H   UNL     1      -5.140  -8.508   7.969  1.00  0.00     0.167 HD
ATOM     68  C   UNL     1      -7.662  -7.544   7.085  1.00  0.00     0.074 A 
ATOM     69  C   UNL     1      -8.679  -6.674   6.531  1.00  0.00     0.031 C 
ATOM     70  C   UNL     1      -7.887  -8.815   7.501  1.00  0.00     0.037 A 
BRANCH  57  71
ATOM     71  C   UNL     1      -2.831 -11.720   9.582  1.00  0.00     0.064 A 
ATOM     72  C   UNL     1      -2.287 -11.782  10.876  1.00  0.00     0.173 A 
ATOM     73  C   UNL     1      -2.781 -12.883   8.799  1.00  0.00     0.173 A 
ATOM     74  F   UNL     1      -2.299 -10.697  11.666  1.00  0.00    -0.203 F 
ATOM     75  C   UNL     1      -1.674 -12.942  11.344  1.00  0.00     0.198 A 
ATOM     76  C   UNL     1      -2.202 -14.053   9.284  1.00  0.00     0.198 A 
ATOM     77  F   UNL     1      -3.292 -12.886   7.558  1.00  0.00    -0.203 F 
ATOM     78  F   UNL     1      -1.098 -12.951  12.554  1.00  0.00    -0.200 F 
ATOM     79  C   UNL     1      -1.637 -14.077  10.550  1.00  0.00     0.200 A 
ATOM     80  F   UNL     1      -2.180 -15.155   8.521  1.00  0.00    -0.200 F 
ATOM     81  F   UNL     1      -1.044 -15.192  11.000  1.00  0.00    -0.200 F 
ENDBRANCH  57  71
BRANCH  58  82
ATOM     82  C   UNL     1      -6.433  -3.171   5.851  1.00  0.00     0.064 A 
ATOM     83  C   UNL     1      -7.353  -2.420   6.597  1.00  0.00     0.173 A 
ATOM     84  C   UNL     1      -6.055  -2.676   4.594  1.00  0.00     0.173 A 
ATOM     85  F   UNL     1      -7.759  -2.861   7.797  1.00  0.00    -0.203 F 
ATOM     86  C   UNL     1      -7.889  -1.235   6.098  1.00  0.00     0.198 A 
ATOM     87  C   UNL     1      -6.568  -1.475   4.110  1.00  0.00     0.198 A 
ATOM     88  F   UNL     1      -5.173  -3.351   3.842  1.00  0.00    -0.203 F 
ATOM     89  F   UNL     1      -8.800  -0.562   6.813  1.00  0.00    -0.200 F 
ATOM     90  C   UNL     1      -7.491  -0.760   4.858  1.00  0.00     0.200 A 
ATOM     91  F   UNL     1      -6.167  -1.010   2.918  1.00  0.00    -0.200 F 
ATOM     92  F   UNL     1      -8.002   0.383   4.380  1.00  0.00    -0.200 F 
ENDBRANCH  58  82
BRANCH  70  93
ATOM     93  C   UNL     1      -9.296  -9.329   7.413  1.00  0.00     0.064 A 
ATOM     94  C   UNL     1      -9.910  -9.604   6.182  1.00  0.00     0.173 A 
ATOM     95  C   UNL     1     -10.031  -9.581   8.583  1.00  0.00     0.173 A 
ATOM     96  F   UNL     1      -9.258  -9.366   5.034  1.00  0.00    -0.203 F 
ATOM     97  C   UNL     1     -11.216 -10.084   6.125  1.00  0.00     0.198 A 
ATOM     98  C   UNL     1     -11.324 -10.094   8.522  1.00  0.00     0.198 A 
ATOM     99  F   UNL     1      -9.491  -9.341   9.787  1.00  0.00    -0.203 F 
ATOM    100  F   UNL     1     -11.801 -10.286   4.936  1.00  0.00    -0.200 F 
ATOM    101  C   UNL     1     -11.918 -10.336   7.293  1.00  0.00     0.200 A 
ATOM    102  F   UNL     1     -11.994 -10.353   9.653  1.00  0.00    -0.200 F 
ATOM    103  F   UNL     1     -13.172 -10.806   7.236  1.00  0.00    -0.200 F 
ENDBRANCH  70  93
ENDBRANCH  44  45
ENDBRANCH  36  39
ENDBRANCH  34  35
ENDBRANCH  33  34
ENDBRANCH  32  33
ENDBRANCH   1  32
TORSDOF 16
