REMARK SMILES O=C(CCn1c(SCc2ccccn2)nc2ccccc2c1=O)NCCCCCCNC(=O)c1ccc(-c2c3nc(c(-c4c(F)c(F)c(F)c(F)c4F)c4ccc([nH]4)c(-c4c(F)c(F)c(F)c(F)c4F)c4nc(c(-c5c(F)c(F)c(F)c(F)c5F)c5ccc2[nH]5)C=C4)C=C3)cc1
REMARK SMILES IDX 26 1 25 2 24 3 1 4 2 5 3 7 4 8 5 9 6 10 22 11 15 12 21 13
REMARK SMILES IDX 23 14 16 15 20 16 17 17 19 18 18 19 7 20 8 21 9 22 10 23
REMARK SMILES IDX 14 24 11 25 13 26 12 27 27 28 28 29 29 30 30 31 31 32 32 33
REMARK SMILES IDX 33 35 34 36 35 37 96 38 36 39 95 40 37 41 38 42 39 43 89 44
REMARK SMILES IDX 40 45 94 46 88 47 90 48 41 49 93 50 87 51 86 52 42 54 74 55
REMARK SMILES IDX 54 56 73 57 55 58 58 59 72 60 91 61 56 62 57 63 71 65 92 66
REMARK SMILES IDX 59 67 43 68 44 69 52 70 45 71 46 72 50 73 53 74 47 75 48 76
REMARK SMILES IDX 51 77 49 78 75 79 76 80 84 81 77 82 78 83 82 84 85 85 79 86
REMARK SMILES IDX 80 87 83 88 81 89 60 90 61 91 69 92 62 93 63 94 67 95 70 96
REMARK SMILES IDX 64 97 65 98 68 99 66 100
REMARK H PARENT 24 6 31 34 90 53 58 64
REMARK Flexibility Score: inf
ROOT
ATOM      1  C   UNL     1       2.084   2.836  -2.669  1.00  0.00     0.021 C 
ENDROOT
BRANCH   1   2
ATOM      2  C   UNL     1       1.526   1.413  -2.598  1.00  0.00     0.116 C 
BRANCH   2   3
ATOM      3  N   UNL     1       2.194   0.667  -1.555  1.00  0.00    -0.356 N 
ATOM      4  O   UNL     1       0.380   0.474  -0.176  1.00  0.00    -0.275 OA
ATOM      5  C   UNL     1       1.584   0.348  -0.375  1.00  0.00     0.221 C 
ATOM      6  H   UNL     1       3.123   0.378  -1.701  1.00  0.00     0.163 HD
BRANCH   5   7
ATOM      7  C   UNL     1       2.519  -0.069   0.726  1.00  0.00     0.122 C 
BRANCH   7   8
ATOM      8  C   UNL     1       3.518  -1.167   0.378  1.00  0.00     0.138 C 
BRANCH   8   9
ATOM      9  N   UNL     1       4.777  -0.936  -0.321  1.00  0.00    -0.287 N 
ATOM     10  C   UNL     1       5.515  -1.982  -0.877  1.00  0.00     0.171 A 
ATOM     11  C   UNL     1       5.376   0.322  -0.264  1.00  0.00     0.262 A 
ATOM     12  N   UNL     1       6.487  -1.772  -1.712  1.00  0.00    -0.224 NA
ATOM     13  C   UNL     1       6.420   0.606  -1.261  1.00  0.00     0.066 A 
ATOM     14  O   UNL     1       5.061   1.216   0.514  1.00  0.00    -0.269 OA
ATOM     15  C   UNL     1       6.855  -0.464  -2.027  1.00  0.00     0.079 A 
ATOM     16  C   UNL     1       6.863   1.911  -1.514  1.00  0.00     0.016 A 
ATOM     17  C   UNL     1       7.689  -0.211  -3.119  1.00  0.00     0.029 A 
ATOM     18  C   UNL     1       7.704   2.154  -2.600  1.00  0.00     0.001 A 
ATOM     19  C   UNL     1       8.097   1.094  -3.418  1.00  0.00     0.002 A 
BRANCH  10  20
ATOM     20  S   UNL     1       5.199  -3.690  -0.645  1.00  0.00    -0.081 SA
BRANCH  20  21
ATOM     21  C   UNL     1       4.418  -4.113   0.916  1.00  0.00     0.134 C 
BRANCH  21  22
ATOM     22  C   UNL     1       4.926  -3.562   2.231  1.00  0.00     0.051 A 
ATOM     23  C   UNL     1       4.011  -3.002   3.135  1.00  0.00     0.025 A 
ATOM     24  N   UNL     1       6.239  -3.668   2.530  1.00  0.00    -0.260 NA
ATOM     25  C   UNL     1       4.472  -2.410   4.305  1.00  0.00     0.003 A 
ATOM     26  C   UNL     1       6.650  -3.150   3.714  1.00  0.00     0.111 A 
ATOM     27  C   UNL     1       5.821  -2.489   4.606  1.00  0.00     0.020 A 
ENDBRANCH  21  22
ENDBRANCH  20  21
ENDBRANCH  10  20
ENDBRANCH   8   9
ENDBRANCH   7   8
ENDBRANCH   5   7
ENDBRANCH   2   3
ENDBRANCH   1   2
BRANCH   1  28
ATOM     28  C   UNL     1       3.610   2.905  -2.811  1.00  0.00     0.002 C 
BRANCH  28  29
ATOM     29  C   UNL     1       4.196   2.084  -3.964  1.00  0.00     0.002 C 
BRANCH  29  30
ATOM     30  C   UNL     1       3.672   2.454  -5.344  1.00  0.00     0.021 C 
BRANCH  30  31
ATOM     31  C   UNL     1       3.892   3.911  -5.717  1.00  0.00     0.116 C 
BRANCH  31  32
ATOM     32  N   UNL     1       5.299   4.272  -5.850  1.00  0.00    -0.352 N 
ATOM     33  C   UNL     1       5.890   5.028  -6.838  1.00  0.00     0.251 C 
ATOM     34  H   UNL     1       5.900   3.933  -5.148  1.00  0.00     0.163 HD
ATOM     35  O   UNL     1       7.106   5.176  -6.888  1.00  0.00    -0.269 OA
BRANCH  33  36
ATOM     36  C   UNL     1       5.018   5.609  -7.880  1.00  0.00     0.039 A 
ATOM     37  C   UNL     1       3.872   6.310  -7.504  1.00  0.00     0.014 A 
ATOM     38  C   UNL     1       5.264   5.309  -9.221  1.00  0.00     0.014 A 
ATOM     39  C   UNL     1       2.866   6.510  -8.439  1.00  0.00     0.010 A 
ATOM     40  C   UNL     1       4.292   5.611 -10.178  1.00  0.00     0.010 A 
ATOM     41  C   UNL     1       3.055   6.147  -9.784  1.00  0.00    -0.014 A 
BRANCH  41  42
ATOM     42  C   UNL     1       1.931   6.302 -10.745  1.00  0.00     0.031 A 
ATOM     43  C   UNL     1       1.323   5.103 -11.426  1.00  0.00     0.074 A 
ATOM     44  C   UNL     1       1.406   7.526 -10.946  1.00  0.00     0.049 A 
ATOM     45  N   UNL     1       0.339   5.055 -12.291  1.00  0.00    -0.248 NA
ATOM     46  C   UNL     1       1.890   3.785 -11.099  1.00  0.00     0.031 C 
ATOM     47  C   UNL     1       1.888   8.759 -10.322  1.00  0.00     0.029 A 
ATOM     48  N   UNL     1       0.337   7.932 -11.703  1.00  0.00    -0.354 N 
ATOM     49  C   UNL     1       0.188   3.715 -12.626  1.00  0.00     0.074 A 
ATOM     50  C   UNL     1       1.197   2.981 -11.895  1.00  0.00     0.031 C 
ATOM     51  C   UNL     1       1.082   9.771 -10.669  1.00  0.00     0.029 A 
ATOM     52  C   UNL     1       0.075   9.276 -11.602  1.00  0.00     0.049 A 
ATOM     53  H   UNL     1      -0.192   7.320 -12.264  1.00  0.00     0.167 HD
ATOM     54  C   UNL     1      -0.719   3.150 -13.459  1.00  0.00     0.037 A 
ATOM     55  C   UNL     1      -0.858  10.034 -12.207  1.00  0.00     0.037 A 
ATOM     56  C   UNL     1      -1.744   3.880 -14.161  1.00  0.00     0.049 A 
ATOM     57  C   UNL     1      -1.816   9.389 -13.165  1.00  0.00     0.074 A 
ATOM     58  C   UNL     1      -2.720   3.392 -15.013  1.00  0.00     0.029 A 
ATOM     59  N   UNL     1      -1.930   5.252 -14.086  1.00  0.00    -0.354 N 
ATOM     60  N   UNL     1      -1.937   8.123 -13.484  1.00  0.00    -0.248 NA
ATOM     61  C   UNL     1      -2.756  10.278 -13.860  1.00  0.00     0.031 C 
ATOM     62  C   UNL     1      -3.468   4.473 -15.488  1.00  0.00     0.029 A 
ATOM     63  C   UNL     1      -2.991   5.630 -14.894  1.00  0.00     0.049 A 
ATOM     64  H   UNL     1      -1.389   5.867 -13.540  1.00  0.00     0.167 HD
ATOM     65  C   UNL     1      -2.971   8.062 -14.408  1.00  0.00     0.074 A 
ATOM     66  C   UNL     1      -3.459   9.414 -14.580  1.00  0.00     0.031 C 
ATOM     67  C   UNL     1      -3.464   6.980 -15.058  1.00  0.00     0.037 A 
BRANCH  54  68
ATOM     68  C   UNL     1      -0.652   1.664 -13.672  1.00  0.00     0.064 A 
ATOM     69  C   UNL     1      -1.056   0.759 -12.680  1.00  0.00     0.173 A 
ATOM     70  C   UNL     1      -0.257   1.142 -14.914  1.00  0.00     0.173 A 
ATOM     71  F   UNL     1      -1.433   1.205 -11.472  1.00  0.00    -0.203 F 
ATOM     72  C   UNL     1      -1.054  -0.614 -12.919  1.00  0.00     0.198 A 
ATOM     73  C   UNL     1      -0.282  -0.229 -15.158  1.00  0.00     0.198 A 
ATOM     74  F   UNL     1       0.130   1.964 -15.901  1.00  0.00    -0.203 F 
ATOM     75  F   UNL     1      -1.416  -1.462 -11.945  1.00  0.00    -0.200 F 
ATOM     76  C   UNL     1      -0.678  -1.106 -14.159  1.00  0.00     0.200 A 
ATOM     77  F   UNL     1       0.067  -0.701 -16.363  1.00  0.00    -0.200 F 
ATOM     78  F   UNL     1      -0.695  -2.425 -14.392  1.00  0.00    -0.200 F 
ENDBRANCH  54  68
BRANCH  55  79
ATOM     79  C   UNL     1      -0.917  11.489 -11.917  1.00  0.00     0.064 A 
ATOM     80  C   UNL     1      -1.987  12.035 -11.197  1.00  0.00     0.173 A 
ATOM     81  C   UNL     1       0.113  12.354 -12.317  1.00  0.00     0.173 A 
ATOM     82  F   UNL     1      -3.004  11.251 -10.810  1.00  0.00    -0.203 F 
ATOM     83  C   UNL     1      -2.025  13.393 -10.887  1.00  0.00     0.198 A 
ATOM     84  C   UNL     1       0.088  13.705 -11.981  1.00  0.00     0.198 A 
ATOM     85  F   UNL     1       1.161  11.878 -13.005  1.00  0.00    -0.203 F 
ATOM     86  F   UNL     1      -3.072  13.897 -10.221  1.00  0.00    -0.200 F 
ATOM     87  C   UNL     1      -0.983  14.225 -11.270  1.00  0.00     0.200 A 
ATOM     88  F   UNL     1       1.107  14.500 -12.336  1.00  0.00    -0.200 F 
ATOM     89  F   UNL     1      -1.011  15.527 -10.955  1.00  0.00    -0.200 F 
ENDBRANCH  55  79
BRANCH  67  90
ATOM     90  C   UNL     1      -4.599   7.208 -16.012  1.00  0.00     0.064 A 
ATOM     91  C   UNL     1      -4.395   7.823 -17.256  1.00  0.00     0.173 A 
ATOM     92  C   UNL     1      -5.890   6.750 -15.707  1.00  0.00     0.173 A 
ATOM     93  F   UNL     1      -3.182   8.291 -17.586  1.00  0.00    -0.203 F 
ATOM     94  C   UNL     1      -5.446   7.985 -18.154  1.00  0.00     0.198 A 
ATOM     95  C   UNL     1      -6.932   6.888 -16.619  1.00  0.00     0.198 A 
ATOM     96  F   UNL     1      -6.134   6.149 -14.533  1.00  0.00    -0.203 F 
ATOM     97  F   UNL     1      -5.237   8.608 -19.322  1.00  0.00    -0.200 F 
ATOM     98  C   UNL     1      -6.710   7.509 -17.840  1.00  0.00     0.200 A 
ATOM     99  F   UNL     1      -8.149   6.415 -16.320  1.00  0.00    -0.200 F 
ATOM    100  F   UNL     1      -7.718   7.653 -18.712  1.00  0.00    -0.200 F 
ENDBRANCH  67  90
ENDBRANCH  41  42
ENDBRANCH  33  36
ENDBRANCH  31  32
ENDBRANCH  30  31
ENDBRANCH  29  30
ENDBRANCH  28  29
ENDBRANCH   1  28
TORSDOF 18
