REMARK SMILES CC(C)c1cc(O)cc(C(C)C)c1O[C@@H]1O[C@@H](C(=O)NCCCCCCNC(=O)c2ccc(-c3c4nc(c(-c5c(F)c(F)c(F)c(F)c5F)c5ccc([nH]5)c(-c5c(F)c(F)c(F)c(F)c5F)c5nc(c(-c6c(F)c(F)c(F)c(F)c6F)c6ccc3[nH]6)C=C5)C=C4)cc2)[C@@H](O)[C@H](O)[C@@H]1O
REMARK SMILES IDX 23 1 22 2 21 3 20 4 18 5 19 6 17 8 15 9 16 10 97 11 95 12
REMARK SMILES IDX 93 13 14 14 13 15 4 16 5 17 6 18 9 19 8 20 2 21 1 22 3 23
REMARK SMILES IDX 7 24 10 26 11 27 12 28 98 29 96 31 94 33 24 35 25 36 26 37
REMARK SMILES IDX 27 38 28 39 29 41 30 42 31 43 92 44 32 45 91 46 33 47 34 48
REMARK SMILES IDX 35 49 85 50 36 51 90 52 84 53 86 54 37 55 89 56 83 57 82 58
REMARK SMILES IDX 38 60 70 61 50 62 69 63 51 64 54 65 68 66 87 67 52 68 53 69
REMARK SMILES IDX 67 71 88 72 55 73 39 74 40 75 48 76 41 77 42 78 46 79 49 80
REMARK SMILES IDX 43 81 44 82 47 83 45 84 71 85 72 86 80 87 73 88 74 89 78 90
REMARK SMILES IDX 81 91 75 92 76 93 79 94 77 95 56 96 57 97 65 98 58 99 59 100
REMARK SMILES IDX 63 101 66 102 60 103 61 104 64 105 62 106
REMARK H PARENT 20 7 7 25 98 30 96 32 94 34 27 40 86 59 54 70
REMARK Flexibility Score: inf
ROOT
ATOM      1  C   UNL     1      -4.253   3.468  -0.894  1.00  0.00     0.002 C 
ENDROOT
BRANCH   1   2
ATOM      2  C   UNL     1      -2.838   3.224  -1.427  1.00  0.00     0.021 C 
BRANCH   2   3
ATOM      3  C   UNL     1      -2.271   1.857  -1.070  1.00  0.00     0.116 C 
BRANCH   3   4
ATOM      4  N   UNL     1      -2.225   0.920  -2.177  1.00  0.00    -0.354 N 
ATOM      5  C   UNL     1      -1.272   0.067  -2.634  1.00  0.00     0.252 C 
ATOM      6  O   UNL     1      -1.715  -0.895  -3.280  1.00  0.00    -0.272 OA
ATOM      7  H   UNL     1      -3.055   0.898  -2.705  1.00  0.00     0.163 HD
BRANCH   5   8
ATOM      8  C   UNL     1       0.277   0.236  -2.491  1.00  0.00     0.242 C 
ATOM      9  C   UNL     1       0.759  -1.889  -1.461  1.00  0.00     0.339 C 
ATOM     10  O   UNL     1       0.973  -1.025  -2.581  1.00  0.00    -0.324 OA
ATOM     11  C   UNL     1       0.833  -1.252  -0.036  1.00  0.00     0.214 C 
ATOM     12  C   UNL     1       0.500   0.253  -0.005  1.00  0.00     0.181 C 
ATOM     13  C   UNL     1       0.885   0.981  -1.308  1.00  0.00     0.184 C 
BRANCH   9  14
ATOM     14  O   UNL     1       1.479  -3.128  -1.521  1.00  0.00    -0.461 OA
BRANCH  14  15
ATOM     15  C   UNL     1       2.807  -3.410  -1.664  1.00  0.00     0.130 A 
ATOM     16  C   UNL     1       3.048  -4.820  -1.642  1.00  0.00     0.001 A 
ATOM     17  C   UNL     1       4.367  -5.318  -1.698  1.00  0.00     0.054 A 
ATOM     18  C   UNL     1       5.436  -4.453  -1.799  1.00  0.00     0.116 A 
ATOM     19  C   UNL     1       3.919  -2.536  -1.770  1.00  0.00     0.001 A 
ATOM     20  C   UNL     1       5.219  -3.091  -1.850  1.00  0.00     0.054 A 
BRANCH  16  21
ATOM     21  C   UNL     1       1.943  -5.877  -1.532  1.00  0.00     0.017 C 
ATOM     22  C   UNL     1       1.316  -5.906  -0.137  1.00  0.00     0.012 C 
ATOM     23  C   UNL     1       0.883  -5.790  -2.633  1.00  0.00     0.012 C 
ENDBRANCH  16  21
BRANCH  18  24
ATOM     24  O   UNL     1       6.723  -4.894  -1.845  1.00  0.00    -0.508 OA
ATOM     25  H   UNL     1       6.905  -5.812  -1.812  1.00  0.00     0.293 HD
ENDBRANCH  18  24
BRANCH  19  26
ATOM     26  C   UNL     1       3.873  -1.024  -1.815  1.00  0.00     0.017 C 
ATOM     27  C   UNL     1       4.779  -0.320  -0.794  1.00  0.00     0.012 C 
ATOM     28  C   UNL     1       4.109  -0.480  -3.224  1.00  0.00     0.012 C 
ENDBRANCH  19  26
ENDBRANCH  14  15
ENDBRANCH   9  14
BRANCH  11  29
ATOM     29  O   UNL     1       2.099  -1.427   0.629  1.00  0.00    -0.384 OA
ATOM     30  H   UNL     1       2.785  -0.932   0.154  1.00  0.00     0.211 HD
ENDBRANCH  11  29
BRANCH  12  31
ATOM     31  O   UNL     1       1.149   0.872   1.117  1.00  0.00    -0.387 OA
ATOM     32  H   UNL     1       2.110   0.790   1.021  1.00  0.00     0.211 HD
ENDBRANCH  12  31
BRANCH  13  33
ATOM     33  O   UNL     1       0.611   2.383  -1.344  1.00  0.00    -0.387 OA
ATOM     34  H   UNL     1      -0.347   2.527  -1.298  1.00  0.00     0.211 HD
ENDBRANCH  13  33
ENDBRANCH   5   8
ENDBRANCH   3   4
ENDBRANCH   2   3
ENDBRANCH   1   2
BRANCH   1  35
ATOM     35  C   UNL     1      -4.481   3.167   0.595  1.00  0.00     0.002 C 
BRANCH  35  36
ATOM     36  C   UNL     1      -3.479   3.783   1.577  1.00  0.00     0.021 C 
BRANCH  36  37
ATOM     37  C   UNL     1      -3.344   5.302   1.507  1.00  0.00     0.116 C 
BRANCH  37  38
ATOM     38  N   UNL     1      -4.630   5.968   1.612  1.00  0.00    -0.352 N 
ATOM     39  C   UNL     1      -5.063   6.938   2.474  1.00  0.00     0.251 C 
ATOM     40  H   UNL     1      -5.301   5.674   0.954  1.00  0.00     0.163 HD
ATOM     41  O   UNL     1      -6.256   7.220   2.521  1.00  0.00    -0.269 OA
BRANCH  39  42
ATOM     42  C   UNL     1      -4.111   7.653   3.350  1.00  0.00     0.039 A 
ATOM     43  C   UNL     1      -4.511   7.953   4.656  1.00  0.00     0.014 A 
ATOM     44  C   UNL     1      -2.874   8.101   2.876  1.00  0.00     0.014 A 
ATOM     45  C   UNL     1      -3.663   8.677   5.494  1.00  0.00     0.010 A 
ATOM     46  C   UNL     1      -2.004   8.776   3.730  1.00  0.00     0.010 A 
ATOM     47  C   UNL     1      -2.399   9.085   5.040  1.00  0.00    -0.014 A 
BRANCH  47  48
ATOM     48  C   UNL     1      -1.499   9.862   5.924  1.00  0.00     0.031 A 
ATOM     49  C   UNL     1      -1.211  11.306   5.628  1.00  0.00     0.074 A 
ATOM     50  C   UNL     1      -0.926   9.256   6.980  1.00  0.00     0.049 A 
ATOM     51  N   UNL     1      -0.446  12.148   6.277  1.00  0.00    -0.248 NA
ATOM     52  C   UNL     1      -1.850  11.876   4.431  1.00  0.00     0.031 C 
ATOM     53  C   UNL     1      -1.092   7.846   7.337  1.00  0.00     0.029 A 
ATOM     54  N   UNL     1      -0.084   9.748   7.945  1.00  0.00    -0.354 N 
ATOM     55  C   UNL     1      -0.512  13.340   5.569  1.00  0.00     0.074 A 
ATOM     56  C   UNL     1      -1.347  13.102   4.412  1.00  0.00     0.031 C 
ATOM     57  C   UNL     1      -0.387   7.590   8.450  1.00  0.00     0.029 A 
ATOM     58  C   UNL     1       0.293   8.810   8.874  1.00  0.00     0.049 A 
ATOM     59  H   UNL     1       0.220  10.684   7.969  1.00  0.00     0.167 HD
ATOM     60  C   UNL     1       0.054  14.533   5.872  1.00  0.00     0.037 A 
ATOM     61  C   UNL     1       1.096   8.926   9.948  1.00  0.00     0.037 A 
ATOM     62  C   UNL     1       0.872  14.771   7.032  1.00  0.00     0.049 A 
ATOM     63  C   UNL     1       1.688  10.269  10.276  1.00  0.00     0.074 A 
ATOM     64  C   UNL     1       1.473  15.948   7.441  1.00  0.00     0.029 A 
ATOM     65  N   UNL     1       1.198  13.806   7.974  1.00  0.00    -0.354 N 
ATOM     66  N   UNL     1       1.577  11.403   9.628  1.00  0.00    -0.248 NA
ATOM     67  C   UNL     1       2.505  10.351  11.495  1.00  0.00     0.031 C 
ATOM     68  C   UNL     1       2.183  15.690   8.620  1.00  0.00     0.029 A 
ATOM     69  C   UNL     1       1.995  14.361   8.962  1.00  0.00     0.049 A 
ATOM     70  H   UNL     1       0.906  12.866   7.944  1.00  0.00     0.167 HD
ATOM     71  C   UNL     1       2.290  12.336  10.367  1.00  0.00     0.074 A 
ATOM     72  C   UNL     1       2.813  11.640  11.524  1.00  0.00     0.031 C 
ATOM     73  C   UNL     1       2.499  13.650  10.108  1.00  0.00     0.037 A 
BRANCH  60  74
ATOM     74  C   UNL     1      -0.209  15.679   4.939  1.00  0.00     0.064 A 
ATOM     75  C   UNL     1      -1.468  16.296   4.879  1.00  0.00     0.173 A 
ATOM     76  C   UNL     1       0.812  16.189   4.124  1.00  0.00     0.173 A 
ATOM     77  F   UNL     1      -2.480  15.836   5.629  1.00  0.00    -0.203 F 
ATOM     78  C   UNL     1      -1.701  17.366   4.021  1.00  0.00     0.198 A 
ATOM     79  C   UNL     1       0.582  17.277   3.285  1.00  0.00     0.198 A 
ATOM     80  F   UNL     1       2.035  15.638   4.146  1.00  0.00    -0.203 F 
ATOM     81  F   UNL     1      -2.923  17.913   3.950  1.00  0.00    -0.200 F 
ATOM     82  C   UNL     1      -0.675  17.860   3.229  1.00  0.00     0.200 A 
ATOM     83  F   UNL     1       1.577  17.760   2.527  1.00  0.00    -0.200 F 
ATOM     84  F   UNL     1      -0.900  18.895   2.408  1.00  0.00    -0.200 F 
ENDBRANCH  60  74
BRANCH  61  85
ATOM     85  C   UNL     1       1.356   7.745  10.807  1.00  0.00     0.064 A 
ATOM     86  C   UNL     1       0.805   7.652  12.092  1.00  0.00     0.173 A 
ATOM     87  C   UNL     1       2.161   6.686  10.363  1.00  0.00     0.173 A 
ATOM     88  F   UNL     1       0.044   8.649  12.567  1.00  0.00    -0.203 F 
ATOM     89  C   UNL     1       1.066   6.555  12.910  1.00  0.00     0.198 A 
ATOM     90  C   UNL     1       2.401   5.578  11.171  1.00  0.00     0.198 A 
ATOM     91  F   UNL     1       2.707   6.726   9.139  1.00  0.00    -0.203 F 
ATOM     92  F   UNL     1       0.562   6.511  14.150  1.00  0.00    -0.200 F 
ATOM     93  C   UNL     1       1.860   5.516  12.447  1.00  0.00     0.200 A 
ATOM     94  F   UNL     1       3.159   4.571  10.717  1.00  0.00    -0.200 F 
ATOM     95  F   UNL     1       2.110   4.460  13.233  1.00  0.00    -0.200 F 
ENDBRANCH  61  85
BRANCH  73  96
ATOM     96  C   UNL     1       3.309  14.419  11.107  1.00  0.00     0.064 A 
ATOM     97  C   UNL     1       4.698  14.252  11.207  1.00  0.00     0.173 A 
ATOM     98  C   UNL     1       2.693  15.351  11.955  1.00  0.00     0.173 A 
ATOM     99  F   UNL     1       5.328  13.360  10.428  1.00  0.00    -0.203 F 
ATOM    100  C   UNL     1       5.438  14.972  12.140  1.00  0.00     0.198 A 
ATOM    101  C   UNL     1       3.440  16.087  12.870  1.00  0.00     0.198 A 
ATOM    102  F   UNL     1       1.368  15.550  11.893  1.00  0.00    -0.203 F 
ATOM    103  F   UNL     1       6.757  14.763  12.252  1.00  0.00    -0.200 F 
ATOM    104  C   UNL     1       4.810  15.892  12.967  1.00  0.00     0.200 A 
ATOM    105  F   UNL     1       2.834  16.982  13.662  1.00  0.00    -0.200 F 
ATOM    106  F   UNL     1       5.524  16.584  13.864  1.00  0.00    -0.200 F 
ENDBRANCH  73  96
ENDBRANCH  47  48
ENDBRANCH  39  42
ENDBRANCH  37  38
ENDBRANCH  36  37
ENDBRANCH  35  36
ENDBRANCH   1  35
TORSDOF 21
