REMARK SMILES Cc1ccc(NC(=O)c2cccnc2C(=O)NCCCCCCNC(=O)c2ccc(-c3c4nc(c(-c5c(F)c(F)c(F)c(F)c5F)c5ccc([nH]5)c(-c5c(F)c(F)c(F)c(F)c5F)c5nc(c(-c6c(F)c(F)c(F)c(F)c6F)c6ccc3[nH]6)C=C5)C=C4)cc2)nc1
REMARK SMILES IDX 20 1 19 2 18 3 17 4 15 5 16 6 14 8 9 9 10 10 11 11 13 12
REMARK SMILES IDX 12 13 7 14 6 15 8 17 5 18 1 19 2 20 3 21 91 22 4 23 90 24
REMARK SMILES IDX 21 25 22 26 23 27 24 28 25 29 26 31 27 32 28 33 89 34 29 35
REMARK SMILES IDX 88 36 30 37 31 38 32 39 82 40 33 41 87 42 81 43 83 44 34 45
REMARK SMILES IDX 86 46 80 47 79 48 35 50 67 51 47 52 66 53 48 54 51 55 65 56
REMARK SMILES IDX 84 57 49 58 50 59 64 61 85 62 52 63 36 64 37 65 45 66 38 67
REMARK SMILES IDX 39 68 43 69 46 70 40 71 41 72 44 73 42 74 68 75 69 76 77 77
REMARK SMILES IDX 70 78 71 79 75 80 78 81 72 82 73 83 76 84 74 85 53 86 54 87
REMARK SMILES IDX 62 88 55 89 56 90 60 91 63 92 57 93 58 94 61 95 59 96
REMARK H PARENT 17 7 6 16 24 30 83 49 51 60
REMARK Flexibility Score: inf
ROOT
ATOM      1  C   UNL     1      -6.276  -0.739  -3.350  1.00  0.00     0.002 C 
ENDROOT
BRANCH   1   2
ATOM      2  C   UNL     1      -5.252  -1.025  -2.248  1.00  0.00     0.021 C 
BRANCH   2   3
ATOM      3  C   UNL     1      -5.869  -1.337  -0.880  1.00  0.00     0.116 C 
BRANCH   3   4
ATOM      4  N   UNL     1      -6.048  -2.766  -0.740  1.00  0.00    -0.351 N 
ATOM      5  C   UNL     1      -5.396  -3.747  -0.031  1.00  0.00     0.270 C 
ATOM      6  O   UNL     1      -5.779  -4.901  -0.249  1.00  0.00    -0.267 OA
ATOM      7  H   UNL     1      -6.803  -3.112  -1.268  1.00  0.00     0.163 HD
BRANCH   5   8
ATOM      8  C   UNL     1      -4.381  -3.512   1.055  1.00  0.00     0.140 A 
ATOM      9  C   UNL     1      -3.344  -2.590   1.062  1.00  0.00     0.071 A 
ATOM     10  C   UNL     1      -2.487  -2.548   2.182  1.00  0.00     0.018 A 
ATOM     11  C   UNL     1      -2.640  -3.459   3.217  1.00  0.00     0.021 A 
ATOM     12  N   UNL     1      -4.551  -4.386   2.101  1.00  0.00    -0.250 NA
ATOM     13  C   UNL     1      -3.667  -4.371   3.119  1.00  0.00     0.112 A 
BRANCH   9  14
ATOM     14  C   UNL     1      -2.870  -1.876  -0.133  1.00  0.00     0.259 C 
ATOM     15  N   UNL     1      -2.443  -0.575   0.085  1.00  0.00    -0.306 N 
ATOM     16  H   UNL     1      -3.079   0.114   0.386  1.00  0.00     0.171 HD
ATOM     17  O   UNL     1      -2.796  -2.470  -1.194  1.00  0.00    -0.269 OA
BRANCH  15  18
ATOM     18  C   UNL     1      -1.094  -0.251  -0.128  1.00  0.00     0.132 A 
ATOM     19  C   UNL     1       3.087   0.453  -0.057  1.00  0.00     0.046 C 
ATOM     20  C   UNL     1       1.607   0.266  -0.120  1.00  0.00    -0.033 A 
ATOM     21  C   UNL     1       0.704   1.317   0.044  1.00  0.00     0.009 A 
ATOM     22  C   UNL     1       1.081  -1.004  -0.298  1.00  0.00     0.117 A 
ATOM     23  C   UNL     1      -0.669   1.058   0.052  1.00  0.00     0.047 A 
ATOM     24  N   UNL     1      -0.236  -1.271  -0.308  1.00  0.00    -0.239 NA
ENDBRANCH  15  18
ENDBRANCH   9  14
ENDBRANCH   5   8
ENDBRANCH   3   4
ENDBRANCH   2   3
ENDBRANCH   1   2
BRANCH   1  25
ATOM     25  C   UNL     1      -7.039   0.578  -3.190  1.00  0.00     0.002 C 
BRANCH  25  26
ATOM     26  C   UNL     1      -6.162   1.827  -3.055  1.00  0.00     0.021 C 
BRANCH  26  27
ATOM     27  C   UNL     1      -5.185   2.047  -4.207  1.00  0.00     0.116 C 
BRANCH  27  28
ATOM     28  N   UNL     1      -5.878   2.247  -5.470  1.00  0.00    -0.352 N 
ATOM     29  C   UNL     1      -5.943   3.362  -6.266  1.00  0.00     0.251 C 
ATOM     30  H   UNL     1      -6.375   1.465  -5.804  1.00  0.00     0.163 HD
ATOM     31  O   UNL     1      -6.781   3.437  -7.159  1.00  0.00    -0.269 OA
BRANCH  29  32
ATOM     32  C   UNL     1      -5.004   4.482  -6.048  1.00  0.00     0.039 A 
ATOM     33  C   UNL     1      -5.487   5.792  -6.103  1.00  0.00     0.014 A 
ATOM     34  C   UNL     1      -3.644   4.242  -5.836  1.00  0.00     0.014 A 
ATOM     35  C   UNL     1      -4.613   6.861  -5.894  1.00  0.00     0.010 A 
ATOM     36  C   UNL     1      -2.787   5.304  -5.559  1.00  0.00     0.010 A 
ATOM     37  C   UNL     1      -3.261   6.625  -5.596  1.00  0.00    -0.014 A 
BRANCH  37  38
ATOM     38  C   UNL     1      -2.321   7.745  -5.340  1.00  0.00     0.031 A 
ATOM     39  C   UNL     1      -1.172   7.992  -6.279  1.00  0.00     0.074 A 
ATOM     40  C   UNL     1      -2.466   8.498  -4.234  1.00  0.00     0.049 A 
ATOM     41  N   UNL     1      -0.199   8.863  -6.187  1.00  0.00    -0.248 NA
ATOM     42  C   UNL     1      -1.092   7.126  -7.467  1.00  0.00     0.031 C 
ATOM     43  C   UNL     1      -3.517   8.332  -3.229  1.00  0.00     0.029 A 
ATOM     44  N   UNL     1      -1.720   9.550  -3.762  1.00  0.00    -0.354 N 
ATOM     45  C   UNL     1       0.612   8.640  -7.293  1.00  0.00     0.074 A 
ATOM     46  C   UNL     1       0.050   7.519  -8.013  1.00  0.00     0.031 C 
ATOM     47  C   UNL     1      -3.360   9.259  -2.270  1.00  0.00     0.029 A 
ATOM     48  C   UNL     1      -2.178  10.060  -2.572  1.00  0.00     0.049 A 
ATOM     49  H   UNL     1      -0.931   9.904  -4.233  1.00  0.00     0.167 HD
ATOM     50  C   UNL     1       1.712   9.326  -7.684  1.00  0.00     0.037 A 
ATOM     51  C   UNL     1      -1.692  11.057  -1.808  1.00  0.00     0.037 A 
ATOM     52  C   UNL     1       2.253  10.459  -6.979  1.00  0.00     0.049 A 
ATOM     53  C   UNL     1      -0.463  11.797  -2.263  1.00  0.00     0.074 A 
ATOM     54  C   UNL     1       3.334  11.253  -7.320  1.00  0.00     0.029 A 
ATOM     55  N   UNL     1       1.748  10.960  -5.788  1.00  0.00    -0.354 N 
ATOM     56  N   UNL     1       0.262  11.615  -3.340  1.00  0.00    -0.248 NA
ATOM     57  C   UNL     1       0.012  12.886  -1.399  1.00  0.00     0.031 C 
ATOM     58  C   UNL     1       3.510  12.207  -6.314  1.00  0.00     0.029 A 
ATOM     59  C   UNL     1       2.508  12.041  -5.372  1.00  0.00     0.049 A 
ATOM     60  H   UNL     1       0.966  10.601  -5.310  1.00  0.00     0.167 HD
ATOM     61  C   UNL     1       1.255  12.585  -3.301  1.00  0.00     0.074 A 
ATOM     62  C   UNL     1       1.032  13.361  -2.100  1.00  0.00     0.031 C 
ATOM     63  C   UNL     1       2.261  12.812  -4.180  1.00  0.00     0.037 A 
BRANCH  50  64
ATOM     64  C   UNL     1       2.404   8.876  -8.939  1.00  0.00     0.064 A 
ATOM     65  C   UNL     1       1.821   9.053 -10.203  1.00  0.00     0.173 A 
ATOM     66  C   UNL     1       3.683   8.303  -8.882  1.00  0.00     0.173 A 
ATOM     67  F   UNL     1       0.595   9.586 -10.312  1.00  0.00    -0.203 F 
ATOM     68  C   UNL     1       2.482   8.650 -11.361  1.00  0.00     0.198 A 
ATOM     69  C   UNL     1       4.354   7.929 -10.044  1.00  0.00     0.198 A 
ATOM     70  F   UNL     1       4.289   8.117  -7.700  1.00  0.00    -0.203 F 
ATOM     71  F   UNL     1       1.885   8.788 -12.553  1.00  0.00    -0.200 F 
ATOM     72  C   UNL     1       3.750   8.096 -11.281  1.00  0.00     0.200 A 
ATOM     73  F   UNL     1       5.586   7.407  -9.966  1.00  0.00    -0.200 F 
ATOM     74  F   UNL     1       4.390   7.719 -12.397  1.00  0.00    -0.200 F 
ENDBRANCH  50  64
BRANCH  51  75
ATOM     75  C   UNL     1      -2.378  11.430  -0.543  1.00  0.00     0.064 A 
ATOM     76  C   UNL     1      -3.039  12.660  -0.418  1.00  0.00     0.173 A 
ATOM     77  C   UNL     1      -2.373  10.577   0.571  1.00  0.00     0.173 A 
ATOM     78  F   UNL     1      -3.054  13.519  -1.448  1.00  0.00    -0.203 F 
ATOM     79  C   UNL     1      -3.644  13.035   0.780  1.00  0.00     0.198 A 
ATOM     80  C   UNL     1      -3.005  10.940   1.758  1.00  0.00     0.198 A 
ATOM     81  F   UNL     1      -1.761   9.386   0.502  1.00  0.00    -0.203 F 
ATOM     82  F   UNL     1      -4.221  14.239   0.888  1.00  0.00    -0.200 F 
ATOM     83  C   UNL     1      -3.630  12.173   1.866  1.00  0.00     0.200 A 
ATOM     84  F   UNL     1      -3.002  10.097   2.800  1.00  0.00    -0.200 F 
ATOM     85  F   UNL     1      -4.211  12.533   3.018  1.00  0.00    -0.200 F 
ENDBRANCH  51  75
BRANCH  63  86
ATOM     86  C   UNL     1       3.172  13.971  -3.899  1.00  0.00     0.064 A 
ATOM     87  C   UNL     1       4.107  13.938  -2.854  1.00  0.00     0.173 A 
ATOM     88  C   UNL     1       3.134  15.114  -4.712  1.00  0.00     0.173 A 
ATOM     89  F   UNL     1       4.171  12.874  -2.039  1.00  0.00    -0.203 F 
ATOM     90  C   UNL     1       4.954  15.018  -2.618  1.00  0.00     0.198 A 
ATOM     91  C   UNL     1       4.003  16.179  -4.492  1.00  0.00     0.198 A 
ATOM     92  F   UNL     1       2.263  15.193  -5.729  1.00  0.00    -0.203 F 
ATOM     93  F   UNL     1       5.806  14.984  -1.585  1.00  0.00    -0.200 F 
ATOM     94  C   UNL     1       4.907  16.133  -3.442  1.00  0.00     0.200 A 
ATOM     95  F   UNL     1       3.966  17.250  -5.297  1.00  0.00    -0.200 F 
ATOM     96  F   UNL     1       5.728  17.168  -3.217  1.00  0.00    -0.200 F 
ENDBRANCH  63  86
ENDBRANCH  37  38
ENDBRANCH  29  32
ENDBRANCH  27  28
ENDBRANCH  26  27
ENDBRANCH  25  26
ENDBRANCH   1  25
TORSDOF 15
