REMARK SMILES C[C@@H]1CCCCN1S(=O)(=O)c1ccc(CCC(=O)NCCCCCCNC(=O)c2ccc(-c3c4nc(c(-c5c(F)c(F)c(F)c(F)c5F)c5ccc([nH]5)c(-c5c(F)c(F)c(F)c(F)c5F)c5nc(c(-c6c(F)c(F)c(F)c(F)c6F)c6ccc3[nH]6)C=C5)C=C4)cc2)cc1
REMARK SMILES IDX 21 1 20 2 19 3 17 4 18 5 16 7 15 8 14 9 11 10 12 11 93 12
REMARK SMILES IDX 13 13 92 14 8 15 9 16 10 17 7 18 1 19 2 20 3 21 4 22 6 23
REMARK SMILES IDX 5 24 22 25 23 26 24 27 25 28 26 29 27 30 28 32 29 33 30 34
REMARK SMILES IDX 91 35 31 36 90 37 32 38 33 39 34 40 84 41 35 42 89 43 83 44
REMARK SMILES IDX 85 45 36 46 88 47 82 48 81 49 37 51 69 52 49 53 68 54 50 55
REMARK SMILES IDX 53 56 67 57 86 58 51 59 52 60 66 62 87 63 54 64 38 65 39 66
REMARK SMILES IDX 47 67 40 68 41 69 45 70 48 71 42 72 43 73 46 74 44 75 70 76
REMARK SMILES IDX 71 77 79 78 72 79 73 80 77 81 80 82 74 83 75 84 78 85 76 86
REMARK SMILES IDX 55 87 56 88 64 89 57 90 58 91 62 92 65 93 59 94 60 95 63 96
REMARK SMILES IDX 61 97
REMARK H PARENT 19 6 26 31 85 50 53 61
REMARK Flexibility Score: inf
ROOT
ATOM      1  C   UNL     1       3.591  -4.365  -2.712  1.00  0.00     0.021 C 
ENDROOT
BRANCH   1   2
ATOM      2  C   UNL     1       5.118  -4.444  -2.635  1.00  0.00     0.116 C 
BRANCH   2   3
ATOM      3  N   UNL     1       5.697  -4.642  -3.955  1.00  0.00    -0.356 N 
ATOM      4  C   UNL     1       6.438  -3.808  -4.737  1.00  0.00     0.220 C 
ATOM      5  O   UNL     1       6.684  -4.160  -5.893  1.00  0.00    -0.275 OA
ATOM      6  H   UNL     1       5.524  -5.527  -4.350  1.00  0.00     0.163 HD
BRANCH   4   7
ATOM      7  C   UNL     1       6.978  -2.494  -4.205  1.00  0.00     0.105 C 
BRANCH   7   8
ATOM      8  C   UNL     1       6.225  -1.276  -4.756  1.00  0.00     0.045 C 
BRANCH   8   9
ATOM      9  C   UNL     1       4.982  -0.960  -3.956  1.00  0.00    -0.047 A 
ATOM     10  C   UNL     1       2.726  -0.835  -2.305  1.00  0.00     0.082 A 
ATOM     11  C   UNL     1       2.578  -1.117  -3.668  1.00  0.00     0.022 A 
ATOM     12  C   UNL     1       3.985  -0.510  -1.793  1.00  0.00     0.022 A 
ATOM     13  C   UNL     1       3.708  -1.184  -4.490  1.00  0.00     0.005 A 
ATOM     14  C   UNL     1       5.103  -0.543  -2.624  1.00  0.00     0.005 A 
BRANCH  10  15
ATOM     15  S   UNL     1       1.448  -1.349  -1.179  1.00  0.00     0.243 S 
ATOM     16  O   UNL     1       2.089  -1.912  -0.009  1.00  0.00    -0.207 OA
ATOM     17  O   UNL     1       0.530  -2.180  -1.937  1.00  0.00    -0.207 OA
BRANCH  15  18
ATOM     18  N   UNL     1       0.577   0.026  -0.700  1.00  0.00    -0.195 NA
ATOM     19  C   UNL     1       2.101   0.888   1.145  1.00  0.00     0.026 C 
ATOM     20  C   UNL     1       1.276   1.208  -0.102  1.00  0.00     0.070 C 
ATOM     21  C   UNL     1       0.246   2.309   0.256  1.00  0.00     0.020 C 
ATOM     22  C   UNL     1      -1.106   2.115  -0.418  1.00  0.00     0.003 C 
ATOM     23  C   UNL     1      -0.651  -0.335   0.052  1.00  0.00     0.103 C 
ATOM     24  C   UNL     1      -1.699   0.765  -0.041  1.00  0.00     0.017 C 
ENDBRANCH  15  18
ENDBRANCH  10  15
ENDBRANCH   8   9
ENDBRANCH   7   8
ENDBRANCH   4   7
ENDBRANCH   2   3
ENDBRANCH   1   2
BRANCH   1  25
ATOM     25  C   UNL     1       2.851  -5.706  -2.675  1.00  0.00     0.002 C 
BRANCH  25  26
ATOM     26  C   UNL     1       2.792  -6.403  -1.308  1.00  0.00     0.002 C 
BRANCH  26  27
ATOM     27  C   UNL     1       2.215  -5.590  -0.140  1.00  0.00     0.021 C 
BRANCH  27  28
ATOM     28  C   UNL     1       0.778  -5.089  -0.304  1.00  0.00     0.116 C 
BRANCH  28  29
ATOM     29  N   UNL     1      -0.211  -6.152  -0.213  1.00  0.00    -0.352 N 
ATOM     30  C   UNL     1      -1.343  -6.270   0.557  1.00  0.00     0.251 C 
ATOM     31  H   UNL     1      -0.040  -6.919  -0.806  1.00  0.00     0.163 HD
ATOM     32  O   UNL     1      -1.977  -7.324   0.527  1.00  0.00    -0.269 OA
BRANCH  30  33
ATOM     33  C   UNL     1      -1.817  -5.180   1.451  1.00  0.00     0.039 A 
ATOM     34  C   UNL     1      -2.326  -5.529   2.708  1.00  0.00     0.014 A 
ATOM     35  C   UNL     1      -1.846  -3.841   1.063  1.00  0.00     0.014 A 
ATOM     36  C   UNL     1      -2.788  -4.542   3.591  1.00  0.00     0.010 A 
ATOM     37  C   UNL     1      -2.263  -2.853   1.969  1.00  0.00     0.010 A 
ATOM     38  C   UNL     1      -2.723  -3.181   3.251  1.00  0.00    -0.014 A 
BRANCH  38  39
ATOM     39  C   UNL     1      -3.061  -2.126   4.256  1.00  0.00     0.031 A 
ATOM     40  C   UNL     1      -4.167  -1.121   4.042  1.00  0.00     0.074 A 
ATOM     41  C   UNL     1      -2.318  -2.030   5.379  1.00  0.00     0.049 A 
ATOM     42  N   UNL     1      -4.628  -0.212   4.871  1.00  0.00    -0.248 NA
ATOM     43  C   UNL     1      -4.814  -1.101   2.723  1.00  0.00     0.031 C 
ATOM     44  C   UNL     1      -1.131  -2.833   5.676  1.00  0.00     0.029 A 
ATOM     45  N   UNL     1      -2.458  -1.227   6.487  1.00  0.00    -0.354 N 
ATOM     46  C   UNL     1      -5.607   0.486   4.176  1.00  0.00     0.074 A 
ATOM     47  C   UNL     1      -5.631  -0.061   2.835  1.00  0.00     0.031 C 
ATOM     48  C   UNL     1      -0.690  -2.530   6.906  1.00  0.00     0.029 A 
ATOM     49  C   UNL     1      -1.552  -1.503   7.483  1.00  0.00     0.049 A 
ATOM     50  H   UNL     1      -3.141  -0.522   6.559  1.00  0.00     0.167 HD
ATOM     51  C   UNL     1      -6.435   1.467   4.617  1.00  0.00     0.037 A 
ATOM     52  C   UNL     1      -1.443  -1.014   8.733  1.00  0.00     0.037 A 
ATOM     53  C   UNL     1      -6.452   1.990   5.962  1.00  0.00     0.049 A 
ATOM     54  C   UNL     1      -2.436  -0.003   9.234  1.00  0.00     0.074 A 
ATOM     55  C   UNL     1      -7.322   2.914   6.519  1.00  0.00     0.029 A 
ATOM     56  N   UNL     1      -5.561   1.635   6.962  1.00  0.00    -0.354 N 
ATOM     57  N   UNL     1      -3.441   0.553   8.605  1.00  0.00    -0.248 NA
ATOM     58  C   UNL     1      -2.290   0.430  10.632  1.00  0.00     0.031 C 
ATOM     59  C   UNL     1      -6.939   3.141   7.846  1.00  0.00     0.029 A 
ATOM     60  C   UNL     1      -5.856   2.328   8.128  1.00  0.00     0.049 A 
ATOM     61  H   UNL     1      -4.828   0.987   6.860  1.00  0.00     0.167 HD
ATOM     62  C   UNL     1      -4.062   1.376   9.534  1.00  0.00     0.074 A 
ATOM     63  C   UNL     1      -3.335   1.232  10.777  1.00  0.00     0.031 C 
ATOM     64  C   UNL     1      -5.139   2.182   9.367  1.00  0.00     0.037 A 
BRANCH  51  65
ATOM     65  C   UNL     1      -7.436   2.027   3.647  1.00  0.00     0.064 A 
ATOM     66  C   UNL     1      -8.541   1.273   3.221  1.00  0.00     0.173 A 
ATOM     67  C   UNL     1      -7.339   3.354   3.200  1.00  0.00     0.173 A 
ATOM     68  F   UNL     1      -8.680  -0.001   3.618  1.00  0.00    -0.203 F 
ATOM     69  C   UNL     1      -9.496   1.817   2.367  1.00  0.00     0.198 A 
ATOM     70  C   UNL     1      -8.312   3.904   2.368  1.00  0.00     0.198 A 
ATOM     71  F   UNL     1      -6.311   4.125   3.587  1.00  0.00    -0.203 F 
ATOM     72  F   UNL     1     -10.521   1.063   1.945  1.00  0.00    -0.200 F 
ATOM     73  C   UNL     1      -9.386   3.134   1.948  1.00  0.00     0.200 A 
ATOM     74  F   UNL     1      -8.214   5.183   1.978  1.00  0.00    -0.200 F 
ATOM     75  F   UNL     1     -10.314   3.660   1.137  1.00  0.00    -0.200 F 
ENDBRANCH  51  65
BRANCH  52  76
ATOM     76  C   UNL     1      -0.394  -1.543   9.643  1.00  0.00     0.064 A 
ATOM     77  C   UNL     1      -0.735  -2.387  10.710  1.00  0.00     0.173 A 
ATOM     78  C   UNL     1       0.956  -1.208   9.477  1.00  0.00     0.173 A 
ATOM     79  F   UNL     1      -2.019  -2.716  10.919  1.00  0.00    -0.203 F 
ATOM     80  C   UNL     1       0.233  -2.855  11.594  1.00  0.00     0.198 A 
ATOM     81  C   UNL     1       1.927  -1.698  10.347  1.00  0.00     0.198 A 
ATOM     82  F   UNL     1       1.330  -0.408   8.468  1.00  0.00    -0.203 F 
ATOM     83  F   UNL     1      -0.126  -3.618  12.635  1.00  0.00    -0.200 F 
ATOM     84  C   UNL     1       1.564  -2.513  11.409  1.00  0.00     0.200 A 
ATOM     85  F   UNL     1       3.214  -1.375  10.161  1.00  0.00    -0.200 F 
ATOM     86  F   UNL     1       2.496  -2.961  12.262  1.00  0.00    -0.200 F 
ENDBRANCH  52  76
BRANCH  64  87
ATOM     87  C   UNL     1      -5.617   2.947  10.567  1.00  0.00     0.064 A 
ATOM     88  C   UNL     1      -4.884   4.021  11.096  1.00  0.00     0.173 A 
ATOM     89  C   UNL     1      -6.823   2.603  11.197  1.00  0.00     0.173 A 
ATOM     90  F   UNL     1      -3.717   4.380  10.541  1.00  0.00    -0.203 F 
ATOM     91  C   UNL     1      -5.322   4.696  12.233  1.00  0.00     0.198 A 
ATOM     92  C   UNL     1      -7.272   3.299  12.316  1.00  0.00     0.198 A 
ATOM     93  F   UNL     1      -7.565   1.589  10.728  1.00  0.00    -0.203 F 
ATOM     94  F   UNL     1      -4.576   5.680  12.755  1.00  0.00    -0.200 F 
ATOM     95  C   UNL     1      -6.516   4.338  12.840  1.00  0.00     0.200 A 
ATOM     96  F   UNL     1      -8.431   2.958  12.896  1.00  0.00    -0.200 F 
ATOM     97  F   UNL     1      -6.933   4.985  13.937  1.00  0.00    -0.200 F 
ENDBRANCH  64  87
ENDBRANCH  38  39
ENDBRANCH  30  33
ENDBRANCH  28  29
ENDBRANCH  27  28
ENDBRANCH  26  27
ENDBRANCH  25  26
ENDBRANCH   1  25
TORSDOF 17
