REMARK SMILES COc1ccc2ccccc2c1CNc1ccc(C(=O)NCCCCCCNC(=O)c2ccc(-c3c4nc(c(-c5c(F)c(F)c(F)c(F)c5F)c5ccc([nH]5)c(-c5c(F)c(F)c(F)c(F)c5F)c5nc(c(-c6c(F)c(F)c(F)c(F)c6F)c6ccc3[nH]6)C=C5)C=C4)cc2)c(Cl)c1
REMARK SMILES IDX 23 1 22 2 21 3 19 4 20 5 18 7 15 8 16 9 96 10 17 11 94 12
REMARK SMILES IDX 95 13 14 14 13 16 12 17 3 18 4 19 5 20 11 21 6 22 10 23 7 24
REMARK SMILES IDX 9 25 8 26 2 27 1 28 24 29 25 30 26 31 27 32 28 33 29 34
REMARK SMILES IDX 30 36 31 37 32 38 93 39 33 40 92 41 34 42 35 43 36 44 86 45
REMARK SMILES IDX 37 46 91 47 85 48 87 49 38 50 90 51 84 52 83 53 39 55 71 56
REMARK SMILES IDX 51 57 70 58 52 59 55 60 69 61 88 62 53 63 54 64 68 66 89 67
REMARK SMILES IDX 56 68 40 69 41 70 49 71 42 72 43 73 47 74 50 75 44 76 45 77
REMARK SMILES IDX 48 78 46 79 72 80 73 81 81 82 74 83 75 84 79 85 82 86 76 87
REMARK SMILES IDX 77 88 80 89 78 90 57 91 58 92 66 93 59 94 60 95 64 96 67 97
REMARK SMILES IDX 61 98 62 99 65 100 63 101
REMARK H PARENT 21 6 14 15 28 35 87 54 55 65
REMARK Flexibility Score: inf
ROOT
ATOM      1  C   UNL     1      -6.114   9.576   0.208  1.00  0.00     0.021 C 
ENDROOT
BRANCH   1   2
ATOM      2  C   UNL     1      -6.800   8.214   0.388  1.00  0.00     0.116 C 
BRANCH   2   3
ATOM      3  N   UNL     1      -6.963   7.597  -0.910  1.00  0.00    -0.352 N 
ATOM      4  C   UNL     1      -6.287   6.632  -1.601  1.00  0.00     0.252 C 
ATOM      5  O   UNL     1      -6.635   6.487  -2.779  1.00  0.00    -0.269 OA
ATOM      6  H   UNL     1      -7.734   7.952  -1.407  1.00  0.00     0.163 HD
BRANCH   4   7
ATOM      7  C   UNL     1      -5.269   5.686  -1.056  1.00  0.00     0.058 A 
ATOM      8  C   UNL     1      -3.360   3.647  -0.460  1.00  0.00     0.036 A 
ATOM      9  C   UNL     1      -4.343   3.434  -1.418  1.00  0.00     0.026 A 
ATOM     10  C   UNL     1      -3.358   4.868   0.216  1.00  0.00     0.047 A 
ATOM     11  C   UNL     1      -5.302   4.418  -1.680  1.00  0.00     0.017 A 
ATOM     12  C   UNL     1      -4.240   5.909  -0.135  1.00  0.00     0.055 A 
ATOM     13  Cl  UNL     1      -3.737   7.452   0.450  1.00  0.00    -0.083 Cl
BRANCH   8  14
ATOM     14  N   UNL     1      -2.275   2.790  -0.327  1.00  0.00    -0.381 N 
ATOM     15  H   UNL     1      -2.114   2.300   0.511  1.00  0.00     0.160 HD
BRANCH  14  16
ATOM     16  C   UNL     1      -1.376   2.638  -1.478  1.00  0.00     0.153 C 
BRANCH  16  17
ATOM     17  C   UNL     1       0.027   3.113  -1.120  1.00  0.00     0.021 A 
ATOM     18  C   UNL     1       1.009   2.156  -0.791  1.00  0.00     0.124 A 
ATOM     19  C   UNL     1       2.292   2.556  -0.422  1.00  0.00     0.047 A 
ATOM     20  C   UNL     1       2.602   3.910  -0.319  1.00  0.00     0.012 A 
ATOM     21  C   UNL     1       0.355   4.507  -1.053  1.00  0.00    -0.010 A 
ATOM     22  C   UNL     1       1.650   4.890  -0.618  1.00  0.00    -0.018 A 
ATOM     23  C   UNL     1      -0.530   5.556  -1.398  1.00  0.00     0.009 A 
ATOM     24  C   UNL     1       1.988   6.249  -0.490  1.00  0.00     0.009 A 
ATOM     25  C   UNL     1      -0.190   6.904  -1.252  1.00  0.00     0.001 A 
ATOM     26  C   UNL     1       1.069   7.251  -0.790  1.00  0.00     0.001 A 
BRANCH  18  27
ATOM     27  O   UNL     1       0.676   0.832  -0.927  1.00  0.00    -0.496 OA
ATOM     28  C   UNL     1       1.154  -0.012   0.116  1.00  0.00     0.278 C 
ENDBRANCH  18  27
ENDBRANCH  16  17
ENDBRANCH  14  16
ENDBRANCH   8  14
ENDBRANCH   4   7
ENDBRANCH   2   3
ENDBRANCH   1   2
BRANCH   1  29
ATOM     29  C   UNL     1      -7.092  10.742   0.027  1.00  0.00     0.002 C 
BRANCH  29  30
ATOM     30  C   UNL     1      -7.929  11.061   1.270  1.00  0.00     0.002 C 
BRANCH  30  31
ATOM     31  C   UNL     1      -7.121  11.308   2.549  1.00  0.00     0.021 C 
BRANCH  31  32
ATOM     32  C   UNL     1      -6.126  12.461   2.455  1.00  0.00     0.116 C 
BRANCH  32  33
ATOM     33  N   UNL     1      -6.803  13.732   2.246  1.00  0.00    -0.352 N 
ATOM     34  C   UNL     1      -6.806  14.853   3.033  1.00  0.00     0.251 C 
ATOM     35  H   UNL     1      -7.335  13.796   1.421  1.00  0.00     0.163 HD
ATOM     36  O   UNL     1      -7.635  15.742   2.840  1.00  0.00    -0.269 OA
BRANCH  34  37
ATOM     37  C   UNL     1      -5.814  15.000   4.117  1.00  0.00     0.039 A 
ATOM     38  C   UNL     1      -6.231  15.494   5.356  1.00  0.00     0.014 A 
ATOM     39  C   UNL     1      -4.469  14.686   3.900  1.00  0.00     0.014 A 
ATOM     40  C   UNL     1      -5.306  15.630   6.393  1.00  0.00     0.010 A 
ATOM     41  C   UNL     1      -3.562  14.760   4.954  1.00  0.00     0.010 A 
ATOM     42  C   UNL     1      -3.970  15.241   6.207  1.00  0.00    -0.014 A 
BRANCH  42  43
ATOM     43  C   UNL     1      -2.982  15.337   7.310  1.00  0.00     0.031 A 
ATOM     44  C   UNL     1      -1.813  16.276   7.196  1.00  0.00     0.074 A 
ATOM     45  C   UNL     1      -3.099  14.526   8.379  1.00  0.00     0.049 A 
ATOM     46  N   UNL     1      -0.804  16.445   8.014  1.00  0.00    -0.248 NA
ATOM     47  C   UNL     1      -1.752  17.117   5.990  1.00  0.00     0.031 C 
ATOM     48  C   UNL     1      -4.158  13.534   8.574  1.00  0.00     0.029 A 
ATOM     49  N   UNL     1      -2.310  14.393   9.494  1.00  0.00    -0.354 N 
ATOM     50  C   UNL     1       0.018  17.388   7.411  1.00  0.00     0.074 A 
ATOM     51  C   UNL     1      -0.586  17.728   6.141  1.00  0.00     0.031 C 
ATOM     52  C   UNL     1      -3.956  12.899   9.740  1.00  0.00     0.029 A 
ATOM     53  C   UNL     1      -2.739  13.415  10.358  1.00  0.00     0.049 A 
ATOM     54  H   UNL     1      -1.512  14.946   9.659  1.00  0.00     0.167 HD
ATOM     55  C   UNL     1       1.164  17.931   7.884  1.00  0.00     0.037 A 
ATOM     56  C   UNL     1      -2.201  12.975  11.512  1.00  0.00     0.037 A 
ATOM     57  C   UNL     1       1.736  17.623   9.168  1.00  0.00     0.049 A 
ATOM     58  C   UNL     1      -0.943  13.621  12.027  1.00  0.00     0.074 A 
ATOM     59  C   UNL     1       2.840  18.190   9.779  1.00  0.00     0.029 A 
ATOM     60  N   UNL     1       1.247  16.660  10.039  1.00  0.00    -0.354 N 
ATOM     61  N   UNL     1      -0.224  14.577  11.490  1.00  0.00    -0.248 NA
ATOM     62  C   UNL     1      -0.427  13.135  13.315  1.00  0.00     0.031 C 
ATOM     63  C   UNL     1       3.050  17.537  10.997  1.00  0.00     0.029 A 
ATOM     64  C   UNL     1       2.045  16.599  11.170  1.00  0.00     0.049 A 
ATOM     65  H   UNL     1       0.452  16.103   9.877  1.00  0.00     0.167 HD
ATOM     66  C   UNL     1       0.809  14.825  12.383  1.00  0.00     0.074 A 
ATOM     67  C   UNL     1       0.614  13.932  13.506  1.00  0.00     0.031 C 
ATOM     68  C   UNL     1       1.829  15.711  12.283  1.00  0.00     0.037 A 
BRANCH  55  69
ATOM     69  C   UNL     1       1.884  18.924   7.018  1.00  0.00     0.064 A 
ATOM     70  C   UNL     1       1.379  20.213   6.797  1.00  0.00     0.173 A 
ATOM     71  C   UNL     1       3.130  18.602   6.459  1.00  0.00     0.173 A 
ATOM     72  F   UNL     1       0.187  20.567   7.301  1.00  0.00    -0.203 F 
ATOM     73  C   UNL     1       2.088  21.140   6.036  1.00  0.00     0.198 A 
ATOM     74  C   UNL     1       3.849  19.539   5.722  1.00  0.00     0.198 A 
ATOM     75  F   UNL     1       3.661  17.384   6.644  1.00  0.00    -0.203 F 
ATOM     76  F   UNL     1       1.570  22.355   5.810  1.00  0.00    -0.200 F 
ATOM     77  C   UNL     1       3.326  20.805   5.508  1.00  0.00     0.200 A 
ATOM     78  F   UNL     1       5.052  19.219   5.224  1.00  0.00    -0.200 F 
ATOM     79  F   UNL     1       4.014  21.703   4.790  1.00  0.00    -0.200 F 
ENDBRANCH  55  69
BRANCH  56  80
ATOM     80  C   UNL     1      -2.851  11.870  12.264  1.00  0.00     0.064 A 
ATOM     81  C   UNL     1      -3.459  12.101  13.506  1.00  0.00     0.173 A 
ATOM     82  C   UNL     1      -2.858  10.558  11.769  1.00  0.00     0.173 A 
ATOM     83  F   UNL     1      -3.461  13.335  14.032  1.00  0.00    -0.203 F 
ATOM     84  C   UNL     1      -4.022  11.056  14.238  1.00  0.00     0.198 A 
ATOM     85  C   UNL     1      -3.449   9.520  12.487  1.00  0.00     0.198 A 
ATOM     86  F   UNL     1      -2.296  10.284  10.583  1.00  0.00    -0.203 F 
ATOM     87  F   UNL     1      -4.546  11.296  15.448  1.00  0.00    -0.200 F 
ATOM     88  C   UNL     1      -4.020   9.768  13.726  1.00  0.00     0.200 A 
ATOM     89  F   UNL     1      -3.458   8.279  11.982  1.00  0.00    -0.200 F 
ATOM     90  F   UNL     1      -4.559   8.764  14.430  1.00  0.00    -0.200 F 
ENDBRANCH  56  80
BRANCH  68  91
ATOM     91  C   UNL     1       2.793  15.785  13.430  1.00  0.00     0.064 A 
ATOM     92  C   UNL     1       3.721  14.764  13.679  1.00  0.00     0.173 A 
ATOM     93  C   UNL     1       2.815  16.912  14.266  1.00  0.00     0.173 A 
ATOM     94  F   UNL     1       3.729  13.659  12.917  1.00  0.00    -0.203 F 
ATOM     95  C   UNL     1       4.619  14.857  14.738  1.00  0.00     0.198 A 
ATOM     96  C   UNL     1       3.735  17.015  15.305  1.00  0.00     0.198 A 
ATOM     97  F   UNL     1       1.952  17.920  14.066  1.00  0.00    -0.203 F 
ATOM     98  F   UNL     1       5.465  13.847  14.987  1.00  0.00    -0.200 F 
ATOM     99  C   UNL     1       4.630  15.985  15.545  1.00  0.00     0.200 A 
ATOM    100  F   UNL     1       3.754  18.113  16.075  1.00  0.00    -0.200 F 
ATOM    101  F   UNL     1       5.502  16.076  16.559  1.00  0.00    -0.200 F 
ENDBRANCH  68  91
ENDBRANCH  42  43
ENDBRANCH  34  37
ENDBRANCH  32  33
ENDBRANCH  31  32
ENDBRANCH  30  31
ENDBRANCH  29  30
ENDBRANCH   1  29
TORSDOF 17
