REMARK SMILES COc1ccc(-c2[nH]nc3nc(-c4ccc(C(F)(F)F)cc4)cc(C(=O)NCCCCCCNC(=O)c4ccc(-c5c6nc(c(-c7c(F)c(F)c(F)c(F)c7F)c7ccc([nH]7)c(-c7c(F)c(F)c(F)c(F)c7F)c7nc(c(-c8c(F)c(F)c(F)c(F)c8F)c8ccc5[nH]8)C=C7)C=C6)cc4)c23)cc1
REMARK SMILES IDX 30 1 29 2 28 3 27 4 25 5 26 6 24 8 7 9 8 10 100 11 9 12
REMARK SMILES IDX 10 14 11 15 23 16 12 17 6 18 3 19 4 20 102 21 5 22 101 23
REMARK SMILES IDX 2 24 1 25 13 26 14 27 22 28 15 29 21 30 16 31 17 32 18 33
REMARK SMILES IDX 19 34 20 35 31 36 32 37 33 38 34 39 35 40 36 42 37 43 38 44
REMARK SMILES IDX 99 45 39 46 98 47 40 48 41 49 42 50 92 51 43 52 97 53 91 54
REMARK SMILES IDX 93 55 44 56 96 57 90 58 89 59 45 61 77 62 57 63 76 64 58 65
REMARK SMILES IDX 61 66 75 67 94 68 59 69 60 70 74 72 95 73 62 74 46 75 47 76
REMARK SMILES IDX 55 77 48 78 49 79 53 80 56 81 50 82 51 83 54 84 52 85 78 86
REMARK SMILES IDX 79 87 87 88 80 89 81 90 85 91 88 92 82 93 83 94 86 95 84 96
REMARK SMILES IDX 63 97 64 98 72 99 65 100 66 101 70 102 73 103 67 104 68 105
REMARK SMILES IDX 71 106 69 107
REMARK H PARENT 27 7 8 13 34 41 93 60 61 71
REMARK Flexibility Score: inf
ROOT
ATOM      1  C   UNL     1       7.867   0.364  -6.176  1.00  0.00     0.002 C 
ENDROOT
BRANCH   1   2
ATOM      2  C   UNL     1       7.458   1.812  -6.484  1.00  0.00     0.021 C 
BRANCH   2   3
ATOM      3  C   UNL     1       6.080   1.913  -7.136  1.00  0.00     0.116 C 
BRANCH   3   4
ATOM      4  N   UNL     1       5.027   1.755  -6.157  1.00  0.00    -0.352 N 
ATOM      5  C   UNL     1       4.102   2.565  -5.557  1.00  0.00     0.252 C 
ATOM      6  O   UNL     1       3.237   1.946  -4.946  1.00  0.00    -0.269 OA
ATOM      7  H   UNL     1       4.959   0.825  -5.840  1.00  0.00     0.163 HD
BRANCH   5   8
ATOM      8  C   UNL     1       4.053   4.042  -5.672  1.00  0.00     0.055 A 
ATOM      9  C   UNL     1       2.065   4.688  -4.215  1.00  0.00     0.075 A 
ATOM     10  N   UNL     1       1.428   5.903  -4.097  1.00  0.00    -0.275 N 
ATOM     11  C   UNL     1       3.071   4.909  -5.147  1.00  0.00     0.059 A 
ATOM     12  N   UNL     1       1.924   6.887  -4.856  1.00  0.00    -0.154 NA
ATOM     13  H   UNL     1       0.661   6.039  -3.494  1.00  0.00     0.190 HD
ATOM     14  C   UNL     1       2.936   6.308  -5.498  1.00  0.00     0.182 A 
ATOM     15  N   UNL     1       3.746   6.931  -6.394  1.00  0.00    -0.226 NA
ATOM     16  C   UNL     1       4.957   4.789  -6.436  1.00  0.00     0.043 A 
ATOM     17  C   UNL     1       4.737   6.127  -6.842  1.00  0.00     0.074 A 
BRANCH   9  18
ATOM     18  C   UNL     1       1.623   3.567  -3.387  1.00  0.00     0.001 A 
ATOM     19  C   UNL     1       0.779   1.345  -1.877  1.00  0.00     0.118 A 
ATOM     20  C   UNL     1      -0.089   1.954  -2.784  1.00  0.00     0.047 A 
ATOM     21  C   UNL     1       2.068   1.852  -1.717  1.00  0.00     0.047 A 
ATOM     22  C   UNL     1       0.325   3.062  -3.529  1.00  0.00     0.014 A 
ATOM     23  C   UNL     1       2.480   2.971  -2.453  1.00  0.00     0.014 A 
BRANCH  19  24
ATOM     24  O   UNL     1       0.279   0.236  -1.251  1.00  0.00    -0.497 OA
ATOM     25  C   UNL     1       0.835  -0.056   0.025  1.00  0.00     0.278 C 
ENDBRANCH  19  24
ENDBRANCH   9  18
BRANCH  17  26
ATOM     26  C   UNL     1       5.587   6.646  -7.930  1.00  0.00     0.000 A 
ATOM     27  C   UNL     1       6.487   7.697  -7.737  1.00  0.00     0.011 A 
ATOM     28  C   UNL     1       5.577   6.001  -9.185  1.00  0.00     0.011 A 
ATOM     29  C   UNL     1       7.391   8.056  -8.748  1.00  0.00     0.014 A 
ATOM     30  C   UNL     1       6.474   6.358 -10.195  1.00  0.00     0.014 A 
ATOM     31  C   UNL     1       7.405   7.379  -9.980  1.00  0.00     0.056 A 
BRANCH  31  32
ATOM     32  C   UNL     1       8.415   7.743 -11.041  1.00  0.00     0.416 C 
ATOM     33  F   UNL     1       8.305   9.034 -11.456  1.00  0.00    -0.166 F 
ATOM     34  F   UNL     1       9.698   7.595 -10.605  1.00  0.00    -0.166 F 
ATOM     35  F   UNL     1       8.322   6.978 -12.166  1.00  0.00    -0.166 F 
ENDBRANCH  31  32
ENDBRANCH  17  26
ENDBRANCH   5   8
ENDBRANCH   3   4
ENDBRANCH   2   3
ENDBRANCH   1   2
BRANCH   1  36
ATOM     36  C   UNL     1       7.755  -0.613  -7.358  1.00  0.00     0.002 C 
BRANCH  36  37
ATOM     37  C   UNL     1       8.372  -0.135  -8.682  1.00  0.00     0.021 C 
BRANCH  37  38
ATOM     38  C   UNL     1       9.886  -0.029  -8.632  1.00  0.00     0.116 C 
BRANCH  38  39
ATOM     39  N   UNL     1      10.510  -1.344  -8.515  1.00  0.00    -0.352 N 
ATOM     40  C   UNL     1      11.844  -1.634  -8.380  1.00  0.00     0.251 C 
ATOM     41  H   UNL     1       9.899  -2.115  -8.537  1.00  0.00     0.163 HD
ATOM     42  O   UNL     1      12.285  -2.746  -8.682  1.00  0.00    -0.269 OA
BRANCH  40  43
ATOM     43  C   UNL     1      12.745  -0.599  -7.861  1.00  0.00     0.039 A 
ATOM     44  C   UNL     1      13.994  -0.384  -8.445  1.00  0.00     0.014 A 
ATOM     45  C   UNL     1      12.305   0.182  -6.792  1.00  0.00     0.014 A 
ATOM     46  C   UNL     1      14.766   0.679  -7.992  1.00  0.00     0.010 A 
ATOM     47  C   UNL     1      13.007   1.308  -6.434  1.00  0.00     0.010 A 
ATOM     48  C   UNL     1      14.253   1.541  -7.005  1.00  0.00    -0.014 A 
BRANCH  48  49
ATOM     49  C   UNL     1      14.933   2.803  -6.723  1.00  0.00     0.031 A 
ATOM     50  C   UNL     1      15.161   3.607  -7.954  1.00  0.00     0.074 A 
ATOM     51  C   UNL     1      15.138   3.289  -5.476  1.00  0.00     0.049 A 
ATOM     52  N   UNL     1      16.294   3.863  -8.517  1.00  0.00    -0.248 NA
ATOM     53  C   UNL     1      13.998   4.023  -8.762  1.00  0.00     0.031 C 
ATOM     54  C   UNL     1      14.649   2.716  -4.217  1.00  0.00     0.029 A 
ATOM     55  N   UNL     1      15.728   4.454  -5.062  1.00  0.00    -0.354 N 
ATOM     56  C   UNL     1      15.998   4.714  -9.579  1.00  0.00     0.074 A 
ATOM     57  C   UNL     1      14.588   4.587  -9.819  1.00  0.00     0.031 C 
ATOM     58  C   UNL     1      14.732   3.635  -3.231  1.00  0.00     0.029 A 
ATOM     59  C   UNL     1      15.444   4.793  -3.737  1.00  0.00     0.049 A 
ATOM     60  H   UNL     1      16.301   5.002  -5.645  1.00  0.00     0.167 HD
ATOM     61  C   UNL     1      16.869   5.716  -9.886  1.00  0.00     0.037 A 
ATOM     62  C   UNL     1      15.764   5.947  -3.099  1.00  0.00     0.037 A 
ATOM     63  C   UNL     1      18.148   5.468  -9.269  1.00  0.00     0.049 A 
ATOM     64  C   UNL     1      16.889   6.563  -3.835  1.00  0.00     0.074 A 
ATOM     65  C   UNL     1      19.228   4.639  -9.474  1.00  0.00     0.029 A 
ATOM     66  N   UNL     1      18.198   5.886  -7.969  1.00  0.00    -0.354 N 
ATOM     67  N   UNL     1      18.083   6.042  -3.880  1.00  0.00    -0.248 NA
ATOM     68  C   UNL     1      16.610   7.590  -4.832  1.00  0.00     0.031 C 
ATOM     69  C   UNL     1      19.887   4.516  -8.211  1.00  0.00     0.029 A 
ATOM     70  C   UNL     1      19.232   5.317  -7.282  1.00  0.00     0.049 A 
ATOM     71  H   UNL     1      17.562   6.524  -7.573  1.00  0.00     0.167 HD
ATOM     72  C   UNL     1      18.527   6.340  -5.150  1.00  0.00     0.074 A 
ATOM     73  C   UNL     1      17.681   7.433  -5.614  1.00  0.00     0.031 C 
ATOM     74  C   UNL     1      19.281   5.442  -5.845  1.00  0.00     0.037 A 
BRANCH  61  75
ATOM     75  C   UNL     1      16.452   7.142 -10.209  1.00  0.00     0.064 A 
ATOM     76  C   UNL     1      17.451   8.077 -10.557  1.00  0.00     0.173 A 
ATOM     77  C   UNL     1      15.200   7.702  -9.867  1.00  0.00     0.173 A 
ATOM     78  F   UNL     1      18.691   7.668 -10.865  1.00  0.00    -0.203 F 
ATOM     79  C   UNL     1      17.227   9.458 -10.504  1.00  0.00     0.198 A 
ATOM     80  C   UNL     1      14.967   9.077  -9.863  1.00  0.00     0.198 A 
ATOM     81  F   UNL     1      14.187   6.963  -9.404  1.00  0.00    -0.203 F 
ATOM     82  F   UNL     1      18.239  10.307 -10.726  1.00  0.00    -0.200 F 
ATOM     83  C   UNL     1      15.986   9.956 -10.154  1.00  0.00     0.200 A 
ATOM     84  F   UNL     1      13.766   9.538  -9.485  1.00  0.00    -0.200 F 
ATOM     85  F   UNL     1      15.783  11.276 -10.046  1.00  0.00    -0.200 F 
ENDBRANCH  61  75
BRANCH  62  86
ATOM     86  C   UNL     1      15.040   6.680  -2.032  1.00  0.00     0.064 A 
ATOM     87  C   UNL     1      15.674   7.686  -1.280  1.00  0.00     0.173 A 
ATOM     88  C   UNL     1      13.636   6.627  -1.944  1.00  0.00     0.173 A 
ATOM     89  F   UNL     1      17.007   7.827  -1.331  1.00  0.00    -0.203 F 
ATOM     90  C   UNL     1      14.945   8.614  -0.529  1.00  0.00     0.198 A 
ATOM     91  C   UNL     1      12.909   7.553  -1.191  1.00  0.00     0.198 A 
ATOM     92  F   UNL     1      12.937   5.742  -2.669  1.00  0.00    -0.203 F 
ATOM     93  F   UNL     1      15.582   9.605   0.111  1.00  0.00    -0.200 F 
ATOM     94  C   UNL     1      13.562   8.557  -0.499  1.00  0.00     0.200 A 
ATOM     95  F   UNL     1      11.570   7.509  -1.199  1.00  0.00    -0.200 F 
ATOM     96  F   UNL     1      12.858   9.491   0.155  1.00  0.00    -0.200 F 
ENDBRANCH  62  86
BRANCH  74  97
ATOM     97  C   UNL     1      20.091   4.461  -5.063  1.00  0.00     0.064 A 
ATOM     98  C   UNL     1      19.562   3.443  -4.254  1.00  0.00     0.173 A 
ATOM     99  C   UNL     1      21.484   4.534  -5.190  1.00  0.00     0.173 A 
ATOM    100  F   UNL     1      18.238   3.267  -4.142  1.00  0.00    -0.203 F 
ATOM    101  C   UNL     1      20.402   2.564  -3.571  1.00  0.00     0.198 A 
ATOM    102  C   UNL     1      22.317   3.634  -4.538  1.00  0.00     0.198 A 
ATOM    103  F   UNL     1      22.038   5.470  -5.978  1.00  0.00    -0.203 F 
ATOM    104  F   UNL     1      19.881   1.612  -2.782  1.00  0.00    -0.200 F 
ATOM    105  C   UNL     1      21.778   2.657  -3.719  1.00  0.00     0.200 A 
ATOM    106  F   UNL     1      23.643   3.707  -4.718  1.00  0.00    -0.200 F 
ATOM    107  F   UNL     1      22.584   1.794  -3.086  1.00  0.00    -0.200 F 
ENDBRANCH  74  97
ENDBRANCH  48  49
ENDBRANCH  40  43
ENDBRANCH  38  39
ENDBRANCH  37  38
ENDBRANCH  36  37
ENDBRANCH   1  36
TORSDOF 17
