REMARK SMILES Cc1ccc(S(=O)(=O)n2cc(C(=O)C(=O)N[C@@H](Cc3c[nH]c4ccccc34)C(=O)NCCCCCCNC(=O)c3ccc(-c4c5nc(c(-c6c(F)c(F)c(F)c(F)c6F)c6ccc([nH]6)c(-c6c(F)c(F)c(F)c(F)c6F)c6nc(c(-c7c(F)c(F)c(F)c(F)c7F)c7ccc4[nH]7)C=C6)C=C5)cc3)c3ccccc32)cc1
REMARK SMILES IDX 32 1 31 2 30 3 28 4 29 5 17 7 16 8 14 9 15 10 12 12 13 13
REMARK SMILES IDX 11 14 9 15 10 16 108 17 103 18 107 19 104 20 106 21 105 22
REMARK SMILES IDX 6 23 7 24 8 25 5 26 1 27 2 28 3 29 110 30 4 31 109 32 18 33
REMARK SMILES IDX 19 34 20 35 27 36 21 37 22 38 26 39 23 41 25 42 24 43 33 44
REMARK SMILES IDX 34 45 35 46 36 47 37 48 38 49 39 51 40 52 41 53 102 54 42 55
REMARK SMILES IDX 101 56 43 57 44 58 45 59 95 60 46 61 100 62 94 63 96 64
REMARK SMILES IDX 47 65 99 66 93 67 92 68 48 70 80 71 60 72 79 73 61 74 64 75
REMARK SMILES IDX 78 76 97 77 62 78 63 79 77 81 98 82 65 83 49 84 50 85 58 86
REMARK SMILES IDX 51 87 52 88 56 89 59 90 53 91 54 92 57 93 55 94 81 95 82 96
REMARK SMILES IDX 90 97 83 98 84 99 88 100 91 101 85 102 86 103 89 104 87 105
REMARK SMILES IDX 66 106 67 107 75 108 68 109 69 110 73 111 76 112 70 113
REMARK SMILES IDX 71 114 74 115 72 116
REMARK H PARENT 30 6 16 11 21 40 37 50 96 69 64 80
REMARK Flexibility Score: inf
ROOT
ATOM      1  C   UNL     1     -12.263   5.381  -2.494  1.00  0.00     0.021 C 
ENDROOT
BRANCH   1   2
ATOM      2  C   UNL     1     -12.284   4.208  -1.522  1.00  0.00     0.116 C 
BRANCH   2   3
ATOM      3  N   UNL     1     -12.058   2.897  -2.079  1.00  0.00    -0.354 N 
ATOM      4  C   UNL     1     -11.604   1.782  -1.420  1.00  0.00     0.242 C 
ATOM      5  O   UNL     1     -12.063   0.698  -1.801  1.00  0.00    -0.273 OA
ATOM      6  H   UNL     1     -12.251   2.789  -3.039  1.00  0.00     0.163 HD
BRANCH   4   7
ATOM      7  C   UNL     1     -10.683   1.831  -0.161  1.00  0.00     0.176 C 
BRANCH   7   8
ATOM      8  N   UNL     1      -9.544   2.776  -0.208  1.00  0.00    -0.337 N 
ATOM      9  C   UNL     1      -8.196   2.557  -0.475  1.00  0.00     0.293 C 
ATOM     10  O   UNL     1      -7.381   3.461  -0.314  1.00  0.00    -0.265 OA
ATOM     11  H   UNL     1      -9.780   3.713  -0.021  1.00  0.00     0.164 HD
BRANCH   9  12
ATOM     12  C   UNL     1      -7.715   1.204  -1.011  1.00  0.00     0.252 C 
ATOM     13  O   UNL     1      -8.393   0.728  -1.922  1.00  0.00    -0.283 OA
BRANCH  12  14
ATOM     14  C   UNL     1      -6.592   0.447  -0.416  1.00  0.00     0.054 A 
ATOM     15  N   UNL     1      -4.639  -0.286   0.489  1.00  0.00    -0.240 N 
ATOM     16  C   UNL     1      -5.293   0.831  -0.043  1.00  0.00     0.117 A 
ATOM     17  C   UNL     1      -5.600  -1.300   0.640  1.00  0.00     0.065 A 
ATOM     18  C   UNL     1      -6.641  -0.970  -0.224  1.00  0.00     0.012 A 
ATOM     19  C   UNL     1      -5.508  -2.581   1.222  1.00  0.00     0.028 A 
ATOM     20  C   UNL     1      -7.492  -2.001  -0.676  1.00  0.00     0.011 A 
ATOM     21  C   UNL     1      -6.316  -3.594   0.708  1.00  0.00     0.002 A 
ATOM     22  C   UNL     1      -7.267  -3.317  -0.263  1.00  0.00     0.001 A 
BRANCH  15  23
ATOM     23  S   UNL     1      -3.101  -0.945  -0.043  1.00  0.00     0.268 S 
ATOM     24  O   UNL     1      -3.365  -1.321  -1.422  1.00  0.00    -0.201 OA
ATOM     25  O   UNL     1      -2.830  -1.954   0.973  1.00  0.00    -0.201 OA
BRANCH  23  26
ATOM     26  C   UNL     1      -1.559  -0.102  -0.083  1.00  0.00     0.088 A 
ATOM     27  C   UNL     1       2.624   0.998  -0.031  1.00  0.00     0.044 C 
ATOM     28  C   UNL     1       1.161   0.660  -0.089  1.00  0.00    -0.051 A 
ATOM     29  C   UNL     1       0.821  -0.658  -0.357  1.00  0.00     0.005 A 
ATOM     30  C   UNL     1       0.130   1.592   0.167  1.00  0.00     0.005 A 
ATOM     31  C   UNL     1      -0.514  -1.021  -0.365  1.00  0.00     0.022 A 
ATOM     32  C   UNL     1      -1.241   1.219   0.177  1.00  0.00     0.022 A 
ENDBRANCH  23  26
ENDBRANCH  15  23
ENDBRANCH  12  14
ENDBRANCH   9  12
ENDBRANCH   7   8
BRANCH   7  33
ATOM     33  C   UNL     1     -11.486   1.881   1.178  1.00  0.00     0.072 C 
BRANCH  33  34
ATOM     34  C   UNL     1     -12.276   3.125   1.509  1.00  0.00    -0.020 A 
ATOM     35  C   UNL     1     -13.657   3.208   1.584  1.00  0.00     0.087 A 
ATOM     36  C   UNL     1     -11.784   4.443   1.808  1.00  0.00     0.003 A 
ATOM     37  N   UNL     1     -14.010   4.512   1.809  1.00  0.00    -0.361 N 
ATOM     38  C   UNL     1     -12.886   5.302   1.845  1.00  0.00     0.046 A 
ATOM     39  C   UNL     1     -10.501   5.008   1.958  1.00  0.00     0.010 A 
ATOM     40  H   UNL     1     -14.932   4.836   1.927  1.00  0.00     0.166 HD
ATOM     41  C   UNL     1     -12.762   6.697   1.907  1.00  0.00     0.026 A 
ATOM     42  C   UNL     1     -10.356   6.399   1.991  1.00  0.00     0.001 A 
ATOM     43  C   UNL     1     -11.471   7.230   1.942  1.00  0.00     0.002 A 
ENDBRANCH  33  34
ENDBRANCH   7  33
ENDBRANCH   4   7
ENDBRANCH   2   3
ENDBRANCH   1   2
BRANCH   1  44
ATOM     44  C   UNL     1     -13.451   5.548  -3.449  1.00  0.00     0.002 C 
BRANCH  44  45
ATOM     45  C   UNL     1     -14.878   5.482  -2.878  1.00  0.00     0.002 C 
BRANCH  45  46
ATOM     46  C   UNL     1     -15.170   6.246  -1.587  1.00  0.00     0.021 C 
BRANCH  46  47
ATOM     47  C   UNL     1     -15.028   7.759  -1.662  1.00  0.00     0.116 C 
BRANCH  47  48
ATOM     48  N   UNL     1     -16.267   8.475  -1.943  1.00  0.00    -0.352 N 
ATOM     49  C   UNL     1     -16.477   9.842  -2.078  1.00  0.00     0.251 C 
ATOM     50  H   UNL     1     -17.067   7.911  -2.053  1.00  0.00     0.163 HD
ATOM     51  O   UNL     1     -17.587  10.287  -2.287  1.00  0.00    -0.269 OA
BRANCH  49  52
ATOM     52  C   UNL     1     -15.296  10.742  -2.097  1.00  0.00     0.039 A 
ATOM     53  C   UNL     1     -15.159  11.618  -3.180  1.00  0.00     0.014 A 
ATOM     54  C   UNL     1     -14.244  10.553  -1.206  1.00  0.00     0.014 A 
ATOM     55  C   UNL     1     -13.893  12.086  -3.518  1.00  0.00     0.010 A 
ATOM     56  C   UNL     1     -12.975  10.922  -1.599  1.00  0.00     0.010 A 
ATOM     57  C   UNL     1     -12.794  11.625  -2.794  1.00  0.00    -0.014 A 
BRANCH  57  58
ATOM     58  C   UNL     1     -11.423  11.722  -3.276  1.00  0.00     0.031 A 
ATOM     59  C   UNL     1     -10.480  12.683  -2.678  1.00  0.00     0.074 A 
ATOM     60  C   UNL     1     -10.980  10.851  -4.210  1.00  0.00     0.049 A 
ATOM     61  N   UNL     1      -9.434  13.128  -3.287  1.00  0.00    -0.248 NA
ATOM     62  C   UNL     1     -10.655  13.247  -1.348  1.00  0.00     0.031 C 
ATOM     63  C   UNL     1      -9.593  10.595  -4.592  1.00  0.00     0.029 A 
ATOM     64  N   UNL     1     -11.738  10.151  -5.163  1.00  0.00    -0.354 N 
ATOM     65  C   UNL     1      -8.657  13.781  -2.362  1.00  0.00     0.074 A 
ATOM     66  C   UNL     1      -9.494  13.892  -1.188  1.00  0.00     0.031 C 
ATOM     67  C   UNL     1      -9.573  10.079  -5.830  1.00  0.00     0.029 A 
ATOM     68  C   UNL     1     -10.934  10.120  -6.327  1.00  0.00     0.049 A 
ATOM     69  H   UNL     1     -12.636   9.765  -5.047  1.00  0.00     0.167 HD
ATOM     70  C   UNL     1      -7.346  14.027  -2.654  1.00  0.00     0.037 A 
ATOM     71  C   UNL     1     -11.323  10.723  -7.485  1.00  0.00     0.037 A 
ATOM     72  C   UNL     1      -7.003  13.573  -4.003  1.00  0.00     0.049 A 
ATOM     73  C   UNL     1     -10.351  11.744  -8.023  1.00  0.00     0.074 A 
ATOM     74  C   UNL     1      -6.333  12.462  -4.491  1.00  0.00     0.029 A 
ATOM     75  N   UNL     1      -7.617  14.163  -5.102  1.00  0.00    -0.354 N 
ATOM     76  N   UNL     1      -9.393  12.295  -7.333  1.00  0.00    -0.248 NA
ATOM     77  C   UNL     1     -10.426  12.259  -9.381  1.00  0.00     0.031 C 
ATOM     78  C   UNL     1      -6.494  12.424  -5.900  1.00  0.00     0.029 A 
ATOM     79  C   UNL     1      -7.273  13.506  -6.269  1.00  0.00     0.049 A 
ATOM     80  H   UNL     1      -8.215  14.943  -5.056  1.00  0.00     0.167 HD
ATOM     81  C   UNL     1      -8.746  13.242  -8.099  1.00  0.00     0.074 A 
ATOM     82  C   UNL     1      -9.429  13.160  -9.377  1.00  0.00     0.031 C 
ATOM     83  C   UNL     1      -7.732  14.001  -7.566  1.00  0.00     0.037 A 
BRANCH  70  84
ATOM     84  C   UNL     1      -6.311  14.420  -1.620  1.00  0.00     0.064 A 
ATOM     85  C   UNL     1      -4.957  14.042  -1.761  1.00  0.00     0.173 A 
ATOM     86  C   UNL     1      -6.597  15.130  -0.439  1.00  0.00     0.173 A 
ATOM     87  F   UNL     1      -4.496  13.477  -2.883  1.00  0.00    -0.203 F 
ATOM     88  C   UNL     1      -4.012  14.229  -0.748  1.00  0.00     0.198 A 
ATOM     89  C   UNL     1      -5.668  15.268   0.599  1.00  0.00     0.198 A 
ATOM     90  F   UNL     1      -7.765  15.763  -0.276  1.00  0.00    -0.203 F 
ATOM     91  F   UNL     1      -2.746  13.832  -0.938  1.00  0.00    -0.200 F 
ATOM     92  C   UNL     1      -4.378  14.803   0.450  1.00  0.00     0.200 A 
ATOM     93  F   UNL     1      -6.036  15.858   1.746  1.00  0.00    -0.200 F 
ATOM     94  F   UNL     1      -3.488  14.933   1.443  1.00  0.00    -0.200 F 
ENDBRANCH  70  84
BRANCH  71  95
ATOM     95  C   UNL     1     -12.799  10.792  -7.641  1.00  0.00     0.064 A 
ATOM     96  C   UNL     1     -13.520   9.585  -7.728  1.00  0.00     0.173 A 
ATOM     97  C   UNL     1     -13.510  11.951  -7.312  1.00  0.00     0.173 A 
ATOM     98  F   UNL     1     -12.881   8.445  -8.038  1.00  0.00    -0.203 F 
ATOM     99  C   UNL     1     -14.864   9.519  -7.373  1.00  0.00     0.198 A 
ATOM    100  C   UNL     1     -14.863  11.884  -6.974  1.00  0.00     0.198 A 
ATOM    101  F   UNL     1     -12.876  13.127  -7.199  1.00  0.00    -0.203 F 
ATOM    102  F   UNL     1     -15.492   8.335  -7.345  1.00  0.00    -0.200 F 
ATOM    103  C   UNL     1     -15.527  10.665  -6.967  1.00  0.00     0.200 A 
ATOM    104  F   UNL     1     -15.499  12.987  -6.553  1.00  0.00    -0.200 F 
ATOM    105  F   UNL     1     -16.791  10.590  -6.528  1.00  0.00    -0.200 F 
ENDBRANCH  71  95
BRANCH  83 106
ATOM    106  C   UNL     1      -7.011  15.226  -8.145  1.00  0.00     0.064 A 
ATOM    107  C   UNL     1      -7.217  15.791  -9.414  1.00  0.00     0.173 A 
ATOM    108  C   UNL     1      -6.059  15.936  -7.355  1.00  0.00     0.173 A 
ATOM    109  F   UNL     1      -8.061  15.266 -10.300  1.00  0.00    -0.203 F 
ATOM    110  C   UNL     1      -6.557  16.951  -9.847  1.00  0.00     0.198 A 
ATOM    111  C   UNL     1      -5.419  17.103  -7.779  1.00  0.00     0.198 A 
ATOM    112  F   UNL     1      -5.711  15.541  -6.123  1.00  0.00    -0.203 F 
ATOM    113  F   UNL     1      -6.805  17.428 -11.075  1.00  0.00    -0.200 F 
ATOM    114  C   UNL     1      -5.668  17.614  -9.028  1.00  0.00     0.200 A 
ATOM    115  F   UNL     1      -4.569  17.732  -6.953  1.00  0.00    -0.200 F 
ATOM    116  F   UNL     1      -5.062  18.735  -9.439  1.00  0.00    -0.200 F 
ENDBRANCH  83 106
ENDBRANCH  57  58
ENDBRANCH  49  52
ENDBRANCH  47  48
ENDBRANCH  46  47
ENDBRANCH  45  46
ENDBRANCH  44  45
ENDBRANCH   1  44
TORSDOF 20
