REMARK SMILES CCCCNC(=O)[C@]1(C)CC[C@@](C)(C(=O)NCCCCCCNC(=O)c2ccc(-c3c4nc(c(-c5c(F)c(F)c(F)c(F)c5F)c5ccc([nH]5)c(-c5c(F)c(F)c(F)c(F)c5F)c5nc(c(-c6c(F)c(F)c(F)c(F)c6F)c6ccc3[nH]6)C=C5)C=C4)cc2)C1(C)C
REMARK SMILES IDX 18 1 17 2 16 3 14 4 15 5 12 7 8 8 10 9 89 10 9 11 11 12
REMARK SMILES IDX 90 13 91 14 13 15 6 16 5 17 7 19 4 20 3 21 2 22 1 23 19 24
REMARK SMILES IDX 20 25 21 26 22 27 23 28 24 29 25 31 26 32 27 33 88 34 28 35
REMARK SMILES IDX 87 36 29 37 30 38 31 39 81 40 32 41 86 42 80 43 82 44 33 45
REMARK SMILES IDX 85 46 79 47 78 48 34 50 66 51 46 52 65 53 47 54 50 55 64 56
REMARK SMILES IDX 83 57 48 58 49 59 63 61 84 62 51 63 35 64 36 65 44 66 37 67
REMARK SMILES IDX 38 68 42 69 45 70 39 71 40 72 43 73 41 74 67 75 68 76 76 77
REMARK SMILES IDX 69 78 70 79 74 80 77 81 71 82 72 83 75 84 73 85 52 86 53 87
REMARK SMILES IDX 61 88 54 89 55 90 59 91 62 92 56 93 57 94 60 95 58 96
REMARK H PARENT 16 6 5 18 23 30 82 49 50 60
REMARK Flexibility Score: inf
ROOT
ATOM      1  C   UNL     1       0.966   3.603   0.094  1.00  0.00     0.021 C 
ENDROOT
BRANCH   1   2
ATOM      2  C   UNL     1       0.624   4.787  -0.818  1.00  0.00     0.116 C 
BRANCH   2   3
ATOM      3  N   UNL     1       1.758   5.219  -1.597  1.00  0.00    -0.356 N 
ATOM      4  C   UNL     1       2.108   5.220  -2.903  1.00  0.00     0.226 C 
ATOM      5  O   UNL     1       3.270   5.632  -3.060  1.00  0.00    -0.274 OA
ATOM      6  H   UNL     1       2.460   5.616  -1.032  1.00  0.00     0.163 HD
BRANCH   4   7
ATOM      7  C   UNL     1       1.235   4.824  -4.166  1.00  0.00     0.052 C 
ATOM      8  C   UNL     1      -0.944   3.452  -4.072  1.00  0.00     0.052 C 
ATOM      9  C   UNL     1      -1.202   4.960  -3.783  1.00  0.00     0.018 C 
ATOM     10  C   UNL     1       0.661   3.340  -4.308  1.00  0.00    -0.007 C 
ATOM     11  C   UNL     1      -1.406   2.612  -2.879  1.00  0.00     0.022 C 
ATOM     12  C   UNL     1       0.000   5.731  -4.297  1.00  0.00     0.018 C 
ATOM     13  C   UNL     1       1.399   2.376  -3.350  1.00  0.00     0.013 C 
ATOM     14  C   UNL     1       0.964   2.670  -5.685  1.00  0.00     0.013 C 
ATOM     15  C   UNL     1       2.172   5.194  -5.364  1.00  0.00     0.022 C 
BRANCH   8  16
ATOM     16  C   UNL     1      -1.800   3.195  -5.362  1.00  0.00     0.226 C 
ATOM     17  N   UNL     1      -2.892   2.399  -5.467  1.00  0.00    -0.356 N 
ATOM     18  H   UNL     1      -3.255   2.400  -6.382  1.00  0.00     0.163 HD
ATOM     19  O   UNL     1      -1.551   3.824  -6.401  1.00  0.00    -0.274 OA
BRANCH  17  20
ATOM     20  C   UNL     1      -3.670   1.544  -4.583  1.00  0.00     0.116 C 
BRANCH  20  21
ATOM     21  C   UNL     1      -5.175   1.712  -4.792  1.00  0.00     0.021 C 
BRANCH  21  22
ATOM     22  C   UNL     1      -5.726   1.124  -6.089  1.00  0.00    -0.002 C 
ATOM     23  C   UNL     1      -5.524  -0.379  -6.199  1.00  0.00     0.004 C 
ENDBRANCH  21  22
ENDBRANCH  20  21
ENDBRANCH  17  20
ENDBRANCH   8  16
ENDBRANCH   4   7
ENDBRANCH   2   3
ENDBRANCH   1   2
BRANCH   1  24
ATOM     24  C   UNL     1       1.343   3.971   1.527  1.00  0.00     0.002 C 
BRANCH  24  25
ATOM     25  C   UNL     1       0.232   4.625   2.353  1.00  0.00     0.002 C 
BRANCH  25  26
ATOM     26  C   UNL     1      -1.112   3.890   2.373  1.00  0.00     0.021 C 
BRANCH  26  27
ATOM     27  C   UNL     1      -1.056   2.417   2.774  1.00  0.00     0.116 C 
BRANCH  27  28
ATOM     28  N   UNL     1      -0.469   2.223   4.088  1.00  0.00    -0.352 N 
ATOM     29  C   UNL     1      -1.002   1.650   5.211  1.00  0.00     0.251 C 
ATOM     30  H   UNL     1       0.453   2.554   4.187  1.00  0.00     0.163 HD
ATOM     31  O   UNL     1      -0.416   1.749   6.290  1.00  0.00    -0.269 OA
BRANCH  29  32
ATOM     32  C   UNL     1      -2.284   0.920   5.145  1.00  0.00     0.039 A 
ATOM     33  C   UNL     1      -3.236   1.140   6.144  1.00  0.00     0.014 A 
ATOM     34  C   UNL     1      -2.533  -0.011   4.132  1.00  0.00     0.014 A 
ATOM     35  C   UNL     1      -4.455   0.461   6.104  1.00  0.00     0.010 A 
ATOM     36  C   UNL     1      -3.774  -0.642   4.058  1.00  0.00     0.010 A 
ATOM     37  C   UNL     1      -4.744  -0.419   5.048  1.00  0.00    -0.014 A 
BRANCH  37  38
ATOM     38  C   UNL     1      -6.050  -1.122   4.974  1.00  0.00     0.031 A 
ATOM     39  C   UNL     1      -6.110  -2.620   5.101  1.00  0.00     0.074 A 
ATOM     40  C   UNL     1      -7.172  -0.418   4.730  1.00  0.00     0.049 A 
ATOM     41  N   UNL     1      -7.142  -3.419   4.998  1.00  0.00    -0.248 NA
ATOM     42  C   UNL     1      -4.837  -3.317   5.350  1.00  0.00     0.031 C 
ATOM     43  C   UNL     1      -7.235   1.031   4.533  1.00  0.00     0.029 A 
ATOM     44  N   UNL     1      -8.475  -0.829   4.588  1.00  0.00    -0.354 N 
ATOM     45  C   UNL     1      -6.641  -4.706   5.143  1.00  0.00     0.074 A 
ATOM     46  C   UNL     1      -5.209  -4.588   5.305  1.00  0.00     0.031 C 
ATOM     47  C   UNL     1      -8.509   1.389   4.305  1.00  0.00     0.029 A 
ATOM     48  C   UNL     1      -9.348   0.194   4.308  1.00  0.00     0.049 A 
ATOM     49  H   UNL     1      -8.757  -1.768   4.679  1.00  0.00     0.167 HD
ATOM     50  C   UNL     1      -7.319  -5.878   5.157  1.00  0.00     0.037 A 
ATOM     51  C   UNL     1     -10.674   0.169   4.072  1.00  0.00     0.037 A 
ATOM     52  C   UNL     1      -8.750  -5.987   5.046  1.00  0.00     0.049 A 
ATOM     53  C   UNL     1     -11.405  -1.145   4.133  1.00  0.00     0.074 A 
ATOM     54  C   UNL     1      -9.538  -7.121   5.141  1.00  0.00     0.029 A 
ATOM     55  N   UNL     1      -9.608  -4.922   4.817  1.00  0.00    -0.354 N 
ATOM     56  N   UNL     1     -10.931  -2.346   4.358  1.00  0.00    -0.248 NA
ATOM     57  C   UNL     1     -12.859  -1.106   3.921  1.00  0.00     0.031 C 
ATOM     58  C   UNL     1     -10.868  -6.750   4.922  1.00  0.00     0.029 A 
ATOM     59  C   UNL     1     -10.915  -5.377   4.745  1.00  0.00     0.049 A 
ATOM     60  H   UNL     1      -9.330  -3.983   4.720  1.00  0.00     0.167 HD
ATOM     61  C   UNL     1     -12.028  -3.197   4.350  1.00  0.00     0.074 A 
ATOM     62  C   UNL     1     -13.194  -2.374   4.110  1.00  0.00     0.031 C 
ATOM     63  C   UNL     1     -12.066  -4.541   4.525  1.00  0.00     0.037 A 
BRANCH  50  64
ATOM     64  C   UNL     1      -6.532  -7.147   5.301  1.00  0.00     0.064 A 
ATOM     65  C   UNL     1      -5.927  -7.507   6.515  1.00  0.00     0.173 A 
ATOM     66  C   UNL     1      -6.446  -8.052   4.232  1.00  0.00     0.173 A 
ATOM     67  F   UNL     1      -5.972  -6.673   7.565  1.00  0.00    -0.203 F 
ATOM     68  C   UNL     1      -5.251  -8.717   6.647  1.00  0.00     0.198 A 
ATOM     69  C   UNL     1      -5.794  -9.273   4.376  1.00  0.00     0.198 A 
ATOM     70  F   UNL     1      -7.012  -7.759   3.051  1.00  0.00    -0.203 F 
ATOM     71  F   UNL     1      -4.652  -9.025   7.806  1.00  0.00    -0.200 F 
ATOM     72  C   UNL     1      -5.194  -9.604   5.581  1.00  0.00     0.200 A 
ATOM     73  F   UNL     1      -5.751 -10.134   3.349  1.00  0.00    -0.200 F 
ATOM     74  F   UNL     1      -4.558 -10.776   5.716  1.00  0.00    -0.200 F 
ENDBRANCH  50  64
BRANCH  51  75
ATOM     75  C   UNL     1     -11.402   1.429   3.767  1.00  0.00     0.064 A 
ATOM     76  C   UNL     1     -12.334   1.962   4.669  1.00  0.00     0.173 A 
ATOM     77  C   UNL     1     -11.204   2.109   2.557  1.00  0.00     0.173 A 
ATOM     78  F   UNL     1     -12.572   1.338   5.832  1.00  0.00    -0.203 F 
ATOM     79  C   UNL     1     -13.063   3.108   4.359  1.00  0.00     0.198 A 
ATOM     80  C   UNL     1     -11.911   3.272   2.260  1.00  0.00     0.198 A 
ATOM     81  F   UNL     1     -10.320   1.645   1.662  1.00  0.00    -0.203 F 
ATOM     82  F   UNL     1     -13.989   3.563   5.214  1.00  0.00    -0.200 F 
ATOM     83  C   UNL     1     -12.848   3.765   3.156  1.00  0.00     0.200 A 
ATOM     84  F   UNL     1     -11.690   3.912   1.104  1.00  0.00    -0.200 F 
ATOM     85  F   UNL     1     -13.552   4.865   2.856  1.00  0.00    -0.200 F 
ENDBRANCH  51  75
BRANCH  63  86
ATOM     86  C   UNL     1     -13.414  -5.199   4.514  1.00  0.00     0.064 A 
ATOM     87  C   UNL     1     -14.153  -5.347   3.331  1.00  0.00     0.173 A 
ATOM     88  C   UNL     1     -13.954  -5.725   5.698  1.00  0.00     0.173 A 
ATOM     89  F   UNL     1     -13.686  -4.849   2.176  1.00  0.00    -0.203 F 
ATOM     90  C   UNL     1     -15.397  -5.974   3.340  1.00  0.00     0.198 A 
ATOM     91  C   UNL     1     -15.183  -6.378   5.697  1.00  0.00     0.198 A 
ATOM     92  F   UNL     1     -13.282  -5.617   6.854  1.00  0.00    -0.203 F 
ATOM     93  F   UNL     1     -16.108  -6.061   2.207  1.00  0.00    -0.200 F 
ATOM     94  C   UNL     1     -15.907  -6.495   4.520  1.00  0.00     0.200 A 
ATOM     95  F   UNL     1     -15.667  -6.893   6.835  1.00  0.00    -0.200 F 
ATOM     96  F   UNL     1     -17.101  -7.103   4.524  1.00  0.00    -0.200 F 
ENDBRANCH  63  86
ENDBRANCH  37  38
ENDBRANCH  29  32
ENDBRANCH  27  28
ENDBRANCH  26  27
ENDBRANCH  25  26
ENDBRANCH  24  25
ENDBRANCH   1  24
TORSDOF 17
