REMARK SMILES CCc1noc(C[N@@H+]2CC[C@H](Cc3cccc(C(=O)NCCCCCCNC(=O)c4ccc(-c5c6nc(c(-c7c(F)c(F)c(F)c(F)c7F)c7ccc([nH]7)c(-c7c(F)c(F)c(F)c(F)c7F)c7nc(c(-c8c(F)c(F)c(F)c(F)c8F)c8ccc5[nH]8)C=C7)C=C6)cc4)c3)C2)n1
REMARK SMILES IDX 22 1 21 2 20 3 18 4 19 5 17 7 13 8 14 9 93 10 15 11 16 12
REMARK SMILES IDX 12 13 11 14 8 15 9 16 94 17 10 19 7 20 6 21 3 22 4 23 95 24
REMARK SMILES IDX 5 25 2 26 1 27 23 28 24 29 25 30 26 31 27 32 28 33 29 35
REMARK SMILES IDX 30 36 31 37 92 38 32 39 91 40 33 41 34 42 35 43 85 44 36 45
REMARK SMILES IDX 90 46 84 47 86 48 37 49 89 50 83 51 82 52 38 54 70 55 50 56
REMARK SMILES IDX 69 57 51 58 54 59 68 60 87 61 52 62 53 63 67 65 88 66 55 67
REMARK SMILES IDX 39 68 40 69 48 70 41 71 42 72 46 73 49 74 43 75 44 76 47 77
REMARK SMILES IDX 45 78 71 79 72 80 80 81 73 82 74 83 78 84 81 85 75 86 76 87
REMARK SMILES IDX 79 88 77 89 56 90 57 91 65 92 58 93 59 94 63 95 66 96 60 97
REMARK SMILES IDX 61 98 64 99 62 100
REMARK H PARENT 20 6 8 18 27 34 86 53 54 64
REMARK Flexibility Score: inf
ROOT
ATOM      1  C   UNL     1      -5.254  -4.451   6.574  1.00  0.00     0.021 C 
ENDROOT
BRANCH   1   2
ATOM      2  C   UNL     1      -4.677  -5.098   5.323  1.00  0.00     0.116 C 
BRANCH   2   3
ATOM      3  N   UNL     1      -5.661  -5.697   4.434  1.00  0.00    -0.352 N 
ATOM      4  C   UNL     1      -5.768  -5.687   3.056  1.00  0.00     0.251 C 
ATOM      5  O   UNL     1      -6.725  -6.257   2.535  1.00  0.00    -0.269 OA
ATOM      6  H   UNL     1      -6.373  -6.197   4.894  1.00  0.00     0.163 HD
BRANCH   4   7
ATOM      7  C   UNL     1      -4.795  -4.962   2.192  1.00  0.00     0.040 A 
ATOM      8  C   UNL     1      -2.636  -3.869   1.932  1.00  0.00    -0.047 A 
ATOM      9  C   UNL     1      -3.088  -3.286   0.743  1.00  0.00     0.004 A 
ATOM     10  C   UNL     1      -3.468  -4.787   2.576  1.00  0.00     0.017 A 
ATOM     11  C   UNL     1      -4.357  -3.591   0.246  1.00  0.00     0.001 A 
ATOM     12  C   UNL     1      -5.223  -4.401   0.986  1.00  0.00     0.014 A 
BRANCH   8  13
ATOM     13  C   UNL     1      -1.350  -3.406   2.583  1.00  0.00     0.045 C 
BRANCH  13  14
ATOM     14  C   UNL     1      -0.593  -4.466   3.397  1.00  0.00     0.054 C 
ATOM     15  N   UNL     1       1.779  -4.861   3.633  1.00  0.00    -0.327 N 
ATOM     16  C   UNL     1       1.148  -6.086   3.138  1.00  0.00     0.263 C 
ATOM     17  C   UNL     1       0.703  -3.942   4.026  1.00  0.00     0.266 C 
ATOM     18  H   UNL     1       2.359  -5.084   4.443  1.00  0.00     0.348 HD
ATOM     19  C   UNL     1      -0.177  -5.662   2.546  1.00  0.00     0.071 C 
BRANCH  15  20
ATOM     20  C   UNL     1       2.754  -4.263   2.696  1.00  0.00     0.364 C 
BRANCH  20  21
ATOM     21  C   UNL     1       2.210  -3.619   1.464  1.00  0.00     0.281 A 
ATOM     22  C   UNL     1       1.364  -2.412  -0.021  1.00  0.00     0.171 A 
ATOM     23  N   UNL     1       1.511  -3.594  -0.634  1.00  0.00    -0.062 NA
ATOM     24  N   UNL     1       1.784  -2.387   1.285  1.00  0.00    -0.191 NA
ATOM     25  O   UNL     1       2.090  -4.399   0.350  1.00  0.00    -0.333 OA
BRANCH  22  26
ATOM     26  C   UNL     1       0.726  -1.248  -0.686  1.00  0.00     0.078 C 
ATOM     27  C   UNL     1       1.096   0.087  -0.057  1.00  0.00     0.012 C 
ENDBRANCH  22  26
ENDBRANCH  20  21
ENDBRANCH  15  20
ENDBRANCH  13  14
ENDBRANCH   8  13
ENDBRANCH   4   7
ENDBRANCH   2   3
ENDBRANCH   1   2
BRANCH   1  28
ATOM     28  C   UNL     1      -5.912  -5.391   7.579  1.00  0.00     0.002 C 
BRANCH  28  29
ATOM     29  C   UNL     1      -5.054  -6.556   8.079  1.00  0.00     0.002 C 
BRANCH  29  30
ATOM     30  C   UNL     1      -3.673  -6.194   8.632  1.00  0.00     0.021 C 
BRANCH  30  31
ATOM     31  C   UNL     1      -3.656  -5.138   9.731  1.00  0.00     0.116 C 
BRANCH  31  32
ATOM     32  N   UNL     1      -4.421  -5.532  10.902  1.00  0.00    -0.352 N 
ATOM     33  C   UNL     1      -4.044  -5.579  12.221  1.00  0.00     0.251 C 
ATOM     34  H   UNL     1      -5.349  -5.806  10.722  1.00  0.00     0.163 HD
ATOM     35  O   UNL     1      -4.780  -6.095  13.054  1.00  0.00    -0.269 OA
BRANCH  33  36
ATOM     36  C   UNL     1      -2.737  -5.027  12.640  1.00  0.00     0.039 A 
ATOM     37  C   UNL     1      -1.957  -5.755  13.543  1.00  0.00     0.014 A 
ATOM     38  C   UNL     1      -2.287  -3.792  12.164  1.00  0.00     0.014 A 
ATOM     39  C   UNL     1      -0.702  -5.273  13.922  1.00  0.00     0.010 A 
ATOM     40  C   UNL     1      -1.005  -3.352  12.481  1.00  0.00     0.010 A 
ATOM     41  C   UNL     1      -0.202  -4.083  13.369  1.00  0.00    -0.014 A 
BRANCH  41  42
ATOM     42  C   UNL     1       1.154  -3.585  13.713  1.00  0.00     0.031 A 
ATOM     43  C   UNL     1       1.319  -2.276  14.434  1.00  0.00     0.074 A 
ATOM     44  C   UNL     1       2.239  -4.284  13.330  1.00  0.00     0.049 A 
ATOM     45  N   UNL     1       2.416  -1.650  14.779  1.00  0.00    -0.248 NA
ATOM     46  C   UNL     1       0.084  -1.562  14.791  1.00  0.00     0.031 C 
ATOM     47  C   UNL     1       2.213  -5.550  12.597  1.00  0.00     0.029 A 
ATOM     48  N   UNL     1       3.577  -4.028  13.502  1.00  0.00    -0.354 N 
ATOM     49  C   UNL     1       2.003  -0.470  15.384  1.00  0.00     0.074 A 
ATOM     50  C   UNL     1       0.559  -0.434  15.296  1.00  0.00     0.031 C 
ATOM     51  C   UNL     1       3.472  -5.978  12.415  1.00  0.00     0.029 A 
ATOM     52  C   UNL     1       4.395  -4.998  12.978  1.00  0.00     0.049 A 
ATOM     53  H   UNL     1       3.917  -3.224  13.958  1.00  0.00     0.167 HD
ATOM     54  C   UNL     1       2.756   0.484  15.983  1.00  0.00     0.037 A 
ATOM     55  C   UNL     1       5.738  -5.085  12.954  1.00  0.00     0.037 A 
ATOM     56  C   UNL     1       4.193   0.442  16.071  1.00  0.00     0.049 A 
ATOM     57  C   UNL     1       6.555  -3.988  13.582  1.00  0.00     0.074 A 
ATOM     58  C   UNL     1       5.049   1.336  16.690  1.00  0.00     0.029 A 
ATOM     59  N   UNL     1       4.989  -0.549  15.512  1.00  0.00    -0.354 N 
ATOM     60  N   UNL     1       6.154  -2.909  14.208  1.00  0.00    -0.248 NA
ATOM     61  C   UNL     1       8.016  -4.127  13.502  1.00  0.00     0.031 C 
ATOM     62  C   UNL     1       6.363   0.917  16.456  1.00  0.00     0.029 A 
ATOM     63  C   UNL     1       6.327  -0.273  15.747  1.00  0.00     0.049 A 
ATOM     64  H   UNL     1       4.652  -1.333  15.021  1.00  0.00     0.167 HD
ATOM     65  C   UNL     1       7.307  -2.259  14.629  1.00  0.00     0.074 A 
ATOM     66  C   UNL     1       8.424  -3.073  14.194  1.00  0.00     0.031 C 
ATOM     67  C   UNL     1       7.429  -1.096  15.316  1.00  0.00     0.037 A 
BRANCH  54  68
ATOM     68  C   UNL     1       2.030   1.658  16.582  1.00  0.00     0.064 A 
ATOM     69  C   UNL     1       1.183   1.513  17.692  1.00  0.00     0.173 A 
ATOM     70  C   UNL     1       2.181   2.943  16.040  1.00  0.00     0.173 A 
ATOM     71  F   UNL     1       0.994   0.305  18.245  1.00  0.00    -0.203 F 
ATOM     72  C   UNL     1       0.475   2.598  18.204  1.00  0.00     0.198 A 
ATOM     73  C   UNL     1       1.502   4.034  16.579  1.00  0.00     0.198 A 
ATOM     74  F   UNL     1       2.984   3.144  14.985  1.00  0.00    -0.203 F 
ATOM     75  F   UNL     1      -0.384   2.419  19.216  1.00  0.00    -0.200 F 
ATOM     76  C   UNL     1       0.639   3.858  17.650  1.00  0.00     0.200 A 
ATOM     77  F   UNL     1       1.673   5.254  16.052  1.00  0.00    -0.200 F 
ATOM     78  F   UNL     1      -0.044   4.902  18.140  1.00  0.00    -0.200 F 
ENDBRANCH  54  68
BRANCH  55  79
ATOM     79  C   UNL     1       6.395  -6.274  12.352  1.00  0.00     0.064 A 
ATOM     80  C   UNL     1       7.078  -7.197  13.157  1.00  0.00     0.173 A 
ATOM     81  C   UNL     1       6.355  -6.518  10.971  1.00  0.00     0.173 A 
ATOM     82  F   UNL     1       7.162  -6.996  14.480  1.00  0.00    -0.203 F 
ATOM     83  C   UNL     1       7.712  -8.307  12.603  1.00  0.00     0.198 A 
ATOM     84  C   UNL     1       6.964  -7.645  10.422  1.00  0.00     0.198 A 
ATOM     85  F   UNL     1       5.711  -5.669  10.157  1.00  0.00    -0.203 F 
ATOM     86  F   UNL     1       8.395  -9.148  13.391  1.00  0.00    -0.200 F 
ATOM     87  C   UNL     1       7.648  -8.534  11.237  1.00  0.00     0.200 A 
ATOM     88  F   UNL     1       6.888  -7.869   9.103  1.00  0.00    -0.200 F 
ATOM     89  F   UNL     1       8.253  -9.605  10.705  1.00  0.00    -0.200 F 
ENDBRANCH  55  79
BRANCH  67  90
ATOM     90  C   UNL     1       8.818  -0.655  15.683  1.00  0.00     0.064 A 
ATOM     91  C   UNL     1       9.730  -0.198  14.720  1.00  0.00     0.173 A 
ATOM     92  C   UNL     1       9.230  -0.660  17.025  1.00  0.00     0.173 A 
ATOM     93  F   UNL     1       9.392  -0.188  13.421  1.00  0.00    -0.203 F 
ATOM     94  C   UNL     1      11.011   0.210  15.083  1.00  0.00     0.198 A 
ATOM     95  C   UNL     1      10.499  -0.218  17.388  1.00  0.00     0.198 A 
ATOM     96  F   UNL     1       8.396  -1.082  17.987  1.00  0.00    -0.203 F 
ATOM     97  F   UNL     1      11.883   0.592  14.139  1.00  0.00    -0.200 F 
ATOM     98  C   UNL     1      11.392   0.208  16.416  1.00  0.00     0.200 A 
ATOM     99  F   UNL     1      10.859  -0.206  18.679  1.00  0.00    -0.200 F 
ATOM    100  F   UNL     1      12.622   0.609  16.765  1.00  0.00    -0.200 F 
ENDBRANCH  67  90
ENDBRANCH  41  42
ENDBRANCH  33  36
ENDBRANCH  31  32
ENDBRANCH  30  31
ENDBRANCH  29  30
ENDBRANCH  28  29
ENDBRANCH   1  28
TORSDOF 18
