REMARK SMILES CCCc1nsc(Oc2csc(C(=O)NCCCCCCNC(=O)c3ccc(-c4c5nc(c(-c6c(F)c(F)c(F)c(F)c6F)c6ccc([nH]6)c(-c6c(F)c(F)c(F)c(F)c6F)c6nc(c(-c7c(F)c(F)c(F)c(F)c7F)c7ccc4[nH]7)C=C6)C=C5)cc3)c2)n1
REMARK SMILES IDX 17 1 16 2 15 3 13 4 14 5 12 7 9 8 10 9 88 10 11 11 8 12 7 13
REMARK SMILES IDX 4 14 5 15 89 16 6 17 3 18 2 19 1 20 18 21 19 22 20 23 21 24
REMARK SMILES IDX 22 25 23 26 24 28 25 29 26 30 87 31 27 32 86 33 28 34 29 35
REMARK SMILES IDX 30 36 80 37 31 38 85 39 79 40 81 41 32 42 84 43 78 44 77 45
REMARK SMILES IDX 33 47 65 48 45 49 64 50 46 51 49 52 63 53 82 54 47 55 48 56
REMARK SMILES IDX 62 58 83 59 50 60 34 61 35 62 43 63 36 64 37 65 41 66 44 67
REMARK SMILES IDX 38 68 39 69 42 70 40 71 66 72 67 73 75 74 68 75 69 76 73 77
REMARK SMILES IDX 76 78 70 79 71 80 74 81 72 82 51 83 52 84 60 85 53 86 54 87
REMARK SMILES IDX 58 88 61 89 55 90 56 91 59 92 57 93
REMARK H PARENT 15 6 22 27 81 46 49 57
REMARK Flexibility Score: inf
ROOT
ATOM      1  C   UNL     1      -3.039 -10.035   1.193  1.00  0.00     0.021 C 
ENDROOT
BRANCH   1   2
ATOM      2  C   UNL     1      -1.781 -10.254   2.036  1.00  0.00     0.116 C 
BRANCH   2   3
ATOM      3  N   UNL     1      -0.692 -10.737   1.213  1.00  0.00    -0.351 N 
ATOM      4  C   UNL     1       0.478 -10.179   0.756  1.00  0.00     0.261 C 
ATOM      5  O   UNL     1       1.166 -10.940   0.068  1.00  0.00    -0.268 OA
ATOM      6  H   UNL     1      -0.816 -11.668   0.916  1.00  0.00     0.163 HD
BRANCH   4   7
ATOM      7  C   UNL     1       0.886  -8.817   1.089  1.00  0.00     0.096 A 
ATOM      8  C   UNL     1       1.070  -6.621   1.876  1.00  0.00     0.141 A 
ATOM      9  C   UNL     1       2.365  -6.841   1.480  1.00  0.00     0.112 A 
ATOM     10  C   UNL     1       0.212  -7.721   1.596  1.00  0.00     0.072 A 
ATOM     11  S   UNL     1       2.544  -8.397   0.799  1.00  0.00    -0.135 S 
BRANCH   8  12
ATOM     12  O   UNL     1       0.666  -5.527   2.556  1.00  0.00    -0.429 OA
BRANCH  12  13
ATOM     13  C   UNL     1       0.462  -4.383   1.908  1.00  0.00     0.298 A 
ATOM     14  C   UNL     1       0.457  -2.803   0.387  1.00  0.00     0.146 A 
ATOM     15  N   UNL     1      -0.325  -2.149   1.252  1.00  0.00    -0.172 NA
ATOM     16  N   UNL     1       0.907  -4.083   0.707  1.00  0.00    -0.186 NA
ATOM     17  S   UNL     1      -0.465  -3.119   2.599  1.00  0.00     0.025 S 
BRANCH  14  18
ATOM     18  C   UNL     1       0.852  -2.214  -0.930  1.00  0.00     0.078 C 
BRANCH  18  19
ATOM     19  C   UNL     1       0.411  -0.772  -1.192  1.00  0.00     0.005 C 
ATOM     20  C   UNL     1       1.134   0.254  -0.329  1.00  0.00     0.004 C 
ENDBRANCH  18  19
ENDBRANCH  14  18
ENDBRANCH  12  13
ENDBRANCH   8  12
ENDBRANCH   4   7
ENDBRANCH   2   3
ENDBRANCH   1   2
BRANCH   1  21
ATOM     21  C   UNL     1      -3.820 -11.329   0.914  1.00  0.00     0.002 C 
BRANCH  21  22
ATOM     22  C   UNL     1      -4.384 -12.031   2.158  1.00  0.00     0.002 C 
BRANCH  22  23
ATOM     23  C   UNL     1      -5.261 -11.161   3.064  1.00  0.00     0.021 C 
BRANCH  23  24
ATOM     24  C   UNL     1      -6.507 -10.586   2.393  1.00  0.00     0.116 C 
BRANCH  24  25
ATOM     25  N   UNL     1      -7.421 -11.628   1.958  1.00  0.00    -0.352 N 
ATOM     26  C   UNL     1      -8.756 -11.799   2.221  1.00  0.00     0.251 C 
ATOM     27  H   UNL     1      -7.020 -12.320   1.383  1.00  0.00     0.163 HD
ATOM     28  O   UNL     1      -9.305 -12.855   1.922  1.00  0.00    -0.269 OA
BRANCH  26  29
ATOM     29  C   UNL     1      -9.542 -10.730   2.877  1.00  0.00     0.039 A 
ATOM     30  C   UNL     1     -10.476 -11.093   3.853  1.00  0.00     0.014 A 
ATOM     31  C   UNL     1      -9.409  -9.388   2.505  1.00  0.00     0.014 A 
ATOM     32  C   UNL     1     -11.238 -10.111   4.488  1.00  0.00     0.010 A 
ATOM     33  C   UNL     1     -10.128  -8.402   3.181  1.00  0.00     0.010 A 
ATOM     34  C   UNL     1     -11.052  -8.754   4.176  1.00  0.00    -0.014 A 
BRANCH  34  35
ATOM     35  C   UNL     1     -11.812  -7.704   4.899  1.00  0.00     0.031 A 
ATOM     36  C   UNL     1     -12.841  -6.873   4.186  1.00  0.00     0.074 A 
ATOM     37  C   UNL     1     -11.547  -7.477   6.200  1.00  0.00     0.049 A 
ATOM     38  N   UNL     1     -13.599  -5.913   4.655  1.00  0.00    -0.248 NA
ATOM     39  C   UNL     1     -13.031  -7.139   2.752  1.00  0.00     0.031 C 
ATOM     40  C   UNL     1     -10.534  -8.180   6.989  1.00  0.00     0.029 A 
ATOM     41  N   UNL     1     -12.104  -6.591   7.087  1.00  0.00    -0.354 N 
ATOM     42  C   UNL     1     -14.348  -5.459   3.578  1.00  0.00     0.074 A 
ATOM     43  C   UNL     1     -13.920  -6.214   2.419  1.00  0.00     0.031 C 
ATOM     44  C   UNL     1     -10.559  -7.717   8.249  1.00  0.00     0.029 A 
ATOM     45  C   UNL     1     -11.571  -6.670   8.350  1.00  0.00     0.049 A 
ATOM     46  H   UNL     1     -12.818  -5.960   6.842  1.00  0.00     0.167 HD
ATOM     47  C   UNL     1     -15.320  -4.515   3.561  1.00  0.00     0.037 A 
ATOM     48  C   UNL     1     -11.868  -5.977   9.466  1.00  0.00     0.037 A 
ATOM     49  C   UNL     1     -15.760  -3.780   4.718  1.00  0.00     0.049 A 
ATOM     50  C   UNL     1     -12.961  -4.946   9.422  1.00  0.00     0.074 A 
ATOM     51  C   UNL     1     -16.776  -2.844   4.814  1.00  0.00     0.029 A 
ATOM     52  N   UNL     1     -15.207  -3.898   5.985  1.00  0.00    -0.354 N 
ATOM     53  N   UNL     1     -13.711  -4.577   8.412  1.00  0.00    -0.248 NA
ATOM     54  C   UNL     1     -13.256  -4.243  10.678  1.00  0.00     0.031 C 
ATOM     55  C   UNL     1     -16.814  -2.369   6.129  1.00  0.00     0.029 A 
ATOM     56  C   UNL     1     -15.849  -3.039   6.864  1.00  0.00     0.049 A 
ATOM     57  H   UNL     1     -14.468  -4.502   6.225  1.00  0.00     0.167 HD
ATOM     58  C   UNL     1     -14.577  -3.616   8.913  1.00  0.00     0.074 A 
ATOM     59  C   UNL     1     -14.276  -3.475  10.322  1.00  0.00     0.031 C 
ATOM     60  C   UNL     1     -15.534  -2.909   8.263  1.00  0.00     0.037 A 
BRANCH  47  61
ATOM     61  C   UNL     1     -15.986  -4.228   2.247  1.00  0.00     0.064 A 
ATOM     62  C   UNL     1     -16.873  -5.142   1.661  1.00  0.00     0.173 A 
ATOM     63  C   UNL     1     -15.773  -3.006   1.591  1.00  0.00     0.173 A 
ATOM     64  F   UNL     1     -17.102  -6.329   2.243  1.00  0.00    -0.203 F 
ATOM     65  C   UNL     1     -17.506  -4.854   0.454  1.00  0.00     0.198 A 
ATOM     66  C   UNL     1     -16.428  -2.711   0.398  1.00  0.00     0.198 A 
ATOM     67  F   UNL     1     -14.939  -2.094   2.112  1.00  0.00    -0.203 F 
ATOM     68  F   UNL     1     -18.319  -5.760  -0.107  1.00  0.00    -0.200 F 
ATOM     69  C   UNL     1     -17.289  -3.636  -0.172  1.00  0.00     0.200 A 
ATOM     70  F   UNL     1     -16.226  -1.529  -0.201  1.00  0.00    -0.200 F 
ATOM     71  F   UNL     1     -17.905  -3.357  -1.329  1.00  0.00    -0.200 F 
ENDBRANCH  47  61
BRANCH  48  72
ATOM     72  C   UNL     1     -11.142  -6.261  10.730  1.00  0.00     0.064 A 
ATOM     73  C   UNL     1     -11.785  -6.896  11.801  1.00  0.00     0.173 A 
ATOM     74  C   UNL     1      -9.798  -5.898  10.896  1.00  0.00     0.173 A 
ATOM     75  F   UNL     1     -13.076  -7.242  11.696  1.00  0.00    -0.203 F 
ATOM     76  C   UNL     1     -11.117  -7.138  12.999  1.00  0.00     0.198 A 
ATOM     77  C   UNL     1      -9.123  -6.164  12.085  1.00  0.00     0.198 A 
ATOM     78  F   UNL     1      -9.137  -5.293   9.898  1.00  0.00    -0.203 F 
ATOM     79  F   UNL     1     -11.768  -7.705  14.024  1.00  0.00    -0.200 F 
ATOM     80  C   UNL     1      -9.785  -6.776  13.139  1.00  0.00     0.200 A 
ATOM     81  F   UNL     1      -7.833  -5.826  12.211  1.00  0.00    -0.200 F 
ATOM     82  F   UNL     1      -9.143  -7.011  14.291  1.00  0.00    -0.200 F 
ENDBRANCH  48  72
BRANCH  60  83
ATOM     83  C   UNL     1     -16.331  -1.934   9.079  1.00  0.00     0.064 A 
ATOM     84  C   UNL     1     -15.769  -0.736   9.543  1.00  0.00     0.173 A 
ATOM     85  C   UNL     1     -17.674  -2.196   9.389  1.00  0.00     0.173 A 
ATOM     86  F   UNL     1     -14.484  -0.449   9.286  1.00  0.00    -0.203 F 
ATOM     87  C   UNL     1     -16.514   0.151  10.316  1.00  0.00     0.198 A 
ATOM     88  C   UNL     1     -18.423  -1.294  10.139  1.00  0.00     0.198 A 
ATOM     89  F   UNL     1     -18.259  -3.325   8.964  1.00  0.00    -0.203 F 
ATOM     90  F   UNL     1     -15.940   1.263  10.795  1.00  0.00    -0.200 F 
ATOM     91  C   UNL     1     -17.840  -0.127  10.610  1.00  0.00     0.200 A 
ATOM     92  F   UNL     1     -19.708  -1.558  10.414  1.00  0.00    -0.200 F 
ATOM     93  F   UNL     1     -18.555   0.727  11.356  1.00  0.00    -0.200 F 
ENDBRANCH  60  83
ENDBRANCH  34  35
ENDBRANCH  26  29
ENDBRANCH  24  25
ENDBRANCH  23  24
ENDBRANCH  22  23
ENDBRANCH  21  22
ENDBRANCH   1  21
TORSDOF 17
