REMARK SMILES Cc1cccc(NS(=O)(=O)Cc2ccc(C(=O)NCCCCCCNC(=O)c3ccc(-c4c5nc(c(-c6c(F)c(F)c(F)c(F)c6F)c6ccc([nH]6)c(-c6c(F)c(F)c(F)c(F)c6F)c6nc(c(-c7c(F)c(F)c(F)c(F)c7F)c7ccc4[nH]7)C=C6)C=C5)cc3)cc2)n1
REMARK SMILES IDX 20 1 19 2 18 3 16 4 17 5 15 7 12 8 13 9 92 10 14 11 91 12
REMARK SMILES IDX 11 13 8 14 9 15 10 16 7 17 6 19 1 20 2 21 3 22 93 23 4 24
REMARK SMILES IDX 5 25 21 26 22 27 23 28 24 29 25 30 26 31 27 33 28 34 29 35
REMARK SMILES IDX 90 36 30 37 89 38 31 39 32 40 33 41 83 42 34 43 88 44 82 45
REMARK SMILES IDX 84 46 35 47 87 48 81 49 80 50 36 52 68 53 48 54 67 55 49 56
REMARK SMILES IDX 52 57 66 58 85 59 50 60 51 61 65 63 86 64 53 65 37 66 38 67
REMARK SMILES IDX 46 68 39 69 40 70 44 71 47 72 41 73 42 74 45 75 43 76 69 77
REMARK SMILES IDX 70 78 78 79 71 80 72 81 76 82 79 83 73 84 74 85 77 86 75 87
REMARK SMILES IDX 54 88 55 89 63 90 56 91 57 92 61 93 64 94 58 95 59 96 62 97
REMARK SMILES IDX 60 98
REMARK H PARENT 18 6 7 18 25 32 84 51 52 62
REMARK Flexibility Score: inf
ROOT
ATOM      1  C   UNL     1       0.602   2.621   7.264  1.00  0.00     0.021 C 
ENDROOT
BRANCH   1   2
ATOM      2  C   UNL     1       1.873   2.257   6.499  1.00  0.00     0.116 C 
BRANCH   2   3
ATOM      3  N   UNL     1       1.757   0.904   6.001  1.00  0.00    -0.352 N 
ATOM      4  C   UNL     1       1.512   0.464   4.731  1.00  0.00     0.251 C 
ATOM      5  O   UNL     1       1.410  -0.742   4.516  1.00  0.00    -0.269 OA
ATOM      6  H   UNL     1       1.871   0.197   6.676  1.00  0.00     0.163 HD
BRANCH   4   7
ATOM      7  C   UNL     1       1.450   1.414   3.600  1.00  0.00     0.039 A 
ATOM      8  C   UNL     1       1.318   3.021   1.308  1.00  0.00    -0.031 A 
ATOM      9  C   UNL     1       2.165   1.903   1.355  1.00  0.00     0.005 A 
ATOM     10  C   UNL     1       0.620   3.389   2.463  1.00  0.00     0.005 A 
ATOM     11  C   UNL     1       2.208   1.087   2.479  1.00  0.00     0.014 A 
ATOM     12  C   UNL     1       0.660   2.570   3.595  1.00  0.00     0.014 A 
BRANCH   8  13
ATOM     13  C   UNL     1       1.151   3.738  -0.009  1.00  0.00     0.195 C 
BRANCH  13  14
ATOM     14  S   UNL     1      -0.570   3.755  -0.567  1.00  0.00     0.238 S 
ATOM     15  O   UNL     1      -0.611   3.767  -2.013  1.00  0.00    -0.206 OA
ATOM     16  O   UNL     1      -1.243   4.822   0.161  1.00  0.00    -0.206 OA
BRANCH  14  17
ATOM     17  N   UNL     1      -1.304   2.387  -0.012  1.00  0.00    -0.267 N 
ATOM     18  H   UNL     1      -2.032   2.493   0.642  1.00  0.00     0.181 HD
BRANCH  17  19
ATOM     19  C   UNL     1      -0.967   1.078  -0.405  1.00  0.00     0.139 A 
ATOM     20  C   UNL     1       2.177  -0.713  -1.070  1.00  0.00     0.067 C 
ATOM     21  C   UNL     1       0.726  -0.450  -0.782  1.00  0.00     0.040 A 
ATOM     22  C   UNL     1      -0.088  -1.512  -0.400  1.00  0.00     0.023 A 
ATOM     23  N   UNL     1       0.301   0.843  -0.786  1.00  0.00    -0.235 NA
ATOM     24  C   UNL     1      -1.404  -1.249  -0.050  1.00  0.00     0.006 A 
ATOM     25  C   UNL     1      -1.850   0.067  -0.046  1.00  0.00     0.048 A 
ENDBRANCH  17  19
ENDBRANCH  14  17
ENDBRANCH  13  14
ENDBRANCH   8  13
ENDBRANCH   4   7
ENDBRANCH   2   3
ENDBRANCH   1   2
BRANCH   1  26
ATOM     26  C   UNL     1       0.562   2.005   8.667  1.00  0.00     0.002 C 
BRANCH  26  27
ATOM     27  C   UNL     1       1.700   2.463   9.586  1.00  0.00     0.002 C 
BRANCH  27  28
ATOM     28  C   UNL     1       1.840   3.983   9.705  1.00  0.00     0.021 C 
BRANCH  28  29
ATOM     29  C   UNL     1       0.592   4.669  10.248  1.00  0.00     0.116 C 
BRANCH  29  30
ATOM     30  N   UNL     1       0.307   4.239  11.608  1.00  0.00    -0.352 N 
ATOM     31  C   UNL     1       0.222   4.994  12.749  1.00  0.00     0.251 C 
ATOM     32  H   UNL     1       0.154   3.273  11.725  1.00  0.00     0.163 HD
ATOM     33  O   UNL     1       0.255   4.463  13.853  1.00  0.00    -0.269 OA
BRANCH  31  34
ATOM     34  C   UNL     1       0.094   6.460  12.634  1.00  0.00     0.039 A 
ATOM     35  C   UNL     1       0.863   7.276  13.464  1.00  0.00     0.014 A 
ATOM     36  C   UNL     1      -0.790   7.020  11.707  1.00  0.00     0.014 A 
ATOM     37  C   UNL     1       0.781   8.662  13.330  1.00  0.00     0.010 A 
ATOM     38  C   UNL     1      -0.814   8.397  11.523  1.00  0.00     0.010 A 
ATOM     39  C   UNL     1      -0.034   9.231  12.337  1.00  0.00    -0.014 A 
BRANCH  39  40
ATOM     40  C   UNL     1      -0.081  10.699  12.131  1.00  0.00     0.031 A 
ATOM     41  C   UNL     1      -1.361  11.451  12.360  1.00  0.00     0.074 A 
ATOM     42  C   UNL     1       1.012  11.338  11.672  1.00  0.00     0.049 A 
ATOM     43  N   UNL     1      -1.622  12.719  12.166  1.00  0.00    -0.248 NA
ATOM     44  C   UNL     1      -2.509  10.670  12.847  1.00  0.00     0.031 C 
ATOM     45  C   UNL     1       2.296  10.704  11.370  1.00  0.00     0.029 A 
ATOM     46  N   UNL     1       1.214  12.660  11.369  1.00  0.00    -0.354 N 
ATOM     47  C   UNL     1      -2.961  12.883  12.495  1.00  0.00     0.074 A 
ATOM     48  C   UNL     1      -3.474  11.577  12.846  1.00  0.00     0.031 C 
ATOM     49  C   UNL     1       3.159  11.640  10.946  1.00  0.00     0.029 A 
ATOM     50  C   UNL     1       2.478  12.930  10.904  1.00  0.00     0.049 A 
ATOM     51  H   UNL     1       0.520  13.350  11.475  1.00  0.00     0.167 HD
ATOM     52  C   UNL     1      -3.688  14.025  12.523  1.00  0.00     0.037 A 
ATOM     53  C   UNL     1       3.021  14.087  10.481  1.00  0.00     0.037 A 
ATOM     54  C   UNL     1      -3.164  15.324  12.187  1.00  0.00     0.049 A 
ATOM     55  C   UNL     1       2.184  15.338  10.503  1.00  0.00     0.074 A 
ATOM     56  C   UNL     1      -3.801  16.551  12.239  1.00  0.00     0.029 A 
ATOM     57  N   UNL     1      -1.876  15.561  11.729  1.00  0.00    -0.354 N 
ATOM     58  N   UNL     1       0.940  15.495  10.885  1.00  0.00    -0.248 NA
ATOM     59  C   UNL     1       2.830  16.573  10.041  1.00  0.00     0.031 C 
ATOM     60  C   UNL     1      -2.917  17.523  11.759  1.00  0.00     0.029 A 
ATOM     61  C   UNL     1      -1.708  16.911  11.467  1.00  0.00     0.049 A 
ATOM     62  H   UNL     1      -1.183  14.871  11.608  1.00  0.00     0.167 HD
ATOM     63  C   UNL     1       0.663  16.847  10.737  1.00  0.00     0.074 A 
ATOM     64  C   UNL     1       1.876  17.469  10.248  1.00  0.00     0.031 C 
ATOM     65  C   UNL     1      -0.492  17.514  10.983  1.00  0.00     0.037 A 
BRANCH  52  66
ATOM     66  C   UNL     1      -5.131  13.922  12.929  1.00  0.00     0.064 A 
ATOM     67  C   UNL     1      -5.506  13.603  14.243  1.00  0.00     0.173 A 
ATOM     68  C   UNL     1      -6.152  14.184  12.003  1.00  0.00     0.173 A 
ATOM     69  F   UNL     1      -4.571  13.333  15.166  1.00  0.00    -0.203 F 
ATOM     70  C   UNL     1      -6.848  13.519  14.606  1.00  0.00     0.198 A 
ATOM     71  C   UNL     1      -7.492  14.132  12.378  1.00  0.00     0.198 A 
ATOM     72  F   UNL     1      -5.851  14.499  10.734  1.00  0.00    -0.203 F 
ATOM     73  F   UNL     1      -7.182  13.161  15.854  1.00  0.00    -0.200 F 
ATOM     74  C   UNL     1      -7.839  13.791  13.676  1.00  0.00     0.200 A 
ATOM     75  F   UNL     1      -8.448  14.410  11.481  1.00  0.00    -0.200 F 
ATOM     76  F   UNL     1      -9.130  13.720  14.029  1.00  0.00    -0.200 F 
ENDBRANCH  52  66
BRANCH  53  77
ATOM     77  C   UNL     1       4.432  14.120  10.016  1.00  0.00     0.064 A 
ATOM     78  C   UNL     1       5.417  14.794  10.750  1.00  0.00     0.173 A 
ATOM     79  C   UNL     1       4.826  13.483   8.829  1.00  0.00     0.173 A 
ATOM     80  F   UNL     1       5.088  15.434  11.882  1.00  0.00    -0.203 F 
ATOM     81  C   UNL     1       6.736  14.852  10.304  1.00  0.00     0.198 A 
ATOM     82  C   UNL     1       6.151  13.515   8.400  1.00  0.00     0.198 A 
ATOM     83  F   UNL     1       3.924  12.817   8.092  1.00  0.00    -0.203 F 
ATOM     84  F   UNL     1       7.646  15.547  11.000  1.00  0.00    -0.200 F 
ATOM     85  C   UNL     1       7.103  14.207   9.133  1.00  0.00     0.200 A 
ATOM     86  F   UNL     1       6.505  12.875   7.277  1.00  0.00    -0.200 F 
ATOM     87  F   UNL     1       8.372  14.259   8.706  1.00  0.00    -0.200 F 
ENDBRANCH  53  77
BRANCH  65  88
ATOM     88  C   UNL     1      -0.488  19.000  10.760  1.00  0.00     0.064 A 
ATOM     89  C   UNL     1      -0.429  19.553   9.473  1.00  0.00     0.173 A 
ATOM     90  C   UNL     1      -0.581  19.880  11.850  1.00  0.00     0.173 A 
ATOM     91  F   UNL     1      -0.324  18.756   8.399  1.00  0.00    -0.203 F 
ATOM     92  C   UNL     1      -0.434  20.933   9.286  1.00  0.00     0.198 A 
ATOM     93  C   UNL     1      -0.621  21.258  11.657  1.00  0.00     0.198 A 
ATOM     94  F   UNL     1      -0.648  19.403  13.102  1.00  0.00    -0.203 F 
ATOM     95  F   UNL     1      -0.322  21.440   8.051  1.00  0.00    -0.200 F 
ATOM     96  C   UNL     1      -0.538  21.783  10.377  1.00  0.00     0.200 A 
ATOM     97  F   UNL     1      -0.738  22.077  12.711  1.00  0.00    -0.200 F 
ATOM     98  F   UNL     1      -0.550  23.111  10.194  1.00  0.00    -0.200 F 
ENDBRANCH  65  88
ENDBRANCH  39  40
ENDBRANCH  31  34
ENDBRANCH  29  30
ENDBRANCH  28  29
ENDBRANCH  27  28
ENDBRANCH  26  27
ENDBRANCH   1  26
TORSDOF 17
