REMARK SMILES O=C(CCCN1C(=O)C(=O)/C(=C(/[O-])c2ccc(Cl)cc2)[C@@H]1c1ccccc1[N+](=O)[O-])NCCCCCCNC(=O)c1ccc(-c2c3nc(c(-c4c(F)c(F)c(F)c(F)c4F)c4ccc([nH]4)c(-c4c(F)c(F)c(F)c(F)c4F)c4nc(c(-c5c(F)c(F)c(F)c(F)c5F)c5ccc2[nH]5)C=C4)C=C3)cc1
REMARK SMILES IDX 33 1 32 2 31 3 1 4 2 5 3 7 4 8 5 9 6 10 7 11 21 12 8 13 9 14
REMARK SMILES IDX 11 15 10 16 12 17 13 18 22 19 23 20 27 21 24 22 26 23 25 24
REMARK SMILES IDX 28 25 29 26 30 27 14 28 15 29 20 30 16 31 19 32 17 33 18 34
REMARK SMILES IDX 34 35 35 36 36 37 37 38 38 39 39 40 40 42 41 43 42 44 103 45
REMARK SMILES IDX 43 46 102 47 44 48 45 49 46 50 96 51 47 52 101 53 95 54
REMARK SMILES IDX 97 55 48 56 100 57 94 58 93 59 49 61 81 62 61 63 80 64 62 65
REMARK SMILES IDX 65 66 79 67 98 68 63 69 64 70 78 72 99 73 66 74 50 75 51 76
REMARK SMILES IDX 59 77 52 78 53 79 57 80 60 81 54 82 55 83 58 84 56 85 82 86
REMARK SMILES IDX 83 87 91 88 84 89 85 90 89 91 92 92 86 93 87 94 90 95 88 96
REMARK SMILES IDX 67 97 68 98 76 99 69 100 70 101 74 102 77 103 71 104 72 105
REMARK SMILES IDX 75 106 73 107
REMARK H PARENT 31 6 38 41 97 60 65 71
REMARK Flexibility Score: inf
ROOT
ATOM      1  C   UNL     1       2.484  -2.784   1.942  1.00  0.00     0.021 C 
ENDROOT
BRANCH   1   2
ATOM      2  C   UNL     1       1.932  -1.601   2.740  1.00  0.00     0.116 C 
BRANCH   2   3
ATOM      3  N   UNL     1       2.499  -0.335   2.304  1.00  0.00    -0.356 N 
ATOM      4  O   UNL     1       0.934  -0.027   0.684  1.00  0.00    -0.275 OA
ATOM      5  C   UNL     1       1.974   0.340   1.227  1.00  0.00     0.220 C 
ATOM      6  H   UNL     1       3.270   0.043   2.785  1.00  0.00     0.163 HD
BRANCH   5   7
ATOM      7  C   UNL     1       2.688   1.611   0.794  1.00  0.00     0.102 C 
BRANCH   7   8
ATOM      8  C   UNL     1       4.216   1.700   0.872  1.00  0.00     0.031 C 
BRANCH   8   9
ATOM      9  C   UNL     1       5.068   0.460   0.563  1.00  0.00     0.121 C 
BRANCH   9  10
ATOM     10  N   UNL     1       5.384   0.114  -0.815  1.00  0.00    -0.324 N 
ATOM     11  C   UNL     1       5.980   1.032  -1.674  1.00  0.00     0.295 C 
ATOM     12  C   UNL     1       5.731  -1.265  -1.167  1.00  0.00     0.157 C 
ATOM     13  O   UNL     1       6.111   2.227  -1.522  1.00  0.00    -0.265 OA
ATOM     14  C   UNL     1       6.647   0.240  -2.805  1.00  0.00     0.248 C 
ATOM     15  C   UNL     1       6.622  -1.181  -2.383  1.00  0.00     0.025 C 
ATOM     16  O   UNL     1       7.229   0.735  -3.744  1.00  0.00    -0.283 OA
ATOM     17  C   UNL     1       7.255  -2.207  -2.977  1.00  0.00    -0.092 C 
ATOM     18  O   UNL     1       7.340  -3.445  -2.372  1.00  0.00    -0.872 OA
BRANCH  12  19
ATOM     19  C   UNL     1       4.537  -2.195  -1.413  1.00  0.00     0.057 A 
ATOM     20  C   UNL     1       4.698  -3.568  -1.117  1.00  0.00     0.013 A 
ATOM     21  C   UNL     1       3.321  -1.843  -2.029  1.00  0.00     0.275 A 
ATOM     22  C   UNL     1       3.712  -4.519  -1.407  1.00  0.00     0.001 A 
ATOM     23  C   UNL     1       2.307  -2.783  -2.287  1.00  0.00     0.086 A 
ATOM     24  C   UNL     1       2.510  -4.124  -1.980  1.00  0.00     0.007 A 
BRANCH  21  25
ATOM     25  N   UNL     1       3.084  -0.511  -2.548  1.00  0.00     0.063 N 
ATOM     26  O   UNL     1       2.141   0.125  -2.072  1.00  0.00    -0.258 OA
ATOM     27  O   UNL     1       3.825  -0.131  -3.462  1.00  0.00    -0.258 OA
ENDBRANCH  21  25
ENDBRANCH  12  19
BRANCH  17  28
ATOM     28  C   UNL     1       7.466  -2.253  -4.428  1.00  0.00    -0.033 A 
ATOM     29  C   UNL     1       8.501  -1.587  -5.085  1.00  0.00     0.009 A 
ATOM     30  C   UNL     1       6.516  -2.966  -5.183  1.00  0.00     0.009 A 
ATOM     31  C   UNL     1       8.556  -1.595  -6.483  1.00  0.00     0.021 A 
ATOM     32  C   UNL     1       6.573  -2.978  -6.575  1.00  0.00     0.021 A 
ATOM     33  C   UNL     1       7.589  -2.281  -7.220  1.00  0.00     0.041 A 
ATOM     34  Cl  UNL     1       7.639  -2.255  -8.939  1.00  0.00    -0.084 Cl
ENDBRANCH  17  28
ENDBRANCH   9  10
ENDBRANCH   8   9
ENDBRANCH   7   8
ENDBRANCH   5   7
ENDBRANCH   2   3
ENDBRANCH   1   2
BRANCH   1  35
ATOM     35  C   UNL     1       3.976  -3.054   2.165  1.00  0.00     0.002 C 
BRANCH  35  36
ATOM     36  C   UNL     1       4.373  -3.580   3.539  1.00  0.00     0.002 C 
BRANCH  36  37
ATOM     37  C   UNL     1       3.742  -4.920   3.912  1.00  0.00     0.021 C 
BRANCH  37  38
ATOM     38  C   UNL     1       3.929  -6.031   2.881  1.00  0.00     0.116 C 
BRANCH  38  39
ATOM     39  N   UNL     1       5.317  -6.453   2.753  1.00  0.00    -0.352 N 
ATOM     40  C   UNL     1       5.912  -7.627   3.148  1.00  0.00     0.251 C 
ATOM     41  H   UNL     1       5.916  -5.802   2.321  1.00  0.00     0.163 HD
ATOM     42  O   UNL     1       7.133  -7.744   3.116  1.00  0.00    -0.269 OA
BRANCH  40  43
ATOM     43  C   UNL     1       5.076  -8.743   3.641  1.00  0.00     0.039 A 
ATOM     44  C   UNL     1       5.418  -9.371   4.840  1.00  0.00     0.014 A 
ATOM     45  C   UNL     1       3.950  -9.159   2.926  1.00  0.00     0.014 A 
ATOM     46  C   UNL     1       4.588 -10.367   5.361  1.00  0.00     0.010 A 
ATOM     47  C   UNL     1       3.083 -10.095   3.484  1.00  0.00     0.010 A 
ATOM     48  C   UNL     1       3.394 -10.711   4.706  1.00  0.00    -0.014 A 
BRANCH  48  49
ATOM     49  C   UNL     1       2.466 -11.727   5.268  1.00  0.00     0.031 A 
ATOM     50  C   UNL     1       2.205 -13.001   4.512  1.00  0.00     0.074 A 
ATOM     51  C   UNL     1       1.809 -11.480   6.418  1.00  0.00     0.049 A 
ATOM     52  N   UNL     1       1.356 -13.963   4.774  1.00  0.00    -0.248 NA
ATOM     53  C   UNL     1       2.983 -13.210   3.280  1.00  0.00     0.031 C 
ATOM     54  C   UNL     1       1.939 -10.265   7.225  1.00  0.00     0.029 A 
ATOM     55  N   UNL     1       0.887 -12.234   7.102  1.00  0.00    -0.354 N 
ATOM     56  C   UNL     1       1.490 -14.879   3.739  1.00  0.00     0.074 A 
ATOM     57  C   UNL     1       2.459 -14.334   2.814  1.00  0.00     0.031 C 
ATOM     58  C   UNL     1       1.137 -10.362   8.299  1.00  0.00     0.029 A 
ATOM     59  C   UNL     1       0.412 -11.628   8.240  1.00  0.00     0.049 A 
ATOM     60  H   UNL     1       0.595 -13.126   6.805  1.00  0.00     0.167 HD
ATOM     61  C   UNL     1       0.882 -16.079   3.586  1.00  0.00     0.037 A 
ATOM     62  C   UNL     1      -0.510 -12.043   9.129  1.00  0.00     0.037 A 
ATOM     63  C   UNL     1      -0.061 -16.636   4.519  1.00  0.00     0.049 A 
ATOM     64  C   UNL     1      -1.163 -13.387   8.939  1.00  0.00     0.074 A 
ATOM     65  C   UNL     1      -0.717 -17.854   4.461  1.00  0.00     0.029 A 
ATOM     66  N   UNL     1      -0.475 -16.013   5.686  1.00  0.00    -0.354 N 
ATOM     67  N   UNL     1      -0.995 -14.262   7.977  1.00  0.00    -0.248 NA
ATOM     68  C   UNL     1      -2.127 -13.808   9.967  1.00  0.00     0.031 C 
ATOM     69  C   UNL     1      -1.546 -17.958   5.582  1.00  0.00     0.029 A 
ATOM     70  C   UNL     1      -1.375 -16.824   6.359  1.00  0.00     0.049 A 
ATOM     71  H   UNL     1      -0.174 -15.127   5.992  1.00  0.00     0.167 HD
ATOM     72  C   UNL     1      -1.798 -15.346   8.303  1.00  0.00     0.074 A 
ATOM     73  C   UNL     1      -2.446 -15.027   9.556  1.00  0.00     0.031 C 
ATOM     74  C   UNL     1      -1.985 -16.503   7.622  1.00  0.00     0.037 A 
BRANCH  61  75
ATOM     75  C   UNL     1       1.238 -16.887   2.373  1.00  0.00     0.064 A 
ATOM     76  C   UNL     1       2.494 -17.500   2.248  1.00  0.00     0.173 A 
ATOM     77  C   UNL     1       0.301 -17.095   1.350  1.00  0.00     0.173 A 
ATOM     78  F   UNL     1       3.429 -17.320   3.193  1.00  0.00    -0.203 F 
ATOM     79  C   UNL     1       2.807 -18.273   1.134  1.00  0.00     0.198 A 
ATOM     80  C   UNL     1       0.608 -17.892   0.250  1.00  0.00     0.198 A 
ATOM     81  F   UNL     1      -0.915 -16.535   1.422  1.00  0.00    -0.203 F 
ATOM     82  F   UNL     1       4.028 -18.813   1.017  1.00  0.00    -0.200 F 
ATOM     83  C   UNL     1       1.861 -18.476   0.140  1.00  0.00     0.200 A 
ATOM     84  F   UNL     1      -0.311 -18.097  -0.704  1.00  0.00    -0.200 F 
ATOM     85  F   UNL     1       2.160 -19.230  -0.926  1.00  0.00    -0.200 F 
ENDBRANCH  61  75
BRANCH  62  86
ATOM     86  C   UNL     1      -0.865 -11.193  10.296  1.00  0.00     0.064 A 
ATOM     87  C   UNL     1      -0.521 -11.577  11.600  1.00  0.00     0.173 A 
ATOM     88  C   UNL     1      -1.586 -10.000  10.137  1.00  0.00     0.173 A 
ATOM     89  F   UNL     1       0.151 -12.720  11.805  1.00  0.00    -0.203 F 
ATOM     90  C   UNL     1      -0.913 -10.820  12.702  1.00  0.00     0.198 A 
ATOM     91  C   UNL     1      -1.952  -9.228  11.238  1.00  0.00     0.198 A 
ATOM     92  F   UNL     1      -1.934  -9.584   8.910  1.00  0.00    -0.203 F 
ATOM     93  F   UNL     1      -0.623 -11.243  13.940  1.00  0.00    -0.200 F 
ATOM     94  C   UNL     1      -1.626  -9.645  12.520  1.00  0.00     0.200 A 
ATOM     95  F   UNL     1      -2.628  -8.086  11.057  1.00  0.00    -0.200 F 
ATOM     96  F   UNL     1      -2.009  -8.920  13.580  1.00  0.00    -0.200 F 
ENDBRANCH  62  86
BRANCH  74  97
ATOM     97  C   UNL     1      -2.876 -17.535   8.247  1.00  0.00     0.064 A 
ATOM     98  C   UNL     1      -4.268 -17.375   8.300  1.00  0.00     0.173 A 
ATOM     99  C   UNL     1      -2.329 -18.720   8.765  1.00  0.00     0.173 A 
ATOM    100  F   UNL     1      -4.837 -16.255   7.831  1.00  0.00    -0.203 F 
ATOM    101  C   UNL     1      -5.078 -18.353   8.872  1.00  0.00     0.198 A 
ATOM    102  C   UNL     1      -3.144 -19.707   9.310  1.00  0.00     0.198 A 
ATOM    103  F   UNL     1      -1.004 -18.923   8.731  1.00  0.00    -0.203 F 
ATOM    104  F   UNL     1      -6.402 -18.159   8.954  1.00  0.00    -0.200 F 
ATOM    105  C   UNL     1      -4.517 -19.519   9.370  1.00  0.00     0.200 A 
ATOM    106  F   UNL     1      -2.602 -20.838   9.780  1.00  0.00    -0.200 F 
ATOM    107  F   UNL     1      -5.299 -20.461   9.915  1.00  0.00    -0.200 F 
ENDBRANCH  74  97
ENDBRANCH  48  49
ENDBRANCH  40  43
ENDBRANCH  38  39
ENDBRANCH  37  38
ENDBRANCH  36  37
ENDBRANCH  35  36
ENDBRANCH   1  35
TORSDOF 19
