REMARK SMILES CCOc1cc(CO)cc(Br)c1OCC(C)(C)C(=O)NCCCCCCNC(=O)c1ccc(-c2c3nc(c(-c4c(F)c(F)c(F)c(F)c4F)c4ccc([nH]4)c(-c4c(F)c(F)c(F)c(F)c4F)c4nc(c(-c5c(F)c(F)c(F)c(F)c5F)c5ccc2[nH]5)C=C4)C=C3)cc1
REMARK SMILES IDX 22 1 21 2 20 3 18 4 19 5 15 7 16 8 17 9 14 10 13 11 12 12
REMARK SMILES IDX 4 13 5 14 6 15 10 16 9 17 11 18 3 19 2 20 1 21 7 22 8 23
REMARK SMILES IDX 23 25 24 26 25 27 26 28 27 29 28 30 29 32 30 33 31 34 92 35
REMARK SMILES IDX 32 36 91 37 33 38 34 39 35 40 85 41 36 42 90 43 84 44 86 45
REMARK SMILES IDX 37 46 89 47 83 48 82 49 38 51 70 52 50 53 69 54 51 55 54 56
REMARK SMILES IDX 68 57 87 58 52 59 53 60 67 62 88 63 55 64 39 65 40 66 48 67
REMARK SMILES IDX 41 68 42 69 46 70 49 71 43 72 44 73 47 74 45 75 71 76 72 77
REMARK SMILES IDX 80 78 73 79 74 80 78 81 81 82 75 83 76 84 79 85 77 86 56 87
REMARK SMILES IDX 57 88 65 89 58 90 59 91 63 92 66 93 60 94 61 95 64 96 62 97
REMARK H PARENT 20 6 8 24 27 31 86 50 54 61
REMARK Flexibility Score: inf
ROOT
ATOM      1  C   UNL     1       4.930   6.979   5.913  1.00  0.00     0.021 C 
ENDROOT
BRANCH   1   2
ATOM      2  C   UNL     1       4.834   6.021   4.734  1.00  0.00     0.116 C 
BRANCH   2   3
ATOM      3  N   UNL     1       3.456   5.744   4.366  1.00  0.00    -0.356 N 
ATOM      4  C   UNL     1       2.807   5.728   3.163  1.00  0.00     0.229 C 
ATOM      5  O   UNL     1       1.612   5.426   3.199  1.00  0.00    -0.274 OA
ATOM      6  H   UNL     1       2.877   5.525   5.131  1.00  0.00     0.163 HD
BRANCH   4   7
ATOM      7  C   UNL     1       3.529   6.073   1.846  1.00  0.00     0.077 C 
ATOM      8  C   UNL     1       4.717   5.117   1.676  1.00  0.00     0.025 C 
ATOM      9  C   UNL     1       3.997   7.548   1.903  1.00  0.00     0.025 C 
BRANCH   7  10
ATOM     10  C   UNL     1       2.513   6.045   0.638  1.00  0.00     0.246 C 
BRANCH  10  11
ATOM     11  O   UNL     1       2.037   4.818   0.077  1.00  0.00    -0.487 OA
BRANCH  11  12
ATOM     12  C   UNL     1       2.858   3.892  -0.500  1.00  0.00     0.175 A 
ATOM     13  C   UNL     1       2.421   2.562  -0.329  1.00  0.00     0.162 A 
ATOM     14  C   UNL     1       3.300   1.502  -0.552  1.00  0.00     0.056 A 
ATOM     15  C   UNL     1       4.617   1.739  -0.959  1.00  0.00    -0.018 A 
ATOM     16  C   UNL     1       4.073   4.104  -1.160  1.00  0.00     0.064 A 
ATOM     17  C   UNL     1       4.969   3.038  -1.333  1.00  0.00     0.026 A 
ATOM     18  Br  UNL     1       4.594   5.748  -1.967  1.00  0.00    -0.047 Br
BRANCH  13  19
ATOM     19  O   UNL     1       1.083   2.372  -0.091  1.00  0.00    -0.490 OA
BRANCH  19  20
ATOM     20  C   UNL     1       0.688   1.381   0.854  1.00  0.00     0.226 C 
ATOM     21  C   UNL     1       0.517  -0.003   0.243  1.00  0.00     0.049 C 
ENDBRANCH  19  20
ENDBRANCH  13  19
BRANCH  15  22
ATOM     22  C   UNL     1       5.591   0.601  -1.104  1.00  0.00     0.191 C 
BRANCH  22  23
ATOM     23  O   UNL     1       5.480  -0.309  -0.014  1.00  0.00    -0.392 OA
ATOM     24  H   UNL     1       5.679   0.154   0.815  1.00  0.00     0.211 HD
ENDBRANCH  22  23
ENDBRANCH  15  22
ENDBRANCH  11  12
ENDBRANCH  10  11
ENDBRANCH   7  10
ENDBRANCH   4   7
ENDBRANCH   2   3
ENDBRANCH   1   2
BRANCH   1  25
ATOM     25  C   UNL     1       4.524   6.358   7.250  1.00  0.00     0.002 C 
BRANCH  25  26
ATOM     26  C   UNL     1       5.285   5.081   7.624  1.00  0.00     0.002 C 
BRANCH  26  27
ATOM     27  C   UNL     1       6.811   5.198   7.582  1.00  0.00     0.021 C 
BRANCH  27  28
ATOM     28  C   UNL     1       7.380   6.331   8.427  1.00  0.00     0.116 C 
BRANCH  28  29
ATOM     29  N   UNL     1       7.025   6.196   9.829  1.00  0.00    -0.352 N 
ATOM     30  C   UNL     1       7.838   6.205  10.931  1.00  0.00     0.251 C 
ATOM     31  H   UNL     1       6.065   6.082  10.013  1.00  0.00     0.163 HD
ATOM     32  O   UNL     1       7.399   5.876  12.031  1.00  0.00    -0.269 OA
BRANCH  30  33
ATOM     33  C   UNL     1       9.253   6.597  10.789  1.00  0.00     0.039 A 
ATOM     34  C   UNL     1      10.233   5.830  11.421  1.00  0.00     0.014 A 
ATOM     35  C   UNL     1       9.610   7.715  10.029  1.00  0.00     0.014 A 
ATOM     36  C   UNL     1      11.579   6.155  11.250  1.00  0.00     0.010 A 
ATOM     37  C   UNL     1      10.952   7.988   9.792  1.00  0.00     0.010 A 
ATOM     38  C   UNL     1      11.950   7.217  10.408  1.00  0.00    -0.014 A 
BRANCH  38  39
ATOM     39  C   UNL     1      13.377   7.540  10.165  1.00  0.00     0.031 A 
ATOM     40  C   UNL     1      13.936   8.864  10.604  1.00  0.00     0.074 A 
ATOM     41  C   UNL     1      14.152   6.664   9.498  1.00  0.00     0.049 A 
ATOM     42  N   UNL     1      15.142   9.349  10.444  1.00  0.00    -0.248 NA
ATOM     43  C   UNL     1      13.008   9.778  11.287  1.00  0.00     0.031 C 
ATOM     44  C   UNL     1      13.712   5.364   8.988  1.00  0.00     0.029 A 
ATOM     45  N   UNL     1      15.472   6.735   9.132  1.00  0.00    -0.354 N 
ATOM     46  C   UNL     1      15.111  10.625  10.989  1.00  0.00     0.074 A 
ATOM     47  C   UNL     1      13.754  10.863  11.431  1.00  0.00     0.031 C 
ATOM     48  C   UNL     1      14.753   4.745   8.410  1.00  0.00     0.029 A 
ATOM     49  C   UNL     1      15.919   5.620   8.467  1.00  0.00     0.049 A 
ATOM     50  H   UNL     1      16.044   7.513   9.326  1.00  0.00     0.167 HD
ATOM     51  C   UNL     1      16.127  11.510  11.128  1.00  0.00     0.037 A 
ATOM     52  C   UNL     1      17.134   5.338   7.960  1.00  0.00     0.037 A 
ATOM     53  C   UNL     1      17.479  11.256  10.703  1.00  0.00     0.049 A 
ATOM     54  C   UNL     1      18.239   6.350   8.102  1.00  0.00     0.074 A 
ATOM     55  C   UNL     1      18.598  12.054  10.862  1.00  0.00     0.029 A 
ATOM     56  N   UNL     1      17.893  10.119  10.022  1.00  0.00    -0.354 N 
ATOM     57  N   UNL     1      18.221   7.521   8.693  1.00  0.00    -0.248 NA
ATOM     58  C   UNL     1      19.535   5.998   7.507  1.00  0.00     0.031 C 
ATOM     59  C   UNL     1      19.673  11.433  10.218  1.00  0.00     0.029 A 
ATOM     60  C   UNL     1      19.242  10.214   9.718  1.00  0.00     0.049 A 
ATOM     61  H   UNL     1      17.313   9.358   9.788  1.00  0.00     0.167 HD
ATOM     62  C   UNL     1      19.508   8.028   8.573  1.00  0.00     0.074 A 
ATOM     63  C   UNL     1      20.284   7.032   7.863  1.00  0.00     0.031 C 
ATOM     64  C   UNL     1      20.003   9.211   9.015  1.00  0.00     0.037 A 
BRANCH  51  65
ATOM     65  C   UNL     1      15.809  12.841  11.749  1.00  0.00     0.064 A 
ATOM     66  C   UNL     1      15.434  12.963  13.096  1.00  0.00     0.173 A 
ATOM     67  C   UNL     1      15.894  14.017  10.987  1.00  0.00     0.173 A 
ATOM     68  F   UNL     1      15.327  11.872  13.870  1.00  0.00    -0.203 F 
ATOM     69  C   UNL     1      15.114  14.204  13.644  1.00  0.00     0.198 A 
ATOM     70  C   UNL     1      15.610  15.260  11.547  1.00  0.00     0.198 A 
ATOM     71  F   UNL     1      16.254  13.962   9.695  1.00  0.00    -0.203 F 
ATOM     72  F   UNL     1      14.694  14.285  14.914  1.00  0.00    -0.200 F 
ATOM     73  C   UNL     1      15.209  15.351  12.871  1.00  0.00     0.200 A 
ATOM     74  F   UNL     1      15.718  16.369  10.803  1.00  0.00    -0.200 F 
ATOM     75  F   UNL     1      14.903  16.544  13.399  1.00  0.00    -0.200 F 
ENDBRANCH  51  65
BRANCH  52  76
ATOM     76  C   UNL     1      17.381   4.026   7.307  1.00  0.00     0.064 A 
ATOM     77  C   UNL     1      18.227   3.079   7.902  1.00  0.00     0.173 A 
ATOM     78  C   UNL     1      16.785   3.690   6.083  1.00  0.00     0.173 A 
ATOM     79  F   UNL     1      18.836   3.362   9.063  1.00  0.00    -0.203 F 
ATOM     80  C   UNL     1      18.483   1.855   7.288  1.00  0.00     0.198 A 
ATOM     81  C   UNL     1      17.018   2.453   5.485  1.00  0.00     0.198 A 
ATOM     82  F   UNL     1      15.964   4.557   5.474  1.00  0.00    -0.203 F 
ATOM     83  F   UNL     1      19.332   0.988   7.857  1.00  0.00    -0.200 F 
ATOM     84  C   UNL     1      17.874   1.540   6.084  1.00  0.00     0.200 A 
ATOM     85  F   UNL     1      16.414   2.145   4.329  1.00  0.00    -0.200 F 
ATOM     86  F   UNL     1      18.116   0.360   5.497  1.00  0.00    -0.200 F 
ENDBRANCH  52  76
BRANCH  64  87
ATOM     87  C   UNL     1      21.464   9.477   8.783  1.00  0.00     0.064 A 
ATOM     88  C   UNL     1      21.979   9.720   7.501  1.00  0.00     0.173 A 
ATOM     89  C   UNL     1      22.355   9.526   9.867  1.00  0.00     0.173 A 
ATOM     90  F   UNL     1      21.174   9.670   6.429  1.00  0.00    -0.203 F 
ATOM     91  C   UNL     1      23.335   9.973   7.310  1.00  0.00     0.198 A 
ATOM     92  C   UNL     1      23.703   9.815   9.677  1.00  0.00     0.198 A 
ATOM     93  F   UNL     1      21.915   9.308  11.116  1.00  0.00    -0.203 F 
ATOM     94  F   UNL     1      23.814  10.147   6.071  1.00  0.00    -0.200 F 
ATOM     95  C   UNL     1      24.194  10.029   8.398  1.00  0.00     0.200 A 
ATOM     96  F   UNL     1      24.527   9.886  10.731  1.00  0.00    -0.200 F 
ATOM     97  F   UNL     1      25.497  10.281   8.213  1.00  0.00    -0.200 F 
ENDBRANCH  64  87
ENDBRANCH  38  39
ENDBRANCH  30  33
ENDBRANCH  28  29
ENDBRANCH  27  28
ENDBRANCH  26  27
ENDBRANCH  25  26
ENDBRANCH   1  25
TORSDOF 20
