REMARK SMILES C[C@@H]1Cc2ccccc2N1S(=O)(=O)c1cccc(C(=O)NCCCCCCNC(=O)c2ccc(-c3c4nc(c(-c5c(F)c(F)c(F)c(F)c5F)c5ccc([nH]5)c(-c5c(F)c(F)c(F)c(F)c5F)c5nc(c(-c6c(F)c(F)c(F)c(F)c6F)c6ccc3[nH]6)C=C5)C=C4)cc2)c1
REMARK SMILES IDX 24 1 23 2 22 3 21 4 19 5 20 6 18 8 14 9 15 10 94 11 16 12
REMARK SMILES IDX 17 13 11 14 12 15 13 16 10 17 1 18 2 19 3 20 4 21 9 22 5 23
REMARK SMILES IDX 8 24 6 25 7 26 25 27 26 28 27 29 28 30 29 31 30 33 31 34
REMARK SMILES IDX 32 35 93 36 33 37 92 38 34 39 35 40 36 41 86 42 37 43 91 44
REMARK SMILES IDX 85 45 87 46 38 47 90 48 84 49 83 50 39 52 71 53 51 54 70 55
REMARK SMILES IDX 52 56 55 57 69 58 88 59 53 60 54 61 68 63 89 64 56 65 40 66
REMARK SMILES IDX 41 67 49 68 42 69 43 70 47 71 50 72 44 73 45 74 48 75 46 76
REMARK SMILES IDX 72 77 73 78 81 79 74 80 75 81 79 82 82 83 76 84 77 85 80 86
REMARK SMILES IDX 78 87 57 88 58 89 66 90 59 91 60 92 64 93 67 94 61 95 62 96
REMARK SMILES IDX 65 97 63 98
REMARK H PARENT 21 7 28 32 87 51 55 62
REMARK Flexibility Score: inf
ROOT
ATOM      1  C   UNL     1      -7.366  -2.108  -3.943  1.00  0.00     0.002 C 
ENDROOT
BRANCH   1   2
ATOM      2  C   UNL     1      -6.085  -2.208  -3.116  1.00  0.00     0.021 C 
BRANCH   2   3
ATOM      3  C   UNL     1      -5.971  -1.313  -1.888  1.00  0.00     0.116 C 
BRANCH   3   4
ATOM      4  N   UNL     1      -6.987  -1.532  -0.878  1.00  0.00    -0.352 N 
ATOM      5  C   UNL     1      -6.951  -1.419   0.493  1.00  0.00     0.251 C 
ATOM      6  O   UNL     1      -7.995  -1.637   1.109  1.00  0.00    -0.269 OA
ATOM      7  H   UNL     1      -7.859  -1.811  -1.238  1.00  0.00     0.163 HD
BRANCH   5   8
ATOM      8  C   UNL     1      -5.705  -1.128   1.266  1.00  0.00     0.041 A 
ATOM      9  C   UNL     1      -3.381  -0.513   1.460  1.00  0.00     0.088 A 
ATOM     10  C   UNL     1      -3.347  -0.923   2.795  1.00  0.00     0.022 A 
ATOM     11  C   UNL     1      -4.579  -0.494   0.740  1.00  0.00     0.036 A 
ATOM     12  C   UNL     1      -4.498  -1.449   3.370  1.00  0.00     0.002 A 
ATOM     13  C   UNL     1      -5.657  -1.583   2.598  1.00  0.00     0.014 A 
BRANCH   9  14
ATOM     14  S   UNL     1      -1.856  -0.107   0.649  1.00  0.00     0.264 S 
ATOM     15  O   UNL     1      -0.925   0.301   1.678  1.00  0.00    -0.201 OA
ATOM     16  O   UNL     1      -2.179   0.797  -0.443  1.00  0.00    -0.201 OA
BRANCH  14  17
ATOM     17  N   UNL     1      -1.269  -1.566  -0.080  1.00  0.00    -0.263 N 
ATOM     18  C   UNL     1       0.244  -1.143  -2.024  1.00  0.00     0.032 C 
ATOM     19  C   UNL     1       0.186  -1.400  -0.526  1.00  0.00     0.101 C 
ATOM     20  C   UNL     1       0.935  -2.689  -0.121  1.00  0.00     0.063 C 
ATOM     21  C   UNL     1      -0.076  -3.433   0.680  1.00  0.00    -0.021 A 
ATOM     22  C   UNL     1      -1.315  -2.805   0.650  1.00  0.00     0.055 A 
ATOM     23  C   UNL     1       0.104  -4.658   1.316  1.00  0.00     0.006 A 
ATOM     24  C   UNL     1      -2.430  -3.477   1.124  1.00  0.00     0.027 A 
ATOM     25  C   UNL     1      -1.002  -5.279   1.896  1.00  0.00     0.000 A 
ATOM     26  C   UNL     1      -2.269  -4.700   1.782  1.00  0.00     0.002 A 
ENDBRANCH  14  17
ENDBRANCH   9  14
ENDBRANCH   5   8
ENDBRANCH   3   4
ENDBRANCH   2   3
ENDBRANCH   1   2
BRANCH   1  27
ATOM     27  C   UNL     1      -7.792  -0.713  -4.404  1.00  0.00     0.002 C 
BRANCH  27  28
ATOM     28  C   UNL     1      -6.727   0.137  -5.093  1.00  0.00     0.021 C 
BRANCH  28  29
ATOM     29  C   UNL     1      -5.990  -0.520  -6.252  1.00  0.00     0.116 C 
BRANCH  29  30
ATOM     30  N   UNL     1      -6.845  -0.840  -7.385  1.00  0.00    -0.352 N 
ATOM     31  C   UNL     1      -6.669  -0.540  -8.717  1.00  0.00     0.251 C 
ATOM     32  H   UNL     1      -7.664  -1.341  -7.169  1.00  0.00     0.163 HD
ATOM     33  O   UNL     1      -7.542  -0.806  -9.537  1.00  0.00    -0.269 OA
BRANCH  31  34
ATOM     34  C   UNL     1      -5.436   0.155  -9.152  1.00  0.00     0.039 A 
ATOM     35  C   UNL     1      -4.185  -0.267  -8.702  1.00  0.00     0.014 A 
ATOM     36  C   UNL     1      -5.544   1.281  -9.973  1.00  0.00     0.014 A 
ATOM     37  C   UNL     1      -3.073   0.543  -8.906  1.00  0.00     0.010 A 
ATOM     38  C   UNL     1      -4.406   2.043 -10.257  1.00  0.00     0.010 A 
ATOM     39  C   UNL     1      -3.171   1.715  -9.675  1.00  0.00    -0.014 A 
BRANCH  39  40
ATOM     40  C   UNL     1      -1.977   2.588  -9.836  1.00  0.00     0.031 A 
ATOM     41  C   UNL     1      -1.971   3.995  -9.295  1.00  0.00     0.074 A 
ATOM     42  C   UNL     1      -0.872   2.091 -10.425  1.00  0.00     0.049 A 
ATOM     43  N   UNL     1      -1.019   4.894  -9.346  1.00  0.00    -0.248 NA
ATOM     44  C   UNL     1      -3.189   4.459  -8.613  1.00  0.00     0.031 C 
ATOM     45  C   UNL     1      -0.750   0.743 -10.983  1.00  0.00     0.029 A 
ATOM     46  N   UNL     1       0.363   2.651 -10.640  1.00  0.00    -0.354 N 
ATOM     47  C   UNL     1      -1.530   6.028  -8.728  1.00  0.00     0.074 A 
ATOM     48  C   UNL     1      -2.885   5.718  -8.329  1.00  0.00     0.031 C 
ATOM     49  C   UNL     1       0.498   0.565 -11.437  1.00  0.00     0.029 A 
ATOM     50  C   UNL     1       1.247   1.806 -11.266  1.00  0.00     0.049 A 
ATOM     51  H   UNL     1       0.594   3.569 -10.371  1.00  0.00     0.167 HD
ATOM     52  C   UNL     1      -0.917   7.215  -8.502  1.00  0.00     0.037 A 
ATOM     53  C   UNL     1       2.512   2.011 -11.680  1.00  0.00     0.037 A 
ATOM     54  C   UNL     1       0.447   7.507  -8.861  1.00  0.00     0.049 A 
ATOM     55  C   UNL     1       3.155   3.348 -11.440  1.00  0.00     0.074 A 
ATOM     56  C   UNL     1       1.168   8.665  -8.626  1.00  0.00     0.029 A 
ATOM     57  N   UNL     1       1.296   6.636  -9.528  1.00  0.00    -0.354 N 
ATOM     58  N   UNL     1       2.668   4.400 -10.831  1.00  0.00    -0.248 NA
ATOM     59  C   UNL     1       4.522   3.529 -11.950  1.00  0.00     0.031 C 
ATOM     60  C   UNL     1       2.434   8.516  -9.197  1.00  0.00     0.029 A 
ATOM     61  C   UNL     1       2.523   7.244  -9.738  1.00  0.00     0.049 A 
ATOM     62  H   UNL     1       1.062   5.722  -9.809  1.00  0.00     0.167 HD
ATOM     63  C   UNL     1       3.667   5.362 -10.873  1.00  0.00     0.074 A 
ATOM     64  C   UNL     1       4.800   4.760 -11.544  1.00  0.00     0.031 C 
ATOM     65  C   UNL     1       3.644   6.633 -10.405  1.00  0.00     0.037 A 
BRANCH  52  66
ATOM     66  C   UNL     1      -1.699   8.308  -7.833  1.00  0.00     0.064 A 
ATOM     67  C   UNL     1      -1.992   8.272  -6.463  1.00  0.00     0.173 A 
ATOM     68  C   UNL     1      -2.055   9.462  -8.550  1.00  0.00     0.173 A 
ATOM     69  F   UNL     1      -1.679   7.189  -5.734  1.00  0.00    -0.203 F 
ATOM     70  C   UNL     1      -2.612   9.349  -5.835  1.00  0.00     0.198 A 
ATOM     71  C   UNL     1      -2.651  10.547  -7.914  1.00  0.00     0.198 A 
ATOM     72  F   UNL     1      -1.789   9.551  -9.862  1.00  0.00    -0.203 F 
ATOM     73  F   UNL     1      -2.896   9.287  -4.526  1.00  0.00    -0.200 F 
ATOM     74  C   UNL     1      -2.929  10.490  -6.557  1.00  0.00     0.200 A 
ATOM     75  F   UNL     1      -2.939  11.655  -8.611  1.00  0.00    -0.200 F 
ATOM     76  F   UNL     1      -3.498  11.537  -5.944  1.00  0.00    -0.200 F 
ENDBRANCH  52  66
BRANCH  53  77
ATOM     77  C   UNL     1       3.241   0.921 -12.381  1.00  0.00     0.064 A 
ATOM     78  C   UNL     1       4.347   0.293 -11.793  1.00  0.00     0.173 A 
ATOM     79  C   UNL     1       2.837   0.477 -13.649  1.00  0.00     0.173 A 
ATOM     80  F   UNL     1       4.785   0.696 -10.591  1.00  0.00    -0.203 F 
ATOM     81  C   UNL     1       5.027  -0.730 -12.451  1.00  0.00     0.198 A 
ATOM     82  C   UNL     1       3.496  -0.568 -14.291  1.00  0.00     0.198 A 
ATOM     83  F   UNL     1       1.782   1.043 -14.255  1.00  0.00    -0.203 F 
ATOM     84  F   UNL     1       6.105  -1.287 -11.884  1.00  0.00    -0.200 F 
ATOM     85  C   UNL     1       4.595  -1.166 -13.695  1.00  0.00     0.200 A 
ATOM     86  F   UNL     1       3.063  -0.999 -15.484  1.00  0.00    -0.200 F 
ATOM     87  F   UNL     1       5.241  -2.159 -14.321  1.00  0.00    -0.200 F 
ENDBRANCH  53  77
BRANCH  65  88
ATOM     88  C   UNL     1       4.879   7.465 -10.588  1.00  0.00     0.064 A 
ATOM     89  C   UNL     1       5.248   7.958 -11.848  1.00  0.00     0.173 A 
ATOM     90  C   UNL     1       5.660   7.835  -9.482  1.00  0.00     0.173 A 
ATOM     91  F   UNL     1       4.541   7.621 -12.938  1.00  0.00    -0.203 F 
ATOM     92  C   UNL     1       6.362   8.779 -11.996  1.00  0.00     0.198 A 
ATOM     93  C   UNL     1       6.755   8.681  -9.630  1.00  0.00     0.198 A 
ATOM     94  F   UNL     1       5.345   7.396  -8.255  1.00  0.00    -0.203 F 
ATOM     95  F   UNL     1       6.717   9.210 -13.215  1.00  0.00    -0.200 F 
ATOM     96  C   UNL     1       7.107   9.149 -10.887  1.00  0.00     0.200 A 
ATOM     97  F   UNL     1       7.464   9.051  -8.555  1.00  0.00    -0.200 F 
ATOM     98  F   UNL     1       8.169   9.955 -11.030  1.00  0.00    -0.200 F 
ENDBRANCH  65  88
ENDBRANCH  39  40
ENDBRANCH  31  34
ENDBRANCH  29  30
ENDBRANCH  28  29
ENDBRANCH  27  28
ENDBRANCH   1  27
TORSDOF 15
