REMARK SMILES Cn1cc2cc(C(=O)NCCCCCCNC(=O)c3ccc(-c4c5nc(c(-c6c(F)c(F)c(F)c(F)c6F)c6ccc([nH]6)c(-c6c(F)c(F)c(F)c(F)c6F)c6nc(c(-c7c(F)c(F)c(F)c(F)c7F)c7ccc4[nH]7)C=C6)C=C5)cc3)ccc2n1
REMARK SMILES IDX 13 1 12 2 11 3 10 4 9 5 7 6 8 7 6 9 1 10 2 11 3 12 85 13
REMARK SMILES IDX 4 14 84 15 5 16 83 17 82 18 14 19 15 20 16 21 17 22 18 24
REMARK SMILES IDX 19 25 20 26 81 27 21 28 80 29 22 30 23 31 24 32 74 33 25 34
REMARK SMILES IDX 79 35 73 36 75 37 26 38 78 39 72 40 71 41 27 43 59 44 39 45
REMARK SMILES IDX 58 46 40 47 43 48 57 49 76 50 41 51 42 52 56 54 77 55 44 56
REMARK SMILES IDX 28 57 29 58 37 59 30 60 31 61 35 62 38 63 32 64 33 65 36 66
REMARK SMILES IDX 34 67 60 68 61 69 69 70 62 71 63 72 67 73 70 74 64 75 65 76
REMARK SMILES IDX 68 77 66 78 45 79 46 80 54 81 47 82 48 83 52 84 55 85 49 86
REMARK SMILES IDX 50 87 53 88 51 89
REMARK H PARENT 9 8 16 23 75 42 43 53
REMARK Flexibility Score: inf
ROOT
ATOM      1  C   UNL     1       8.264   1.421   0.148  1.00  0.00     0.002 C 
ENDROOT
BRANCH   1   2
ATOM      2  C   UNL     1       7.293   0.894   1.214  1.00  0.00     0.002 C 
BRANCH   2   3
ATOM      3  C   UNL     1       5.824   1.293   1.000  1.00  0.00     0.021 C 
BRANCH   3   4
ATOM      4  C   UNL     1       5.230   0.726  -0.292  1.00  0.00     0.116 C 
BRANCH   4   5
ATOM      5  N   UNL     1       4.808  -0.642  -0.080  1.00  0.00    -0.352 N 
ATOM      6  C   UNL     1       3.599  -1.237   0.157  1.00  0.00     0.251 C 
ATOM      7  O   UNL     1       3.617  -2.458   0.331  1.00  0.00    -0.269 OA
ATOM      8  H   UNL     1       5.553  -1.285  -0.113  1.00  0.00     0.163 HD
BRANCH   6   9
ATOM      9  C   UNL     1       2.280  -0.528   0.169  1.00  0.00     0.040 A 
ATOM     10  C   UNL     1      -3.583  -0.238  -0.025  1.00  0.00     0.173 C 
ATOM     11  N   UNL     1      -2.141  -0.177  -0.029  1.00  0.00    -0.275 N 
ATOM     12  C   UNL     1      -1.284  -1.233  -0.151  1.00  0.00     0.117 A 
ATOM     13  N   UNL     1      -1.534   1.018   0.134  1.00  0.00    -0.173 NA
ATOM     14  C   UNL     1      -0.041  -0.679  -0.028  1.00  0.00     0.021 A 
ATOM     15  C   UNL     1      -0.223   0.731   0.176  1.00  0.00     0.092 A 
ATOM     16  C   UNL     1       1.161  -1.374  -0.058  1.00  0.00     0.025 A 
ATOM     17  C   UNL     1       0.881   1.565   0.399  1.00  0.00     0.032 A 
ATOM     18  C   UNL     1       2.123   0.875   0.430  1.00  0.00     0.016 A 
ENDBRANCH   6   9
ENDBRANCH   4   5
ENDBRANCH   3   4
ENDBRANCH   2   3
ENDBRANCH   1   2
BRANCH   1  19
ATOM     19  C   UNL     1       8.217   2.934  -0.073  1.00  0.00     0.021 C 
BRANCH  19  20
ATOM     20  C   UNL     1       8.589   3.755   1.157  1.00  0.00     0.116 C 
BRANCH  20  21
ATOM     21  N   UNL     1       9.981   3.556   1.532  1.00  0.00    -0.352 N 
ATOM     22  C   UNL     1      10.983   4.482   1.670  1.00  0.00     0.251 C 
ATOM     23  H   UNL     1      10.240   2.623   1.713  1.00  0.00     0.163 HD
ATOM     24  O   UNL     1      12.152   4.124   1.760  1.00  0.00    -0.269 OA
BRANCH  22  25
ATOM     25  C   UNL     1      10.649   5.921   1.701  1.00  0.00     0.039 A 
ATOM     26  C   UNL     1      11.430   6.815   0.965  1.00  0.00     0.014 A 
ATOM     27  C   UNL     1       9.576   6.386   2.466  1.00  0.00     0.014 A 
ATOM     28  C   UNL     1      11.102   8.171   0.955  1.00  0.00     0.010 A 
ATOM     29  C   UNL     1       9.207   7.725   2.397  1.00  0.00     0.010 A 
ATOM     30  C   UNL     1       9.970   8.632   1.647  1.00  0.00    -0.014 A 
BRANCH  30  31
ATOM     31  C   UNL     1       9.571  10.061   1.605  1.00  0.00     0.031 A 
ATOM     32  C   UNL     1       9.582  10.883   2.863  1.00  0.00     0.074 A 
ATOM     33  C   UNL     1       9.136  10.596   0.448  1.00  0.00     0.049 A 
ATOM     34  N   UNL     1       9.200  12.122   3.046  1.00  0.00    -0.248 NA
ATOM     35  C   UNL     1      10.058  10.216   4.084  1.00  0.00     0.031 C 
ATOM     36  C   UNL     1       9.036   9.884  -0.827  1.00  0.00     0.029 A 
ATOM     37  N   UNL     1       8.684  11.859   0.160  1.00  0.00    -0.354 N 
ATOM     38  C   UNL     1       9.376  12.375   4.400  1.00  0.00     0.074 A 
ATOM     39  C   UNL     1       9.845  11.146   5.003  1.00  0.00     0.031 C 
ATOM     40  C   UNL     1       8.574  10.726  -1.765  1.00  0.00     0.029 A 
ATOM     41  C   UNL     1       8.307  12.024  -1.150  1.00  0.00     0.049 A 
ATOM     42  H   UNL     1       8.634  12.579   0.830  1.00  0.00     0.167 HD
ATOM     43  C   UNL     1       9.187  13.534   5.074  1.00  0.00     0.037 A 
ATOM     44  C   UNL     1       7.797  13.098  -1.782  1.00  0.00     0.037 A 
ATOM     45  C   UNL     1       8.742  14.759   4.464  1.00  0.00     0.049 A 
ATOM     46  C   UNL     1       7.589  14.371  -1.008  1.00  0.00     0.074 A 
ATOM     47  C   UNL     1       8.575  16.003   5.046  1.00  0.00     0.029 A 
ATOM     48  N   UNL     1       8.389  14.893   3.128  1.00  0.00    -0.354 N 
ATOM     49  N   UNL     1       7.825  14.620   0.257  1.00  0.00    -0.248 NA
ATOM     50  C   UNL     1       7.049  15.518  -1.753  1.00  0.00     0.031 C 
ATOM     51  C   UNL     1       8.072  16.877   4.076  1.00  0.00     0.029 A 
ATOM     52  C   UNL     1       7.982  16.193   2.874  1.00  0.00     0.049 A 
ATOM     53  H   UNL     1       8.423  14.171   2.460  1.00  0.00     0.167 HD
ATOM     54  C   UNL     1       7.496  15.954   0.453  1.00  0.00     0.074 A 
ATOM     55  C   UNL     1       7.054  16.466  -0.828  1.00  0.00     0.031 C 
ATOM     56  C   UNL     1       7.556  16.689   1.590  1.00  0.00     0.037 A 
BRANCH  43  57
ATOM     57  C   UNL     1       9.461  13.532   6.551  1.00  0.00     0.064 A 
ATOM     58  C   UNL     1      10.763  13.403   7.059  1.00  0.00     0.173 A 
ATOM     59  C   UNL     1       8.414  13.694   7.471  1.00  0.00     0.173 A 
ATOM     60  F   UNL     1      11.800  13.234   6.225  1.00  0.00    -0.203 F 
ATOM     61  C   UNL     1      11.002  13.403   8.431  1.00  0.00     0.198 A 
ATOM     62  C   UNL     1       8.660  13.728   8.841  1.00  0.00     0.198 A 
ATOM     63  F   UNL     1       7.150  13.829   7.040  1.00  0.00    -0.203 F 
ATOM     64  F   UNL     1      12.247  13.223   8.893  1.00  0.00    -0.200 F 
ATOM     65  C   UNL     1       9.952  13.572   9.320  1.00  0.00     0.200 A 
ATOM     66  F   UNL     1       7.645  13.906   9.698  1.00  0.00    -0.200 F 
ATOM     67  F   UNL     1      10.184  13.579  10.640  1.00  0.00    -0.200 F 
ENDBRANCH  43  57
BRANCH  44  68
ATOM     68  C   UNL     1       7.473  13.021  -3.230  1.00  0.00     0.064 A 
ATOM     69  C   UNL     1       8.225  13.735  -4.174  1.00  0.00     0.173 A 
ATOM     70  C   UNL     1       6.410  12.237  -3.702  1.00  0.00     0.173 A 
ATOM     71  F   UNL     1       9.239  14.514  -3.771  1.00  0.00    -0.203 F 
ATOM     72  C   UNL     1       7.913  13.684  -5.531  1.00  0.00     0.198 A 
ATOM     73  C   UNL     1       6.118  12.163  -5.062  1.00  0.00     0.198 A 
ATOM     74  F   UNL     1       5.664  11.529  -2.841  1.00  0.00    -0.203 F 
ATOM     75  F   UNL     1       8.619  14.413  -6.406  1.00  0.00    -0.200 F 
ATOM     76  C   UNL     1       6.864  12.893  -5.975  1.00  0.00     0.200 A 
ATOM     77  F   UNL     1       5.114  11.385  -5.488  1.00  0.00    -0.200 F 
ATOM     78  F   UNL     1       6.567  12.841  -7.280  1.00  0.00    -0.200 F 
ENDBRANCH  44  68
BRANCH  56  79
ATOM     79  C   UNL     1       7.176  18.139   1.496  1.00  0.00     0.064 A 
ATOM     80  C   UNL     1       5.846  18.544   1.314  1.00  0.00     0.173 A 
ATOM     81  C   UNL     1       8.154  19.136   1.635  1.00  0.00     0.173 A 
ATOM     82  F   UNL     1       4.876  17.630   1.160  1.00  0.00    -0.203 F 
ATOM     83  C   UNL     1       5.512  19.895   1.250  1.00  0.00     0.198 A 
ATOM     84  C   UNL     1       7.812  20.485   1.604  1.00  0.00     0.198 A 
ATOM     85  F   UNL     1       9.440  18.802   1.819  1.00  0.00    -0.203 F 
ATOM     86  F   UNL     1       4.242  20.259   1.028  1.00  0.00    -0.200 F 
ATOM     87  C   UNL     1       6.493  20.863   1.404  1.00  0.00     0.200 A 
ATOM     88  F   UNL     1       8.759  21.419   1.768  1.00  0.00    -0.200 F 
ATOM     89  F   UNL     1       6.168  22.162   1.353  1.00  0.00    -0.200 F 
ENDBRANCH  56  79
ENDBRANCH  30  31
ENDBRANCH  22  25
ENDBRANCH  20  21
ENDBRANCH  19  20
ENDBRANCH   1  19
TORSDOF 13
