REMARK SMILES CN(CC(C)(C)C)C(=O)N1CCO[C@@H](CC(=O)NCCCCCCNC(=O)c2ccc(-c3c4nc(c(-c5c(F)c(F)c(F)c(F)c5F)c5ccc([nH]5)c(-c5c(F)c(F)c(F)c(F)c5F)c5nc(c(-c6c(F)c(F)c(F)c(F)c6F)c6ccc3[nH]6)C=C5)C=C4)cc2)C1
REMARK SMILES IDX 20 1 19 2 18 3 16 4 17 5 15 7 14 8 10 9 11 10 91 11 12 12
REMARK SMILES IDX 13 13 8 14 9 15 2 16 1 17 3 18 4 19 5 20 6 21 7 22 21 23
REMARK SMILES IDX 22 24 23 25 24 26 25 27 26 28 27 30 28 31 29 32 90 33 30 34
REMARK SMILES IDX 89 35 31 36 32 37 33 38 83 39 34 40 88 41 82 42 84 43 35 44
REMARK SMILES IDX 87 45 81 46 80 47 36 49 68 50 48 51 67 52 49 53 52 54 66 55
REMARK SMILES IDX 85 56 50 57 51 58 65 60 86 61 53 62 37 63 38 64 46 65 39 66
REMARK SMILES IDX 40 67 44 68 47 69 41 70 42 71 45 72 43 73 69 74 70 75 78 76
REMARK SMILES IDX 71 77 72 78 76 79 79 80 73 81 74 82 77 83 75 84 54 85 55 86
REMARK SMILES IDX 63 87 56 88 57 89 61 90 64 91 58 92 59 93 62 94 60 95
REMARK H PARENT 18 6 25 29 84 48 52 59
REMARK Flexibility Score: inf
ROOT
ATOM      1  C   UNL     1       3.434  -3.031  -4.215  1.00  0.00     0.021 C 
ENDROOT
BRANCH   1   2
ATOM      2  C   UNL     1       3.318  -4.406  -4.876  1.00  0.00     0.116 C 
BRANCH   2   3
ATOM      3  N   UNL     1       4.025  -5.408  -4.091  1.00  0.00    -0.356 N 
ATOM      4  C   UNL     1       3.548  -6.386  -3.269  1.00  0.00     0.222 C 
ATOM      5  O   UNL     1       4.347  -7.002  -2.563  1.00  0.00    -0.275 OA
ATOM      6  H   UNL     1       5.006  -5.375  -4.166  1.00  0.00     0.163 HD
BRANCH   4   7
ATOM      7  C   UNL     1       2.073  -6.707  -3.227  1.00  0.00     0.133 C 
BRANCH   7   8
ATOM      8  C   UNL     1       1.364  -6.133  -1.998  1.00  0.00     0.147 C 
ATOM      9  N   UNL     1       0.439  -3.901  -1.133  1.00  0.00    -0.320 N 
ATOM     10  C   UNL     1      -0.861  -4.565  -1.090  1.00  0.00     0.150 C 
ATOM     11  C   UNL     1       1.405  -4.596  -1.992  1.00  0.00     0.154 C 
ATOM     12  C   UNL     1      -0.753  -6.083  -0.972  1.00  0.00     0.182 C 
ATOM     13  O   UNL     1       0.008  -6.613  -2.057  1.00  0.00    -0.374 OA
BRANCH   9  14
ATOM     14  C   UNL     1       0.671  -2.536  -1.029  1.00  0.00     0.319 C 
ATOM     15  O   UNL     1       1.577  -2.032  -1.712  1.00  0.00    -0.248 OA
BRANCH  14  16
ATOM     16  N   UNL     1      -0.053  -1.715  -0.186  1.00  0.00    -0.327 N 
ATOM     17  C   UNL     1       0.367  -0.312  -0.201  1.00  0.00     0.148 C 
BRANCH  16  18
ATOM     18  C   UNL     1      -1.034  -2.062   0.843  1.00  0.00     0.127 C 
BRANCH  18  19
ATOM     19  C   UNL     1      -2.524  -1.692   0.536  1.00  0.00    -0.020 C 
ATOM     20  C   UNL     1      -3.028  -2.158  -0.842  1.00  0.00     0.012 C 
ATOM     21  C   UNL     1      -3.393  -2.356   1.622  1.00  0.00     0.012 C 
ATOM     22  C   UNL     1      -2.752  -0.170   0.611  1.00  0.00     0.012 C 
ENDBRANCH  18  19
ENDBRANCH  16  18
ENDBRANCH  14  16
ENDBRANCH   9  14
ENDBRANCH   7   8
ENDBRANCH   4   7
ENDBRANCH   2   3
ENDBRANCH   1   2
BRANCH   1  23
ATOM     23  C   UNL     1       4.658  -2.224  -4.645  1.00  0.00     0.002 C 
BRANCH  23  24
ATOM     24  C   UNL     1       4.561  -1.614  -6.045  1.00  0.00     0.002 C 
BRANCH  24  25
ATOM     25  C   UNL     1       3.345  -0.715  -6.293  1.00  0.00     0.021 C 
BRANCH  25  26
ATOM     26  C   UNL     1       3.132   0.392  -5.261  1.00  0.00     0.116 C 
BRANCH  26  27
ATOM     27  N   UNL     1       4.254   1.318  -5.217  1.00  0.00    -0.352 N 
ATOM     28  C   UNL     1       4.339   2.619  -5.637  1.00  0.00     0.251 C 
ATOM     29  H   UNL     1       5.079   0.953  -4.824  1.00  0.00     0.163 HD
ATOM     30  O   UNL     1       5.437   3.168  -5.729  1.00  0.00    -0.269 OA
BRANCH  28  31
ATOM     31  C   UNL     1       3.120   3.372  -5.992  1.00  0.00     0.039 A 
ATOM     32  C   UNL     1       3.120   4.152  -7.152  1.00  0.00     0.014 A 
ATOM     33  C   UNL     1       1.994   3.349  -5.163  1.00  0.00     0.014 A 
ATOM     34  C   UNL     1       1.972   4.862  -7.512  1.00  0.00     0.010 A 
ATOM     35  C   UNL     1       0.830   4.006  -5.554  1.00  0.00     0.010 A 
ATOM     36  C   UNL     1       0.809   4.771  -6.730  1.00  0.00    -0.014 A 
BRANCH  36  37
ATOM     37  C   UNL     1      -0.439   5.469  -7.128  1.00  0.00     0.031 A 
ATOM     38  C   UNL     1      -0.986   6.585  -6.284  1.00  0.00     0.074 A 
ATOM     39  C   UNL     1      -1.117   5.051  -8.213  1.00  0.00     0.049 A 
ATOM     40  N   UNL     1      -2.098   7.263  -6.426  1.00  0.00    -0.248 NA
ATOM     41  C   UNL     1      -0.192   6.971  -5.109  1.00  0.00     0.031 C 
ATOM     42  C   UNL     1      -0.715   3.945  -9.084  1.00  0.00     0.029 A 
ATOM     43  N   UNL     1      -2.295   5.495  -8.759  1.00  0.00    -0.354 N 
ATOM     44  C   UNL     1      -2.140   8.146  -5.355  1.00  0.00     0.074 A 
ATOM     45  C   UNL     1      -0.970   7.882  -4.543  1.00  0.00     0.031 C 
ATOM     46  C   UNL     1      -1.627   3.802 -10.059  1.00  0.00     0.029 A 
ATOM     47  C   UNL     1      -2.690   4.784  -9.865  1.00  0.00     0.049 A 
ATOM     48  H   UNL     1      -2.808   6.251  -8.393  1.00  0.00     0.167 HD
ATOM     49  C   UNL     1      -3.058   9.105  -5.085  1.00  0.00     0.037 A 
ATOM     50  C   UNL     1      -3.791   4.903 -10.631  1.00  0.00     0.037 A 
ATOM     51  C   UNL     1      -4.212   9.377  -5.903  1.00  0.00     0.049 A 
ATOM     52  C   UNL     1      -4.794   5.977 -10.316  1.00  0.00     0.074 A 
ATOM     53  C   UNL     1      -5.171  10.362  -5.746  1.00  0.00     0.029 A 
ATOM     54  N   UNL     1      -4.563   8.654  -7.034  1.00  0.00    -0.354 N 
ATOM     55  N   UNL     1      -4.792   6.849  -9.338  1.00  0.00    -0.248 NA
ATOM     56  C   UNL     1      -5.949   6.090 -11.218  1.00  0.00     0.031 C 
ATOM     57  C   UNL     1      -6.124  10.211  -6.759  1.00  0.00     0.029 A 
ATOM     58  C   UNL     1      -5.736   9.159  -7.574  1.00  0.00     0.049 A 
ATOM     59  H   UNL     1      -4.055   7.895  -7.400  1.00  0.00     0.167 HD
ATOM     60  C   UNL     1      -5.929   7.625  -9.514  1.00  0.00     0.074 A 
ATOM     61  C   UNL     1      -6.590   7.130 -10.704  1.00  0.00     0.031 C 
ATOM     62  C   UNL     1      -6.384   8.653  -8.757  1.00  0.00     0.037 A 
BRANCH  49  63
ATOM     63  C   UNL     1      -2.846   9.932  -3.850  1.00  0.00     0.064 A 
ATOM     64  C   UNL     1      -1.801  10.865  -3.762  1.00  0.00     0.173 A 
ATOM     65  C   UNL     1      -3.704   9.804  -2.748  1.00  0.00     0.173 A 
ATOM     66  F   UNL     1      -0.946  11.019  -4.785  1.00  0.00    -0.203 F 
ATOM     67  C   UNL     1      -1.601  11.612  -2.604  1.00  0.00     0.198 A 
ATOM     68  C   UNL     1      -3.519  10.574  -1.602  1.00  0.00     0.198 A 
ATOM     69  F   UNL     1      -4.723   8.932  -2.781  1.00  0.00    -0.203 F 
ATOM     70  F   UNL     1      -0.563  12.455  -2.523  1.00  0.00    -0.200 F 
ATOM     71  C   UNL     1      -2.463  11.469  -1.527  1.00  0.00     0.200 A 
ATOM     72  F   UNL     1      -4.360  10.443  -0.566  1.00  0.00    -0.200 F 
ATOM     73  F   UNL     1      -2.269  12.188  -0.413  1.00  0.00    -0.200 F 
ENDBRANCH  49  63
BRANCH  50  74
ATOM     74  C   UNL     1      -3.982   3.988 -11.784  1.00  0.00     0.064 A 
ATOM     75  C   UNL     1      -3.838   4.448 -13.100  1.00  0.00     0.173 A 
ATOM     76  C   UNL     1      -4.288   2.632 -11.594  1.00  0.00     0.173 A 
ATOM     77  F   UNL     1      -3.565   5.740 -13.330  1.00  0.00    -0.203 F 
ATOM     78  C   UNL     1      -4.002   3.588 -14.184  1.00  0.00     0.198 A 
ATOM     79  C   UNL     1      -4.428   1.768 -12.678  1.00  0.00     0.198 A 
ATOM     80  F   UNL     1      -4.431   2.143 -10.354  1.00  0.00    -0.203 F 
ATOM     81  F   UNL     1      -3.891   4.060 -15.433  1.00  0.00    -0.200 F 
ATOM     82  C   UNL     1      -4.290   2.248 -13.972  1.00  0.00     0.200 A 
ATOM     83  F   UNL     1      -4.691   0.471 -12.469  1.00  0.00    -0.200 F 
ATOM     84  F   UNL     1      -4.437   1.420 -15.015  1.00  0.00    -0.200 F 
ENDBRANCH  50  74
BRANCH  62  85
ATOM     85  C   UNL     1      -7.651   9.323  -9.202  1.00  0.00     0.064 A 
ATOM     86  C   UNL     1      -8.899   8.701  -9.058  1.00  0.00     0.173 A 
ATOM     87  C   UNL     1      -7.618  10.617  -9.743  1.00  0.00     0.173 A 
ATOM     88  F   UNL     1      -8.980   7.458  -8.561  1.00  0.00    -0.203 F 
ATOM     89  C   UNL     1     -10.068   9.342  -9.461  1.00  0.00     0.198 A 
ATOM     90  C   UNL     1      -8.791  11.265 -10.120  1.00  0.00     0.198 A 
ATOM     91  F   UNL     1      -6.449  11.257  -9.897  1.00  0.00    -0.203 F 
ATOM     92  F   UNL     1     -11.246   8.712  -9.354  1.00  0.00    -0.200 F 
ATOM     93  C   UNL     1     -10.014  10.626  -9.984  1.00  0.00     0.200 A 
ATOM     94  F   UNL     1      -8.738  12.510 -10.615  1.00  0.00    -0.200 F 
ATOM     95  F   UNL     1     -11.140  11.243 -10.365  1.00  0.00    -0.200 F 
ENDBRANCH  62  85
ENDBRANCH  36  37
ENDBRANCH  28  31
ENDBRANCH  26  27
ENDBRANCH  25  26
ENDBRANCH  24  25
ENDBRANCH  23  24
ENDBRANCH   1  23
TORSDOF 18
