REMARK SMILES Cc1cc(F)c([C@@](C)(C(=O)NCCCCCCNC(=O)c2ccc(-c3c4nc(c(-c5c(F)c(F)c(F)c(F)c5F)c5ccc([nH]5)c(-c5c(F)c(F)c(F)c(F)c5F)c5nc(c(-c6c(F)c(F)c(F)c(F)c6F)c6ccc3[nH]6)C=C5)C=C4)cc2)[NH+]2CC[NH2+]CC2)cc1F
REMARK SMILES IDX 15 1 14 2 13 3 12 4 11 5 9 6 10 7 7 9 8 10 6 11 1 12 2 13
REMARK SMILES IDX 3 14 91 15 4 16 90 17 92 18 5 19 84 20 85 21 89 22 86 24
REMARK SMILES IDX 88 25 87 26 16 29 17 30 18 31 19 32 20 34 21 35 22 36 83 37
REMARK SMILES IDX 23 38 82 39 24 40 25 41 26 42 76 43 27 44 81 45 75 46 77 47
REMARK SMILES IDX 28 48 80 49 74 50 73 51 29 53 61 54 41 55 60 56 42 57 45 58
REMARK SMILES IDX 59 59 78 60 43 61 44 62 58 64 79 65 46 66 30 67 31 68 39 69
REMARK SMILES IDX 32 70 33 71 37 72 40 73 34 74 35 75 38 76 36 77 62 78 63 79
REMARK SMILES IDX 71 80 64 81 65 82 69 83 72 84 66 85 67 86 70 87 68 88 47 89
REMARK SMILES IDX 48 90 56 91 49 92 50 93 54 94 57 95 51 96 52 97 55 98 53 99
REMARK H PARENT 11 8 84 23 87 27 87 28 18 33 77 52 45 63
REMARK Flexibility Score: inf
ROOT
ATOM      1  C   UNL     1       1.715  -7.342   3.982  1.00  0.00     0.002 C 
ENDROOT
BRANCH   1   2
ATOM      2  C   UNL     1       0.639  -6.338   3.545  1.00  0.00     0.002 C 
BRANCH   2   3
ATOM      3  C   UNL     1       0.976  -5.533   2.284  1.00  0.00     0.021 C 
BRANCH   3   4
ATOM      4  C   UNL     1       1.195  -6.410   1.058  1.00  0.00     0.116 C 
BRANCH   4   5
ATOM      5  N   UNL     1      -0.049  -6.686   0.388  1.00  0.00    -0.350 N 
ATOM      6  C   UNL     1      -0.622  -6.229  -0.755  1.00  0.00     0.286 C 
ATOM      7  O   UNL     1      -1.666  -6.849  -1.016  1.00  0.00    -0.267 OA
ATOM      8  H   UNL     1      -0.603  -7.348   0.860  1.00  0.00     0.163 HD
BRANCH   6   9
ATOM      9  C   UNL     1      -0.002  -5.123  -1.746  1.00  0.00     0.203 C 
ATOM     10  C   UNL     1       1.234  -5.832  -2.373  1.00  0.00     0.096 C 
BRANCH   9  11
ATOM     11  C   UNL     1       0.382  -3.772  -1.063  1.00  0.00     0.060 A 
ATOM     12  C   UNL     1       1.399   0.227   0.425  1.00  0.00     0.047 C 
ATOM     13  C   UNL     1       1.066  -1.149  -0.061  1.00  0.00    -0.012 A 
ATOM     14  C   UNL     1       1.989  -2.192  -0.040  1.00  0.00     0.046 A 
ATOM     15  C   UNL     1      -0.202  -1.432  -0.542  1.00  0.00     0.126 A 
ATOM     16  C   UNL     1       1.662  -3.453  -0.576  1.00  0.00     0.133 A 
ATOM     17  C   UNL     1      -0.542  -2.714  -0.984  1.00  0.00     0.053 A 
ATOM     18  F   UNL     1      -1.120  -0.459  -0.620  1.00  0.00    -0.207 F 
ATOM     19  F   UNL     1       2.669  -4.333  -0.633  1.00  0.00    -0.206 F 
ENDBRANCH   9  11
BRANCH   9  20
ATOM     20  N   UNL     1      -0.983  -4.902  -2.871  1.00  0.00    -0.309 N 
ATOM     21  C   UNL     1      -2.430  -4.814  -2.641  1.00  0.00     0.325 C 
ATOM     22  C   UNL     1      -0.578  -4.390  -4.169  1.00  0.00     0.325 C 
ATOM     23  H   UNL     1      -0.771  -5.899  -2.903  1.00  0.00     0.349 HD
ATOM     24  C   UNL     1      -3.166  -3.566  -3.214  1.00  0.00     0.322 C 
ATOM     25  C   UNL     1      -1.151  -2.992  -4.459  1.00  0.00     0.322 C 
ATOM     26  N   UNL     1      -2.617  -2.927  -4.416  1.00  0.00    -0.337 N 
ATOM     27  H   UNL     1      -2.902  -1.948  -4.427  1.00  0.00     0.346 HD
ATOM     28  H   UNL     1      -2.976  -3.428  -5.229  1.00  0.00     0.346 HD
ENDBRANCH   9  20
ENDBRANCH   6   9
ENDBRANCH   4   5
ENDBRANCH   3   4
ENDBRANCH   2   3
ENDBRANCH   1   2
BRANCH   1  29
ATOM     29  C   UNL     1       3.129  -6.769   4.080  1.00  0.00     0.021 C 
BRANCH  29  30
ATOM     30  C   UNL     1       3.251  -5.592   5.039  1.00  0.00     0.116 C 
BRANCH  30  31
ATOM     31  N   UNL     1       2.950  -5.975   6.411  1.00  0.00    -0.352 N 
ATOM     32  C   UNL     1       3.751  -5.912   7.523  1.00  0.00     0.251 C 
ATOM     33  H   UNL     1       2.044  -6.330   6.562  1.00  0.00     0.163 HD
ATOM     34  O   UNL     1       3.431  -6.481   8.562  1.00  0.00    -0.269 OA
BRANCH  32  35
ATOM     35  C   UNL     1       5.023  -5.168   7.446  1.00  0.00     0.039 A 
ATOM     36  C   UNL     1       5.058  -3.909   6.843  1.00  0.00     0.014 A 
ATOM     37  C   UNL     1       6.192  -5.752   7.937  1.00  0.00     0.014 A 
ATOM     38  C   UNL     1       6.281  -3.318   6.567  1.00  0.00     0.010 A 
ATOM     39  C   UNL     1       7.415  -5.106   7.747  1.00  0.00     0.010 A 
ATOM     40  C   UNL     1       7.474  -3.910   7.013  1.00  0.00    -0.014 A 
BRANCH  40  41
ATOM     41  C   UNL     1       8.770  -3.262   6.691  1.00  0.00     0.031 A 
ATOM     42  C   UNL     1       9.781  -3.952   5.820  1.00  0.00     0.074 A 
ATOM     43  C   UNL     1       9.012  -2.022   7.155  1.00  0.00     0.049 A 
ATOM     44  N   UNL     1      10.959  -3.532   5.431  1.00  0.00    -0.248 NA
ATOM     45  C   UNL     1       9.431  -5.292   5.325  1.00  0.00     0.031 C 
ATOM     46  C   UNL     1       8.101  -1.252   8.003  1.00  0.00     0.029 A 
ATOM     47  N   UNL     1      10.080  -1.184   6.965  1.00  0.00    -0.354 N 
ATOM     48  C   UNL     1      11.500  -4.562   4.673  1.00  0.00     0.074 A 
ATOM     49  C   UNL     1      10.535  -5.640   4.679  1.00  0.00     0.031 C 
ATOM     50  C   UNL     1       8.626  -0.038   8.220  1.00  0.00     0.029 A 
ATOM     51  C   UNL     1       9.939   0.030   7.588  1.00  0.00     0.049 A 
ATOM     52  H   UNL     1      10.871  -1.430   6.433  1.00  0.00     0.167 HD
ATOM     53  C   UNL     1      12.688  -4.597   4.024  1.00  0.00     0.037 A 
ATOM     54  C   UNL     1      10.781   1.077   7.664  1.00  0.00     0.037 A 
ATOM     55  C   UNL     1      13.630  -3.507   4.002  1.00  0.00     0.049 A 
ATOM     56  C   UNL     1      12.106   1.002   6.965  1.00  0.00     0.074 A 
ATOM     57  C   UNL     1      14.836  -3.425   3.329  1.00  0.00     0.029 A 
ATOM     58  N   UNL     1      13.475  -2.312   4.691  1.00  0.00    -0.354 N 
ATOM     59  N   UNL     1      12.595   0.036   6.227  1.00  0.00    -0.248 NA
ATOM     60  C   UNL     1      13.000   2.158   7.114  1.00  0.00     0.031 C 
ATOM     61  C   UNL     1      15.439  -2.207   3.658  1.00  0.00     0.029 A 
ATOM     62  C   UNL     1      14.582  -1.502   4.489  1.00  0.00     0.049 A 
ATOM     63  H   UNL     1      12.694  -2.074   5.242  1.00  0.00     0.167 HD
ATOM     64  C   UNL     1      13.850   0.463   5.820  1.00  0.00     0.074 A 
ATOM     65  C   UNL     1      14.037   1.790   6.373  1.00  0.00     0.031 C 
ATOM     66  C   UNL     1      14.764  -0.189   5.060  1.00  0.00     0.037 A 
BRANCH  53  67
ATOM     67  C   UNL     1      13.053  -5.863   3.301  1.00  0.00     0.064 A 
ATOM     68  C   UNL     1      12.388  -6.272   2.135  1.00  0.00     0.173 A 
ATOM     69  C   UNL     1      14.114  -6.659   3.761  1.00  0.00     0.173 A 
ATOM     70  F   UNL     1      11.360  -5.554   1.657  1.00  0.00    -0.203 F 
ATOM     71  C   UNL     1      12.752  -7.443   1.475  1.00  0.00     0.198 A 
ATOM     72  C   UNL     1      14.496  -7.812   3.080  1.00  0.00     0.198 A 
ATOM     73  F   UNL     1      14.790  -6.312   4.866  1.00  0.00    -0.203 F 
ATOM     74  F   UNL     1      12.068  -7.839   0.392  1.00  0.00    -0.200 F 
ATOM     75  C   UNL     1      13.810  -8.208   1.942  1.00  0.00     0.200 A 
ATOM     76  F   UNL     1      15.529  -8.541   3.525  1.00  0.00    -0.200 F 
ATOM     77  F   UNL     1      14.163  -9.330   1.301  1.00  0.00    -0.200 F 
ENDBRANCH  53  67
BRANCH  54  78
ATOM     78  C   UNL     1      10.366   2.275   8.436  1.00  0.00     0.064 A 
ATOM     79  C   UNL     1      10.016   3.465   7.785  1.00  0.00     0.173 A 
ATOM     80  C   UNL     1      10.223   2.224   9.831  1.00  0.00     0.173 A 
ATOM     81  F   UNL     1      10.151   3.565   6.455  1.00  0.00    -0.203 F 
ATOM     82  C   UNL     1       9.528   4.556   8.501  1.00  0.00     0.198 A 
ATOM     83  C   UNL     1       9.709   3.305  10.541  1.00  0.00     0.198 A 
ATOM     84  F   UNL     1      10.537   1.103  10.497  1.00  0.00    -0.203 F 
ATOM     85  F   UNL     1       9.210   5.688   7.858  1.00  0.00    -0.200 F 
ATOM     86  C   UNL     1       9.361   4.471   9.876  1.00  0.00     0.200 A 
ATOM     87  F   UNL     1       9.527   3.209  11.866  1.00  0.00    -0.200 F 
ATOM     88  F   UNL     1       8.860   5.510  10.558  1.00  0.00    -0.200 F 
ENDBRANCH  54  78
BRANCH  66  89
ATOM     89  C   UNL     1      16.060   0.515   4.781  1.00  0.00     0.064 A 
ATOM     90  C   UNL     1      17.030   0.684   5.781  1.00  0.00     0.173 A 
ATOM     91  C   UNL     1      16.367   0.961   3.487  1.00  0.00     0.173 A 
ATOM     92  F   UNL     1      16.779   0.288   7.038  1.00  0.00    -0.203 F 
ATOM     93  C   UNL     1      18.252   1.286   5.497  1.00  0.00     0.198 A 
ATOM     94  C   UNL     1      17.602   1.535   3.200  1.00  0.00     0.198 A 
ATOM     95  F   UNL     1      15.477   0.817   2.493  1.00  0.00    -0.203 F 
ATOM     96  F   UNL     1      19.149   1.470   6.476  1.00  0.00    -0.200 F 
ATOM     97  C   UNL     1      18.542   1.701   4.206  1.00  0.00     0.200 A 
ATOM     98  F   UNL     1      17.886   1.919   1.948  1.00  0.00    -0.200 F 
ATOM     99  F   UNL     1      19.727   2.264   3.931  1.00  0.00    -0.200 F 
ENDBRANCH  66  89
ENDBRANCH  40  41
ENDBRANCH  32  35
ENDBRANCH  30  31
ENDBRANCH  29  30
ENDBRANCH   1  29
TORSDOF 15
