REMARK SMILES C[C@H]1CCc2sc3ncn4nc(/C=C\C(=O)NCCCCCCNC(=O)c5ccc(-c6c7nc(c(-c8c(F)c(F)c(F)c(F)c8F)c8ccc([nH]8)c(-c8c(F)c(F)c(F)c(F)c8F)c8nc(c(-c9c(F)c(F)c(F)c(F)c9F)c9ccc6[nH]9)C=C8)C=C7)cc5)nc4c3c2C1
REMARK SMILES IDX 21 1 20 2 19 3 18 4 17 5 15 6 16 7 14 9 13 10 12 11 1 12
REMARK SMILES IDX 2 13 3 14 94 15 4 16 93 17 5 18 92 19 6 20 7 21 91 22 8 23
REMARK SMILES IDX 10 24 90 25 9 26 11 27 22 28 23 29 24 30 25 31 26 33 27 34
REMARK SMILES IDX 28 35 89 36 29 37 88 38 30 39 31 40 32 41 82 42 33 43 87 44
REMARK SMILES IDX 81 45 83 46 34 47 86 48 80 49 79 50 35 52 67 53 47 54 66 55
REMARK SMILES IDX 48 56 51 57 65 58 84 59 49 60 50 61 64 63 85 64 52 65 36 66
REMARK SMILES IDX 37 67 45 68 38 69 39 70 43 71 46 72 40 73 41 74 44 75 42 76
REMARK SMILES IDX 68 77 69 78 77 79 70 80 71 81 75 82 78 83 72 84 73 85 76 86
REMARK SMILES IDX 74 87 53 88 54 89 62 90 55 91 56 92 60 93 63 94 57 95 58 96
REMARK SMILES IDX 61 97 59 98
REMARK H PARENT 17 8 24 32 83 51 51 62
REMARK Flexibility Score: inf
ROOT
ATOM      1  C   UNL     1       2.252  -2.260   3.743  1.00  0.00     0.002 C 
ENDROOT
BRANCH   1   2
ATOM      2  C   UNL     1       3.530  -2.640   3.005  1.00  0.00     0.002 C 
BRANCH   2   3
ATOM      3  C   UNL     1       3.587  -4.053   2.428  1.00  0.00     0.021 C 
BRANCH   3   4
ATOM      4  C   UNL     1       2.386  -4.514   1.629  1.00  0.00     0.116 C 
BRANCH   4   5
ATOM      5  N   UNL     1       2.361  -4.389   0.193  1.00  0.00    -0.353 N 
ATOM      6  C   UNL     1       1.834  -5.306  -0.681  1.00  0.00     0.244 C 
ATOM      7  O   UNL     1       1.680  -5.013  -1.866  1.00  0.00    -0.270 OA
ATOM      8  H   UNL     1       2.756  -3.574  -0.194  1.00  0.00     0.163 HD
BRANCH   6   9
ATOM      9  C   UNL     1       1.631  -6.723  -0.261  1.00  0.00     0.075 C 
ATOM     10  C   UNL     1       0.926  -7.259   0.753  1.00  0.00     0.057 C 
BRANCH  10  11
ATOM     11  C   UNL     1       0.136  -6.603   1.749  1.00  0.00     0.175 A 
ATOM     12  C   UNL     1      -1.784   0.204   0.851  1.00  0.00     0.008 C 
ATOM     13  C   UNL     1      -0.396  -0.332   1.196  1.00  0.00    -0.009 C 
ATOM     14  C   UNL     1       0.149   0.344   2.470  1.00  0.00     0.009 C 
ATOM     15  C   UNL     1      -0.430  -1.877   1.344  1.00  0.00     0.041 C 
ATOM     16  C   UNL     1      -0.703   0.037   3.709  1.00  0.00     0.047 C 
ATOM     17  C   UNL     1      -1.014  -2.310   2.677  1.00  0.00    -0.020 A 
ATOM     18  C   UNL     1      -1.159  -1.396   3.718  1.00  0.00     0.011 A 
ATOM     19  C   UNL     1      -1.202  -3.634   3.201  1.00  0.00     0.060 A 
ATOM     20  S   UNL     1      -1.862  -2.082   5.117  1.00  0.00    -0.120 S 
ATOM     21  C   UNL     1      -1.521  -3.665   4.558  1.00  0.00     0.129 A 
ATOM     22  C   UNL     1      -0.808  -4.963   2.673  1.00  0.00     0.168 A 
ATOM     23  N   UNL     1      -1.379  -4.715   5.441  1.00  0.00    -0.225 NA
ATOM     24  N   UNL     1      -0.587  -5.953   3.590  1.00  0.00    -0.201 N 
ATOM     25  N   UNL     1      -0.408  -5.360   1.490  1.00  0.00    -0.207 NA
ATOM     26  C   UNL     1      -0.841  -5.806   4.954  1.00  0.00     0.227 A 
ATOM     27  N   UNL     1       0.042  -7.008   3.031  1.00  0.00    -0.145 NA
ENDBRANCH  10  11
ENDBRANCH   6   9
ENDBRANCH   4   5
ENDBRANCH   3   4
ENDBRANCH   2   3
ENDBRANCH   1   2
BRANCH   1  28
ATOM     28  C   UNL     1       1.828  -3.114   4.917  1.00  0.00     0.021 C 
BRANCH  28  29
ATOM     29  C   UNL     1       2.200  -2.485   6.222  1.00  0.00     0.116 C 
BRANCH  29  30
ATOM     30  N   UNL     1       1.482  -1.242   6.570  1.00  0.00    -0.352 N 
ATOM     31  C   UNL     1       1.263  -0.693   7.846  1.00  0.00     0.251 C 
ATOM     32  H   UNL     1       1.109  -0.733   5.814  1.00  0.00     0.163 HD
ATOM     33  O   UNL     1       0.483   0.200   8.060  1.00  0.00    -0.269 OA
BRANCH  31  34
ATOM     34  C   UNL     1       2.152  -1.209   8.904  1.00  0.00     0.039 A 
ATOM     35  C   UNL     1       1.900  -1.564  10.230  1.00  0.00     0.014 A 
ATOM     36  C   UNL     1       3.411  -1.450   8.449  1.00  0.00     0.014 A 
ATOM     37  C   UNL     1       2.934  -2.263  10.897  1.00  0.00     0.010 A 
ATOM     38  C   UNL     1       3.810  -2.683   8.777  1.00  0.00     0.010 A 
ATOM     39  C   UNL     1       4.003  -2.716  10.110  1.00  0.00    -0.014 A 
BRANCH  39  40
ATOM     40  C   UNL     1       5.092  -3.630  10.342  1.00  0.00     0.031 A 
ATOM     41  C   UNL     1       4.592  -4.875  10.960  1.00  0.00     0.074 A 
ATOM     42  C   UNL     1       6.302  -3.453   9.739  1.00  0.00     0.049 A 
ATOM     43  N   UNL     1       4.562  -5.077  12.231  1.00  0.00    -0.248 NA
ATOM     44  C   UNL     1       3.747  -5.828  10.206  1.00  0.00     0.031 C 
ATOM     45  C   UNL     1       6.787  -2.416   8.803  1.00  0.00     0.029 A 
ATOM     46  N   UNL     1       7.423  -4.211   9.898  1.00  0.00    -0.354 N 
ATOM     47  C   UNL     1       4.011  -6.331  12.396  1.00  0.00     0.074 A 
ATOM     48  C   UNL     1       3.277  -6.602  11.191  1.00  0.00     0.031 C 
ATOM     49  C   UNL     1       8.017  -2.738   8.325  1.00  0.00     0.029 A 
ATOM     50  C   UNL     1       8.489  -3.908   9.034  1.00  0.00     0.049 A 
ATOM     51  H   UNL     1       7.481  -4.925  10.574  1.00  0.00     0.167 HD
ATOM     52  C   UNL     1       4.500  -7.138  13.374  1.00  0.00     0.037 A 
ATOM     53  C   UNL     1       9.688  -4.563   9.017  1.00  0.00     0.037 A 
ATOM     54  C   UNL     1       5.347  -6.370  14.268  1.00  0.00     0.049 A 
ATOM     55  C   UNL     1       9.784  -5.247  10.348  1.00  0.00     0.074 A 
ATOM     56  C   UNL     1       5.108  -5.287  15.095  1.00  0.00     0.029 A 
ATOM     57  N   UNL     1       6.689  -6.315  13.955  1.00  0.00    -0.354 N 
ATOM     58  N   UNL     1       9.850  -4.579  11.473  1.00  0.00    -0.248 NA
ATOM     59  C   UNL     1       9.174  -6.571  10.429  1.00  0.00     0.031 C 
ATOM     60  C   UNL     1       6.189  -4.383  14.851  1.00  0.00     0.029 A 
ATOM     61  C   UNL     1       7.117  -5.006  14.018  1.00  0.00     0.049 A 
ATOM     62  H   UNL     1       7.252  -7.089  13.723  1.00  0.00     0.167 HD
ATOM     63  C   UNL     1       8.920  -5.192  12.304  1.00  0.00     0.074 A 
ATOM     64  C   UNL     1       8.520  -6.409  11.585  1.00  0.00     0.031 C 
ATOM     65  C   UNL     1       8.279  -4.509  13.302  1.00  0.00     0.037 A 
BRANCH  52  66
ATOM     66  C   UNL     1       4.532  -8.636  13.297  1.00  0.00     0.064 A 
ATOM     67  C   UNL     1       4.814  -9.375  14.459  1.00  0.00     0.173 A 
ATOM     68  C   UNL     1       4.522  -9.371  12.091  1.00  0.00     0.173 A 
ATOM     69  F   UNL     1       4.892  -8.765  15.650  1.00  0.00    -0.203 F 
ATOM     70  C   UNL     1       5.085 -10.745  14.411  1.00  0.00     0.198 A 
ATOM     71  C   UNL     1       4.744 -10.745  12.053  1.00  0.00     0.198 A 
ATOM     72  F   UNL     1       4.404  -8.779  10.896  1.00  0.00    -0.203 F 
ATOM     73  F   UNL     1       5.436 -11.392  15.531  1.00  0.00    -0.200 F 
ATOM     74  C   UNL     1       5.043 -11.430  13.210  1.00  0.00     0.200 A 
ATOM     75  F   UNL     1       4.729 -11.383  10.873  1.00  0.00    -0.200 F 
ATOM     76  F   UNL     1       5.333 -12.737  13.159  1.00  0.00    -0.200 F 
ENDBRANCH  52  66
BRANCH  53  77
ATOM     77  C   UNL     1      10.443  -5.061   7.827  1.00  0.00     0.064 A 
ATOM     78  C   UNL     1      11.734  -5.620   7.941  1.00  0.00     0.173 A 
ATOM     79  C   UNL     1       9.786  -5.286   6.603  1.00  0.00     0.173 A 
ATOM     80  F   UNL     1      12.425  -5.493   9.083  1.00  0.00    -0.203 F 
ATOM     81  C   UNL     1      12.307  -6.383   6.910  1.00  0.00     0.198 A 
ATOM     82  C   UNL     1      10.353  -6.055   5.581  1.00  0.00     0.198 A 
ATOM     83  F   UNL     1       8.534  -4.846   6.410  1.00  0.00    -0.203 F 
ATOM     84  F   UNL     1      13.514  -6.944   7.076  1.00  0.00    -0.200 F 
ATOM     85  C   UNL     1      11.607  -6.615   5.738  1.00  0.00     0.200 A 
ATOM     86  F   UNL     1       9.646  -6.303   4.470  1.00  0.00    -0.200 F 
ATOM     87  F   UNL     1      12.117  -7.406   4.783  1.00  0.00    -0.200 F 
ENDBRANCH  53  77
BRANCH  65  88
ATOM     88  C   UNL     1       8.729  -3.092  13.602  1.00  0.00     0.064 A 
ATOM     89  C   UNL     1       8.636  -1.996  12.719  1.00  0.00     0.173 A 
ATOM     90  C   UNL     1       9.154  -2.803  14.904  1.00  0.00     0.173 A 
ATOM     91  F   UNL     1       8.149  -2.146  11.485  1.00  0.00    -0.203 F 
ATOM     92  C   UNL     1       8.995  -0.700  13.105  1.00  0.00     0.198 A 
ATOM     93  C   UNL     1       9.483  -1.507  15.299  1.00  0.00     0.198 A 
ATOM     94  F   UNL     1       9.207  -3.782  15.819  1.00  0.00    -0.203 F 
ATOM     95  F   UNL     1       8.898   0.317  12.234  1.00  0.00    -0.200 F 
ATOM     96  C   UNL     1       9.419  -0.458  14.398  1.00  0.00     0.200 A 
ATOM     97  F   UNL     1       9.840  -1.274  16.569  1.00  0.00    -0.200 F 
ATOM     98  F   UNL     1       9.745   0.785  14.782  1.00  0.00    -0.200 F 
ENDBRANCH  65  88
ENDBRANCH  39  40
ENDBRANCH  31  34
ENDBRANCH  29  30
ENDBRANCH  28  29
ENDBRANCH   1  28
TORSDOF 14
