REMARK SMILES CC1=C[C@@H](C)[C@H]2C(=O)N([C@H](Cc3ccccc3)C(=O)NCCCCCCNC(=O)c3ccc(-c4c5nc(c(-c6c(F)c(F)c(F)c(F)c6F)c6ccc([nH]6)c(-c6c(F)c(F)c(F)c(F)c6F)c6nc(c(-c7c(F)c(F)c(F)c(F)c7F)c7ccc4[nH]7)C=C6)C=C5)cc3)C(=O)[C@H]2C1
REMARK SMILES IDX 23 1 22 2 21 3 20 4 18 5 19 6 10 8 9 9 1 10 2 11 3 12 96 13
REMARK SMILES IDX 4 14 95 15 6 16 5 17 93 18 7 19 94 20 8 21 11 22 12 23 13 24
REMARK SMILES IDX 17 25 14 26 16 27 15 28 24 29 25 30 26 31 27 32 28 33 29 35
REMARK SMILES IDX 30 36 31 37 92 38 32 39 91 40 33 41 34 42 35 43 85 44 36 45
REMARK SMILES IDX 90 46 84 47 86 48 37 49 89 50 83 51 82 52 38 54 70 55 50 56
REMARK SMILES IDX 69 57 51 58 54 59 68 60 87 61 52 62 53 63 67 65 88 66 55 67
REMARK SMILES IDX 39 68 40 69 48 70 41 71 42 72 46 73 49 74 43 75 44 76 47 77
REMARK SMILES IDX 45 78 71 79 72 80 80 81 73 82 74 83 78 84 81 85 75 86 76 87
REMARK SMILES IDX 79 88 77 89 56 90 57 91 65 92 58 93 59 94 63 95 66 96 60 97
REMARK SMILES IDX 61 98 64 99 62 100
REMARK H PARENT 20 7 27 34 86 53 54 64
REMARK Flexibility Score: inf
ROOT
ATOM      1  C   UNL     1      -5.254   4.923  -2.593  1.00  0.00     0.002 C 
ENDROOT
BRANCH   1   2
ATOM      2  C   UNL     1      -3.735   4.780  -2.686  1.00  0.00     0.021 C 
BRANCH   2   3
ATOM      3  C   UNL     1      -2.962   6.050  -2.348  1.00  0.00     0.116 C 
BRANCH   3   4
ATOM      4  N   UNL     1      -2.893   6.271  -0.922  1.00  0.00    -0.354 N 
ATOM      5  C   UNL     1      -1.808   6.505  -0.131  1.00  0.00     0.243 C 
ATOM      6  O   UNL     1      -1.995   6.500   1.089  1.00  0.00    -0.273 OA
ATOM      7  H   UNL     1      -3.758   6.249  -0.452  1.00  0.00     0.163 HD
BRANCH   5   8
ATOM      8  C   UNL     1      -0.394   6.714  -0.716  1.00  0.00     0.186 C 
BRANCH   8   9
ATOM      9  N   UNL     1      -0.336   7.979  -1.474  1.00  0.00    -0.269 N 
ATOM     10  C   UNL     1       1.752  13.466  -1.676  1.00  0.00     0.039 C 
ATOM     11  C   UNL     1       1.325  12.056  -1.971  1.00  0.00    -0.076 C 
ATOM     12  C   UNL     1       2.146  11.192  -2.591  1.00  0.00    -0.024 C 
ATOM     13  C   UNL     1      -0.070  11.685  -1.528  1.00  0.00     0.044 C 
ATOM     14  C   UNL     1       1.784   9.758  -2.877  1.00  0.00     0.022 C 
ATOM     15  C   UNL     1      -0.528  10.278  -1.884  1.00  0.00     0.096 C 
ATOM     16  C   UNL     1       0.246   9.612  -3.006  1.00  0.00     0.098 C 
ATOM     17  C   UNL     1       2.502   8.920  -1.810  1.00  0.00     0.013 C 
ATOM     18  C   UNL     1      -0.438   9.200  -0.817  1.00  0.00     0.234 C 
ATOM     19  C   UNL     1      -0.282   8.215  -2.814  1.00  0.00     0.234 C 
ATOM     20  O   UNL     1      -0.533   9.386   0.375  1.00  0.00    -0.274 OA
ATOM     21  O   UNL     1      -0.730   7.549  -3.734  1.00  0.00    -0.274 OA
ENDBRANCH   8   9
BRANCH   8  22
ATOM     22  C   UNL     1       0.126   5.358  -1.288  1.00  0.00     0.071 C 
BRANCH  22  23
ATOM     23  C   UNL     1       1.273   5.311  -2.268  1.00  0.00    -0.045 A 
ATOM     24  C   UNL     1       2.595   5.145  -1.841  1.00  0.00     0.004 A 
ATOM     25  C   UNL     1       1.029   5.372  -3.647  1.00  0.00     0.004 A 
ATOM     26  C   UNL     1       3.643   5.127  -2.770  1.00  0.00     0.000 A 
ATOM     27  C   UNL     1       2.073   5.411  -4.570  1.00  0.00     0.000 A 
ATOM     28  C   UNL     1       3.384   5.292  -4.130  1.00  0.00     0.000 A 
ENDBRANCH  22  23
ENDBRANCH   8  22
ENDBRANCH   5   8
ENDBRANCH   3   4
ENDBRANCH   2   3
ENDBRANCH   1   2
BRANCH   1  29
ATOM     29  C   UNL     1      -5.856   6.052  -3.435  1.00  0.00     0.002 C 
BRANCH  29  30
ATOM     30  C   UNL     1      -5.421   6.087  -4.903  1.00  0.00     0.021 C 
BRANCH  30  31
ATOM     31  C   UNL     1      -5.647   4.794  -5.679  1.00  0.00     0.116 C 
BRANCH  31  32
ATOM     32  N   UNL     1      -7.042   4.393  -5.697  1.00  0.00    -0.352 N 
ATOM     33  C   UNL     1      -7.828   4.024  -6.759  1.00  0.00     0.251 C 
ATOM     34  H   UNL     1      -7.489   4.384  -4.820  1.00  0.00     0.163 HD
ATOM     35  O   UNL     1      -9.034   3.860  -6.607  1.00  0.00    -0.269 OA
BRANCH  33  36
ATOM     36  C   UNL     1      -7.225   3.848  -8.096  1.00  0.00     0.039 A 
ATOM     37  C   UNL     1      -7.869   4.415  -9.200  1.00  0.00     0.014 A 
ATOM     38  C   UNL     1      -6.045   3.118  -8.267  1.00  0.00     0.014 A 
ATOM     39  C   UNL     1      -7.301   4.295 -10.469  1.00  0.00     0.010 A 
ATOM     40  C   UNL     1      -5.449   3.051  -9.524  1.00  0.00     0.010 A 
ATOM     41  C   UNL     1      -6.073   3.636 -10.636  1.00  0.00    -0.014 A 
BRANCH  41  42
ATOM     42  C   UNL     1      -5.428   3.545 -11.969  1.00  0.00     0.031 A 
ATOM     43  C   UNL     1      -5.281   2.212 -12.645  1.00  0.00     0.074 A 
ATOM     44  C   UNL     1      -4.928   4.655 -12.543  1.00  0.00     0.049 A 
ATOM     45  N   UNL     1      -4.686   1.917 -13.773  1.00  0.00    -0.248 NA
ATOM     46  C   UNL     1      -5.860   1.052 -11.950  1.00  0.00     0.031 C 
ATOM     47  C   UNL     1      -4.980   6.000 -11.969  1.00  0.00     0.029 A 
ATOM     48  N   UNL     1      -4.270   4.827 -13.735  1.00  0.00    -0.354 N 
ATOM     49  C   UNL     1      -4.808   0.541 -13.915  1.00  0.00     0.074 A 
ATOM     50  C   UNL     1      -5.491   0.053 -12.737  1.00  0.00     0.031 C 
ATOM     51  C   UNL     1      -4.398   6.863 -12.818  1.00  0.00     0.029 A 
ATOM     52  C   UNL     1      -3.902   6.128 -13.978  1.00  0.00     0.049 A 
ATOM     53  H   UNL     1      -4.080   4.088 -14.357  1.00  0.00     0.167 HD
ATOM     54  C   UNL     1      -4.404  -0.240 -14.945  1.00  0.00     0.037 A 
ATOM     55  C   UNL     1      -3.236   6.664 -15.018  1.00  0.00     0.037 A 
ATOM     56  C   UNL     1      -3.746   0.252 -16.127  1.00  0.00     0.049 A 
ATOM     57  C   UNL     1      -2.792   5.772 -16.145  1.00  0.00     0.074 A 
ATOM     58  C   UNL     1      -3.338  -0.453 -17.245  1.00  0.00     0.029 A 
ATOM     59  N   UNL     1      -3.401   1.579 -16.342  1.00  0.00    -0.354 N 
ATOM     60  N   UNL     1      -2.954   4.480 -16.291  1.00  0.00    -0.248 NA
ATOM     61  C   UNL     1      -2.076   6.416 -17.255  1.00  0.00     0.031 C 
ATOM     62  C   UNL     1      -2.716   0.441 -18.123  1.00  0.00     0.029 A 
ATOM     63  C   UNL     1      -2.773   1.710 -17.570  1.00  0.00     0.049 A 
ATOM     64  H   UNL     1      -3.578   2.317 -15.715  1.00  0.00     0.167 HD
ATOM     65  C   UNL     1      -2.386   4.160 -17.516  1.00  0.00     0.074 A 
ATOM     66  C   UNL     1      -1.885   5.396 -18.079  1.00  0.00     0.031 C 
ATOM     67  C   UNL     1      -2.289   2.950 -18.119  1.00  0.00     0.037 A 
BRANCH  54  68
ATOM     68  C   UNL     1      -4.671  -1.713 -14.842  1.00  0.00     0.064 A 
ATOM     69  C   UNL     1      -5.970  -2.232 -14.953  1.00  0.00     0.173 A 
ATOM     70  C   UNL     1      -3.615  -2.619 -14.665  1.00  0.00     0.173 A 
ATOM     71  F   UNL     1      -7.015  -1.405 -15.110  1.00  0.00    -0.203 F 
ATOM     72  C   UNL     1      -6.204  -3.601 -14.865  1.00  0.00     0.198 A 
ATOM     73  C   UNL     1      -3.850  -3.990 -14.605  1.00  0.00     0.198 A 
ATOM     74  F   UNL     1      -2.353  -2.175 -14.558  1.00  0.00    -0.203 F 
ATOM     75  F   UNL     1      -7.458  -4.070 -14.928  1.00  0.00    -0.200 F 
ATOM     76  C   UNL     1      -5.144  -4.479 -14.697  1.00  0.00     0.200 A 
ATOM     77  F   UNL     1      -2.823  -4.838 -14.454  1.00  0.00    -0.200 F 
ATOM     78  F   UNL     1      -5.371  -5.798 -14.619  1.00  0.00    -0.200 F 
ENDBRANCH  54  68
BRANCH  55  79
ATOM     79  C   UNL     1      -2.976   8.125 -15.056  1.00  0.00     0.064 A 
ATOM     80  C   UNL     1      -3.656   8.950 -15.962  1.00  0.00     0.173 A 
ATOM     81  C   UNL     1      -2.050   8.726 -14.191  1.00  0.00     0.173 A 
ATOM     82  F   UNL     1      -4.535   8.415 -16.822  1.00  0.00    -0.203 F 
ATOM     83  C   UNL     1      -3.409  10.319 -16.014  1.00  0.00     0.198 A 
ATOM     84  C   UNL     1      -1.821  10.100 -14.227  1.00  0.00     0.198 A 
ATOM     85  F   UNL     1      -1.377   7.981 -13.304  1.00  0.00    -0.203 F 
ATOM     86  F   UNL     1      -4.043  11.079 -16.917  1.00  0.00    -0.200 F 
ATOM     87  C   UNL     1      -2.496  10.895 -15.143  1.00  0.00     0.200 A 
ATOM     88  F   UNL     1      -0.947  10.655 -13.376  1.00  0.00    -0.200 F 
ATOM     89  F   UNL     1      -2.260  12.213 -15.190  1.00  0.00    -0.200 F 
ENDBRANCH  55  79
BRANCH  67  90
ATOM     90  C   UNL     1      -1.646   2.909 -19.474  1.00  0.00     0.064 A 
ATOM     91  C   UNL     1      -0.261   3.056 -19.634  1.00  0.00     0.173 A 
ATOM     92  C   UNL     1      -2.422   2.678 -20.619  1.00  0.00     0.173 A 
ATOM     93  F   UNL     1       0.520   3.294 -18.569  1.00  0.00    -0.203 F 
ATOM     94  C   UNL     1       0.322   2.993 -20.896  1.00  0.00     0.198 A 
ATOM     95  C   UNL     1      -1.832   2.590 -21.877  1.00  0.00     0.198 A 
ATOM     96  F   UNL     1      -3.751   2.526 -20.517  1.00  0.00    -0.203 F 
ATOM     97  F   UNL     1       1.643   3.177 -21.031  1.00  0.00    -0.200 F 
ATOM     98  C   UNL     1      -0.462   2.753 -22.015  1.00  0.00     0.200 A 
ATOM     99  F   UNL     1      -2.589   2.347 -22.956  1.00  0.00    -0.200 F 
ATOM    100  F   UNL     1       0.103   2.687 -23.228  1.00  0.00    -0.200 F 
ENDBRANCH  67  90
ENDBRANCH  41  42
ENDBRANCH  33  36
ENDBRANCH  31  32
ENDBRANCH  30  31
ENDBRANCH  29  30
ENDBRANCH   1  29
TORSDOF 16
