REMARK SMILES Cc1ccc2cc(C[N@H+]3CC[NH2+][C@H](C(=O)NCCCCCCNC(=O)c4ccc(-c5c6nc(c(-c7c(F)c(F)c(F)c(F)c7F)c7ccc([nH]7)c(-c7c(F)c(F)c(F)c(F)c7F)c7nc(c(-c8c(F)c(F)c(F)c(F)c8F)c8ccc5[nH]8)C=C7)C=C6)cc4)C3)c(N3CCOCC3)nc2c1
REMARK SMILES IDX 19 1 18 2 17 3 16 4 14 5 15 6 13 8 9 9 10 10 89 11 11 13
REMARK SMILES IDX 12 14 8 17 7 18 1 19 2 20 3 21 99 22 4 23 98 24 5 25 97 26
REMARK SMILES IDX 6 27 90 28 91 29 92 30 96 31 93 32 95 33 94 34 20 35 21 36
REMARK SMILES IDX 22 37 23 38 24 39 25 41 26 42 27 43 88 44 28 45 87 46 29 47
REMARK SMILES IDX 30 48 31 49 81 50 32 51 86 52 80 53 82 54 33 55 85 56 79 57
REMARK SMILES IDX 78 58 34 60 66 61 46 62 65 63 47 64 50 65 64 66 83 67 48 68
REMARK SMILES IDX 49 69 63 71 84 72 51 73 35 74 36 75 44 76 37 77 38 78 42 79
REMARK SMILES IDX 45 80 39 81 40 82 43 83 41 84 67 85 68 86 76 87 69 88 70 89
REMARK SMILES IDX 74 90 77 91 71 92 72 93 75 94 73 95 52 96 53 97 61 98 54 99
REMARK SMILES IDX 55 100 59 101 62 102 56 103 57 104 60 105 58 106
REMARK H PARENT 16 7 9 12 12 15 12 16 23 40 82 59 50 70
REMARK Flexibility Score: inf
ROOT
ATOM      1  C   UNL     1      -0.873  -3.164  -9.903  1.00  0.00     0.002 C 
ENDROOT
BRANCH   1   2
ATOM      2  C   UNL     1       0.376  -2.297  -9.692  1.00  0.00     0.021 C 
BRANCH   2   3
ATOM      3  C   UNL     1       0.135  -1.010  -8.914  1.00  0.00     0.116 C 
BRANCH   3   4
ATOM      4  N   UNL     1      -0.299  -1.290  -7.569  1.00  0.00    -0.351 N 
ATOM      5  C   UNL     1      -0.286  -0.514  -6.459  1.00  0.00     0.284 C 
ATOM      6  O   UNL     1      -0.790  -1.012  -5.444  1.00  0.00    -0.268 OA
ATOM      7  H   UNL     1      -0.665  -2.193  -7.435  1.00  0.00     0.163 HD
BRANCH   5   8
ATOM      8  C   UNL     1       0.217   0.929  -6.456  1.00  0.00     0.328 C 
ATOM      9  N   UNL     1      -0.321   3.275  -7.264  1.00  0.00    -0.321 N 
ATOM     10  C   UNL     1       1.130   3.531  -7.160  1.00  0.00     0.324 C 
ATOM     11  C   UNL     1      -0.626   1.842  -7.369  1.00  0.00     0.339 C 
ATOM     12  H   UNL     1      -0.594   3.686  -8.157  1.00  0.00     0.348 HD
ATOM     13  C   UNL     1       1.985   2.502  -6.364  1.00  0.00     0.323 C 
ATOM     14  N   UNL     1       1.675   1.088  -6.689  1.00  0.00    -0.327 N 
ATOM     15  H   UNL     1       2.202   0.460  -6.082  1.00  0.00     0.347 HD
ATOM     16  H   UNL     1       1.928   0.860  -7.650  1.00  0.00     0.347 HD
BRANCH   9  17
ATOM     17  C   UNL     1      -1.180   4.028  -6.328  1.00  0.00     0.303 C 
BRANCH  17  18
ATOM     18  C   UNL     1      -0.974   3.777  -4.849  1.00  0.00     0.049 A 
ATOM     19  C   UNL     1       1.229   0.303   0.099  1.00  0.00     0.044 C 
ATOM     20  C   UNL     1       0.416   0.945  -0.985  1.00  0.00    -0.049 A 
ATOM     21  C   UNL     1      -0.606   0.237  -1.617  1.00  0.00     0.004 A 
ATOM     22  C   UNL     1       0.694   2.261  -1.400  1.00  0.00     0.032 A 
ATOM     23  C   UNL     1      -1.309   0.824  -2.663  1.00  0.00     0.010 A 
ATOM     24  C   UNL     1       0.035   2.859  -2.471  1.00  0.00     0.073 A 
ATOM     25  C   UNL     1      -0.971   2.113  -3.106  1.00  0.00     0.001 A 
ATOM     26  N   UNL     1       0.408   4.080  -2.912  1.00  0.00    -0.230 NA
ATOM     27  C   UNL     1      -1.526   2.629  -4.273  1.00  0.00     0.023 A 
ATOM     28  C   UNL     1      -0.095   4.549  -4.078  1.00  0.00     0.138 A 
BRANCH  28  29
ATOM     29  N   UNL     1       0.330   5.781  -4.540  1.00  0.00    -0.352 N 
ATOM     30  C   UNL     1      -0.670   6.852  -4.662  1.00  0.00     0.146 C 
ATOM     31  C   UNL     1       1.655   6.273  -4.163  1.00  0.00     0.146 C 
ATOM     32  C   UNL     1      -0.166   7.858  -5.709  1.00  0.00     0.181 C 
ATOM     33  C   UNL     1       2.087   7.320  -5.211  1.00  0.00     0.181 C 
ATOM     34  O   UNL     1       1.124   8.383  -5.348  1.00  0.00    -0.378 OA
ENDBRANCH  28  29
ENDBRANCH  17  18
ENDBRANCH   9  17
ENDBRANCH   5   8
ENDBRANCH   3   4
ENDBRANCH   2   3
ENDBRANCH   1   2
BRANCH   1  35
ATOM     35  C   UNL     1      -2.064  -2.473 -10.574  1.00  0.00     0.002 C 
BRANCH  35  36
ATOM     36  C   UNL     1      -1.760  -1.776 -11.898  1.00  0.00     0.021 C 
BRANCH  36  37
ATOM     37  C   UNL     1      -1.003  -2.616 -12.915  1.00  0.00     0.116 C 
BRANCH  37  38
ATOM     38  N   UNL     1      -1.707  -3.818 -13.327  1.00  0.00    -0.352 N 
ATOM     39  C   UNL     1      -1.711  -4.407 -14.573  1.00  0.00     0.251 C 
ATOM     40  H   UNL     1      -2.245  -4.265 -12.633  1.00  0.00     0.163 HD
ATOM     41  O   UNL     1      -2.401  -5.383 -14.813  1.00  0.00    -0.269 OA
BRANCH  39  42
ATOM     42  C   UNL     1      -0.894  -3.784 -15.638  1.00  0.00     0.039 A 
ATOM     43  C   UNL     1       0.453  -3.493 -15.411  1.00  0.00     0.014 A 
ATOM     44  C   UNL     1      -1.518  -3.394 -16.824  1.00  0.00     0.014 A 
ATOM     45  C   UNL     1       1.128  -2.662 -16.296  1.00  0.00     0.010 A 
ATOM     46  C   UNL     1      -0.809  -2.627 -17.752  1.00  0.00     0.010 A 
ATOM     47  C   UNL     1       0.502  -2.209 -17.470  1.00  0.00    -0.014 A 
BRANCH  47  48
ATOM     48  C   UNL     1       1.230  -1.288 -18.378  1.00  0.00     0.031 A 
ATOM     49  C   UNL     1       0.750   0.123 -18.592  1.00  0.00     0.074 A 
ATOM     50  C   UNL     1       2.362  -1.713 -18.972  1.00  0.00     0.049 A 
ATOM     51  N   UNL     1       1.255   1.059 -19.356  1.00  0.00    -0.248 NA
ATOM     52  C   UNL     1      -0.456   0.540 -17.858  1.00  0.00     0.031 C 
ATOM     53  C   UNL     1       2.933  -3.053 -18.828  1.00  0.00     0.029 A 
ATOM     54  N   UNL     1       3.244  -1.061 -19.795  1.00  0.00    -0.354 N 
ATOM     55  C   UNL     1       0.422   2.161 -19.213  1.00  0.00     0.074 A 
ATOM     56  C   UNL     1      -0.636   1.776 -18.305  1.00  0.00     0.031 C 
ATOM     57  C   UNL     1       4.093  -3.109 -19.499  1.00  0.00     0.029 A 
ATOM     58  C   UNL     1       4.314  -1.834 -20.172  1.00  0.00     0.049 A 
ATOM     59  H   UNL     1       3.122  -0.129 -20.087  1.00  0.00     0.167 HD
ATOM     60  C   UNL     1       0.538   3.385 -19.782  1.00  0.00     0.037 A 
ATOM     61  C   UNL     1       5.350  -1.555 -20.985  1.00  0.00     0.037 A 
ATOM     62  C   UNL     1       1.612   3.776 -20.656  1.00  0.00     0.049 A 
ATOM     63  C   UNL     1       5.435  -0.198 -21.624  1.00  0.00     0.074 A 
ATOM     64  C   UNL     1       1.831   5.005 -21.256  1.00  0.00     0.029 A 
ATOM     65  N   UNL     1       2.652   2.949 -21.052  1.00  0.00    -0.354 N 
ATOM     66  N   UNL     1       4.640   0.833 -21.479  1.00  0.00    -0.248 NA
ATOM     67  C   UNL     1       6.553   0.029 -22.549  1.00  0.00     0.031 C 
ATOM     68  C   UNL     1       2.981   4.910 -22.044  1.00  0.00     0.029 A 
ATOM     69  C   UNL     1       3.504   3.635 -21.902  1.00  0.00     0.049 A 
ATOM     70  H   UNL     1       2.768   2.012 -20.770  1.00  0.00     0.167 HD
ATOM     71  C   UNL     1       5.163   1.833 -22.286  1.00  0.00     0.074 A 
ATOM     72  C   UNL     1       6.358   1.293 -22.900  1.00  0.00     0.031 C 
ATOM     73  C   UNL     1       4.689   3.083 -22.505  1.00  0.00     0.037 A 
BRANCH  60  74
ATOM     74  C   UNL     1      -0.520   4.407 -19.485  1.00  0.00     0.064 A 
ATOM     75  C   UNL     1      -0.573   5.070 -18.251  1.00  0.00     0.173 A 
ATOM     76  C   UNL     1      -1.427   4.798 -20.482  1.00  0.00     0.173 A 
ATOM     77  F   UNL     1       0.266   4.726 -17.263  1.00  0.00    -0.203 F 
ATOM     78  C   UNL     1      -1.500   6.086 -18.025  1.00  0.00     0.198 A 
ATOM     79  C   UNL     1      -2.337   5.828 -20.260  1.00  0.00     0.198 A 
ATOM     80  F   UNL     1      -1.412   4.199 -21.682  1.00  0.00    -0.203 F 
ATOM     81  F   UNL     1      -1.546   6.694 -16.831  1.00  0.00    -0.200 F 
ATOM     82  C   UNL     1      -2.372   6.471 -19.032  1.00  0.00     0.200 A 
ATOM     83  F   UNL     1      -3.170   6.208 -21.238  1.00  0.00    -0.200 F 
ATOM     84  F   UNL     1      -3.248   7.463 -18.818  1.00  0.00    -0.200 F 
ENDBRANCH  60  74
BRANCH  61  85
ATOM     85  C   UNL     1       6.382  -2.591 -21.240  1.00  0.00     0.064 A 
ATOM     86  C   UNL     1       7.682  -2.452 -20.737  1.00  0.00     0.173 A 
ATOM     87  C   UNL     1       6.083  -3.751 -21.970  1.00  0.00     0.173 A 
ATOM     88  F   UNL     1       8.020  -1.351 -20.050  1.00  0.00    -0.203 F 
ATOM     89  C   UNL     1       8.647  -3.431 -20.961  1.00  0.00     0.198 A 
ATOM     90  C   UNL     1       7.040  -4.742 -22.169  1.00  0.00     0.198 A 
ATOM     91  F   UNL     1       4.852  -3.932 -22.470  1.00  0.00    -0.203 F 
ATOM     92  F   UNL     1       9.892  -3.260 -20.497  1.00  0.00    -0.200 F 
ATOM     93  C   UNL     1       8.323  -4.579 -21.669  1.00  0.00     0.200 A 
ATOM     94  F   UNL     1       6.718  -5.857 -22.839  1.00  0.00    -0.200 F 
ATOM     95  F   UNL     1       9.248  -5.527 -21.873  1.00  0.00    -0.200 F 
ENDBRANCH  61  85
BRANCH  73  96
ATOM     96  C   UNL     1       5.464   3.959 -23.441  1.00  0.00     0.064 A 
ATOM     97  C   UNL     1       5.426   3.756 -24.828  1.00  0.00     0.173 A 
ATOM     98  C   UNL     1       6.199   5.049 -22.953  1.00  0.00     0.173 A 
ATOM     99  F   UNL     1       4.748   2.717 -25.339  1.00  0.00    -0.203 F 
ATOM    100  C   UNL     1       6.109   4.606 -25.693  1.00  0.00     0.198 A 
ATOM    101  C   UNL     1       6.860   5.912 -23.823  1.00  0.00     0.198 A 
ATOM    102  F   UNL     1       6.259   5.289 -21.634  1.00  0.00    -0.203 F 
ATOM    103  F   UNL     1       6.087   4.374 -27.012  1.00  0.00    -0.200 F 
ATOM    104  C   UNL     1       6.817   5.688 -25.191  1.00  0.00     0.200 A 
ATOM    105  F   UNL     1       7.533   6.964 -23.337  1.00  0.00    -0.200 F 
ATOM    106  F   UNL     1       7.463   6.513 -26.026  1.00  0.00    -0.200 F 
ENDBRANCH  73  96
ENDBRANCH  47  48
ENDBRANCH  39  42
ENDBRANCH  37  38
ENDBRANCH  36  37
ENDBRANCH  35  36
ENDBRANCH   1  35
TORSDOF 16
