REMARK SMILES C[N@@H+]1CC2(CC[NH+](Cc3cccc(O)c3)CC2)C[C@H]1C(=O)NCCCCCCNC(=O)c1ccc(-c2c3nc(c(-c4c(F)c(F)c(F)c(F)c4F)c4ccc([nH]4)c(-c4c(F)c(F)c(F)c(F)c4F)c4nc(c(-c5c(F)c(F)c(F)c(F)c5F)c5ccc2[nH]5)C=C4)C=C3)cc1
REMARK SMILES IDX 25 1 24 2 23 3 22 4 20 5 21 6 19 8 1 9 2 10 3 11 4 13 18 14
REMARK SMILES IDX 5 15 17 16 6 17 16 18 7 19 8 21 9 22 10 23 15 24 11 25 13 26
REMARK SMILES IDX 12 27 14 28 26 30 27 31 28 32 29 33 30 34 31 36 32 37 33 38
REMARK SMILES IDX 94 39 34 40 93 41 35 42 36 43 37 44 87 45 38 46 92 47 86 48
REMARK SMILES IDX 88 49 39 50 91 51 85 52 84 53 40 55 72 56 52 57 71 58 53 59
REMARK SMILES IDX 56 60 70 61 89 62 54 63 55 64 69 66 90 67 57 68 41 69 42 70
REMARK SMILES IDX 50 71 43 72 44 73 48 74 51 75 45 76 46 77 49 78 47 79 73 80
REMARK SMILES IDX 74 81 82 82 75 83 76 84 80 85 83 86 77 87 78 88 81 89 79 90
REMARK SMILES IDX 58 91 59 92 67 93 60 94 61 95 65 96 68 97 62 98 63 99 66 100
REMARK SMILES IDX 64 101
REMARK H PARENT 22 7 2 12 7 20 14 29 29 35 88 54 56 65
REMARK Flexibility Score: inf
ROOT
ATOM      1  C   UNL     1      -3.036   5.582  -0.886  1.00  0.00     0.002 C 
ENDROOT
BRANCH   1   2
ATOM      2  C   UNL     1      -2.192   4.310  -0.808  1.00  0.00     0.021 C 
BRANCH   2   3
ATOM      3  C   UNL     1      -1.005   4.428   0.140  1.00  0.00     0.116 C 
BRANCH   3   4
ATOM      4  N   UNL     1      -1.127   3.729   1.383  1.00  0.00    -0.351 N 
ATOM      5  C   UNL     1      -0.338   2.726   1.867  1.00  0.00     0.278 C 
ATOM      6  O   UNL     1      -0.487   2.455   3.067  1.00  0.00    -0.268 OA
ATOM      7  H   UNL     1      -1.874   4.006   1.962  1.00  0.00     0.163 HD
BRANCH   5   8
ATOM      8  C   UNL     1       0.725   1.947   1.027  1.00  0.00     0.274 C 
ATOM      9  C   UNL     1       0.506  -0.176  -0.068  1.00  0.00     0.333 C 
ATOM     10  N   UNL     1       0.143   1.245  -0.145  1.00  0.00    -0.327 N 
ATOM     11  C   UNL     1       0.675   1.874  -1.373  1.00  0.00     0.270 C 
ATOM     12  H   UNL     1      -0.874   1.316  -0.156  1.00  0.00     0.348 HD
ATOM     13  C   UNL     1       1.969   2.638  -1.023  1.00  0.00     0.036 C 
ATOM     14  C   UNL     1       1.956   2.693   0.534  1.00  0.00     0.089 C 
ATOM     15  C   UNL     1       2.038   4.095  -1.556  1.00  0.00     0.075 C 
ATOM     16  C   UNL     1       3.178   1.827  -1.560  1.00  0.00     0.075 C 
ATOM     17  C   UNL     1       2.436   4.268  -3.009  1.00  0.00     0.263 C 
ATOM     18  C   UNL     1       3.574   2.153  -3.012  1.00  0.00     0.263 C 
ATOM     19  N   UNL     1       3.655   3.567  -3.359  1.00  0.00    -0.331 N 
ATOM     20  H   UNL     1       3.717   3.571  -4.377  1.00  0.00     0.348 HD
BRANCH  19  21
ATOM     21  C   UNL     1       4.916   4.277  -3.081  1.00  0.00     0.299 C 
BRANCH  21  22
ATOM     22  C   UNL     1       5.313   4.468  -1.632  1.00  0.00     0.010 A 
ATOM     23  C   UNL     1       5.948   3.435  -0.930  1.00  0.00     0.010 A 
ATOM     24  C   UNL     1       4.979   5.640  -0.936  1.00  0.00     0.055 A 
ATOM     25  C   UNL     1       6.087   3.496   0.459  1.00  0.00     0.004 A 
ATOM     26  C   UNL     1       5.129   5.697   0.448  1.00  0.00     0.116 A 
ATOM     27  C   UNL     1       5.652   4.621   1.156  1.00  0.00     0.046 A 
BRANCH  26  28
ATOM     28  O   UNL     1       4.691   6.819   1.090  1.00  0.00    -0.508 OA
ATOM     29  H   UNL     1       4.777   6.890   2.020  1.00  0.00     0.293 HD
ENDBRANCH  26  28
ENDBRANCH  21  22
ENDBRANCH  19  21
ENDBRANCH   5   8
ENDBRANCH   3   4
ENDBRANCH   2   3
ENDBRANCH   1   2
BRANCH   1  30
ATOM     30  C   UNL     1      -2.291   6.836  -1.371  1.00  0.00     0.002 C 
BRANCH  30  31
ATOM     31  C   UNL     1      -1.651   6.744  -2.760  1.00  0.00     0.021 C 
BRANCH  31  32
ATOM     32  C   UNL     1      -2.610   6.384  -3.892  1.00  0.00     0.116 C 
BRANCH  32  33
ATOM     33  N   UNL     1      -3.758   7.279  -3.945  1.00  0.00    -0.352 N 
ATOM     34  C   UNL     1      -4.218   8.063  -4.966  1.00  0.00     0.251 C 
ATOM     35  H   UNL     1      -4.285   7.326  -3.115  1.00  0.00     0.163 HD
ATOM     36  O   UNL     1      -5.084   8.915  -4.747  1.00  0.00    -0.269 OA
BRANCH  34  37
ATOM     37  C   UNL     1      -3.683   7.903  -6.331  1.00  0.00     0.039 A 
ATOM     38  C   UNL     1      -3.405   9.045  -7.088  1.00  0.00     0.014 A 
ATOM     39  C   UNL     1      -3.485   6.632  -6.877  1.00  0.00     0.014 A 
ATOM     40  C   UNL     1      -2.873   8.912  -8.371  1.00  0.00     0.010 A 
ATOM     41  C   UNL     1      -2.888   6.501  -8.127  1.00  0.00     0.010 A 
ATOM     42  C   UNL     1      -2.580   7.639  -8.888  1.00  0.00    -0.014 A 
BRANCH  42  43
ATOM     43  C   UNL     1      -1.948   7.478 -10.220  1.00  0.00     0.031 A 
ATOM     44  C   UNL     1      -2.684   6.776 -11.326  1.00  0.00     0.074 A 
ATOM     45  C   UNL     1      -0.683   7.902 -10.409  1.00  0.00     0.049 A 
ATOM     46  N   UNL     1      -2.272   6.467 -12.530  1.00  0.00    -0.248 NA
ATOM     47  C   UNL     1      -4.058   6.338 -11.032  1.00  0.00     0.031 C 
ATOM     48  C   UNL     1       0.148   8.555  -9.397  1.00  0.00     0.029 A 
ATOM     49  N   UNL     1       0.129   7.835 -11.513  1.00  0.00    -0.354 N 
ATOM     50  C   UNL     1      -3.327   5.789 -13.128  1.00  0.00     0.074 A 
ATOM     51  C   UNL     1      -4.377   5.684 -12.139  1.00  0.00     0.031 C 
ATOM     52  C   UNL     1       1.345   8.844  -9.931  1.00  0.00     0.029 A 
ATOM     53  C   UNL     1       1.382   8.359 -11.306  1.00  0.00     0.049 A 
ATOM     54  H   UNL     1      -0.158   7.447 -12.371  1.00  0.00     0.167 HD
ATOM     55  C   UNL     1      -3.416   5.317 -14.394  1.00  0.00     0.037 A 
ATOM     56  C   UNL     1       2.445   8.426 -12.130  1.00  0.00     0.037 A 
ATOM     57  C   UNL     1      -2.373   5.445 -15.379  1.00  0.00     0.049 A 
ATOM     58  C   UNL     1       2.323   7.882 -13.528  1.00  0.00     0.074 A 
ATOM     59  C   UNL     1      -2.390   5.059 -16.707  1.00  0.00     0.029 A 
ATOM     60  N   UNL     1      -1.123   5.998 -15.138  1.00  0.00    -0.354 N 
ATOM     61  N   UNL     1       1.295   7.310 -14.107  1.00  0.00    -0.248 NA
ATOM     62  C   UNL     1       3.507   7.998 -14.390  1.00  0.00     0.031 C 
ATOM     63  C   UNL     1      -1.131   5.325 -17.255  1.00  0.00     0.029 A 
ATOM     64  C   UNL     1      -0.350   5.935 -16.287  1.00  0.00     0.049 A 
ATOM     65  H   UNL     1      -0.829   6.378 -14.279  1.00  0.00     0.167 HD
ATOM     66  C   UNL     1       1.697   7.025 -15.405  1.00  0.00     0.074 A 
ATOM     67  C   UNL     1       3.058   7.503 -15.534  1.00  0.00     0.031 C 
ATOM     68  C   UNL     1       1.001   6.422 -16.401  1.00  0.00     0.037 A 
BRANCH  55  69
ATOM     69  C   UNL     1      -4.683   4.614 -14.790  1.00  0.00     0.064 A 
ATOM     70  C   UNL     1      -5.898   5.303 -14.927  1.00  0.00     0.173 A 
ATOM     71  C   UNL     1      -4.673   3.241 -15.081  1.00  0.00     0.173 A 
ATOM     72  F   UNL     1      -5.965   6.614 -14.653  1.00  0.00    -0.203 F 
ATOM     73  C   UNL     1      -7.060   4.639 -15.312  1.00  0.00     0.198 A 
ATOM     74  C   UNL     1      -5.830   2.587 -15.498  1.00  0.00     0.198 A 
ATOM     75  F   UNL     1      -3.538   2.534 -14.973  1.00  0.00    -0.203 F 
ATOM     76  F   UNL     1      -8.218   5.309 -15.389  1.00  0.00    -0.200 F 
ATOM     77  C   UNL     1      -7.023   3.284 -15.606  1.00  0.00     0.200 A 
ATOM     78  F   UNL     1      -5.789   1.281 -15.796  1.00  0.00    -0.200 F 
ATOM     79  F   UNL     1      -8.140   2.649 -15.987  1.00  0.00    -0.200 F 
ENDBRANCH  55  69
BRANCH  56  80
ATOM     80  C   UNL     1       3.713   9.043 -11.659  1.00  0.00     0.064 A 
ATOM     81  C   UNL     1       4.170  10.255 -12.197  1.00  0.00     0.173 A 
ATOM     82  C   UNL     1       4.499   8.433 -10.670  1.00  0.00     0.173 A 
ATOM     83  F   UNL     1       3.464  10.867 -13.160  1.00  0.00    -0.203 F 
ATOM     84  C   UNL     1       5.375  10.819 -11.784  1.00  0.00     0.198 A 
ATOM     85  C   UNL     1       5.688   9.015 -10.234  1.00  0.00     0.198 A 
ATOM     86  F   UNL     1       4.105   7.277 -10.117  1.00  0.00    -0.203 F 
ATOM     87  F   UNL     1       5.813  11.950 -12.353  1.00  0.00    -0.200 F 
ATOM     88  C   UNL     1       6.130  10.201 -10.798  1.00  0.00     0.200 A 
ATOM     89  F   UNL     1       6.406   8.423  -9.269  1.00  0.00    -0.200 F 
ATOM     90  F   UNL     1       7.287  10.745 -10.398  1.00  0.00    -0.200 F 
ENDBRANCH  56  80
BRANCH  68  91
ATOM     91  C   UNL     1       1.685   6.277 -17.730  1.00  0.00     0.064 A 
ATOM     92  C   UNL     1       2.744   5.378 -17.921  1.00  0.00     0.173 A 
ATOM     93  C   UNL     1       1.243   7.017 -18.838  1.00  0.00     0.173 A 
ATOM     94  F   UNL     1       3.214   4.658 -16.891  1.00  0.00    -0.203 F 
ATOM     95  C   UNL     1       3.352   5.243 -19.167  1.00  0.00     0.198 A 
ATOM     96  C   UNL     1       1.830   6.854 -20.089  1.00  0.00     0.198 A 
ATOM     97  F   UNL     1       0.229   7.886 -18.710  1.00  0.00    -0.203 F 
ATOM     98  F   UNL     1       4.394   4.414 -19.315  1.00  0.00    -0.200 F 
ATOM     99  C   UNL     1       2.889   5.974 -20.251  1.00  0.00     0.200 A 
ATOM    100  F   UNL     1       1.370   7.549 -21.139  1.00  0.00    -0.200 F 
ATOM    101  F   UNL     1       3.468   5.834 -21.451  1.00  0.00    -0.200 F 
ENDBRANCH  68  91
ENDBRANCH  42  43
ENDBRANCH  34  37
ENDBRANCH  32  33
ENDBRANCH  31  32
ENDBRANCH  30  31
ENDBRANCH   1  30
TORSDOF 16
