REMARK SMILES C[C@H](NC(=O)c1cccc(NC(=O)/C=C/C(=O)NCCCCCCNC(=O)c2ccc(-c3c4nc(c(-c5c(F)c(F)c(F)c(F)c5F)c5ccc([nH]5)c(-c5c(F)c(F)c(F)c(F)c5F)c5nc(c(-c6c(F)c(F)c(F)c(F)c6F)c6ccc3[nH]6)C=C5)C=C4)cc2)c1)c1ccccc1
REMARK SMILES IDX 20 1 19 2 18 3 16 4 17 5 15 7 14 8 12 9 11 10 13 12 10 13
REMARK SMILES IDX 6 14 7 15 91 16 8 17 9 18 4 19 3 20 5 22 2 23 1 24 92 25
REMARK SMILES IDX 93 26 97 27 94 28 96 29 95 30 21 31 22 32 23 33 24 34 25 35
REMARK SMILES IDX 26 36 27 38 28 39 29 40 90 41 30 42 89 43 31 44 32 45 33 46
REMARK SMILES IDX 83 47 34 48 88 49 82 50 84 51 35 52 87 53 81 54 80 55 36 57
REMARK SMILES IDX 68 58 48 59 67 60 49 61 52 62 66 63 85 64 50 65 51 66 65 68
REMARK SMILES IDX 86 69 53 70 37 71 38 72 46 73 39 74 40 75 44 76 47 77 41 78
REMARK SMILES IDX 42 79 45 80 43 81 69 82 70 83 78 84 71 85 72 86 76 87 79 88
REMARK SMILES IDX 73 89 74 90 77 91 75 92 54 93 55 94 63 95 56 96 57 97 61 98
REMARK SMILES IDX 64 99 58 100 59 101 62 102 60 103
REMARK H PARENT 18 6 11 11 3 21 25 37 84 56 52 67
REMARK Flexibility Score: inf
ROOT
ATOM      1  C   UNL     1       8.612   3.647   7.250  1.00  0.00     0.021 C 
ENDROOT
BRANCH   1   2
ATOM      2  C   UNL     1       7.110   3.435   7.388  1.00  0.00     0.116 C 
BRANCH   2   3
ATOM      3  N   UNL     1       6.418   4.163   6.351  1.00  0.00    -0.353 N 
ATOM      4  C   UNL     1       6.220   3.743   5.076  1.00  0.00     0.244 C 
ATOM      5  O   UNL     1       5.939   4.534   4.184  1.00  0.00    -0.270 OA
ATOM      6  H   UNL     1       6.057   5.047   6.590  1.00  0.00     0.163 HD
BRANCH   4   7
ATOM      7  C   UNL     1       6.300   2.297   4.796  1.00  0.00     0.077 C 
ATOM      8  C   UNL     1       5.489   1.490   5.499  1.00  0.00     0.077 C 
BRANCH   8   9
ATOM      9  C   UNL     1       5.202   0.133   5.033  1.00  0.00     0.248 C 
ATOM     10  N   UNL     1       4.563  -0.041   3.839  1.00  0.00    -0.322 N 
ATOM     11  H   UNL     1       4.481  -0.982   3.562  1.00  0.00     0.170 HD
ATOM     12  O   UNL     1       5.515  -0.825   5.734  1.00  0.00    -0.270 OA
BRANCH  10  13
ATOM     13  C   UNL     1       3.998   0.877   2.928  1.00  0.00     0.042 A 
ATOM     14  C   UNL     1       2.937   1.223   0.802  1.00  0.00     0.041 A 
ATOM     15  C   UNL     1       2.875   2.603   1.000  1.00  0.00     0.014 A 
ATOM     16  C   UNL     1       3.576   0.368   1.702  1.00  0.00     0.040 A 
ATOM     17  C   UNL     1       3.275   3.108   2.221  1.00  0.00     0.003 A 
ATOM     18  C   UNL     1       3.741   2.229   3.199  1.00  0.00     0.026 A 
BRANCH  14  19
ATOM     19  C   UNL     1       2.090   0.678  -0.256  1.00  0.00     0.251 C 
ATOM     20  N   UNL     1       0.887   0.121   0.093  1.00  0.00    -0.346 N 
ATOM     21  H   UNL     1       0.268   0.022  -0.667  1.00  0.00     0.164 HD
ATOM     22  O   UNL     1       2.415   0.830  -1.427  1.00  0.00    -0.269 OA
BRANCH  20  23
ATOM     23  C   UNL     1       0.328  -0.360   1.364  1.00  0.00     0.109 C 
ATOM     24  C   UNL     1       0.593   0.428   2.655  1.00  0.00     0.036 C 
BRANCH  23  25
ATOM     25  C   UNL     1      -1.182  -0.462   1.241  1.00  0.00    -0.026 A 
ATOM     26  C   UNL     1      -1.963   0.705   1.162  1.00  0.00     0.006 A 
ATOM     27  C   UNL     1      -1.817  -1.705   1.343  1.00  0.00     0.006 A 
ATOM     28  C   UNL     1      -3.350   0.633   1.252  1.00  0.00     0.000 A 
ATOM     29  C   UNL     1      -3.207  -1.774   1.420  1.00  0.00     0.000 A 
ATOM     30  C   UNL     1      -3.970  -0.606   1.391  1.00  0.00     0.000 A 
ENDBRANCH  23  25
ENDBRANCH  20  23
ENDBRANCH  14  19
ENDBRANCH  10  13
ENDBRANCH   8   9
ENDBRANCH   4   7
ENDBRANCH   2   3
ENDBRANCH   1   2
BRANCH   1  31
ATOM     31  C   UNL     1       9.050   5.062   7.636  1.00  0.00     0.002 C 
BRANCH  31  32
ATOM     32  C   UNL     1       8.577   5.513   9.022  1.00  0.00     0.002 C 
BRANCH  32  33
ATOM     33  C   UNL     1       8.830   4.500  10.142  1.00  0.00     0.021 C 
BRANCH  33  34
ATOM     34  C   UNL     1      10.284   4.070  10.266  1.00  0.00     0.116 C 
BRANCH  34  35
ATOM     35  N   UNL     1      11.139   5.190  10.608  1.00  0.00    -0.352 N 
ATOM     36  C   UNL     1      11.969   5.334  11.689  1.00  0.00     0.251 C 
ATOM     37  H   UNL     1      11.121   5.948   9.980  1.00  0.00     0.163 HD
ATOM     38  O   UNL     1      12.436   6.428  11.975  1.00  0.00    -0.269 OA
BRANCH  36  39
ATOM     39  C   UNL     1      12.283   4.151  12.515  1.00  0.00     0.039 A 
ATOM     40  C   UNL     1      12.251   4.271  13.904  1.00  0.00     0.014 A 
ATOM     41  C   UNL     1      12.607   2.929  11.915  1.00  0.00     0.014 A 
ATOM     42  C   UNL     1      12.505   3.151  14.696  1.00  0.00     0.010 A 
ATOM     43  C   UNL     1      12.776   1.797  12.703  1.00  0.00     0.010 A 
ATOM     44  C   UNL     1      12.744   1.901  14.101  1.00  0.00    -0.014 A 
BRANCH  44  45
ATOM     45  C   UNL     1      12.985   0.693  14.928  1.00  0.00     0.031 A 
ATOM     46  C   UNL     1      14.311  -0.011  14.858  1.00  0.00     0.074 A 
ATOM     47  C   UNL     1      11.994   0.204  15.698  1.00  0.00     0.049 A 
ATOM     48  N   UNL     1      14.698  -1.110  15.454  1.00  0.00    -0.248 NA
ATOM     49  C   UNL     1      15.331   0.585  13.981  1.00  0.00     0.031 C 
ATOM     50  C   UNL     1      10.653   0.777  15.813  1.00  0.00     0.029 A 
ATOM     51  N   UNL     1      11.961  -0.892  16.522  1.00  0.00    -0.354 N 
ATOM     52  C   UNL     1      15.995  -1.341  15.015  1.00  0.00     0.074 A 
ATOM     53  C   UNL     1      16.309  -0.304  14.057  1.00  0.00     0.031 C 
ATOM     54  C   UNL     1       9.935   0.043  16.678  1.00  0.00     0.029 A 
ATOM     55  C   UNL     1      10.750  -1.076  17.143  1.00  0.00     0.049 A 
ATOM     56  H   UNL     1      12.731  -1.490  16.656  1.00  0.00     0.167 HD
ATOM     57  C   UNL     1      16.855  -2.315  15.397  1.00  0.00     0.037 A 
ATOM     58  C   UNL     1      10.341  -2.045  17.984  1.00  0.00     0.037 A 
ATOM     59  C   UNL     1      16.540  -3.333  16.365  1.00  0.00     0.049 A 
ATOM     60  C   UNL     1      11.309  -3.130  18.373  1.00  0.00     0.074 A 
ATOM     61  C   UNL     1      17.358  -4.331  16.863  1.00  0.00     0.029 A 
ATOM     62  N   UNL     1      15.304  -3.485  16.977  1.00  0.00    -0.354 N 
ATOM     63  N   UNL     1      12.557  -3.299  18.008  1.00  0.00    -0.248 NA
ATOM     64  C   UNL     1      10.812  -4.158  19.298  1.00  0.00     0.031 C 
ATOM     65  C   UNL     1      16.599  -5.124  17.730  1.00  0.00     0.029 A 
ATOM     66  C   UNL     1      15.328  -4.581  17.825  1.00  0.00     0.049 A 
ATOM     67  H   UNL     1      14.525  -2.901  16.830  1.00  0.00     0.167 HD
ATOM     68  C   UNL     1      13.003  -4.430  18.678  1.00  0.00     0.074 A 
ATOM     69  C   UNL     1      11.896  -4.896  19.487  1.00  0.00     0.031 C 
ATOM     70  C   UNL     1      14.218  -5.029  18.628  1.00  0.00     0.037 A 
BRANCH  57  71
ATOM     71  C   UNL     1      18.217  -2.328  14.764  1.00  0.00     0.064 A 
ATOM     72  C   UNL     1      19.162  -1.322  15.022  1.00  0.00     0.173 A 
ATOM     73  C   UNL     1      18.595  -3.376  13.911  1.00  0.00     0.173 A 
ATOM     74  F   UNL     1      18.849  -0.290  15.820  1.00  0.00    -0.203 F 
ATOM     75  C   UNL     1      20.420  -1.348  14.425  1.00  0.00     0.198 A 
ATOM     76  C   UNL     1      19.866  -3.418  13.344  1.00  0.00     0.198 A 
ATOM     77  F   UNL     1      17.735  -4.367  13.633  1.00  0.00    -0.203 F 
ATOM     78  F   UNL     1      21.284  -0.347  14.643  1.00  0.00    -0.200 F 
ATOM     79  C   UNL     1      20.774  -2.400  13.594  1.00  0.00     0.200 A 
ATOM     80  F   UNL     1      20.212  -4.443  12.553  1.00  0.00    -0.200 F 
ATOM     81  F   UNL     1      21.988  -2.428  13.027  1.00  0.00    -0.200 F 
ENDBRANCH  57  71
BRANCH  58  82
ATOM     82  C   UNL     1       8.957  -2.025  18.526  1.00  0.00     0.064 A 
ATOM     83  C   UNL     1       8.719  -1.794  19.888  1.00  0.00     0.173 A 
ATOM     84  C   UNL     1       7.845  -2.245  17.699  1.00  0.00     0.173 A 
ATOM     85  F   UNL     1       9.750  -1.598  20.724  1.00  0.00    -0.203 F 
ATOM     86  C   UNL     1       7.426  -1.810  20.407  1.00  0.00     0.198 A 
ATOM     87  C   UNL     1       6.550  -2.227  18.213  1.00  0.00     0.198 A 
ATOM     88  F   UNL     1       8.016  -2.464  16.387  1.00  0.00    -0.203 F 
ATOM     89  F   UNL     1       7.233  -1.639  21.722  1.00  0.00    -0.200 F 
ATOM     90  C   UNL     1       6.342  -2.021  19.569  1.00  0.00     0.200 A 
ATOM     91  F   UNL     1       5.505  -2.413  17.396  1.00  0.00    -0.200 F 
ATOM     92  F   UNL     1       5.099  -2.032  20.067  1.00  0.00    -0.200 F 
ENDBRANCH  58  82
BRANCH  70  93
ATOM     93  C   UNL     1      14.428  -6.235  19.499  1.00  0.00     0.064 A 
ATOM     94  C   UNL     1      13.794  -7.458  19.235  1.00  0.00     0.173 A 
ATOM     95  C   UNL     1      15.308  -6.175  20.592  1.00  0.00     0.173 A 
ATOM     96  F   UNL     1      12.933  -7.565  18.212  1.00  0.00    -0.203 F 
ATOM     97  C   UNL     1      14.009  -8.566  20.050  1.00  0.00     0.198 A 
ATOM     98  C   UNL     1      15.548  -7.295  21.382  1.00  0.00     0.198 A 
ATOM     99  F   UNL     1      15.947  -5.032  20.884  1.00  0.00    -0.203 F 
ATOM    100  F   UNL     1      13.349  -9.709  19.812  1.00  0.00    -0.200 F 
ATOM    101  C   UNL     1      14.892  -8.486  21.117  1.00  0.00     0.200 A 
ATOM    102  F   UNL     1      16.415  -7.220  22.402  1.00  0.00    -0.200 F 
ATOM    103  F   UNL     1      15.104  -9.557  21.894  1.00  0.00    -0.200 F 
ENDBRANCH  70  93
ENDBRANCH  44  45
ENDBRANCH  36  39
ENDBRANCH  34  35
ENDBRANCH  33  34
ENDBRANCH  32  33
ENDBRANCH  31  32
ENDBRANCH   1  31
TORSDOF 18
