REMARK SMILES [NH3+][C@@H]1CCCCC[C@H]1C(=O)Nc1cncc(C(=O)NCCCCCCNC(=O)c2ccc(-c3c4nc(c(-c5c(F)c(F)c(F)c(F)c5F)c5ccc([nH]5)c(-c5c(F)c(F)c(F)c(F)c5F)c5nc(c(-c6c(F)c(F)c(F)c(F)c6F)c6ccc3[nH]6)C=C5)C=C4)cc2)c1
REMARK SMILES IDX 21 1 20 2 19 3 17 4 18 5 16 7 12 8 13 9 92 10 14 11 15 12
REMARK SMILES IDX 11 13 9 14 10 15 8 17 2 18 1 19 3 23 4 24 7 26 6 27 5 28
REMARK SMILES IDX 22 30 23 31 24 32 25 33 26 34 27 35 28 37 29 38 30 39 91 40
REMARK SMILES IDX 31 41 90 42 32 43 33 44 34 45 84 46 35 47 89 48 83 49 85 50
REMARK SMILES IDX 36 51 88 52 82 53 81 54 37 56 69 57 49 58 68 59 50 60 53 61
REMARK SMILES IDX 67 62 86 63 51 64 52 65 66 67 87 68 54 69 38 70 39 71 47 72
REMARK SMILES IDX 40 73 41 74 45 75 48 76 42 77 43 78 46 79 44 80 70 81 71 82
REMARK SMILES IDX 79 83 72 84 73 85 77 86 80 87 74 88 75 89 78 90 76 91 55 92
REMARK SMILES IDX 56 93 64 94 57 95 58 96 62 97 65 98 59 99 60 100 63 101
REMARK SMILES IDX 61 102
REMARK H PARENT 19 6 11 16 1 20 1 21 1 22 26 36 85 55 53 66
REMARK Flexibility Score: 90.00
ROOT
ATOM      1  C   UNL     1       4.156  -1.159  -0.013  1.00  0.00     0.021 C 
ENDROOT
BRANCH   1   2
ATOM      2  C   UNL     1       3.458  -1.767   1.204  1.00  0.00     0.116 C 
BRANCH   2   3
ATOM      3  N   UNL     1       4.242  -1.670   2.416  1.00  0.00    -0.352 N 
ATOM      4  C   UNL     1       3.948  -1.263   3.695  1.00  0.00     0.252 C 
ATOM      5  O   UNL     1       4.773  -1.552   4.564  1.00  0.00    -0.269 OA
ATOM      6  H   UNL     1       5.177  -1.954   2.302  1.00  0.00     0.163 HD
BRANCH   4   7
ATOM      7  C   UNL     1       2.716  -0.534   4.113  1.00  0.00     0.060 A 
ATOM      8  C   UNL     1       0.728   0.832   3.834  1.00  0.00     0.060 A 
ATOM      9  C   UNL     1       0.559   0.794   5.213  1.00  0.00     0.137 A 
ATOM     10  C   UNL     1       1.882   0.242   3.303  1.00  0.00     0.043 A 
ATOM     11  N   UNL     1       1.365   0.103   6.044  1.00  0.00    -0.262 NA
ATOM     12  C   UNL     1       2.406  -0.559   5.473  1.00  0.00     0.125 A 
BRANCH   8  13
ATOM     13  N   UNL     1      -0.192   1.547   3.055  1.00  0.00    -0.324 N 
ATOM     14  C   UNL     1      -1.065   1.134   2.084  1.00  0.00     0.233 C 
ATOM     15  O   UNL     1      -1.734   2.020   1.536  1.00  0.00    -0.274 OA
ATOM     16  H   UNL     1      -0.215   2.514   3.237  1.00  0.00     0.169 HD
BRANCH  14  17
ATOM     17  C   UNL     1      -1.289  -0.334   1.665  1.00  0.00     0.137 C 
BRANCH  17  18
ATOM     18  C   UNL     1      -0.147  -0.828   0.767  1.00  0.00     0.193 C 
BRANCH  18  19
ATOM     19  N   UNL     1      -0.106  -0.117  -0.522  1.00  0.00    -0.354 N 
ATOM     20  H   UNL     1       0.666  -0.477  -1.084  1.00  0.00     0.344 HD
ATOM     21  H   UNL     1       0.031   0.880  -0.356  1.00  0.00     0.344 HD
ATOM     22  H   UNL     1      -0.985  -0.262  -1.019  1.00  0.00     0.344 HD
ENDBRANCH  18  19
BRANCH  18  23
ATOM     23  C   UNL     1      -0.075  -2.336   0.474  1.00  0.00     0.066 C 
BRANCH  23  24
ATOM     24  C   UNL     1       0.202  -3.192   1.709  1.00  0.00     0.006 CG0
ATOM     25  G   UNL     1      -1.047  -3.635   2.455  1.00  0.00     0.000 G0
ENDBRANCH  23  24
ENDBRANCH  18  23
ENDBRANCH  17  18
BRANCH  17  26
ATOM     26  C   UNL     1      -1.664  -1.196   2.884  1.00  0.00     0.020 C 
BRANCH  26  27
ATOM     27  C   UNL     1      -2.161  -2.596   2.525  1.00  0.00     0.001 C 
BRANCH  27  28
ATOM     28  C   UNL     1      -1.047  -3.635   2.455  1.00  0.00     0.000 CG0
ATOM     29  G   UNL     1       0.202  -3.192   1.709  1.00  0.00     0.000 G0
ENDBRANCH  27  28
ENDBRANCH  26  27
ENDBRANCH  17  26
ENDBRANCH  14  17
ENDBRANCH   8  13
ENDBRANCH   4   7
ENDBRANCH   2   3
ENDBRANCH   1   2
BRANCH   1  30
ATOM     30  C   UNL     1       4.711  -2.203  -0.988  1.00  0.00     0.002 C 
BRANCH  30  31
ATOM     31  C   UNL     1       3.665  -3.103  -1.661  1.00  0.00     0.002 C 
BRANCH  31  32
ATOM     32  C   UNL     1       2.593  -2.385  -2.485  1.00  0.00     0.021 C 
BRANCH  32  33
ATOM     33  C   UNL     1       3.103  -1.485  -3.603  1.00  0.00     0.116 C 
BRANCH  33  34
ATOM     34  N   UNL     1       3.927  -2.199  -4.562  1.00  0.00    -0.352 N 
ATOM     35  C   UNL     1       3.784  -2.338  -5.918  1.00  0.00     0.251 C 
ATOM     36  H   UNL     1       4.711  -2.655  -4.179  1.00  0.00     0.163 HD
ATOM     37  O   UNL     1       4.496  -3.138  -6.528  1.00  0.00    -0.269 OA
BRANCH  35  38
ATOM     38  C   UNL     1       2.771  -1.555  -6.657  1.00  0.00     0.039 A 
ATOM     39  C   UNL     1       2.023  -2.194  -7.650  1.00  0.00     0.014 A 
ATOM     40  C   UNL     1       2.567  -0.197  -6.396  1.00  0.00     0.014 A 
ATOM     41  C   UNL     1       1.028  -1.492  -8.332  1.00  0.00     0.010 A 
ATOM     42  C   UNL     1       1.525   0.483  -7.025  1.00  0.00     0.010 A 
ATOM     43  C   UNL     1       0.743  -0.159  -7.997  1.00  0.00    -0.014 A 
BRANCH  43  44
ATOM     44  C   UNL     1      -0.389   0.566  -8.632  1.00  0.00     0.031 A 
ATOM     45  C   UNL     1      -0.139   1.780  -9.482  1.00  0.00     0.074 A 
ATOM     46  C   UNL     1      -1.651   0.165  -8.383  1.00  0.00     0.049 A 
ATOM     47  N   UNL     1      -1.002   2.577 -10.061  1.00  0.00    -0.248 NA
ATOM     48  C   UNL     1       1.266   2.164  -9.693  1.00  0.00     0.031 C 
ATOM     49  C   UNL     1      -2.025  -0.967  -7.532  1.00  0.00     0.029 A 
ATOM     50  N   UNL     1      -2.855   0.671  -8.806  1.00  0.00    -0.354 N 
ATOM     51  C   UNL     1      -0.249   3.562 -10.687  1.00  0.00     0.074 A 
ATOM     52  C   UNL     1       1.139   3.289 -10.383  1.00  0.00     0.031 C 
ATOM     53  C   UNL     1      -3.362  -1.077  -7.506  1.00  0.00     0.029 A 
ATOM     54  C   UNL     1      -3.943   0.001  -8.301  1.00  0.00     0.049 A 
ATOM     55  H   UNL     1      -2.932   1.442  -9.414  1.00  0.00     0.167 HD
ATOM     56  C   UNL     1      -0.679   4.589 -11.458  1.00  0.00     0.037 A 
ATOM     57  C   UNL     1      -5.261   0.238  -8.446  1.00  0.00     0.037 A 
ATOM     58  C   UNL     1      -2.061   4.840 -11.777  1.00  0.00     0.049 A 
ATOM     59  C   UNL     1      -5.708   1.391  -9.303  1.00  0.00     0.074 A 
ATOM     60  C   UNL     1      -2.589   5.805 -12.617  1.00  0.00     0.029 A 
ATOM     61  N   UNL     1      -3.134   4.129 -11.261  1.00  0.00    -0.354 N 
ATOM     62  N   UNL     1      -4.984   2.261  -9.964  1.00  0.00    -0.248 NA
ATOM     63  C   UNL     1      -7.157   1.593  -9.440  1.00  0.00     0.031 C 
ATOM     64  C   UNL     1      -3.983   5.718 -12.561  1.00  0.00     0.029 A 
ATOM     65  C   UNL     1      -4.324   4.659 -11.736  1.00  0.00     0.049 A 
ATOM     66  H   UNL     1      -3.062   3.361 -10.649  1.00  0.00     0.167 HD
ATOM     67  C   UNL     1      -5.885   3.096 -10.610  1.00  0.00     0.074 A 
ATOM     68  C   UNL     1      -7.210   2.615 -10.282  1.00  0.00     0.031 C 
ATOM     69  C   UNL     1      -5.636   4.169 -11.402  1.00  0.00     0.037 A 
BRANCH  56  70
ATOM     70  C   UNL     1       0.351   5.529 -12.015  1.00  0.00     0.064 A 
ATOM     71  C   UNL     1       1.244   5.135 -13.023  1.00  0.00     0.173 A 
ATOM     72  C   UNL     1       0.400   6.863 -11.582  1.00  0.00     0.173 A 
ATOM     73  F   UNL     1       1.245   3.869 -13.468  1.00  0.00    -0.203 F 
ATOM     74  C   UNL     1       2.161   6.035 -13.561  1.00  0.00     0.198 A 
ATOM     75  C   UNL     1       1.297   7.768 -12.144  1.00  0.00     0.198 A 
ATOM     76  F   UNL     1      -0.435   7.295 -10.625  1.00  0.00    -0.203 F 
ATOM     77  F   UNL     1       3.030   5.625 -14.495  1.00  0.00    -0.200 F 
ATOM     78  C   UNL     1       2.180   7.353 -13.128  1.00  0.00     0.200 A 
ATOM     79  F   UNL     1       1.303   9.045 -11.735  1.00  0.00    -0.200 F 
ATOM     80  F   UNL     1       3.052   8.221 -13.658  1.00  0.00    -0.200 F 
ENDBRANCH  56  70
BRANCH  57  81
ATOM     81  C   UNL     1      -6.254  -0.631  -7.760  1.00  0.00     0.064 A 
ATOM     82  C   UNL     1      -7.108  -1.470  -8.489  1.00  0.00     0.173 A 
ATOM     83  C   UNL     1      -6.382  -0.628  -6.363  1.00  0.00     0.173 A 
ATOM     84  F   UNL     1      -7.040  -1.494  -9.828  1.00  0.00    -0.203 F 
ATOM     85  C   UNL     1      -8.070  -2.251  -7.850  1.00  0.00     0.198 A 
ATOM     86  C   UNL     1      -7.320  -1.435  -5.723  1.00  0.00     0.198 A 
ATOM     87  F   UNL     1      -5.586   0.152  -5.617  1.00  0.00    -0.203 F 
ATOM     88  F   UNL     1      -8.911  -3.000  -8.575  1.00  0.00    -0.200 F 
ATOM     89  C   UNL     1      -8.171  -2.237  -6.467  1.00  0.00     0.200 A 
ATOM     90  F   UNL     1      -7.403  -1.431  -4.385  1.00  0.00    -0.200 F 
ATOM     91  F   UNL     1      -9.095  -2.989  -5.853  1.00  0.00    -0.200 F 
ENDBRANCH  57  81
BRANCH  69  92
ATOM     92  C   UNL     1      -6.821   4.880 -11.990  1.00  0.00     0.064 A 
ATOM     93  C   UNL     1      -7.684   5.652 -11.198  1.00  0.00     0.173 A 
ATOM     94  C   UNL     1      -7.072   4.822 -13.370  1.00  0.00     0.173 A 
ATOM     95  F   UNL     1      -7.497   5.728  -9.872  1.00  0.00    -0.203 F 
ATOM     96  C   UNL     1      -8.770   6.318 -11.762  1.00  0.00     0.198 A 
ATOM     97  C   UNL     1      -8.138   5.516 -13.934  1.00  0.00     0.198 A 
ATOM     98  F   UNL     1      -6.274   4.104 -14.173  1.00  0.00    -0.203 F 
ATOM     99  F   UNL     1      -9.610   7.008 -10.979  1.00  0.00    -0.200 F 
ATOM    100  C   UNL     1      -8.991   6.256 -13.130  1.00  0.00     0.200 A 
ATOM    101  F   UNL     1      -8.340   5.469 -15.259  1.00  0.00    -0.200 F 
ATOM    102  F   UNL     1     -10.030   6.906 -13.672  1.00  0.00    -0.200 F 
ENDBRANCH  69  92
ENDBRANCH  43  44
ENDBRANCH  35  38
ENDBRANCH  33  34
ENDBRANCH  32  33
ENDBRANCH  31  32
ENDBRANCH  30  31
ENDBRANCH   1  30
TORSDOF 16
