REMARK SMILES Cc1cccc(N2C(=O)/C(=C/c3cccn3-c3cccc(C(=O)NCCCCCCNC(=O)c4ccc(-c5c6nc(c(-c7c(F)c(F)c(F)c(F)c7F)c7ccc([nH]7)c(-c7c(F)c(F)c(F)c(F)c7F)c7nc(c(-c8c(F)c(F)c(F)c(F)c8F)c8ccc5[nH]8)C=C7)C=C6)cc4)c3)C(O)=NC2=S)c1C
REMARK SMILES IDX 27 1 26 2 25 3 24 4 22 5 23 6 21 8 17 9 18 10 97 11 19 12
REMARK SMILES IDX 20 13 16 14 12 15 13 16 14 17 15 18 11 19 7 20 8 21 101 22
REMARK SMILES IDX 9 23 10 24 100 25 102 26 98 27 6 28 1 29 2 30 3 31 103 32
REMARK SMILES IDX 4 33 104 34 5 35 99 36 28 38 29 39 30 40 31 41 32 42 33 44
REMARK SMILES IDX 34 45 35 46 96 47 36 48 95 49 37 50 38 51 39 52 89 53 40 54
REMARK SMILES IDX 94 55 88 56 90 57 41 58 93 59 87 60 86 61 42 63 74 64 54 65
REMARK SMILES IDX 73 66 55 67 58 68 72 69 91 70 56 71 57 72 71 74 92 75 59 76
REMARK SMILES IDX 43 77 44 78 52 79 45 80 46 81 50 82 53 83 47 84 48 85 51 86
REMARK SMILES IDX 49 87 75 88 76 89 84 90 77 91 78 92 82 93 85 94 79 95 80 96
REMARK SMILES IDX 83 97 81 98 60 99 61 100 69 101 62 102 63 103 67 104 70 105
REMARK SMILES IDX 64 106 65 107 68 108 66 109
REMARK H PARENT 24 7 99 37 31 43 90 62 58 73
REMARK Flexibility Score: inf
ROOT
ATOM      1  C   UNL     1       4.719  -5.478  -1.054  1.00  0.00     0.002 C 
ENDROOT
BRANCH   1   2
ATOM      2  C   UNL     1       3.657  -6.439  -1.586  1.00  0.00     0.021 C 
BRANCH   2   3
ATOM      3  C   UNL     1       2.519  -5.827  -2.395  1.00  0.00     0.116 C 
BRANCH   3   4
ATOM      4  N   UNL     1       2.915  -5.218  -3.653  1.00  0.00    -0.352 N 
ATOM      5  C   UNL     1       2.329  -5.241  -4.902  1.00  0.00     0.251 C 
ATOM      6  O   UNL     1       2.886  -4.649  -5.825  1.00  0.00    -0.269 OA
ATOM      7  H   UNL     1       3.748  -4.696  -3.605  1.00  0.00     0.163 HD
BRANCH   5   8
ATOM      8  C   UNL     1       1.087  -6.016  -5.183  1.00  0.00     0.041 A 
ATOM      9  C   UNL     1      -0.900  -7.173  -4.405  1.00  0.00     0.046 A 
ATOM     10  C   UNL     1      -1.005  -7.811  -5.649  1.00  0.00     0.026 A 
ATOM     11  C   UNL     1       0.087  -6.199  -4.224  1.00  0.00     0.040 A 
ATOM     12  C   UNL     1      -0.112  -7.499  -6.676  1.00  0.00     0.003 A 
ATOM     13  C   UNL     1       0.951  -6.628  -6.434  1.00  0.00     0.014 A 
BRANCH   9  14
ATOM     14  N   UNL     1      -1.672  -7.639  -3.292  1.00  0.00    -0.317 N 
ATOM     15  C   UNL     1      -2.056  -6.974  -2.118  1.00  0.00     0.047 A 
ATOM     16  C   UNL     1      -2.652  -7.901  -1.276  1.00  0.00     0.028 A 
ATOM     17  C   UNL     1      -2.580  -9.163  -1.891  1.00  0.00     0.020 A 
ATOM     18  C   UNL     1      -2.006  -8.976  -3.125  1.00  0.00     0.092 A 
BRANCH  15  19
ATOM     19  C   UNL     1      -1.905  -5.569  -1.974  1.00  0.00     0.046 C 
ATOM     20  N   UNL     1      -0.756  -2.783   0.070  1.00  0.00    -0.251 N 
ATOM     21  C   UNL     1      -1.218  -3.444  -1.070  1.00  0.00     0.270 C 
ATOM     22  C   UNL     1      -0.408  -3.453   1.259  1.00  0.00     0.210 C 
ATOM     23  O   UNL     1      -1.565  -2.887  -2.112  1.00  0.00    -0.268 OA
ATOM     24  C   UNL     1      -1.255  -4.939  -0.972  1.00  0.00     0.104 C 
ATOM     25  N   UNL     1      -0.159  -4.802   1.196  1.00  0.00    -0.184 NA
ATOM     26  S   UNL     1      -0.261  -2.702   2.776  1.00  0.00    -0.038 S 
ATOM     27  C   UNL     1      -0.536  -5.485   0.180  1.00  0.00     0.226 C 
BRANCH  20  28
ATOM     28  C   UNL     1      -0.708  -1.349  -0.003  1.00  0.00     0.055 A 
ATOM     29  C   UNL     1       1.772   1.587  -0.029  1.00  0.00     0.044 C 
ATOM     30  C   UNL     1       0.505   0.771  -0.036  1.00  0.00    -0.046 A 
ATOM     31  C   UNL     1      -0.725   1.444  -0.022  1.00  0.00     0.004 A 
ATOM     32  C   UNL     1       0.522  -0.643  -0.059  1.00  0.00    -0.024 A 
ATOM     33  C   UNL     1      -1.928   0.742  -0.027  1.00  0.00     0.002 A 
ATOM     34  C   UNL     1       1.828  -1.386  -0.137  1.00  0.00     0.047 C 
ATOM     35  C   UNL     1      -1.922  -0.649  -0.020  1.00  0.00     0.027 A 
ENDBRANCH  20  28
BRANCH  27  36
ATOM     36  O   UNL     1      -0.142  -6.766   0.165  1.00  0.00    -0.493 OA
ATOM     37  H   UNL     1      -0.384  -7.322  -0.550  1.00  0.00     0.295 HD
ENDBRANCH  27  36
ENDBRANCH  15  19
ENDBRANCH   9  14
ENDBRANCH   5   8
ENDBRANCH   3   4
ENDBRANCH   2   3
ENDBRANCH   1   2
BRANCH   1  38
ATOM     38  C   UNL     1       4.213  -4.275  -0.255  1.00  0.00     0.002 C 
BRANCH  38  39
ATOM     39  C   UNL     1       3.214  -4.579   0.867  1.00  0.00     0.021 C 
BRANCH  39  40
ATOM     40  C   UNL     1       3.727  -5.482   1.978  1.00  0.00     0.116 C 
BRANCH  40  41
ATOM     41  N   UNL     1       4.805  -4.840   2.711  1.00  0.00    -0.352 N 
ATOM     42  C   UNL     1       5.507  -5.282   3.801  1.00  0.00     0.251 C 
ATOM     43  H   UNL     1       5.070  -3.954   2.373  1.00  0.00     0.163 HD
ATOM     44  O   UNL     1       6.108  -4.474   4.498  1.00  0.00    -0.269 OA
BRANCH  42  45
ATOM     45  C   UNL     1       5.549  -6.716   4.154  1.00  0.00     0.039 A 
ATOM     46  C   UNL     1       5.606  -7.052   5.513  1.00  0.00     0.014 A 
ATOM     47  C   UNL     1       5.631  -7.713   3.177  1.00  0.00     0.014 A 
ATOM     48  C   UNL     1       5.696  -8.386   5.891  1.00  0.00     0.010 A 
ATOM     49  C   UNL     1       5.673  -9.049   3.547  1.00  0.00     0.010 A 
ATOM     50  C   UNL     1       5.702  -9.381   4.905  1.00  0.00    -0.014 A 
BRANCH  50  51
ATOM     51  C   UNL     1       5.579 -10.791   5.322  1.00  0.00     0.031 A 
ATOM     52  C   UNL     1       4.128 -11.121   5.739  1.00  0.00     0.074 A 
ATOM     53  C   UNL     1       6.728 -11.535   5.283  1.00  0.00     0.049 A 
ATOM     54  N   UNL     1       3.674 -12.021   6.558  1.00  0.00    -0.248 NA
ATOM     55  C   UNL     1       3.012 -10.285   5.208  1.00  0.00     0.031 C 
ATOM     56  C   UNL     1       8.032 -11.041   4.784  1.00  0.00     0.029 A 
ATOM     57  N   UNL     1       7.054 -12.828   5.643  1.00  0.00    -0.354 N 
ATOM     58  C   UNL     1       2.259 -11.988   6.501  1.00  0.00     0.074 A 
ATOM     59  C   UNL     1       1.914 -10.826   5.741  1.00  0.00     0.031 C 
ATOM     60  C   UNL     1       8.999 -11.969   4.945  1.00  0.00     0.029 A 
ATOM     61  C   UNL     1       8.438 -13.156   5.555  1.00  0.00     0.049 A 
ATOM     62  H   UNL     1       6.378 -13.479   5.939  1.00  0.00     0.167 HD
ATOM     63  C   UNL     1       1.474 -13.005   6.971  1.00  0.00     0.037 A 
ATOM     64  C   UNL     1       9.089 -14.280   5.997  1.00  0.00     0.037 A 
ATOM     65  C   UNL     1       2.297 -14.004   7.559  1.00  0.00     0.049 A 
ATOM     66  C   UNL     1       8.017 -15.180   6.440  1.00  0.00     0.074 A 
ATOM     67  C   UNL     1       3.015 -14.033   8.724  1.00  0.00     0.029 A 
ATOM     68  N   UNL     1       2.740 -15.001   6.727  1.00  0.00    -0.354 N 
ATOM     69  N   UNL     1       7.221 -15.830   5.645  1.00  0.00    -0.248 NA
ATOM     70  C   UNL     1       7.742 -15.282   7.879  1.00  0.00     0.031 C 
ATOM     71  C   UNL     1       4.191 -14.714   8.354  1.00  0.00     0.029 A 
ATOM     72  C   UNL     1       4.034 -15.276   7.081  1.00  0.00     0.049 A 
ATOM     73  H   UNL     1       2.224 -15.437   6.010  1.00  0.00     0.167 HD
ATOM     74  C   UNL     1       6.172 -16.129   6.479  1.00  0.00     0.074 A 
ATOM     75  C   UNL     1       6.680 -16.079   7.832  1.00  0.00     0.031 C 
ATOM     76  C   UNL     1       4.907 -15.842   6.084  1.00  0.00     0.037 A 
BRANCH  63  77
ATOM     77  C   UNL     1       0.028 -13.374   6.763  1.00  0.00     0.064 A 
ATOM     78  C   UNL     1      -0.540 -14.351   7.626  1.00  0.00     0.173 A 
ATOM     79  C   UNL     1      -0.667 -13.129   5.574  1.00  0.00     0.173 A 
ATOM     80  F   UNL     1       0.015 -14.619   8.819  1.00  0.00    -0.203 F 
ATOM     81  C   UNL     1      -1.621 -15.141   7.243  1.00  0.00     0.198 A 
ATOM     82  C   UNL     1      -1.788 -13.889   5.217  1.00  0.00     0.198 A 
ATOM     83  F   UNL     1      -0.225 -12.231   4.685  1.00  0.00    -0.203 F 
ATOM     84  F   UNL     1      -2.014 -16.160   8.021  1.00  0.00    -0.200 F 
ATOM     85  C   UNL     1      -2.232 -14.924   6.026  1.00  0.00     0.200 A 
ATOM     86  F   UNL     1      -2.388 -13.669   4.039  1.00  0.00    -0.200 F 
ATOM     87  F   UNL     1      -3.219 -15.730   5.614  1.00  0.00    -0.200 F 
ENDBRANCH  63  77
BRANCH  64  88
ATOM     88  C   UNL     1      10.508 -14.762   6.236  1.00  0.00     0.064 A 
ATOM     89  C   UNL     1      11.682 -14.146   5.788  1.00  0.00     0.173 A 
ATOM     90  C   UNL     1      10.739 -15.907   7.058  1.00  0.00     0.173 A 
ATOM     91  F   UNL     1      11.643 -13.153   4.894  1.00  0.00    -0.203 F 
ATOM     92  C   UNL     1      12.958 -14.553   6.234  1.00  0.00     0.198 A 
ATOM     93  C   UNL     1      11.994 -16.276   7.544  1.00  0.00     0.198 A 
ATOM     94  F   UNL     1       9.745 -16.724   7.429  1.00  0.00    -0.203 F 
ATOM     95  F   UNL     1      14.051 -13.923   5.781  1.00  0.00    -0.200 F 
ATOM     96  C   UNL     1      13.108 -15.583   7.146  1.00  0.00     0.200 A 
ATOM     97  F   UNL     1      12.097 -17.293   8.412  1.00  0.00    -0.200 F 
ATOM     98  F   UNL     1      14.314 -15.918   7.623  1.00  0.00    -0.200 F 
ENDBRANCH  64  88
BRANCH  76  99
ATOM     99  C   UNL     1       4.717 -15.792   4.581  1.00  0.00     0.064 A 
ATOM    100  C   UNL     1       4.926 -16.951   3.818  1.00  0.00     0.173 A 
ATOM    101  C   UNL     1       4.443 -14.620   3.855  1.00  0.00     0.173 A 
ATOM    102  F   UNL     1       5.175 -18.117   4.431  1.00  0.00    -0.203 F 
ATOM    103  C   UNL     1       4.875 -16.932   2.421  1.00  0.00     0.198 A 
ATOM    104  C   UNL     1       4.386 -14.597   2.459  1.00  0.00     0.198 A 
ATOM    105  F   UNL     1       4.220 -13.469   4.484  1.00  0.00    -0.203 F 
ATOM    106  F   UNL     1       5.077 -18.063   1.731  1.00  0.00    -0.200 F 
ATOM    107  C   UNL     1       4.606 -15.755   1.741  1.00  0.00     0.200 A 
ATOM    108  F   UNL     1       4.108 -13.452   1.816  1.00  0.00    -0.200 F 
ATOM    109  F   UNL     1       4.542 -15.742   0.402  1.00  0.00    -0.200 F 
ENDBRANCH  76  99
ENDBRANCH  50  51
ENDBRANCH  42  45
ENDBRANCH  40  41
ENDBRANCH  39  40
ENDBRANCH  38  39
ENDBRANCH   1  38
TORSDOF 17
