REMARK SMILES Cc1nc([C@]2(C)CCCO2)nc(C)c1C(=O)NCCCCCCNC(=O)c1ccc(-c2c3nc(c(-c4c(F)c(F)c(F)c(F)c4F)c4ccc([nH]4)c(-c4c(F)c(F)c(F)c(F)c4F)c4nc(c(-c5c(F)c(F)c(F)c(F)c5F)c5ccc2[nH]5)C=C4)C=C3)cc1
REMARK SMILES IDX 21 1 20 2 19 3 18 4 17 5 15 6 16 7 14 9 1 10 2 11 3 12 4 13
REMARK SMILES IDX 12 14 11 15 13 16 5 17 7 18 10 19 6 20 8 21 9 22 22 23 23 24
REMARK SMILES IDX 24 25 25 26 26 28 27 29 28 30 89 31 29 32 88 33 30 34 31 35
REMARK SMILES IDX 32 36 82 37 33 38 87 39 81 40 83 41 34 42 86 43 80 44 79 45
REMARK SMILES IDX 35 47 67 48 47 49 66 50 48 51 51 52 65 53 84 54 49 55 50 56
REMARK SMILES IDX 64 58 85 59 52 60 36 61 37 62 45 63 38 64 39 65 43 66 46 67
REMARK SMILES IDX 40 68 41 69 44 70 42 71 68 72 69 73 77 74 70 75 71 76 75 77
REMARK SMILES IDX 78 78 72 79 73 80 76 81 74 82 53 83 54 84 62 85 55 86 56 87
REMARK SMILES IDX 60 88 63 89 57 90 58 91 61 92 59 93
REMARK H PARENT 17 8 24 27 83 46 51 57
REMARK Flexibility Score: inf
ROOT
ATOM      1  C   UNL     1      -8.239  -7.383   3.230  1.00  0.00     0.002 C 
ENDROOT
BRANCH   1   2
ATOM      2  C   UNL     1      -7.317  -6.594   4.168  1.00  0.00     0.002 C 
BRANCH   2   3
ATOM      3  C   UNL     1      -5.987  -6.162   3.540  1.00  0.00     0.021 C 
BRANCH   3   4
ATOM      4  C   UNL     1      -6.175  -5.296   2.291  1.00  0.00     0.116 C 
BRANCH   4   5
ATOM      5  N   UNL     1      -5.882  -3.916   2.578  1.00  0.00    -0.352 N 
ATOM      6  C   UNL     1      -4.935  -2.965   2.356  1.00  0.00     0.254 C 
ATOM      7  O   UNL     1      -5.293  -1.895   2.864  1.00  0.00    -0.269 OA
ATOM      8  H   UNL     1      -6.612  -3.531   3.114  1.00  0.00     0.163 HD
BRANCH   6   9
ATOM      9  C   UNL     1      -3.617  -3.028   1.632  1.00  0.00     0.082 A 
ATOM     10  C   UNL     1      -3.289  -5.567   1.201  1.00  0.00     0.068 C 
ATOM     11  C   UNL     1      -2.916  -4.129   1.146  1.00  0.00     0.054 A 
ATOM     12  N   UNL     1      -1.709  -4.023   0.526  1.00  0.00    -0.234 NA
ATOM     13  C   UNL     1      -1.115  -2.833   0.409  1.00  0.00     0.160 A 
ATOM     14  C   UNL     1      -2.919  -1.811   1.435  1.00  0.00     0.054 A 
ATOM     15  N   UNL     1      -1.701  -1.713   0.829  1.00  0.00    -0.234 NA
ATOM     16  C   UNL     1      -3.404  -0.460   1.894  1.00  0.00     0.068 C 
BRANCH  13  17
ATOM     17  C   UNL     1       0.303  -2.799  -0.176  1.00  0.00     0.125 C 
ATOM     18  C   UNL     1       0.362  -3.401  -1.580  1.00  0.00     0.046 C 
ATOM     19  O   UNL     1       1.180  -3.651   0.607  1.00  0.00    -0.367 OA
ATOM     20  C   UNL     1       0.895  -1.388  -0.152  1.00  0.00     0.051 C 
ATOM     21  C   UNL     1       0.509  -4.886  -1.331  1.00  0.00     0.032 C 
ATOM     22  C   UNL     1       1.157  -4.969   0.040  1.00  0.00     0.161 C 
ENDBRANCH  13  17
ENDBRANCH   6   9
ENDBRANCH   4   5
ENDBRANCH   3   4
ENDBRANCH   2   3
ENDBRANCH   1   2
BRANCH   1  23
ATOM     23  C   UNL     1      -7.588  -8.595   2.559  1.00  0.00     0.021 C 
BRANCH  23  24
ATOM     24  C   UNL     1      -7.049  -9.632   3.539  1.00  0.00     0.116 C 
BRANCH  24  25
ATOM     25  N   UNL     1      -8.098 -10.128   4.417  1.00  0.00    -0.352 N 
ATOM     26  C   UNL     1      -8.578 -11.399   4.563  1.00  0.00     0.251 C 
ATOM     27  H   UNL     1      -8.523  -9.449   4.989  1.00  0.00     0.163 HD
ATOM     28  O   UNL     1      -9.644 -11.596   5.149  1.00  0.00    -0.269 OA
BRANCH  26  29
ATOM     29  C   UNL     1      -7.817 -12.540   4.023  1.00  0.00     0.039 A 
ATOM     30  C   UNL     1      -8.502 -13.564   3.366  1.00  0.00     0.014 A 
ATOM     31  C   UNL     1      -6.431 -12.614   4.199  1.00  0.00     0.014 A 
ATOM     32  C   UNL     1      -7.791 -14.646   2.848  1.00  0.00     0.010 A 
ATOM     33  C   UNL     1      -5.716 -13.658   3.623  1.00  0.00     0.010 A 
ATOM     34  C   UNL     1      -6.391 -14.689   2.954  1.00  0.00    -0.014 A 
BRANCH  34  35
ATOM     35  C   UNL     1      -5.614 -15.816   2.385  1.00  0.00     0.031 A 
ATOM     36  C   UNL     1      -4.859 -16.741   3.298  1.00  0.00     0.074 A 
ATOM     37  C   UNL     1      -5.540 -15.963   1.050  1.00  0.00     0.049 A 
ATOM     38  N   UNL     1      -4.061 -17.733   2.994  1.00  0.00    -0.248 NA
ATOM     39  C   UNL     1      -4.996 -16.502   4.744  1.00  0.00     0.031 C 
ATOM     40  C   UNL     1      -6.194 -15.098   0.066  1.00  0.00     0.029 A 
ATOM     41  N   UNL     1      -4.870 -16.886   0.287  1.00  0.00    -0.354 N 
ATOM     42  C   UNL     1      -3.591 -18.223   4.205  1.00  0.00     0.074 A 
ATOM     43  C   UNL     1      -4.152 -17.391   5.247  1.00  0.00     0.031 C 
ATOM     44  C   UNL     1      -5.907 -15.541  -1.168  1.00  0.00     0.029 A 
ATOM     45  C   UNL     1      -5.022 -16.697  -1.064  1.00  0.00     0.049 A 
ATOM     46  H   UNL     1      -4.331 -17.614   0.673  1.00  0.00     0.167 HD
ATOM     47  C   UNL     1      -2.782 -19.285   4.427  1.00  0.00     0.037 A 
ATOM     48  C   UNL     1      -4.498 -17.377  -2.101  1.00  0.00     0.037 A 
ATOM     49  C   UNL     1      -2.254 -20.128   3.387  1.00  0.00     0.049 A 
ATOM     50  C   UNL     1      -3.607 -18.558  -1.824  1.00  0.00     0.074 A 
ATOM     51  C   UNL     1      -1.477 -21.267   3.510  1.00  0.00     0.029 A 
ATOM     52  N   UNL     1      -2.454 -19.924   2.030  1.00  0.00    -0.354 N 
ATOM     53  N   UNL     1      -3.223 -19.053  -0.672  1.00  0.00    -0.248 NA
ATOM     54  C   UNL     1      -3.083 -19.279  -2.991  1.00  0.00     0.031 C 
ATOM     55  C   UNL     1      -1.172 -21.727   2.226  1.00  0.00     0.029 A 
ATOM     56  C   UNL     1      -1.798 -20.905   1.304  1.00  0.00     0.049 A 
ATOM     57  H   UNL     1      -2.983 -19.191   1.640  1.00  0.00     0.167 HD
ATOM     58  C   UNL     1      -2.440 -20.159  -0.974  1.00  0.00     0.074 A 
ATOM     59  C   UNL     1      -2.414 -20.270  -2.418  1.00  0.00     0.031 C 
ATOM     60  C   UNL     1      -1.798 -21.005  -0.133  1.00  0.00     0.037 A 
BRANCH  47  61
ATOM     61  C   UNL     1      -2.421 -19.604   5.848  1.00  0.00     0.064 A 
ATOM     62  C   UNL     1      -3.363 -20.128   6.746  1.00  0.00     0.173 A 
ATOM     63  C   UNL     1      -1.106 -19.430   6.305  1.00  0.00     0.173 A 
ATOM     64  F   UNL     1      -4.637 -20.302   6.362  1.00  0.00    -0.203 F 
ATOM     65  C   UNL     1      -3.008 -20.446   8.054  1.00  0.00     0.198 A 
ATOM     66  C   UNL     1      -0.747 -19.776   7.606  1.00  0.00     0.198 A 
ATOM     67  F   UNL     1      -0.165 -18.936   5.487  1.00  0.00    -0.203 F 
ATOM     68  F   UNL     1      -3.935 -20.906   8.906  1.00  0.00    -0.200 F 
ATOM     69  C   UNL     1      -1.699 -20.278   8.480  1.00  0.00     0.200 A 
ATOM     70  F   UNL     1       0.521 -19.624   8.012  1.00  0.00    -0.200 F 
ATOM     71  F   UNL     1      -1.355 -20.595   9.736  1.00  0.00    -0.200 F 
ENDBRANCH  47  61
BRANCH  48  72
ATOM     72  C   UNL     1      -4.819 -16.975  -3.494  1.00  0.00     0.064 A 
ATOM     73  C   UNL     1      -5.617 -17.787  -4.311  1.00  0.00     0.173 A 
ATOM     74  C   UNL     1      -4.327 -15.781  -4.042  1.00  0.00     0.173 A 
ATOM     75  F   UNL     1      -6.096 -18.947  -3.838  1.00  0.00    -0.203 F 
ATOM     76  C   UNL     1      -5.890 -17.434  -5.631  1.00  0.00     0.198 A 
ATOM     77  C   UNL     1      -4.624 -15.415  -5.353  1.00  0.00     0.198 A 
ATOM     78  F   UNL     1      -3.564 -14.965  -3.299  1.00  0.00    -0.203 F 
ATOM     79  F   UNL     1      -6.614 -18.253  -6.405  1.00  0.00    -0.200 F 
ATOM     80  C   UNL     1      -5.397 -16.246  -6.149  1.00  0.00     0.200 A 
ATOM     81  F   UNL     1      -4.158 -14.259  -5.845  1.00  0.00    -0.200 F 
ATOM     82  F   UNL     1      -5.660 -15.906  -7.418  1.00  0.00    -0.200 F 
ENDBRANCH  48  72
BRANCH  60  83
ATOM     83  C   UNL     1      -1.048 -22.149  -0.750  1.00  0.00     0.064 A 
ATOM     84  C   UNL     1       0.157 -21.952  -1.438  1.00  0.00     0.173 A 
ATOM     85  C   UNL     1      -1.523 -23.462  -0.614  1.00  0.00     0.173 A 
ATOM     86  F   UNL     1       0.643 -20.713  -1.608  1.00  0.00    -0.203 F 
ATOM     87  C   UNL     1       0.848 -23.028  -1.990  1.00  0.00     0.198 A 
ATOM     88  C   UNL     1      -0.814 -24.538  -1.140  1.00  0.00     0.198 A 
ATOM     89  F   UNL     1      -2.668 -23.703   0.042  1.00  0.00    -0.203 F 
ATOM     90  F   UNL     1       1.974 -22.813  -2.684  1.00  0.00    -0.200 F 
ATOM     91  C   UNL     1       0.366 -24.319  -1.834  1.00  0.00     0.200 A 
ATOM     92  F   UNL     1      -1.274 -25.786  -0.977  1.00  0.00    -0.200 F 
ATOM     93  F   UNL     1       1.037 -25.354  -2.359  1.00  0.00    -0.200 F 
ENDBRANCH  60  83
ENDBRANCH  34  35
ENDBRANCH  26  29
ENDBRANCH  24  25
ENDBRANCH  23  24
ENDBRANCH   1  23
TORSDOF 14
