REMARK SMILES O=C(NCCCCCCNC(=O)[C@H](F)Sc1cc2ccccc2[nH]1)c1ccc(-c2c3nc(c(-c4c(F)c(F)c(F)c(F)c4F)c4ccc([nH]4)c(-c4c(F)c(F)c(F)c(F)c4F)c4nc(c(-c5c(F)c(F)c(F)c(F)c5F)c5ccc2[nH]5)C=C4)C=C3)cc1
REMARK SMILES IDX 6 1 5 2 4 3 3 4 1 5 2 6 25 8 26 9 87 10 27 11 86 12 28 13
REMARK SMILES IDX 29 14 30 15 80 16 31 17 85 18 79 19 81 20 32 21 84 22 78 23
REMARK SMILES IDX 77 24 33 26 65 27 45 28 64 29 46 30 49 31 63 32 82 33 47 34
REMARK SMILES IDX 48 35 62 37 83 38 50 39 34 40 35 41 43 42 36 43 37 44 41 45
REMARK SMILES IDX 44 46 38 47 39 48 42 49 40 50 66 51 67 52 75 53 68 54 69 55
REMARK SMILES IDX 73 56 76 57 70 58 71 59 74 60 72 61 51 62 52 63 60 64 53 65
REMARK SMILES IDX 54 66 58 67 61 68 55 69 56 70 59 71 57 72 7 73 8 74 9 75
REMARK SMILES IDX 10 76 11 77 12 79 13 80 14 81 15 82 16 83 17 84 24 85 18 86
REMARK SMILES IDX 23 87 19 89 22 90 20 91 21 92
REMARK H PARENT 3 7 81 25 49 36 10 78 24 88
REMARK Flexibility Score: inf
ROOT
ATOM      1  C   UNL     1      10.008   8.900   3.380  1.00  0.00     0.002 C 
ENDROOT
BRANCH   1   2
ATOM      2  C   UNL     1      10.293  10.400   3.314  1.00  0.00     0.021 C 
BRANCH   2   3
ATOM      3  C   UNL     1       9.261  11.284   4.002  1.00  0.00     0.116 C 
BRANCH   3   4
ATOM      4  N   UNL     1       9.223  11.090   5.442  1.00  0.00    -0.352 N 
ATOM      5  O   UNL     1       9.415  11.663   7.617  1.00  0.00    -0.269 OA
ATOM      6  C   UNL     1       9.317  12.021   6.447  1.00  0.00     0.251 C 
ATOM      7  H   UNL     1       9.115  10.157   5.739  1.00  0.00     0.163 HD
BRANCH   6   8
ATOM      8  C   UNL     1       9.323  13.464   6.119  1.00  0.00     0.039 A 
ATOM      9  C   UNL     1       8.416  13.991   5.197  1.00  0.00     0.014 A 
ATOM     10  C   UNL     1      10.241  14.303   6.757  1.00  0.00     0.014 A 
ATOM     11  C   UNL     1       8.512  15.326   4.817  1.00  0.00     0.010 A 
ATOM     12  C   UNL     1      10.283  15.663   6.434  1.00  0.00     0.010 A 
ATOM     13  C   UNL     1       9.435  16.180   5.442  1.00  0.00    -0.014 A 
BRANCH  13  14
ATOM     14  C   UNL     1       9.442  17.623   5.094  1.00  0.00     0.031 A 
ATOM     15  C   UNL     1      10.622  18.256   4.415  1.00  0.00     0.074 A 
ATOM     16  C   UNL     1       8.351  18.358   5.383  1.00  0.00     0.049 A 
ATOM     17  N   UNL     1      10.781  19.498   4.027  1.00  0.00    -0.248 NA
ATOM     18  C   UNL     1      11.778  17.390   4.138  1.00  0.00     0.031 C 
ATOM     19  C   UNL     1       7.153  17.853   6.056  1.00  0.00     0.029 A 
ATOM     20  N   UNL     1       8.064  19.676   5.137  1.00  0.00    -0.354 N 
ATOM     21  C   UNL     1      12.055  19.566   3.478  1.00  0.00     0.074 A 
ATOM     22  C   UNL     1      12.638  18.247   3.603  1.00  0.00     0.031 C 
ATOM     23  C   UNL     1       6.245  18.835   6.133  1.00  0.00     0.029 A 
ATOM     24  C   UNL     1       6.816  20.053   5.570  1.00  0.00     0.049 A 
ATOM     25  H   UNL     1       8.691  20.292   4.694  1.00  0.00     0.167 HD
ATOM     26  C   UNL     1      12.673  20.632   2.914  1.00  0.00     0.037 A 
ATOM     27  C   UNL     1       6.205  21.250   5.532  1.00  0.00     0.037 A 
ATOM     28  C   UNL     1      12.081  21.940   2.782  1.00  0.00     0.049 A 
ATOM     29  C   UNL     1       6.923  22.418   4.921  1.00  0.00     0.074 A 
ATOM     30  C   UNL     1      12.612  23.073   2.189  1.00  0.00     0.029 A 
ATOM     31  N   UNL     1      10.824  22.291   3.255  1.00  0.00    -0.354 N 
ATOM     32  N   UNL     1       8.111  22.459   4.368  1.00  0.00    -0.248 NA
ATOM     33  C   UNL     1       6.218  23.706   4.931  1.00  0.00     0.031 C 
ATOM     34  C   UNL     1      11.697  24.120   2.345  1.00  0.00     0.029 A 
ATOM     35  C   UNL     1      10.574  23.628   2.990  1.00  0.00     0.049 A 
ATOM     36  H   UNL     1      10.202  21.680   3.712  1.00  0.00     0.167 HD
ATOM     37  C   UNL     1       8.291  23.769   3.950  1.00  0.00     0.074 A 
ATOM     38  C   UNL     1       7.080  24.486   4.295  1.00  0.00     0.031 C 
ATOM     39  C   UNL     1       9.364  24.328   3.341  1.00  0.00     0.037 A 
BRANCH  26  40
ATOM     40  C   UNL     1      14.073  20.440   2.406  1.00  0.00     0.064 A 
ATOM     41  C   UNL     1      14.342  19.698   1.246  1.00  0.00     0.173 A 
ATOM     42  C   UNL     1      15.155  21.053   3.057  1.00  0.00     0.173 A 
ATOM     43  F   UNL     1      13.345  19.084   0.592  1.00  0.00    -0.203 F 
ATOM     44  C   UNL     1      15.643  19.561   0.769  1.00  0.00     0.198 A 
ATOM     45  C   UNL     1      16.452  20.935   2.562  1.00  0.00     0.198 A 
ATOM     46  F   UNL     1      14.953  21.780   4.166  1.00  0.00    -0.203 F 
ATOM     47  F   UNL     1      15.880  18.816  -0.320  1.00  0.00    -0.200 F 
ATOM     48  C   UNL     1      16.695  20.185   1.422  1.00  0.00     0.200 A 
ATOM     49  F   UNL     1      17.465  21.549   3.188  1.00  0.00    -0.200 F 
ATOM     50  F   UNL     1      17.945  20.058   0.956  1.00  0.00    -0.200 F 
ENDBRANCH  26  40
BRANCH  27  51
ATOM     51  C   UNL     1       4.838  21.395   6.094  1.00  0.00     0.064 A 
ATOM     52  C   UNL     1       3.735  21.622   5.261  1.00  0.00     0.173 A 
ATOM     53  C   UNL     1       4.605  21.289   7.474  1.00  0.00     0.173 A 
ATOM     54  F   UNL     1       3.911  21.748   3.937  1.00  0.00    -0.203 F 
ATOM     55  C   UNL     1       2.451  21.749   5.787  1.00  0.00     0.198 A 
ATOM     56  C   UNL     1       3.317  21.386   7.995  1.00  0.00     0.198 A 
ATOM     57  F   UNL     1       5.627  21.066   8.312  1.00  0.00    -0.203 F 
ATOM     58  F   UNL     1       1.419  22.003   4.972  1.00  0.00    -0.200 F 
ATOM     59  C   UNL     1       2.243  21.623   7.152  1.00  0.00     0.200 A 
ATOM     60  F   UNL     1       3.119  21.247   9.313  1.00  0.00    -0.200 F 
ATOM     61  F   UNL     1       1.006  21.735   7.656  1.00  0.00    -0.200 F 
ENDBRANCH  27  51
BRANCH  39  62
ATOM     62  C   UNL     1       9.265  25.782   2.986  1.00  0.00     0.064 A 
ATOM     63  C   UNL     1       9.321  26.782   3.968  1.00  0.00     0.173 A 
ATOM     64  C   UNL     1       9.135  26.180   1.647  1.00  0.00     0.173 A 
ATOM     65  F   UNL     1       9.426  26.451   5.264  1.00  0.00    -0.203 F 
ATOM     66  C   UNL     1       9.225  28.128   3.624  1.00  0.00     0.198 A 
ATOM     67  C   UNL     1       9.067  27.527   1.304  1.00  0.00     0.198 A 
ATOM     68  F   UNL     1       9.080  25.261   0.671  1.00  0.00    -0.203 F 
ATOM     69  F   UNL     1       9.231  29.064   4.582  1.00  0.00    -0.200 F 
ATOM     70  C   UNL     1       9.104  28.499   2.293  1.00  0.00     0.200 A 
ATOM     71  F   UNL     1       8.961  27.884   0.017  1.00  0.00    -0.200 F 
ATOM     72  F   UNL     1       9.014  29.795   1.963  1.00  0.00    -0.200 F 
ENDBRANCH  39  62
ENDBRANCH  13  14
ENDBRANCH   6   8
ENDBRANCH   3   4
ENDBRANCH   2   3
ENDBRANCH   1   2
BRANCH   1  73
ATOM     73  C   UNL     1       8.649   8.459   2.827  1.00  0.00     0.002 C 
BRANCH  73  74
ATOM     74  C   UNL     1       8.336   8.892   1.389  1.00  0.00     0.021 C 
BRANCH  74  75
ATOM     75  C   UNL     1       9.377   8.496   0.344  1.00  0.00     0.116 C 
BRANCH  75  76
ATOM     76  N   UNL     1       9.609   7.065   0.310  1.00  0.00    -0.353 N 
ATOM     77  C   UNL     1       9.507   6.195  -0.749  1.00  0.00     0.265 C 
ATOM     78  H   UNL     1       9.878   6.660   1.166  1.00  0.00     0.163 HD
ATOM     79  O   UNL     1       9.821   5.022  -0.531  1.00  0.00    -0.271 OA
BRANCH  77  80
ATOM     80  C   UNL     1       9.049   6.744  -2.109  1.00  0.00     0.319 C 
ATOM     81  F   UNL     1       7.723   7.071  -2.112  1.00  0.00    -0.224 F 
BRANCH  80  82
ATOM     82  S   UNL     1       9.450   5.648  -3.495  1.00  0.00    -0.061 SA
BRANCH  82  83
ATOM     83  C   UNL     1       8.370   4.319  -3.273  1.00  0.00     0.076 A 
ATOM     84  C   UNL     1       7.006   4.224  -3.156  1.00  0.00     0.043 A 
ATOM     85  N   UNL     1       8.896   3.061  -3.228  1.00  0.00    -0.350 N 
ATOM     86  C   UNL     1       6.685   2.837  -3.075  1.00  0.00     0.001 A 
ATOM     87  C   UNL     1       7.888   2.130  -3.127  1.00  0.00     0.046 A 
ATOM     88  H   UNL     1       9.857   2.850  -3.262  1.00  0.00     0.167 HD
ATOM     89  C   UNL     1       5.481   2.113  -2.972  1.00  0.00     0.010 A 
ATOM     90  C   UNL     1       7.949   0.732  -3.082  1.00  0.00     0.027 A 
ATOM     91  C   UNL     1       5.524   0.714  -2.932  1.00  0.00     0.001 A 
ATOM     92  C   UNL     1       6.740   0.037  -2.987  1.00  0.00     0.002 A 
ENDBRANCH  82  83
ENDBRANCH  80  82
ENDBRANCH  77  80
ENDBRANCH  75  76
ENDBRANCH  74  75
ENDBRANCH  73  74
ENDBRANCH   1  73
TORSDOF 15
