REMARK SMILES C[C@@](NC(=O)CCOC1CC[NH2+]CC1)(C(=O)NCCCCCCNC(=O)c1ccc(-c2c3nc(c(-c4c(F)c(F)c(F)c(F)c4F)c4ccc([nH]4)c(-c4c(F)c(F)c(F)c(F)c4F)c4nc(c(-c5c(F)c(F)c(F)c(F)c5F)c5ccc2[nH]5)C=C4)C=C3)cc1)C(F)(F)F
REMARK SMILES IDX 19 1 18 2 17 3 15 4 16 5 2 7 1 8 3 9 4 10 5 12 6 13 7 14
REMARK SMILES IDX 8 15 9 16 10 17 14 18 11 19 13 20 12 21 90 24 91 25 92 26
REMARK SMILES IDX 93 27 20 28 21 29 22 30 23 31 24 32 25 33 26 35 27 36 28 37
REMARK SMILES IDX 89 38 29 39 88 40 30 41 31 42 32 43 82 44 33 45 87 46 81 47
REMARK SMILES IDX 83 48 34 49 86 50 80 51 79 52 35 54 67 55 47 56 66 57 48 58
REMARK SMILES IDX 51 59 65 60 84 61 49 62 50 63 64 65 85 66 52 67 36 68 37 69
REMARK SMILES IDX 45 70 38 71 39 72 43 73 46 74 40 75 41 76 44 77 42 78 68 79
REMARK SMILES IDX 69 80 77 81 70 82 71 83 75 84 78 85 72 86 73 87 76 88 74 89
REMARK SMILES IDX 53 90 54 91 62 92 55 93 56 94 60 95 63 96 57 97 58 98 61 99
REMARK SMILES IDX 59 100
REMARK H PARENT 17 6 3 11 12 22 12 23 24 34 83 53 51 64
REMARK Flexibility Score: inf
ROOT
ATOM      1  C   UNL     1      -2.796   1.879  -1.061  1.00  0.00     0.021 C 
ENDROOT
BRANCH   1   2
ATOM      2  C   UNL     1      -2.077   1.345   0.176  1.00  0.00     0.116 C 
BRANCH   2   3
ATOM      3  N   UNL     1      -2.859   0.434   1.002  1.00  0.00    -0.354 N 
ATOM      4  C   UNL     1      -2.505  -0.517   1.926  1.00  0.00     0.254 C 
ATOM      5  O   UNL     1      -3.366  -0.719   2.791  1.00  0.00    -0.272 OA
ATOM      6  H   UNL     1      -3.831   0.517   0.871  1.00  0.00     0.163 HD
BRANCH   4   7
ATOM      7  C   UNL     1      -1.123  -1.225   1.993  1.00  0.00     0.212 C 
ATOM      8  C   UNL     1      -0.425  -1.357   0.639  1.00  0.00     0.056 C 
BRANCH   7   9
ATOM      9  N   UNL     1      -0.172  -0.772   3.075  1.00  0.00    -0.334 N 
ATOM     10  C   UNL     1       0.263   0.405   3.575  1.00  0.00     0.223 C 
ATOM     11  H   UNL     1       0.239  -1.537   3.539  1.00  0.00     0.164 HD
ATOM     12  O   UNL     1       1.225   0.379   4.346  1.00  0.00    -0.275 OA
BRANCH  10  13
ATOM     13  C   UNL     1      -0.393   1.708   3.233  1.00  0.00     0.128 C 
BRANCH  13  14
ATOM     14  C   UNL     1       0.539   2.485   2.321  1.00  0.00     0.170 C 
BRANCH  14  15
ATOM     15  O   UNL     1       0.857   1.686   1.175  1.00  0.00    -0.377 OA
BRANCH  15  16
ATOM     16  C   UNL     1       2.175   1.922   0.659  1.00  0.00     0.129 C 
ATOM     17  C   UNL     1       2.041   2.524  -0.734  1.00  0.00     0.093 C 
ATOM     18  C   UNL     1       2.986   0.618   0.681  1.00  0.00     0.093 C 
ATOM     19  C   UNL     1       1.729   1.468  -1.784  1.00  0.00     0.263 C 
ATOM     20  C   UNL     1       2.847  -0.271  -0.557  1.00  0.00     0.263 C 
ATOM     21  N   UNL     1       2.796   0.472  -1.812  1.00  0.00    -0.346 N 
ATOM     22  H   UNL     1       3.688   0.943  -1.958  1.00  0.00     0.346 HD
ATOM     23  H   UNL     1       2.610  -0.183  -2.571  1.00  0.00     0.346 HD
ENDBRANCH  15  16
ENDBRANCH  14  15
ENDBRANCH  13  14
ENDBRANCH  10  13
ENDBRANCH   7   9
BRANCH   7  24
ATOM     24  C   UNL     1      -1.515  -2.694   2.368  1.00  0.00     0.420 C 
ATOM     25  F   UNL     1      -2.352  -3.260   1.472  1.00  0.00    -0.168 F 
ATOM     26  F   UNL     1      -0.389  -3.468   2.390  1.00  0.00    -0.168 F 
ATOM     27  F   UNL     1      -2.053  -2.813   3.601  1.00  0.00    -0.168 F 
ENDBRANCH   7  24
ENDBRANCH   4   7
ENDBRANCH   2   3
ENDBRANCH   1   2
BRANCH   1  28
ATOM     28  C   UNL     1      -4.087   2.663  -0.813  1.00  0.00     0.002 C 
BRANCH  28  29
ATOM     29  C   UNL     1      -4.023   3.791   0.220  1.00  0.00     0.002 C 
BRANCH  29  30
ATOM     30  C   UNL     1      -3.017   4.915  -0.044  1.00  0.00     0.021 C 
BRANCH  30  31
ATOM     31  C   UNL     1      -3.108   5.608  -1.403  1.00  0.00     0.116 C 
BRANCH  31  32
ATOM     32  N   UNL     1      -4.442   6.088  -1.720  1.00  0.00    -0.352 N 
ATOM     33  C   UNL     1      -4.869   7.303  -2.195  1.00  0.00     0.251 C 
ATOM     34  H   UNL     1      -5.160   5.433  -1.568  1.00  0.00     0.163 HD
ATOM     35  O   UNL     1      -6.072   7.518  -2.309  1.00  0.00    -0.269 OA
BRANCH  33  36
ATOM     36  C   UNL     1      -3.905   8.370  -2.550  1.00  0.00     0.039 A 
ATOM     37  C   UNL     1      -4.212   9.688  -2.189  1.00  0.00     0.014 A 
ATOM     38  C   UNL     1      -2.739   8.104  -3.271  1.00  0.00     0.014 A 
ATOM     39  C   UNL     1      -3.328  10.724  -2.499  1.00  0.00     0.010 A 
ATOM     40  C   UNL     1      -1.828   9.129  -3.527  1.00  0.00     0.010 A 
ATOM     41  C   UNL     1      -2.115  10.449  -3.147  1.00  0.00    -0.014 A 
BRANCH  41  42
ATOM     42  C   UNL     1      -1.140  11.530  -3.446  1.00  0.00     0.031 A 
ATOM     43  C   UNL     1      -0.839  11.900  -4.872  1.00  0.00     0.074 A 
ATOM     44  C   UNL     1      -0.481  12.134  -2.438  1.00  0.00     0.049 A 
ATOM     45  N   UNL     1       0.043  12.748  -5.340  1.00  0.00    -0.248 NA
ATOM     46  C   UNL     1      -1.615  11.207  -5.911  1.00  0.00     0.031 C 
ATOM     47  C   UNL     1      -0.659  11.839  -1.016  1.00  0.00     0.029 A 
ATOM     48  N   UNL     1       0.482  13.112  -2.457  1.00  0.00    -0.354 N 
ATOM     49  C   UNL     1      -0.059  12.673  -6.723  1.00  0.00     0.074 A 
ATOM     50  C   UNL     1      -1.058  11.669  -7.021  1.00  0.00     0.031 C 
ATOM     51  C   UNL     1       0.158  12.626  -0.298  1.00  0.00     0.029 A 
ATOM     52  C   UNL     1       0.942  13.456  -1.208  1.00  0.00     0.049 A 
ATOM     53  H   UNL     1       0.812  13.527  -3.286  1.00  0.00     0.167 HD
ATOM     54  C   UNL     1       0.607  13.392  -7.659  1.00  0.00     0.037 A 
ATOM     55  C   UNL     1       1.895  14.334  -0.842  1.00  0.00     0.037 A 
ATOM     56  C   UNL     1       1.574  14.415  -7.359  1.00  0.00     0.049 A 
ATOM     57  C   UNL     1       2.614  15.124  -1.902  1.00  0.00     0.074 A 
ATOM     58  C   UNL     1       2.261  15.237  -8.236  1.00  0.00     0.029 A 
ATOM     59  N   UNL     1       1.989  14.757  -6.081  1.00  0.00    -0.354 N 
ATOM     60  N   UNL     1       2.469  15.085  -3.204  1.00  0.00    -0.248 NA
ATOM     61  C   UNL     1       3.625  16.086  -1.441  1.00  0.00     0.031 C 
ATOM     62  C   UNL     1       3.119  16.052  -7.490  1.00  0.00     0.029 A 
ATOM     63  C   UNL     1       2.934  15.768  -6.146  1.00  0.00     0.049 A 
ATOM     64  H   UNL     1       1.661  14.342  -5.250  1.00  0.00     0.167 HD
ATOM     65  C   UNL     1       3.342  16.035  -3.715  1.00  0.00     0.074 A 
ATOM     66  C   UNL     1       4.008  16.643  -2.582  1.00  0.00     0.031 C 
ATOM     67  C   UNL     1       3.572  16.374  -5.006  1.00  0.00     0.037 A 
BRANCH  54  68
ATOM     68  C   UNL     1       0.309  13.102  -9.101  1.00  0.00     0.064 A 
ATOM     69  C   UNL     1      -0.912  13.467  -9.688  1.00  0.00     0.173 A 
ATOM     70  C   UNL     1       1.272  12.491  -9.919  1.00  0.00     0.173 A 
ATOM     71  F   UNL     1      -1.871  14.043  -8.947  1.00  0.00    -0.203 F 
ATOM     72  C   UNL     1      -1.168  13.208 -11.032  1.00  0.00     0.198 A 
ATOM     73  C   UNL     1       1.024  12.259 -11.269  1.00  0.00     0.198 A 
ATOM     74  F   UNL     1       2.459  12.127  -9.410  1.00  0.00    -0.203 F 
ATOM     75  F   UNL     1      -2.359  13.525 -11.559  1.00  0.00    -0.200 F 
ATOM     76  C   UNL     1      -0.198  12.611 -11.823  1.00  0.00     0.200 A 
ATOM     77  F   UNL     1       1.967  11.694 -12.035  1.00  0.00    -0.200 F 
ATOM     78  F   UNL     1      -0.443  12.370 -13.118  1.00  0.00    -0.200 F 
ENDBRANCH  54  68
BRANCH  55  79
ATOM     79  C   UNL     1       2.212  14.530   0.597  1.00  0.00     0.064 A 
ATOM     80  C   UNL     1       1.875  15.724   1.250  1.00  0.00     0.173 A 
ATOM     81  C   UNL     1       2.865  13.539   1.343  1.00  0.00     0.173 A 
ATOM     82  F   UNL     1       1.270  16.710   0.572  1.00  0.00    -0.203 F 
ATOM     83  C   UNL     1       2.200  15.928   2.590  1.00  0.00     0.198 A 
ATOM     84  C   UNL     1       3.164  13.733   2.691  1.00  0.00     0.198 A 
ATOM     85  F   UNL     1       3.204  12.377   0.766  1.00  0.00    -0.203 F 
ATOM     86  F   UNL     1       1.909  17.097   3.176  1.00  0.00    -0.200 F 
ATOM     87  C   UNL     1       2.839  14.931   3.310  1.00  0.00     0.200 A 
ATOM     88  F   UNL     1       3.770  12.762   3.387  1.00  0.00    -0.200 F 
ATOM     89  F   UNL     1       3.149  15.126   4.599  1.00  0.00    -0.200 F 
ENDBRANCH  55  79
BRANCH  67  90
ATOM     90  C   UNL     1       4.552  17.481  -5.264  1.00  0.00     0.064 A 
ATOM     91  C   UNL     1       5.932  17.294  -5.106  1.00  0.00     0.173 A 
ATOM     92  C   UNL     1       4.103  18.730  -5.720  1.00  0.00     0.173 A 
ATOM     93  F   UNL     1       6.408  16.122  -4.658  1.00  0.00    -0.203 F 
ATOM     94  C   UNL     1       6.828  18.326  -5.375  1.00  0.00     0.198 A 
ATOM     95  C   UNL     1       5.003  19.750  -6.014  1.00  0.00     0.198 A 
ATOM     96  F   UNL     1       2.792  18.956  -5.893  1.00  0.00    -0.203 F 
ATOM     97  F   UNL     1       8.140  18.139  -5.177  1.00  0.00    -0.200 F 
ATOM     98  C   UNL     1       6.364  19.549  -5.835  1.00  0.00     0.200 A 
ATOM     99  F   UNL     1       4.554  20.927  -6.471  1.00  0.00    -0.200 F 
ATOM    100  F   UNL     1       7.228  20.538  -6.101  1.00  0.00    -0.200 F 
ENDBRANCH  67  90
ENDBRANCH  41  42
ENDBRANCH  33  36
ENDBRANCH  31  32
ENDBRANCH  30  31
ENDBRANCH  29  30
ENDBRANCH  28  29
ENDBRANCH   1  28
TORSDOF 19
