REMARK SMILES O=C(NCCCCCCNC(=O)[C@@H]1CCCC[C@H]1C(=O)Nc1cccc(-c2nnc(-c3ccccc3)o2)c1)c1ccc(-c2c3nc(c(-c4c(F)c(F)c(F)c(F)c4F)c4ccc([nH]4)c(-c4c(F)c(F)c(F)c(F)c4F)c4nc(c(-c5c(F)c(F)c(F)c(F)c5F)c5ccc2[nH]5)C=C4)C=C3)cc1
REMARK SMILES IDX 7 1 6 2 5 3 4 4 3 5 1 6 2 7 39 9 40 10 101 11 41 12 100 13
REMARK SMILES IDX 42 14 43 15 44 16 94 17 45 18 99 19 93 20 95 21 46 22 98 23
REMARK SMILES IDX 92 24 91 25 47 27 79 28 59 29 78 30 60 31 63 32 77 33 96 34
REMARK SMILES IDX 61 35 62 36 76 38 97 39 64 40 48 41 49 42 57 43 50 44 51 45
REMARK SMILES IDX 55 46 58 47 52 48 53 49 56 50 54 51 80 52 81 53 89 54 82 55
REMARK SMILES IDX 83 56 87 57 90 58 84 59 85 60 88 61 86 62 65 63 66 64 74 65
REMARK SMILES IDX 67 66 68 67 72 68 75 69 69 70 70 71 73 72 71 73 8 74 9 75
REMARK SMILES IDX 10 76 11 77 12 79 13 80 14 81 18 82 15 83 17 84 16 85 19 86
REMARK SMILES IDX 20 87 21 88 22 90 23 91 38 92 24 93 26 94 25 95 27 96 28 97
REMARK SMILES IDX 37 98 29 99 30 100 31 101 32 102 36 103 33 104 35 105 34 106
REMARK H PARENT 3 8 95 26 63 37 10 78 21 89
REMARK Flexibility Score: inf
ROOT
ATOM      1  C   UNL     1       4.387  -3.320  -2.735  1.00  0.00     0.002 C 
ENDROOT
BRANCH   1   2
ATOM      2  C   UNL     1       3.751  -3.461  -1.348  1.00  0.00     0.002 C 
BRANCH   2   3
ATOM      3  C   UNL     1       4.324  -2.523  -0.287  1.00  0.00     0.021 C 
BRANCH   3   4
ATOM      4  C   UNL     1       4.235  -1.048  -0.654  1.00  0.00     0.116 C 
BRANCH   4   5
ATOM      5  N   UNL     1       2.855  -0.602  -0.778  1.00  0.00    -0.352 N 
ATOM      6  O   UNL     1       0.942   0.393  -0.108  1.00  0.00    -0.269 OA
ATOM      7  C   UNL     1       2.156   0.299  -0.011  1.00  0.00     0.251 C 
ATOM      8  H   UNL     1       2.349  -1.004  -1.520  1.00  0.00     0.163 HD
BRANCH   7   9
ATOM      9  C   UNL     1       2.892   1.145   0.952  1.00  0.00     0.039 A 
ATOM     10  C   UNL     1       4.093   1.749   0.579  1.00  0.00     0.014 A 
ATOM     11  C   UNL     1       2.385   1.319   2.241  1.00  0.00     0.014 A 
ATOM     12  C   UNL     1       4.873   2.373   1.541  1.00  0.00     0.010 A 
ATOM     13  C   UNL     1       3.122   2.046   3.180  1.00  0.00     0.010 A 
ATOM     14  C   UNL     1       4.393   2.542   2.849  1.00  0.00    -0.014 A 
BRANCH  14  15
ATOM     15  C   UNL     1       5.230   3.275   3.833  1.00  0.00     0.031 A 
ATOM     16  C   UNL     1       5.745   2.600   5.074  1.00  0.00     0.074 A 
ATOM     17  C   UNL     1       5.561   4.554   3.570  1.00  0.00     0.049 A 
ATOM     18  N   UNL     1       6.521   3.082   6.013  1.00  0.00    -0.248 NA
ATOM     19  C   UNL     1       5.330   1.208   5.299  1.00  0.00     0.031 C 
ATOM     20  C   UNL     1       5.112   5.315   2.401  1.00  0.00     0.029 A 
ATOM     21  N   UNL     1       6.369   5.432   4.245  1.00  0.00    -0.354 N 
ATOM     22  C   UNL     1       6.665   2.066   6.949  1.00  0.00     0.074 A 
ATOM     23  C   UNL     1       5.874   0.949   6.481  1.00  0.00     0.031 C 
ATOM     24  C   UNL     1       5.696   6.521   2.409  1.00  0.00     0.029 A 
ATOM     25  C   UNL     1       6.502   6.646   3.618  1.00  0.00     0.049 A 
ATOM     26  H   UNL     1       6.810   5.213   5.098  1.00  0.00     0.167 HD
ATOM     27  C   UNL     1       7.399   2.065   8.089  1.00  0.00     0.037 A 
ATOM     28  C   UNL     1       7.186   7.745   3.981  1.00  0.00     0.037 A 
ATOM     29  C   UNL     1       8.199   3.178   8.537  1.00  0.00     0.049 A 
ATOM     30  C   UNL     1       7.972   7.721   5.261  1.00  0.00     0.074 A 
ATOM     31  C   UNL     1       9.011   3.263   9.655  1.00  0.00     0.029 A 
ATOM     32  N   UNL     1       8.284   4.404   7.891  1.00  0.00    -0.354 N 
ATOM     33  N   UNL     1       8.134   6.740   6.114  1.00  0.00    -0.248 NA
ATOM     34  C   UNL     1       8.672   8.958   5.625  1.00  0.00     0.031 C 
ATOM     35  C   UNL     1       9.537   4.557   9.719  1.00  0.00     0.029 A 
ATOM     36  C   UNL     1       9.112   5.259   8.602  1.00  0.00     0.049 A 
ATOM     37  H   UNL     1       7.824   4.632   7.051  1.00  0.00     0.167 HD
ATOM     38  C   UNL     1       8.979   7.229   7.100  1.00  0.00     0.074 A 
ATOM     39  C   UNL     1       9.309   8.590   6.727  1.00  0.00     0.031 C 
ATOM     40  C   UNL     1       9.440   6.608   8.213  1.00  0.00     0.037 A 
BRANCH  27  41
ATOM     41  C   UNL     1       7.351   0.835   8.952  1.00  0.00     0.064 A 
ATOM     42  C   UNL     1       7.936  -0.377   8.554  1.00  0.00     0.173 A 
ATOM     43  C   UNL     1       6.746   0.882  10.218  1.00  0.00     0.173 A 
ATOM     44  F   UNL     1       8.520  -0.482   7.350  1.00  0.00    -0.203 F 
ATOM     45  C   UNL     1       7.890  -1.501   9.376  1.00  0.00     0.198 A 
ATOM     46  C   UNL     1       6.731  -0.234  11.052  1.00  0.00     0.198 A 
ATOM     47  F   UNL     1       6.178   2.016  10.655  1.00  0.00    -0.203 F 
ATOM     48  F   UNL     1       8.412  -2.661   8.952  1.00  0.00    -0.200 F 
ATOM     49  C   UNL     1       7.295  -1.427  10.627  1.00  0.00     0.200 A 
ATOM     50  F   UNL     1       6.170  -0.154  12.266  1.00  0.00    -0.200 F 
ATOM     51  F   UNL     1       7.260  -2.506  11.420  1.00  0.00    -0.200 F 
ENDBRANCH  27  41
BRANCH  28  52
ATOM     52  C   UNL     1       7.161   8.954   3.116  1.00  0.00     0.064 A 
ATOM     53  C   UNL     1       8.317   9.393   2.457  1.00  0.00     0.173 A 
ATOM     54  C   UNL     1       5.983   9.693   2.931  1.00  0.00     0.173 A 
ATOM     55  F   UNL     1       9.472   8.729   2.615  1.00  0.00    -0.203 F 
ATOM     56  C   UNL     1       8.301  10.539   1.665  1.00  0.00     0.198 A 
ATOM     57  C   UNL     1       5.960  10.818   2.111  1.00  0.00     0.198 A 
ATOM     58  F   UNL     1       4.848   9.310   3.534  1.00  0.00    -0.203 F 
ATOM     59  F   UNL     1       9.432  10.966   1.087  1.00  0.00    -0.200 F 
ATOM     60  C   UNL     1       7.122  11.247   1.487  1.00  0.00     0.200 A 
ATOM     61  F   UNL     1       4.814  11.486   1.927  1.00  0.00    -0.200 F 
ATOM     62  F   UNL     1       7.106  12.346   0.721  1.00  0.00    -0.200 F 
ENDBRANCH  28  52
BRANCH  40  63
ATOM     63  C   UNL     1      10.398   7.378   9.077  1.00  0.00     0.064 A 
ATOM     64  C   UNL     1       9.992   8.490   9.829  1.00  0.00     0.173 A 
ATOM     65  C   UNL     1      11.743   6.986   9.160  1.00  0.00     0.173 A 
ATOM     66  F   UNL     1       8.721   8.916   9.773  1.00  0.00    -0.203 F 
ATOM     67  C   UNL     1      10.905   9.205  10.600  1.00  0.00     0.198 A 
ATOM     68  C   UNL     1      12.645   7.681   9.961  1.00  0.00     0.198 A 
ATOM     69  F   UNL     1      12.184   5.925   8.467  1.00  0.00    -0.203 F 
ATOM     70  F   UNL     1      10.509  10.304  11.257  1.00  0.00    -0.200 F 
ATOM     71  C   UNL     1      12.229   8.796  10.671  1.00  0.00     0.200 A 
ATOM     72  F   UNL     1      13.920   7.274  10.040  1.00  0.00    -0.200 F 
ATOM     73  F   UNL     1      13.105   9.485  11.414  1.00  0.00    -0.200 F 
ENDBRANCH  40  63
ENDBRANCH  14  15
ENDBRANCH   7   9
ENDBRANCH   4   5
ENDBRANCH   3   4
ENDBRANCH   2   3
ENDBRANCH   1   2
BRANCH   1  74
ATOM     74  C   UNL     1       5.919  -3.350  -2.747  1.00  0.00     0.021 C 
BRANCH  74  75
ATOM     75  C   UNL     1       6.515  -4.636  -2.173  1.00  0.00     0.116 C 
BRANCH  75  76
ATOM     76  N   UNL     1       6.551  -5.660  -3.192  1.00  0.00    -0.356 N 
ATOM     77  C   UNL     1       7.575  -6.201  -3.888  1.00  0.00     0.223 C 
ATOM     78  H   UNL     1       5.668  -6.030  -3.421  1.00  0.00     0.163 HD
ATOM     79  O   UNL     1       7.274  -6.937  -4.835  1.00  0.00    -0.275 OA
BRANCH  77  80
ATOM     80  C   UNL     1       9.040  -6.032  -3.509  1.00  0.00     0.091 C 
ATOM     81  C   UNL     1       9.412  -6.912  -2.311  1.00  0.00     0.014 C 
ATOM     82  C   UNL     1       9.622  -4.617  -3.419  1.00  0.00     0.091 C 
ATOM     83  C   UNL     1      10.931  -6.944  -2.138  1.00  0.00     0.001 C 
ATOM     84  C   UNL     1      11.136  -4.630  -3.140  1.00  0.00     0.014 C 
ATOM     85  C   UNL     1      11.488  -5.535  -1.955  1.00  0.00     0.001 C 
BRANCH  82  86
ATOM     86  C   UNL     1       9.215  -3.618  -4.516  1.00  0.00     0.228 C 
ATOM     87  O   UNL     1       8.569  -2.613  -4.186  1.00  0.00    -0.274 OA
ATOM     88  N   UNL     1       9.611  -3.675  -5.824  1.00  0.00    -0.326 N 
ATOM     89  H   UNL     1       9.203  -3.008  -6.423  1.00  0.00     0.169 HD
BRANCH  88  90
ATOM     90  C   UNL     1      10.516  -4.553  -6.421  1.00  0.00     0.041 A 
ATOM     91  C   UNL     1      11.733  -4.040  -6.866  1.00  0.00     0.026 A 
ATOM     92  C   UNL     1      10.269  -5.920  -6.489  1.00  0.00     0.040 A 
ATOM     93  C   UNL     1      12.764  -4.915  -7.202  1.00  0.00     0.003 A 
ATOM     94  C   UNL     1      11.326  -6.808  -6.705  1.00  0.00     0.041 A 
ATOM     95  C   UNL     1      12.576  -6.293  -7.069  1.00  0.00     0.014 A 
BRANCH  94  96
ATOM     96  C   UNL     1      11.200  -8.199  -6.302  1.00  0.00     0.248 A 
ATOM     97  N   UNL     1      11.957  -8.861  -5.450  1.00  0.00    -0.107 NA
ATOM     98  O   UNL     1      10.107  -8.915  -6.717  1.00  0.00    -0.416 OA
ATOM     99  N   UNL     1      11.337 -10.069  -5.235  1.00  0.00    -0.107 NA
ATOM    100  C   UNL     1      10.273 -10.084  -6.012  1.00  0.00     0.248 A 
BRANCH 100 101
ATOM    101  C   UNL     1       9.327 -11.162  -6.235  1.00  0.00     0.039 A 
ATOM    102  C   UNL     1       8.842 -11.909  -5.151  1.00  0.00     0.014 A 
ATOM    103  C   UNL     1       8.970 -11.545  -7.535  1.00  0.00     0.014 A 
ATOM    104  C   UNL     1       8.025 -13.022  -5.362  1.00  0.00     0.001 A 
ATOM    105  C   UNL     1       8.168 -12.669  -7.746  1.00  0.00     0.001 A 
ATOM    106  C   UNL     1       7.699 -13.408  -6.661  1.00  0.00     0.000 A 
ENDBRANCH 100 101
ENDBRANCH  94  96
ENDBRANCH  88  90
ENDBRANCH  82  86
ENDBRANCH  77  80
ENDBRANCH  75  76
ENDBRANCH  74  75
ENDBRANCH   1  74
TORSDOF 17
