REMARK SMILES COc1ccc(C[N@@H+](CC(=O)NCCCCCCNC(=O)c2ccc(-c3c4nc(c(-c5c(F)c(F)c(F)c(F)c5F)c5ccc([nH]5)c(-c5c(F)c(F)c(F)c(F)c5F)c5nc(c(-c6c(F)c(F)c(F)c(F)c6F)c6ccc3[nH]6)C=C5)C=C4)cc2)C(C)(C)C)cc1C#N
REMARK SMILES IDX 14 1 13 2 12 3 10 4 11 5 9 7 8 8 7 10 6 11 3 12 4 13 90 14
REMARK SMILES IDX 5 15 89 16 2 17 1 18 91 19 92 20 85 21 86 22 87 23 88 24
REMARK SMILES IDX 15 25 16 26 17 27 18 28 19 29 20 30 21 32 22 33 23 34 84 35
REMARK SMILES IDX 24 36 83 37 25 38 26 39 27 40 77 41 28 42 82 43 76 44 78 45
REMARK SMILES IDX 29 46 81 47 75 48 74 49 30 51 62 52 42 53 61 54 43 55 46 56
REMARK SMILES IDX 60 57 79 58 44 59 45 60 59 62 80 63 47 64 31 65 32 66 40 67
REMARK SMILES IDX 33 68 34 69 38 70 41 71 35 72 36 73 39 74 37 75 63 76 64 77
REMARK SMILES IDX 72 78 65 79 66 80 70 81 73 82 67 83 68 84 71 85 69 86 48 87
REMARK SMILES IDX 49 88 57 89 50 90 51 91 55 92 58 93 52 94 53 95 56 96 54 97
REMARK H PARENT 12 6 8 9 19 31 78 50 46 61
REMARK Flexibility Score: inf
ROOT
ATOM      1  C   UNL     1       4.126  -0.640   6.503  1.00  0.00     0.021 C 
ENDROOT
BRANCH   1   2
ATOM      2  C   UNL     1       3.485  -0.489   7.891  1.00  0.00     0.116 C 
BRANCH   2   3
ATOM      3  N   UNL     1       3.882   0.758   8.514  1.00  0.00    -0.351 N 
ATOM      4  C   UNL     1       3.235   1.945   8.698  1.00  0.00     0.275 C 
ATOM      5  O   UNL     1       3.858   2.803   9.337  1.00  0.00    -0.269 OA
ATOM      6  H   UNL     1       4.798   0.746   8.875  1.00  0.00     0.163 HD
BRANCH   4   7
ATOM      7  C   UNL     1       1.792   2.225   8.230  1.00  0.00     0.364 C 
BRANCH   7   8
ATOM      8  N   UNL     1       1.558   2.546   6.779  1.00  0.00    -0.319 N 
ATOM      9  H   UNL     1       0.677   3.040   6.638  1.00  0.00     0.349 HD
BRANCH   8  10
ATOM     10  C   UNL     1       1.375   1.289   6.055  1.00  0.00     0.299 C 
BRANCH  10  11
ATOM     11  C   UNL     1       1.067   1.214   4.586  1.00  0.00     0.008 A 
ATOM     12  C   UNL     1       0.596   1.004   1.814  1.00  0.00     0.136 A 
ATOM     13  C   UNL     1      -0.441   1.329   2.704  1.00  0.00     0.048 A 
ATOM     14  C   UNL     1       1.879   0.771   2.313  1.00  0.00     0.094 A 
ATOM     15  C   UNL     1      -0.214   1.423   4.080  1.00  0.00     0.013 A 
ATOM     16  C   UNL     1       2.095   0.860   3.693  1.00  0.00     0.033 A 
BRANCH  12  17
ATOM     17  O   UNL     1       0.244   1.062   0.492  1.00  0.00    -0.495 OA
ATOM     18  C   UNL     1       0.652  -0.043  -0.308  1.00  0.00     0.278 C 
ENDBRANCH  12  17
BRANCH  14  19
ATOM     19  C   UNL     1       3.026   0.483   1.504  1.00  0.00     0.103 C 
ATOM     20  N   UNL     1       3.979   0.210   0.904  1.00  0.00    -0.192 NA
ENDBRANCH  14  19
ENDBRANCH  10  11
ENDBRANCH   8  10
BRANCH   8  21
ATOM     21  C   UNL     1       2.336   3.684   6.209  1.00  0.00     0.090 C 
ATOM     22  C   UNL     1       3.861   3.468   6.128  1.00  0.00     0.078 C 
ATOM     23  C   UNL     1       1.879   4.078   4.781  1.00  0.00     0.078 C 
ATOM     24  C   UNL     1       2.067   4.955   7.057  1.00  0.00     0.078 C 
ENDBRANCH   8  21
ENDBRANCH   7   8
ENDBRANCH   4   7
ENDBRANCH   2   3
ENDBRANCH   1   2
BRANCH   1  25
ATOM     25  C   UNL     1       5.499  -1.299   6.465  1.00  0.00     0.002 C 
BRANCH  25  26
ATOM     26  C   UNL     1       5.510  -2.755   6.925  1.00  0.00     0.002 C 
BRANCH  26  27
ATOM     27  C   UNL     1       4.507  -3.662   6.205  1.00  0.00     0.021 C 
BRANCH  27  28
ATOM     28  C   UNL     1       4.667  -3.694   4.688  1.00  0.00     0.116 C 
BRANCH  28  29
ATOM     29  N   UNL     1       5.984  -4.179   4.303  1.00  0.00    -0.352 N 
ATOM     30  C   UNL     1       6.326  -5.363   3.702  1.00  0.00     0.251 C 
ATOM     31  H   UNL     1       6.733  -3.572   4.501  1.00  0.00     0.163 HD
ATOM     32  O   UNL     1       7.486  -5.760   3.719  1.00  0.00    -0.269 OA
BRANCH  30  33
ATOM     33  C   UNL     1       5.279  -6.162   3.038  1.00  0.00     0.039 A 
ATOM     34  C   UNL     1       5.239  -7.543   3.239  1.00  0.00     0.014 A 
ATOM     35  C   UNL     1       4.337  -5.538   2.215  1.00  0.00     0.014 A 
ATOM     36  C   UNL     1       4.215  -8.292   2.656  1.00  0.00     0.010 A 
ATOM     37  C   UNL     1       3.270  -6.271   1.710  1.00  0.00     0.010 A 
ATOM     38  C   UNL     1       3.204  -7.657   1.916  1.00  0.00    -0.014 A 
BRANCH  38  39
ATOM     39  C   UNL     1       2.075  -8.424   1.331  1.00  0.00     0.031 A 
ATOM     40  C   UNL     1       1.881  -8.448  -0.161  1.00  0.00     0.074 A 
ATOM     41  C   UNL     1       1.194  -9.043   2.141  1.00  0.00     0.049 A 
ATOM     42  N   UNL     1       0.910  -8.979  -0.861  1.00  0.00    -0.248 NA
ATOM     43  C   UNL     1       2.897  -7.760  -0.974  1.00  0.00     0.031 C 
ATOM     44  C   UNL     1       1.258  -9.064   3.603  1.00  0.00     0.029 A 
ATOM     45  N   UNL     1       0.063  -9.765   1.849  1.00  0.00    -0.354 N 
ATOM     46  C   UNL     1       1.193  -8.678  -2.187  1.00  0.00     0.074 A 
ATOM     47  C   UNL     1       2.391  -7.869  -2.193  1.00  0.00     0.031 C 
ATOM     48  C   UNL     1       0.227  -9.779   4.079  1.00  0.00     0.029 A 
ATOM     49  C   UNL     1      -0.602 -10.222   2.962  1.00  0.00     0.049 A 
ATOM     50  H   UNL     1      -0.243  -9.940   0.930  1.00  0.00     0.167 HD
ATOM     51  C   UNL     1       0.525  -9.063  -3.299  1.00  0.00     0.037 A 
ATOM     52  C   UNL     1      -1.760 -10.902   3.069  1.00  0.00     0.037 A 
ATOM     53  C   UNL     1      -0.657  -9.884  -3.286  1.00  0.00     0.049 A 
ATOM     54  C   UNL     1      -2.503 -11.281   1.813  1.00  0.00     0.074 A 
ATOM     55  C   UNL     1      -1.377 -10.372  -4.362  1.00  0.00     0.029 A 
ATOM     56  N   UNL     1      -1.296 -10.331  -2.139  1.00  0.00    -0.354 N 
ATOM     57  N   UNL     1      -2.189 -11.048   0.562  1.00  0.00    -0.248 NA
ATOM     58  C   UNL     1      -3.759 -12.024   1.985  1.00  0.00     0.031 C 
ATOM     59  C   UNL     1      -2.493 -11.050  -3.868  1.00  0.00     0.029 A 
ATOM     60  C   UNL     1      -2.423 -11.061  -2.484  1.00  0.00     0.049 A 
ATOM     61  H   UNL     1      -0.995 -10.157  -1.219  1.00  0.00     0.167 HD
ATOM     62  C   UNL     1      -3.182 -11.651  -0.200  1.00  0.00     0.074 A 
ATOM     63  C   UNL     1      -4.102 -12.270   0.729  1.00  0.00     0.031 C 
ATOM     64  C   UNL     1      -3.318 -11.691  -1.548  1.00  0.00     0.037 A 
BRANCH  51  65
ATOM     65  C   UNL     1       1.045  -8.599  -4.629  1.00  0.00     0.064 A 
ATOM     66  C   UNL     1       2.257  -9.071  -5.156  1.00  0.00     0.173 A 
ATOM     67  C   UNL     1       0.287  -7.720  -5.419  1.00  0.00     0.173 A 
ATOM     68  F   UNL     1       3.026  -9.905  -4.439  1.00  0.00    -0.203 F 
ATOM     69  C   UNL     1       2.701  -8.664  -6.411  1.00  0.00     0.198 A 
ATOM     70  C   UNL     1       0.716  -7.345  -6.689  1.00  0.00     0.198 A 
ATOM     71  F   UNL     1      -0.882  -7.242  -4.967  1.00  0.00    -0.203 F 
ATOM     72  F   UNL     1       3.883  -9.094  -6.874  1.00  0.00    -0.200 F 
ATOM     73  C   UNL     1       1.924  -7.811  -7.181  1.00  0.00     0.200 A 
ATOM     74  F   UNL     1      -0.046  -6.536  -7.439  1.00  0.00    -0.200 F 
ATOM     75  F   UNL     1       2.343  -7.436  -8.398  1.00  0.00    -0.200 F 
ENDBRANCH  51  65
BRANCH  52  76
ATOM     76  C   UNL     1      -2.301 -11.265   4.408  1.00  0.00     0.064 A 
ATOM     77  C   UNL     1      -2.432 -12.606   4.797  1.00  0.00     0.173 A 
ATOM     78  C   UNL     1      -2.742 -10.283   5.308  1.00  0.00     0.173 A 
ATOM     79  F   UNL     1      -2.041 -13.585   3.968  1.00  0.00    -0.203 F 
ATOM     80  C   UNL     1      -3.022 -12.951   6.012  1.00  0.00     0.198 A 
ATOM     81  C   UNL     1      -3.294 -10.628   6.539  1.00  0.00     0.198 A 
ATOM     82  F   UNL     1      -2.634  -8.984   4.992  1.00  0.00    -0.203 F 
ATOM     83  F   UNL     1      -3.203 -14.242   6.323  1.00  0.00    -0.200 F 
ATOM     84  C   UNL     1      -3.450 -11.961   6.883  1.00  0.00     0.200 A 
ATOM     85  F   UNL     1      -3.687  -9.667   7.387  1.00  0.00    -0.200 F 
ATOM     86  F   UNL     1      -4.024 -12.293   8.048  1.00  0.00    -0.200 F 
ENDBRANCH  52  76
BRANCH  64  87
ATOM     87  C   UNL     1      -4.464 -12.484  -2.111  1.00  0.00     0.064 A 
ATOM     88  C   UNL     1      -5.797 -12.068  -1.974  1.00  0.00     0.173 A 
ATOM     89  C   UNL     1      -4.215 -13.651  -2.850  1.00  0.00     0.173 A 
ATOM     90  F   UNL     1      -6.092 -10.966  -1.267  1.00  0.00    -0.203 F 
ATOM     91  C   UNL     1      -6.837 -12.806  -2.532  1.00  0.00     0.198 A 
ATOM     92  C   UNL     1      -5.254 -14.364  -3.440  1.00  0.00     0.198 A 
ATOM     93  F   UNL     1      -2.958 -14.089  -3.020  1.00  0.00    -0.203 F 
ATOM     94  F   UNL     1      -8.107 -12.419  -2.342  1.00  0.00    -0.200 F 
ATOM     95  C   UNL     1      -6.565 -13.947  -3.273  1.00  0.00     0.200 A 
ATOM     96  F   UNL     1      -4.985 -15.452  -4.175  1.00  0.00    -0.200 F 
ATOM     97  F   UNL     1      -7.567 -14.646  -3.823  1.00  0.00    -0.200 F 
ENDBRANCH  64  87
ENDBRANCH  38  39
ENDBRANCH  30  33
ENDBRANCH  28  29
ENDBRANCH  27  28
ENDBRANCH  26  27
ENDBRANCH  25  26
ENDBRANCH   1  25
TORSDOF 19
