REMARK SMILES O=C(NCCCCCCNC(=O)c1cccn(Cc2ccc3c(c2)OC(F)(F)O3)c1=O)c1ccc(-c2c3nc(c(-c4c(F)c(F)c(F)c(F)c4F)c4ccc([nH]4)c(-c4c(F)c(F)c(F)c(F)c4F)c4nc(c(-c5c(F)c(F)c(F)c(F)c5F)c5ccc2[nH]5)C=C4)C=C3)cc1
REMARK SMILES IDX 6 1 5 2 4 3 3 4 1 5 2 6 32 8 33 9 94 10 34 11 93 12 35 13
REMARK SMILES IDX 36 14 37 15 87 16 38 17 92 18 86 19 88 20 39 21 91 22 85 23
REMARK SMILES IDX 84 24 40 26 72 27 52 28 71 29 53 30 56 31 70 32 89 33 54 34
REMARK SMILES IDX 55 35 69 37 90 38 57 39 41 40 42 41 50 42 43 43 44 44 48 45
REMARK SMILES IDX 51 46 45 47 46 48 49 49 47 50 73 51 74 52 82 53 75 54 76 55
REMARK SMILES IDX 80 56 83 57 77 58 78 59 81 60 79 61 58 62 59 63 67 64 60 65
REMARK SMILES IDX 61 66 65 67 68 68 62 69 63 70 66 71 64 72 7 73 8 74 9 75
REMARK SMILES IDX 10 76 11 77 12 79 13 80 14 81 30 82 15 83 17 84 31 85 16 86
REMARK SMILES IDX 18 87 19 88 20 89 24 90 21 91 23 92 22 93 25 94 29 95 26 96
REMARK SMILES IDX 27 97 28 98
REMARK H PARENT 3 7 88 25 56 36 10 78
REMARK Flexibility Score: inf
ROOT
ATOM      1  C   UNL     1       4.221   1.192   3.565  1.00  0.00     0.002 C 
ENDROOT
BRANCH   1   2
ATOM      2  C   UNL     1       4.732   1.402   2.138  1.00  0.00     0.021 C 
BRANCH   2   3
ATOM      3  C   UNL     1       4.473   0.241   1.184  1.00  0.00     0.116 C 
BRANCH   3   4
ATOM      4  N   UNL     1       3.057  -0.031   1.021  1.00  0.00    -0.352 N 
ATOM      5  O   UNL     1       1.086  -0.185  -0.053  1.00  0.00    -0.269 OA
ATOM      6  C   UNL     1       2.310  -0.132  -0.124  1.00  0.00     0.251 C 
ATOM      7  H   UNL     1       2.557  -0.162   1.859  1.00  0.00     0.163 HD
BRANCH   6   8
ATOM      8  C   UNL     1       2.967  -0.175  -1.449  1.00  0.00     0.039 A 
ATOM      9  C   UNL     1       2.376   0.513  -2.512  1.00  0.00     0.014 A 
ATOM     10  C   UNL     1       4.115  -0.943  -1.667  1.00  0.00     0.014 A 
ATOM     11  C   UNL     1       2.940   0.444  -3.787  1.00  0.00     0.010 A 
ATOM     12  C   UNL     1       4.718  -0.953  -2.922  1.00  0.00     0.010 A 
ATOM     13  C   UNL     1       4.119  -0.286  -4.001  1.00  0.00    -0.014 A 
BRANCH  13  14
ATOM     14  C   UNL     1       4.689  -0.442  -5.363  1.00  0.00     0.031 A 
ATOM     15  C   UNL     1       4.702  -1.801  -6.009  1.00  0.00     0.074 A 
ATOM     16  C   UNL     1       5.210   0.618  -6.008  1.00  0.00     0.049 A 
ATOM     17  N   UNL     1       5.222  -2.173  -7.151  1.00  0.00    -0.248 NA
ATOM     18  C   UNL     1       4.063  -2.895  -5.258  1.00  0.00     0.031 C 
ATOM     19  C   UNL     1       5.261   1.983  -5.487  1.00  0.00     0.029 A 
ATOM     20  N   UNL     1       5.796   0.710  -7.246  1.00  0.00    -0.354 N 
ATOM     21  C   UNL     1       4.985  -3.538  -7.246  1.00  0.00     0.074 A 
ATOM     22  C   UNL     1       4.327  -3.943  -6.024  1.00  0.00     0.031 C 
ATOM     23  C   UNL     1       5.819   2.784  -6.410  1.00  0.00     0.029 A 
ATOM     24  C   UNL     1       6.202   1.982  -7.569  1.00  0.00     0.049 A 
ATOM     25  H   UNL     1       5.914  -0.062  -7.846  1.00  0.00     0.167 HD
ATOM     26  C   UNL     1       5.264  -4.375  -8.273  1.00  0.00     0.037 A 
ATOM     27  C   UNL     1       6.818   2.444  -8.674  1.00  0.00     0.037 A 
ATOM     28  C   UNL     1       5.885  -3.964  -9.504  1.00  0.00     0.049 A 
ATOM     29  C   UNL     1       7.147   1.488  -9.789  1.00  0.00     0.074 A 
ATOM     30  C   UNL     1       6.179  -4.729 -10.618  1.00  0.00     0.029 A 
ATOM     31  N   UNL     1       6.297  -2.670  -9.785  1.00  0.00    -0.354 N 
ATOM     32  N   UNL     1       6.902   0.203  -9.877  1.00  0.00    -0.248 NA
ATOM     33  C   UNL     1       7.841   2.046 -10.959  1.00  0.00     0.031 C 
ATOM     34  C   UNL     1       6.807  -3.907 -11.558  1.00  0.00     0.029 A 
ATOM     35  C   UNL     1       6.859  -2.619 -11.050  1.00  0.00     0.049 A 
ATOM     36  H   UNL     1       6.204  -1.901  -9.177  1.00  0.00     0.167 HD
ATOM     37  C   UNL     1       7.387  -0.196 -11.115  1.00  0.00     0.074 A 
ATOM     38  C   UNL     1       7.928   0.987 -11.752  1.00  0.00     0.031 C 
ATOM     39  C   UNL     1       7.386  -1.431 -11.672  1.00  0.00     0.037 A 
BRANCH  26  40
ATOM     40  C   UNL     1       4.884  -5.819  -8.120  1.00  0.00     0.064 A 
ATOM     41  C   UNL     1       3.542  -6.229  -8.138  1.00  0.00     0.173 A 
ATOM     42  C   UNL     1       5.872  -6.809  -8.009  1.00  0.00     0.173 A 
ATOM     43  F   UNL     1       2.560  -5.321  -8.228  1.00  0.00    -0.203 F 
ATOM     44  C   UNL     1       3.203  -7.575  -8.031  1.00  0.00     0.198 A 
ATOM     45  C   UNL     1       5.530  -8.156  -7.933  1.00  0.00     0.198 A 
ATOM     46  F   UNL     1       7.170  -6.471  -7.991  1.00  0.00    -0.203 F 
ATOM     47  F   UNL     1       1.914  -7.940  -8.008  1.00  0.00    -0.200 F 
ATOM     48  C   UNL     1       4.197  -8.538  -7.938  1.00  0.00     0.200 A 
ATOM     49  F   UNL     1       6.492  -9.087  -7.856  1.00  0.00    -0.200 F 
ATOM     50  F   UNL     1       3.869  -9.834  -7.849  1.00  0.00    -0.200 F 
ENDBRANCH  26  40
BRANCH  27  51
ATOM     51  C   UNL     1       7.133   3.892  -8.792  1.00  0.00     0.064 A 
ATOM     52  C   UNL     1       6.441   4.703  -9.703  1.00  0.00     0.173 A 
ATOM     53  C   UNL     1       8.114   4.497  -7.994  1.00  0.00     0.173 A 
ATOM     54  F   UNL     1       5.510   4.165 -10.504  1.00  0.00    -0.203 F 
ATOM     55  C   UNL     1       6.725   6.062  -9.817  1.00  0.00     0.198 A 
ATOM     56  C   UNL     1       8.378   5.862  -8.090  1.00  0.00     0.198 A 
ATOM     57  F   UNL     1       8.804   3.765  -7.107  1.00  0.00    -0.203 F 
ATOM     58  F   UNL     1       6.073   6.807 -10.720  1.00  0.00    -0.200 F 
ATOM     59  C   UNL     1       7.687   6.642  -9.004  1.00  0.00     0.200 A 
ATOM     60  F   UNL     1       9.300   6.421  -7.294  1.00  0.00    -0.200 F 
ATOM     61  F   UNL     1       7.952   7.952  -9.107  1.00  0.00    -0.200 F 
ENDBRANCH  27  51
BRANCH  39  62
ATOM     62  C   UNL     1       7.967  -1.574 -13.049  1.00  0.00     0.064 A 
ATOM     63  C   UNL     1       9.350  -1.510 -13.270  1.00  0.00     0.173 A 
ATOM     64  C   UNL     1       7.136  -1.853 -14.146  1.00  0.00     0.173 A 
ATOM     65  F   UNL     1      10.184  -1.234 -12.256  1.00  0.00    -0.203 F 
ATOM     66  C   UNL     1       9.880  -1.706 -14.543  1.00  0.00     0.198 A 
ATOM     67  C   UNL     1       7.672  -2.077 -15.410  1.00  0.00     0.198 A 
ATOM     68  F   UNL     1       5.807  -1.935 -13.984  1.00  0.00    -0.203 F 
ATOM     69  F   UNL     1      11.202  -1.606 -14.738  1.00  0.00    -0.200 F 
ATOM     70  C   UNL     1       9.042  -1.999 -15.609  1.00  0.00     0.200 A 
ATOM     71  F   UNL     1       6.863  -2.377 -16.436  1.00  0.00    -0.200 F 
ATOM     72  F   UNL     1       9.556  -2.204 -16.829  1.00  0.00    -0.200 F 
ENDBRANCH  39  62
ENDBRANCH  13  14
ENDBRANCH   6   8
ENDBRANCH   3   4
ENDBRANCH   2   3
ENDBRANCH   1   2
BRANCH   1  73
ATOM     73  C   UNL     1       4.727  -0.073   4.265  1.00  0.00     0.002 C 
BRANCH  73  74
ATOM     74  C   UNL     1       6.248  -0.236   4.298  1.00  0.00     0.021 C 
BRANCH  74  75
ATOM     75  C   UNL     1       6.999   0.935   4.922  1.00  0.00     0.116 C 
BRANCH  75  76
ATOM     76  N   UNL     1       6.689   1.087   6.333  1.00  0.00    -0.352 N 
ATOM     77  C   UNL     1       7.550   1.149   7.392  1.00  0.00     0.256 C 
ATOM     78  H   UNL     1       5.732   1.154   6.556  1.00  0.00     0.163 HD
ATOM     79  O   UNL     1       7.116   1.182   8.541  1.00  0.00    -0.269 OA
BRANCH  77  80
ATOM     80  C   UNL     1       8.998   1.079   7.117  1.00  0.00     0.105 A 
ATOM     81  C   UNL     1       9.679   0.043   7.633  1.00  0.00     0.021 A 
ATOM     82  C   UNL     1       9.692   2.072   6.247  1.00  0.00     0.263 A 
ATOM     83  C   UNL     1      11.072  -0.148   7.317  1.00  0.00     0.019 A 
ATOM     84  N   UNL     1      11.028   1.789   5.948  1.00  0.00    -0.310 N 
ATOM     85  O   UNL     1       9.090   3.047   5.799  1.00  0.00    -0.268 OA
ATOM     86  C   UNL     1      11.691   0.700   6.489  1.00  0.00     0.089 A 
BRANCH  84  87
ATOM     87  C   UNL     1      11.743   2.704   5.066  1.00  0.00     0.161 C 
BRANCH  87  88
ATOM     88  C   UNL     1      12.485   3.772   5.837  1.00  0.00    -0.024 A 
ATOM     89  C   UNL     1      13.854   3.608   6.147  1.00  0.00     0.010 A 
ATOM     90  C   UNL     1      11.807   4.927   6.265  1.00  0.00     0.056 A 
ATOM     91  C   UNL     1      14.554   4.591   6.854  1.00  0.00     0.051 A 
ATOM     92  C   UNL     1      12.528   5.887   6.940  1.00  0.00     0.173 A 
ATOM     93  C   UNL     1      13.865   5.725   7.222  1.00  0.00     0.172 A 
ATOM     94  O   UNL     1      12.043   7.078   7.382  1.00  0.00    -0.395 OA
ATOM     95  O   UNL     1      14.391   6.798   7.872  1.00  0.00    -0.395 OA
ATOM     96  C   UNL     1      13.268   7.688   7.809  1.00  0.00     0.586 C 
ATOM     97  F   UNL     1      13.568   8.691   6.944  1.00  0.00    -0.125 F 
ATOM     98  F   UNL     1      13.081   8.245   9.030  1.00  0.00    -0.125 F 
ENDBRANCH  87  88
ENDBRANCH  84  87
ENDBRANCH  77  80
ENDBRANCH  75  76
ENDBRANCH  74  75
ENDBRANCH  73  74
ENDBRANCH   1  73
TORSDOF 15
