REMARK SMILES COCCn1cc(NC(=O)N[C@H]2C=C[C@H](C(=O)NCCCCCCNC(=O)c3ccc(-c4c5nc(c(-c6c(F)c(F)c(F)c(F)c6F)c6ccc([nH]6)c(-c6c(F)c(F)c(F)c(F)c6F)c6nc(c(-c7c(F)c(F)c(F)c(F)c7F)c7ccc4[nH]7)C=C6)C=C5)cc3)C2)cn1
REMARK SMILES IDX 20 1 19 2 18 3 16 4 17 5 15 7 12 8 13 9 91 10 14 11 11 12
REMARK SMILES IDX 8 13 9 14 10 16 7 18 5 19 6 20 93 21 92 22 4 23 3 24 2 25
REMARK SMILES IDX 1 26 21 27 22 28 23 29 24 30 25 31 26 32 27 34 28 35 29 36
REMARK SMILES IDX 90 37 30 38 89 39 31 40 32 41 33 42 83 43 34 44 88 45 82 46
REMARK SMILES IDX 84 47 35 48 87 49 81 50 80 51 36 53 68 54 48 55 67 56 49 57
REMARK SMILES IDX 52 58 66 59 85 60 50 61 51 62 65 64 86 65 53 66 37 67 38 68
REMARK SMILES IDX 46 69 39 70 40 71 44 72 47 73 41 74 42 75 45 76 43 77 69 78
REMARK SMILES IDX 70 79 78 80 71 81 72 82 76 83 79 84 73 85 74 86 77 87 75 88
REMARK SMILES IDX 54 89 55 90 63 91 56 92 57 93 61 94 64 95 58 96 59 97 62 98
REMARK SMILES IDX 60 99
REMARK H PARENT 18 6 8 15 11 17 25 33 84 52 52 63
REMARK Flexibility Score: inf
ROOT
ATOM      1  C   UNL     1      -2.206   0.813   1.585  1.00  0.00     0.021 C 
ENDROOT
BRANCH   1   2
ATOM      2  C   UNL     1      -1.834  -0.346   2.519  1.00  0.00     0.116 C 
BRANCH   2   3
ATOM      3  N   UNL     1      -0.749  -1.156   1.988  1.00  0.00    -0.356 N 
ATOM      4  C   UNL     1       0.524  -1.356   2.463  1.00  0.00     0.227 C 
ATOM      5  O   UNL     1       1.277  -2.082   1.813  1.00  0.00    -0.274 OA
ATOM      6  H   UNL     1      -0.960  -1.637   1.156  1.00  0.00     0.163 HD
BRANCH   4   7
ATOM      7  C   UNL     1       0.924  -0.725   3.804  1.00  0.00     0.103 C 
ATOM      8  C   UNL     1       2.329   1.252   3.714  1.00  0.00     0.107 C 
ATOM      9  C   UNL     1       3.067   0.140   4.361  1.00  0.00    -0.006 C 
ATOM     10  C   UNL     1       0.880   0.805   3.765  1.00  0.00     0.047 C 
ATOM     11  C   UNL     1       2.336  -0.983   4.277  1.00  0.00    -0.016 C 
BRANCH   8  12
ATOM     12  N   UNL     1       2.542   2.550   4.269  1.00  0.00    -0.332 N 
ATOM     13  N   UNL     1       1.616   3.968   2.571  1.00  0.00    -0.305 N 
ATOM     14  C   UNL     1       2.110   3.742   3.809  1.00  0.00     0.319 C 
ATOM     15  H   UNL     1       1.039   4.766   2.553  1.00  0.00     0.171 HD
ATOM     16  O   UNL     1       2.067   4.676   4.617  1.00  0.00    -0.248 OA
ATOM     17  H   UNL     1       3.074   2.579   5.097  1.00  0.00     0.165 HD
BRANCH  13  18
ATOM     18  C   UNL     1       1.706   3.376   1.323  1.00  0.00     0.081 A 
ATOM     19  N   UNL     1       1.157   2.893  -0.759  1.00  0.00    -0.268 N 
ATOM     20  C   UNL     1       0.897   3.763   0.267  1.00  0.00     0.135 A 
ATOM     21  N   UNL     1       2.252   2.160  -0.536  1.00  0.00    -0.179 NA
ATOM     22  C   UNL     1       2.553   2.414   0.736  1.00  0.00     0.161 A 
BRANCH  19  23
ATOM     23  C   UNL     1       0.381   2.687  -1.971  1.00  0.00     0.172 C 
BRANCH  23  24
ATOM     24  C   UNL     1       0.686   1.378  -2.716  1.00  0.00     0.183 C 
BRANCH  24  25
ATOM     25  O   UNL     1      -0.014   0.242  -2.192  1.00  0.00    -0.383 OA
ATOM     26  C   UNL     1       0.646  -0.369  -1.087  1.00  0.00     0.194 C 
ENDBRANCH  24  25
ENDBRANCH  23  24
ENDBRANCH  19  23
ENDBRANCH  13  18
ENDBRANCH   8  12
ENDBRANCH   4   7
ENDBRANCH   2   3
ENDBRANCH   1   2
BRANCH   1  27
ATOM     27  C   UNL     1      -2.867   0.405   0.261  1.00  0.00     0.002 C 
BRANCH  27  28
ATOM     28  C   UNL     1      -4.113  -0.489   0.360  1.00  0.00     0.002 C 
BRANCH  28  29
ATOM     29  C   UNL     1      -5.240  -0.009   1.284  1.00  0.00     0.021 C 
BRANCH  29  30
ATOM     30  C   UNL     1      -5.895   1.290   0.844  1.00  0.00     0.116 C 
BRANCH  30  31
ATOM     31  N   UNL     1      -6.708   1.152  -0.365  1.00  0.00    -0.352 N 
ATOM     32  C   UNL     1      -7.474   2.124  -0.994  1.00  0.00     0.251 C 
ATOM     33  H   UNL     1      -6.712   0.261  -0.784  1.00  0.00     0.163 HD
ATOM     34  O   UNL     1      -8.384   1.832  -1.745  1.00  0.00    -0.269 OA
BRANCH  32  35
ATOM     35  C   UNL     1      -7.143   3.539  -0.736  1.00  0.00     0.039 A 
ATOM     36  C   UNL     1      -8.128   4.520  -0.590  1.00  0.00     0.014 A 
ATOM     37  C   UNL     1      -5.797   3.861  -0.612  1.00  0.00     0.014 A 
ATOM     38  C   UNL     1      -7.737   5.813  -0.244  1.00  0.00     0.010 A 
ATOM     39  C   UNL     1      -5.434   5.063  -0.073  1.00  0.00     0.010 A 
ATOM     40  C   UNL     1      -6.383   6.069   0.029  1.00  0.00    -0.014 A 
BRANCH  40  41
ATOM     41  C   UNL     1      -5.931   7.361   0.528  1.00  0.00     0.031 A 
ATOM     42  C   UNL     1      -6.619   7.809   1.767  1.00  0.00     0.074 A 
ATOM     43  C   UNL     1      -4.826   7.976   0.049  1.00  0.00     0.049 A 
ATOM     44  N   UNL     1      -7.377   8.844   1.916  1.00  0.00    -0.248 NA
ATOM     45  C   UNL     1      -6.568   6.932   2.949  1.00  0.00     0.031 C 
ATOM     46  C   UNL     1      -3.871   7.490  -0.958  1.00  0.00     0.029 A 
ATOM     47  N   UNL     1      -4.257   9.146   0.444  1.00  0.00    -0.354 N 
ATOM     48  C   UNL     1      -7.738   8.862   3.260  1.00  0.00     0.074 A 
ATOM     49  C   UNL     1      -7.369   7.579   3.799  1.00  0.00     0.031 C 
ATOM     50  C   UNL     1      -2.744   8.234  -0.920  1.00  0.00     0.029 A 
ATOM     51  C   UNL     1      -2.962   9.351  -0.022  1.00  0.00     0.049 A 
ATOM     52  H   UNL     1      -4.725   9.798   1.014  1.00  0.00     0.167 HD
ATOM     53  C   UNL     1      -8.073  10.029   3.875  1.00  0.00     0.037 A 
ATOM     54  C   UNL     1      -2.126  10.362   0.324  1.00  0.00     0.037 A 
ATOM     55  C   UNL     1      -8.412  11.045   2.910  1.00  0.00     0.049 A 
ATOM     56  C   UNL     1      -2.967  11.444   0.893  1.00  0.00     0.074 A 
ATOM     57  C   UNL     1      -9.366  11.150   1.916  1.00  0.00     0.029 A 
ATOM     58  N   UNL     1      -7.462  11.989   2.608  1.00  0.00    -0.354 N 
ATOM     59  N   UNL     1      -3.826  12.134   0.196  1.00  0.00    -0.248 NA
ATOM     60  C   UNL     1      -3.191  11.430   2.330  1.00  0.00     0.031 C 
ATOM     61  C   UNL     1      -8.692  11.774   0.824  1.00  0.00     0.029 A 
ATOM     62  C   UNL     1      -7.399  12.091   1.241  1.00  0.00     0.049 A 
ATOM     63  H   UNL     1      -6.923  12.500   3.254  1.00  0.00     0.167 HD
ATOM     64  C   UNL     1      -4.927  12.264   1.029  1.00  0.00     0.074 A 
ATOM     65  C   UNL     1      -4.447  11.881   2.356  1.00  0.00     0.031 C 
ATOM     66  C   UNL     1      -6.186  12.384   0.514  1.00  0.00     0.037 A 
BRANCH  53  67
ATOM     67  C   UNL     1      -7.730  10.350   5.308  1.00  0.00     0.064 A 
ATOM     68  C   UNL     1      -8.267  11.507   5.905  1.00  0.00     0.173 A 
ATOM     69  C   UNL     1      -6.676   9.733   6.018  1.00  0.00     0.173 A 
ATOM     70  F   UNL     1      -9.246  12.195   5.301  1.00  0.00    -0.203 F 
ATOM     71  C   UNL     1      -7.747  12.033   7.092  1.00  0.00     0.198 A 
ATOM     72  C   UNL     1      -6.199  10.228   7.229  1.00  0.00     0.198 A 
ATOM     73  F   UNL     1      -5.987   8.700   5.517  1.00  0.00    -0.203 F 
ATOM     74  F   UNL     1      -8.209  13.201   7.560  1.00  0.00    -0.200 F 
ATOM     75  C   UNL     1      -6.714  11.394   7.752  1.00  0.00     0.200 A 
ATOM     76  F   UNL     1      -5.179   9.606   7.838  1.00  0.00    -0.200 F 
ATOM     77  F   UNL     1      -6.178  11.925   8.859  1.00  0.00    -0.200 F 
ENDBRANCH  53  67
BRANCH  54  78
ATOM     78  C   UNL     1      -0.652  10.338   0.494  1.00  0.00     0.064 A 
ATOM     79  C   UNL     1       0.084  11.532   0.581  1.00  0.00     0.173 A 
ATOM     80  C   UNL     1       0.020   9.161   0.874  1.00  0.00     0.173 A 
ATOM     81  F   UNL     1      -0.492  12.703   0.274  1.00  0.00    -0.203 F 
ATOM     82  C   UNL     1       1.400  11.551   1.057  1.00  0.00     0.198 A 
ATOM     83  C   UNL     1       1.334   9.180   1.345  1.00  0.00     0.198 A 
ATOM     84  F   UNL     1      -0.615   7.979   0.887  1.00  0.00    -0.203 F 
ATOM     85  F   UNL     1       2.047  12.719   1.189  1.00  0.00    -0.200 F 
ATOM     86  C   UNL     1       2.019  10.377   1.452  1.00  0.00     0.200 A 
ATOM     87  F   UNL     1       1.907   8.039   1.755  1.00  0.00    -0.200 F 
ATOM     88  F   UNL     1       3.254  10.403   1.972  1.00  0.00    -0.200 F 
ENDBRANCH  54  78
BRANCH  66  89
ATOM     89  C   UNL     1      -6.316  12.631  -0.967  1.00  0.00     0.064 A 
ATOM     90  C   UNL     1      -5.882  11.738  -1.965  1.00  0.00     0.173 A 
ATOM     91  C   UNL     1      -7.028  13.761  -1.388  1.00  0.00     0.173 A 
ATOM     92  F   UNL     1      -5.281  10.586  -1.649  1.00  0.00    -0.203 F 
ATOM     93  C   UNL     1      -6.111  11.993  -3.317  1.00  0.00     0.198 A 
ATOM     94  C   UNL     1      -7.289  13.994  -2.736  1.00  0.00     0.198 A 
ATOM     95  F   UNL     1      -7.514  14.623  -0.482  1.00  0.00    -0.203 F 
ATOM     96  F   UNL     1      -5.672  11.132  -4.248  1.00  0.00    -0.200 F 
ATOM     97  C   UNL     1      -6.821  13.117  -3.701  1.00  0.00     0.200 A 
ATOM     98  F   UNL     1      -8.018  15.059  -3.098  1.00  0.00    -0.200 F 
ATOM     99  F   UNL     1      -7.075  13.344  -4.997  1.00  0.00    -0.200 F 
ENDBRANCH  66  89
ENDBRANCH  40  41
ENDBRANCH  32  35
ENDBRANCH  30  31
ENDBRANCH  29  30
ENDBRANCH  28  29
ENDBRANCH  27  28
ENDBRANCH   1  27
TORSDOF 18
