REMARK SMILES Cn1c(C[NH+]2CCC3(CC2)NC(=O)C[C@@H]3C(=O)NCCCCCCNC(=O)c2ccc(-c3c4nc(c(-c5c(F)c(F)c(F)c(F)c5F)c5ccc([nH]5)c(-c5c(F)c(F)c(F)c(F)c5F)c5nc(c(-c6c(F)c(F)c(F)c(F)c6F)c6ccc3[nH]6)C=C5)C=C4)cc2)nc2ccccc21
REMARK SMILES IDX 21 1 20 2 19 3 18 4 16 5 17 6 15 8 5 9 6 10 10 11 7 13 9 14
REMARK SMILES IDX 8 15 11 16 12 17 14 19 13 20 4 21 3 22 1 23 2 24 97 25 91 26
REMARK SMILES IDX 92 27 96 28 93 29 95 30 94 31 22 32 23 33 24 34 25 35 26 36
REMARK SMILES IDX 27 38 28 39 29 40 90 41 30 42 89 43 31 44 32 45 33 46 83 47
REMARK SMILES IDX 34 48 88 49 82 50 84 51 35 52 87 53 81 54 80 55 36 57 68 58
REMARK SMILES IDX 48 59 67 60 49 61 52 62 66 63 85 64 50 65 51 66 65 68 86 69
REMARK SMILES IDX 53 70 37 71 38 72 46 73 39 74 40 75 44 76 47 77 41 78 42 79
REMARK SMILES IDX 45 80 43 81 69 82 70 83 78 84 71 85 72 86 76 87 79 88 73 89
REMARK SMILES IDX 74 90 77 91 75 92 54 93 55 94 63 95 56 96 57 97 61 98 64 99
REMARK SMILES IDX 58 100 59 101 62 102 60 103
REMARK H PARENT 18 7 5 12 11 18 25 37 84 56 52 67
REMARK Flexibility Score: inf
ROOT
ATOM      1  C   UNL     1      -5.887  -5.199  -3.533  1.00  0.00     0.002 C 
ENDROOT
BRANCH   1   2
ATOM      2  C   UNL     1      -4.531  -5.096  -2.838  1.00  0.00     0.021 C 
BRANCH   2   3
ATOM      3  C   UNL     1      -3.312  -5.049  -3.763  1.00  0.00     0.116 C 
BRANCH   3   4
ATOM      4  N   UNL     1      -3.298  -3.835  -4.549  1.00  0.00    -0.356 N 
ATOM      5  C   UNL     1      -2.333  -2.897  -4.728  1.00  0.00     0.226 C 
ATOM      6  O   UNL     1      -2.608  -1.954  -5.472  1.00  0.00    -0.275 OA
ATOM      7  H   UNL     1      -4.133  -3.658  -5.039  1.00  0.00     0.163 HD
BRANCH   5   8
ATOM      8  C   UNL     1      -0.989  -3.010  -4.025  1.00  0.00     0.114 C 
ATOM      9  N   UNL     1      -3.163  -1.990  -0.787  1.00  0.00    -0.328 N 
ATOM     10  C   UNL     1      -3.126  -1.223  -2.026  1.00  0.00     0.265 C 
ATOM     11  C   UNL     1      -2.309  -3.173  -0.779  1.00  0.00     0.265 C 
ATOM     12  H   UNL     1      -4.114  -2.361  -0.791  1.00  0.00     0.348 HD
ATOM     13  C   UNL     1      -1.732  -0.950  -2.592  1.00  0.00     0.091 C 
ATOM     14  C   UNL     1      -0.939  -3.077  -1.440  1.00  0.00     0.091 C 
ATOM     15  C   UNL     1      -0.841  -2.199  -2.700  1.00  0.00     0.063 C 
ATOM     16  N   UNL     1       0.550  -1.754  -2.784  1.00  0.00    -0.349 N 
ATOM     17  C   UNL     1       1.132  -1.886  -4.015  1.00  0.00     0.221 C 
ATOM     18  H   UNL     1       1.034  -1.387  -2.009  1.00  0.00     0.164 HD
ATOM     19  C   UNL     1       0.113  -2.450  -4.953  1.00  0.00     0.116 C 
ATOM     20  O   UNL     1       2.272  -1.568  -4.290  1.00  0.00    -0.275 OA
BRANCH   9  21
ATOM     21  C   UNL     1      -3.130  -1.207   0.462  1.00  0.00     0.339 C 
BRANCH  21  22
ATOM     22  C   UNL     1      -1.800  -0.587   0.758  1.00  0.00     0.165 A 
ATOM     23  C   UNL     1      -2.329   1.817   0.156  1.00  0.00     0.152 C 
ATOM     24  N   UNL     1      -1.457   0.726   0.518  1.00  0.00    -0.326 N 
ATOM     25  C   UNL     1      -0.080   0.792   0.477  1.00  0.00     0.068 A 
ATOM     26  N   UNL     1      -0.740  -1.273   1.147  1.00  0.00    -0.227 NA
ATOM     27  C   UNL     1       0.333  -0.478   0.862  1.00  0.00     0.089 A 
ATOM     28  C   UNL     1       0.821   1.789   0.090  1.00  0.00     0.028 A 
ATOM     29  C   UNL     1       1.693  -0.812   0.830  1.00  0.00     0.030 A 
ATOM     30  C   UNL     1       2.174   1.432   0.037  1.00  0.00     0.002 A 
ATOM     31  C   UNL     1       2.605   0.151   0.388  1.00  0.00     0.002 A 
ENDBRANCH  21  22
ENDBRANCH   9  21
ENDBRANCH   5   8
ENDBRANCH   3   4
ENDBRANCH   2   3
ENDBRANCH   1   2
BRANCH   1  32
ATOM     32  C   UNL     1      -6.066  -6.420  -4.431  1.00  0.00     0.002 C 
BRANCH  32  33
ATOM     33  C   UNL     1      -5.753  -7.760  -3.765  1.00  0.00     0.021 C 
BRANCH  33  34
ATOM     34  C   UNL     1      -6.487  -8.009  -2.452  1.00  0.00     0.116 C 
BRANCH  34  35
ATOM     35  N   UNL     1      -7.930  -8.018  -2.624  1.00  0.00    -0.352 N 
ATOM     36  C   UNL     1      -8.828  -9.021  -2.359  1.00  0.00     0.251 C 
ATOM     37  H   UNL     1      -8.319  -7.186  -2.980  1.00  0.00     0.163 HD
ATOM     38  O   UNL     1      -9.985  -8.941  -2.756  1.00  0.00    -0.269 OA
BRANCH  36  39
ATOM     39  C   UNL     1      -8.386 -10.212  -1.606  1.00  0.00     0.039 A 
ATOM     40  C   UNL     1      -8.748 -11.478  -2.070  1.00  0.00     0.014 A 
ATOM     41  C   UNL     1      -7.617 -10.078  -0.446  1.00  0.00     0.014 A 
ATOM     42  C   UNL     1      -8.293 -12.614  -1.399  1.00  0.00     0.010 A 
ATOM     43  C   UNL     1      -7.096 -11.210   0.172  1.00  0.00     0.010 A 
ATOM     44  C   UNL     1      -7.437 -12.490  -0.291  1.00  0.00    -0.014 A 
BRANCH  44  45
ATOM     45  C   UNL     1      -6.903 -13.688   0.403  1.00  0.00     0.031 A 
ATOM     46  C   UNL     1      -7.260 -13.949   1.841  1.00  0.00     0.074 A 
ATOM     47  C   UNL     1      -6.054 -14.512  -0.243  1.00  0.00     0.049 A 
ATOM     48  N   UNL     1      -6.852 -14.906   2.636  1.00  0.00    -0.248 NA
ATOM     49  C   UNL     1      -8.178 -12.992   2.478  1.00  0.00     0.031 C 
ATOM     50  C   UNL     1      -5.599 -14.342  -1.623  1.00  0.00     0.029 A 
ATOM     51  N   UNL     1      -5.417 -15.652   0.179  1.00  0.00    -0.354 N 
ATOM     52  C   UNL     1      -7.453 -14.659   3.863  1.00  0.00     0.074 A 
ATOM     53  C   UNL     1      -8.203 -13.430   3.728  1.00  0.00     0.031 C 
ATOM     54  C   UNL     1      -4.778 -15.354  -1.943  1.00  0.00     0.029 A 
ATOM     55  C   UNL     1      -4.612 -16.220  -0.778  1.00  0.00     0.049 A 
ATOM     56  H   UNL     1      -5.527 -16.028   1.083  1.00  0.00     0.167 HD
ATOM     57  C   UNL     1      -7.404 -15.404   4.994  1.00  0.00     0.037 A 
ATOM     58  C   UNL     1      -3.822 -17.309  -0.720  1.00  0.00     0.037 A 
ATOM     59  C   UNL     1      -6.668 -16.635   5.118  1.00  0.00     0.049 A 
ATOM     60  C   UNL     1      -3.767 -18.105   0.557  1.00  0.00     0.074 A 
ATOM     61  C   UNL     1      -6.596 -17.491   6.203  1.00  0.00     0.029 A 
ATOM     62  N   UNL     1      -5.869 -17.181   4.124  1.00  0.00    -0.354 N 
ATOM     63  N   UNL     1      -4.394 -17.901   1.690  1.00  0.00    -0.248 NA
ATOM     64  C   UNL     1      -2.897 -19.289   0.560  1.00  0.00     0.031 C 
ATOM     65  C   UNL     1      -5.706 -18.522   5.888  1.00  0.00     0.029 A 
ATOM     66  C   UNL     1      -5.278 -18.348   4.581  1.00  0.00     0.049 A 
ATOM     67  H   UNL     1      -5.741 -16.797   3.226  1.00  0.00     0.167 HD
ATOM     68  C   UNL     1      -4.025 -18.947   2.526  1.00  0.00     0.074 A 
ATOM     69  C   UNL     1      -3.129 -19.791   1.764  1.00  0.00     0.031 C 
ATOM     70  C   UNL     1      -4.396 -19.186   3.808  1.00  0.00     0.037 A 
BRANCH  57  71
ATOM     71  C   UNL     1      -8.166 -14.905   6.189  1.00  0.00     0.064 A 
ATOM     72  C   UNL     1      -9.569 -14.870   6.210  1.00  0.00     0.173 A 
ATOM     73  C   UNL     1      -7.485 -14.489   7.344  1.00  0.00     0.173 A 
ATOM     74  F   UNL     1     -10.270 -15.247   5.130  1.00  0.00    -0.203 F 
ATOM     75  C   UNL     1     -10.260 -14.407   7.327  1.00  0.00     0.198 A 
ATOM     76  C   UNL     1      -8.180 -14.060   8.472  1.00  0.00     0.198 A 
ATOM     77  F   UNL     1      -6.144 -14.506   7.383  1.00  0.00    -0.203 F 
ATOM     78  F   UNL     1     -11.598 -14.331   7.302  1.00  0.00    -0.200 F 
ATOM     79  C   UNL     1      -9.565 -14.010   8.460  1.00  0.00     0.200 A 
ATOM     80  F   UNL     1      -7.507 -13.693   9.572  1.00  0.00    -0.200 F 
ATOM     81  F   UNL     1     -10.231 -13.573   9.537  1.00  0.00    -0.200 F 
ENDBRANCH  57  71
BRANCH  58  82
ATOM     82  C   UNL     1      -3.033 -17.722  -1.911  1.00  0.00     0.064 A 
ATOM     83  C   UNL     1      -3.325 -18.912  -2.593  1.00  0.00     0.173 A 
ATOM     84  C   UNL     1      -1.965 -16.946  -2.384  1.00  0.00     0.173 A 
ATOM     85  F   UNL     1      -4.325 -19.699  -2.168  1.00  0.00    -0.203 F 
ATOM     86  C   UNL     1      -2.562 -19.323  -3.684  1.00  0.00     0.198 A 
ATOM     87  C   UNL     1      -1.224 -17.342  -3.496  1.00  0.00     0.198 A 
ATOM     88  F   UNL     1      -1.647 -15.796  -1.773  1.00  0.00    -0.203 F 
ATOM     89  F   UNL     1      -2.829 -20.492  -4.282  1.00  0.00    -0.200 F 
ATOM     90  C   UNL     1      -1.516 -18.535  -4.138  1.00  0.00     0.200 A 
ATOM     91  F   UNL     1      -0.225 -16.568  -3.943  1.00  0.00    -0.200 F 
ATOM     92  F   UNL     1      -0.784 -18.930  -5.189  1.00  0.00    -0.200 F 
ENDBRANCH  58  82
BRANCH  70  93
ATOM     93  C   UNL     1      -3.875 -20.438   4.456  1.00  0.00     0.064 A 
ATOM     94  C   UNL     1      -2.523 -20.588   4.801  1.00  0.00     0.173 A 
ATOM     95  C   UNL     1      -4.752 -21.487   4.773  1.00  0.00     0.173 A 
ATOM     96  F   UNL     1      -1.640 -19.621   4.508  1.00  0.00    -0.203 F 
ATOM     97  C   UNL     1      -2.065 -21.753   5.410  1.00  0.00     0.198 A 
ATOM     98  C   UNL     1      -4.297 -22.634   5.416  1.00  0.00     0.198 A 
ATOM     99  F   UNL     1      -6.056 -21.392   4.473  1.00  0.00    -0.203 F 
ATOM    100  F   UNL     1      -0.760 -21.897   5.680  1.00  0.00    -0.200 F 
ATOM    101  C   UNL     1      -2.953 -22.771   5.725  1.00  0.00     0.200 A 
ATOM    102  F   UNL     1      -5.161 -23.608   5.736  1.00  0.00    -0.200 F 
ATOM    103  F   UNL     1      -2.512 -23.887   6.321  1.00  0.00    -0.200 F 
ENDBRANCH  70  93
ENDBRANCH  44  45
ENDBRANCH  36  39
ENDBRANCH  34  35
ENDBRANCH  33  34
ENDBRANCH  32  33
ENDBRANCH   1  32
TORSDOF 15
