REMARK SMILES Cc1csc(CNC(=O)NC[C@H]2CC[C@@H](C(=O)NCCCCCCNC(=O)c3ccc(-c4c5nc(c(-c6c(F)c(F)c(F)c(F)c6F)c6ccc([nH]6)c(-c6c(F)c(F)c(F)c(F)c6F)c6nc(c(-c7c(F)c(F)c(F)c(F)c7F)c7ccc4[nH]7)C=C6)C=C5)cc3)CC2)n1
REMARK SMILES IDX 20 1 19 2 18 3 16 4 17 5 15 7 12 8 13 9 92 10 14 11 91 12
REMARK SMILES IDX 11 13 10 14 7 15 8 16 9 18 6 20 5 21 1 22 2 23 3 24 93 25
REMARK SMILES IDX 4 26 21 27 22 28 23 29 24 30 25 31 26 32 27 34 28 35 29 36
REMARK SMILES IDX 90 37 30 38 89 39 31 40 32 41 33 42 83 43 34 44 88 45 82 46
REMARK SMILES IDX 84 47 35 48 87 49 81 50 80 51 36 53 68 54 48 55 67 56 49 57
REMARK SMILES IDX 52 58 66 59 85 60 50 61 51 62 65 64 86 65 53 66 37 67 38 68
REMARK SMILES IDX 46 69 39 70 40 71 44 72 47 73 41 74 42 75 45 76 43 77 69 78
REMARK SMILES IDX 70 79 78 80 71 81 72 82 76 83 79 84 73 85 74 86 77 87 75 88
REMARK SMILES IDX 54 89 55 90 63 91 56 92 57 93 61 94 64 95 58 96 59 97 62 98
REMARK SMILES IDX 60 99
REMARK H PARENT 18 6 7 17 10 19 25 33 84 52 52 63
REMARK Flexibility Score: inf
ROOT
ATOM      1  C   UNL     1      -1.261   4.060   4.330  1.00  0.00     0.021 C 
ENDROOT
BRANCH   1   2
ATOM      2  C   UNL     1      -0.867   5.534   4.211  1.00  0.00     0.116 C 
BRANCH   2   3
ATOM      3  N   UNL     1      -0.344   6.123   5.417  1.00  0.00    -0.356 N 
ATOM      4  C   UNL     1       0.823   6.773   5.662  1.00  0.00     0.223 C 
ATOM      5  O   UNL     1       0.865   7.415   6.720  1.00  0.00    -0.275 OA
ATOM      6  H   UNL     1      -0.935   6.039   6.200  1.00  0.00     0.163 HD
BRANCH   4   7
ATOM      7  C   UNL     1       2.071   6.748   4.755  1.00  0.00     0.078 C 
ATOM      8  C   UNL     1       2.022   5.438   2.023  1.00  0.00     0.008 C 
ATOM      9  C   UNL     1       1.577   6.904   2.216  1.00  0.00     0.006 C 
ATOM     10  C   UNL     1       2.267   4.622   3.308  1.00  0.00     0.006 C 
ATOM     11  C   UNL     1       2.051   7.596   3.487  1.00  0.00     0.014 C 
ATOM     12  C   UNL     1       2.725   5.390   4.537  1.00  0.00     0.014 C 
BRANCH   8  13
ATOM     13  C   UNL     1       0.989   4.684   1.150  1.00  0.00     0.121 C 
BRANCH  13  14
ATOM     14  N   UNL     1       0.957   5.147  -0.217  1.00  0.00    -0.338 N 
ATOM     15  N   UNL     1       1.526   3.259  -1.502  1.00  0.00    -0.332 N 
ATOM     16  C   UNL     1       0.968   4.465  -1.370  1.00  0.00     0.315 C 
ATOM     17  H   UNL     1       1.287   2.807  -2.344  1.00  0.00     0.165 HD
ATOM     18  O   UNL     1       0.450   4.989  -2.357  1.00  0.00    -0.249 OA
ATOM     19  H   UNL     1       0.921   6.125  -0.318  1.00  0.00     0.165 HD
BRANCH  15  20
ATOM     20  C   UNL     1       2.411   2.478  -0.659  1.00  0.00     0.185 C 
BRANCH  20  21
ATOM     21  C   UNL     1       1.727   1.199  -0.270  1.00  0.00     0.112 A 
ATOM     22  C   UNL     1      -1.238  -0.515   0.773  1.00  0.00     0.067 C 
ATOM     23  C   UNL     1       0.142  -0.215   0.351  1.00  0.00     0.049 A 
ATOM     24  C   UNL     1       1.119  -1.128   0.017  1.00  0.00     0.090 A 
ATOM     25  N   UNL     1       0.506   1.112   0.222  1.00  0.00    -0.245 NA
ATOM     26  S   UNL     1       2.532  -0.308  -0.487  1.00  0.00    -0.125 S 
ENDBRANCH  20  21
ENDBRANCH  15  20
ENDBRANCH  13  14
ENDBRANCH   8  13
ENDBRANCH   4   7
ENDBRANCH   2   3
ENDBRANCH   1   2
BRANCH   1  27
ATOM     27  C   UNL     1      -2.769   3.800   4.377  1.00  0.00     0.002 C 
BRANCH  27  28
ATOM     28  C   UNL     1      -3.578   4.296   3.168  1.00  0.00     0.002 C 
BRANCH  28  29
ATOM     29  C   UNL     1      -3.254   3.662   1.808  1.00  0.00     0.021 C 
BRANCH  29  30
ATOM     30  C   UNL     1      -3.542   2.163   1.676  1.00  0.00     0.116 C 
BRANCH  30  31
ATOM     31  N   UNL     1      -4.927   1.820   1.974  1.00  0.00    -0.352 N 
ATOM     32  C   UNL     1      -5.849   1.130   1.225  1.00  0.00     0.251 C 
ATOM     33  H   UNL     1      -5.253   2.131   2.849  1.00  0.00     0.163 HD
ATOM     34  O   UNL     1      -7.019   1.044   1.597  1.00  0.00    -0.269 OA
BRANCH  32  35
ATOM     35  C   UNL     1      -5.440   0.476  -0.032  1.00  0.00     0.039 A 
ATOM     36  C   UNL     1      -6.008   0.860  -1.245  1.00  0.00     0.014 A 
ATOM     37  C   UNL     1      -4.487  -0.536  -0.006  1.00  0.00     0.014 A 
ATOM     38  C   UNL     1      -5.536   0.299  -2.442  1.00  0.00     0.010 A 
ATOM     39  C   UNL     1      -3.961  -1.026  -1.208  1.00  0.00     0.010 A 
ATOM     40  C   UNL     1      -4.443  -0.592  -2.453  1.00  0.00    -0.014 A 
BRANCH  40  41
ATOM     41  C   UNL     1      -3.756  -0.995  -3.731  1.00  0.00     0.031 A 
ATOM     42  C   UNL     1      -3.411  -2.437  -4.043  1.00  0.00     0.074 A 
ATOM     43  C   UNL     1      -3.320  -0.045  -4.590  1.00  0.00     0.049 A 
ATOM     44  N   UNL     1      -2.715  -2.928  -5.046  1.00  0.00    -0.248 NA
ATOM     45  C   UNL     1      -3.847  -3.457  -3.079  1.00  0.00     0.031 C 
ATOM     46  C   UNL     1      -3.440   1.400  -4.392  1.00  0.00     0.029 A 
ATOM     47  N   UNL     1      -2.678  -0.151  -5.805  1.00  0.00    -0.354 N 
ATOM     48  C   UNL     1      -2.590  -4.291  -4.801  1.00  0.00     0.074 A 
ATOM     49  C   UNL     1      -3.220  -4.538  -3.522  1.00  0.00     0.031 C 
ATOM     50  C   UNL     1      -2.962   2.040  -5.469  1.00  0.00     0.029 A 
ATOM     51  C   UNL     1      -2.442   1.060  -6.416  1.00  0.00     0.049 A 
ATOM     52  H   UNL     1      -2.413  -1.013  -6.200  1.00  0.00     0.167 HD
ATOM     53  C   UNL     1      -2.041  -5.259  -5.578  1.00  0.00     0.037 A 
ATOM     54  C   UNL     1      -1.869   1.363  -7.598  1.00  0.00     0.037 A 
ATOM     55  C   UNL     1      -1.491  -5.046  -6.893  1.00  0.00     0.049 A 
ATOM     56  C   UNL     1      -1.339   0.266  -8.481  1.00  0.00     0.074 A 
ATOM     57  C   UNL     1      -1.032  -5.990  -7.798  1.00  0.00     0.029 A 
ATOM     58  N   UNL     1      -1.335  -3.809  -7.499  1.00  0.00    -0.354 N 
ATOM     59  N   UNL     1      -1.322  -1.026  -8.275  1.00  0.00    -0.248 NA
ATOM     60  C   UNL     1      -0.743   0.675  -9.763  1.00  0.00     0.031 C 
ATOM     61  C   UNL     1      -0.559  -5.324  -8.932  1.00  0.00     0.029 A 
ATOM     62  C   UNL     1      -0.771  -3.967  -8.757  1.00  0.00     0.049 A 
ATOM     63  H   UNL     1      -1.586  -2.947  -7.096  1.00  0.00     0.167 HD
ATOM     64  C   UNL     1      -0.741  -1.585  -9.406  1.00  0.00     0.074 A 
ATOM     65  C   UNL     1      -0.436  -0.495 -10.306  1.00  0.00     0.031 C 
ATOM     66  C   UNL     1      -0.479  -2.888  -9.665  1.00  0.00     0.037 A 
BRANCH  53  67
ATOM     67  C   UNL     1      -2.039  -6.669  -5.048  1.00  0.00     0.064 A 
ATOM     68  C   UNL     1      -3.229  -7.392  -4.872  1.00  0.00     0.173 A 
ATOM     69  C   UNL     1      -0.830  -7.328  -4.768  1.00  0.00     0.173 A 
ATOM     70  F   UNL     1      -4.413  -6.815  -5.128  1.00  0.00    -0.203 F 
ATOM     71  C   UNL     1      -3.214  -8.698  -4.391  1.00  0.00     0.198 A 
ATOM     72  C   UNL     1      -0.817  -8.649  -4.326  1.00  0.00     0.198 A 
ATOM     73  F   UNL     1       0.341  -6.696  -4.938  1.00  0.00    -0.203 F 
ATOM     74  F   UNL     1      -4.369  -9.342  -4.170  1.00  0.00    -0.200 F 
ATOM     75  C   UNL     1      -2.008  -9.329  -4.125  1.00  0.00     0.200 A 
ATOM     76  F   UNL     1       0.351  -9.265  -4.092  1.00  0.00    -0.200 F 
ATOM     77  F   UNL     1      -1.996 -10.589  -3.671  1.00  0.00    -0.200 F 
ENDBRANCH  53  67
BRANCH  54  78
ATOM     78  C   UNL     1      -1.798   2.780  -8.046  1.00  0.00     0.064 A 
ATOM     79  C   UNL     1      -2.575   3.227  -9.125  1.00  0.00     0.173 A 
ATOM     80  C   UNL     1      -0.946   3.706  -7.428  1.00  0.00     0.173 A 
ATOM     81  F   UNL     1      -3.383   2.371  -9.767  1.00  0.00    -0.203 F 
ATOM     82  C   UNL     1      -2.485   4.540  -9.583  1.00  0.00     0.198 A 
ATOM     83  C   UNL     1      -0.882   5.028  -7.866  1.00  0.00     0.198 A 
ATOM     84  F   UNL     1      -0.180   3.326  -6.395  1.00  0.00    -0.203 F 
ATOM     85  F   UNL     1      -3.195   4.923 -10.653  1.00  0.00    -0.200 F 
ATOM     86  C   UNL     1      -1.644   5.441  -8.949  1.00  0.00     0.200 A 
ATOM     87  F   UNL     1      -0.074   5.899  -7.247  1.00  0.00    -0.200 F 
ATOM     88  F   UNL     1      -1.557   6.703  -9.391  1.00  0.00    -0.200 F 
ENDBRANCH  54  78
BRANCH  66  89
ATOM     89  C   UNL     1       0.136  -3.229 -10.992  1.00  0.00     0.064 A 
ATOM     90  C   UNL     1       1.471  -2.916 -11.289  1.00  0.00     0.173 A 
ATOM     91  C   UNL     1      -0.603  -3.928 -11.960  1.00  0.00     0.173 A 
ATOM     92  F   UNL     1       2.217  -2.236 -10.405  1.00  0.00    -0.203 F 
ATOM     93  C   UNL     1       2.038  -3.275 -12.510  1.00  0.00     0.198 A 
ATOM     94  C   UNL     1      -0.024  -4.311 -13.168  1.00  0.00     0.198 A 
ATOM     95  F   UNL     1      -1.882  -4.256 -11.727  1.00  0.00    -0.203 F 
ATOM     96  F   UNL     1       3.304  -2.931 -12.786  1.00  0.00    -0.200 F 
ATOM     97  C   UNL     1       1.294  -3.980 -13.443  1.00  0.00     0.200 A 
ATOM     98  F   UNL     1      -0.741  -5.006 -14.062  1.00  0.00    -0.200 F 
ATOM     99  F   UNL     1       1.845  -4.338 -14.611  1.00  0.00    -0.200 F 
ENDBRANCH  66  89
ENDBRANCH  40  41
ENDBRANCH  32  35
ENDBRANCH  30  31
ENDBRANCH  29  30
ENDBRANCH  28  29
ENDBRANCH  27  28
ENDBRANCH   1  27
TORSDOF 17
