REMARK SMILES CC(=O)N[C@@H](CS[C@@H]1CC(=O)N(c2cccc3ccccc23)C1=O)C(=O)NCCCCCCNC(=O)c1ccc(-c2c3nc(c(-c4c(F)c(F)c(F)c(F)c4F)c4ccc([nH]4)c(-c4c(F)c(F)c(F)c(F)c4F)c4nc(c(-c5c(F)c(F)c(F)c(F)c5F)c5ccc2[nH]5)C=C4)C=C3)cc1
REMARK SMILES IDX 29 1 28 2 27 3 25 4 26 5 5 7 4 8 1 9 2 10 3 11 6 13 7 14
REMARK SMILES IDX 8 15 9 16 23 17 10 18 12 19 24 20 11 21 13 22 14 23 22 24
REMARK SMILES IDX 15 25 17 26 21 27 16 28 18 29 20 30 19 31 30 32 31 33 32 34
REMARK SMILES IDX 33 35 34 36 35 37 36 39 37 40 38 41 99 42 39 43 98 44 40 45
REMARK SMILES IDX 41 46 42 47 92 48 43 49 97 50 91 51 93 52 44 53 96 54 90 55
REMARK SMILES IDX 89 56 45 58 77 59 57 60 76 61 58 62 61 63 75 64 94 65 59 66
REMARK SMILES IDX 60 67 74 69 95 70 62 71 46 72 47 73 55 74 48 75 49 76 53 77
REMARK SMILES IDX 56 78 50 79 51 80 54 81 52 82 78 83 79 84 87 85 80 86 81 87
REMARK SMILES IDX 85 88 88 89 82 90 83 91 86 92 84 93 63 94 64 95 72 96 65 97
REMARK SMILES IDX 66 98 70 99 73 100 67 101 68 102 71 103 69 104
REMARK H PARENT 27 6 4 12 34 38 93 57 61 68
REMARK Flexibility Score: inf
ROOT
ATOM      1  C   UNL     1      -0.818  -3.235   5.442  1.00  0.00     0.021 C 
ENDROOT
BRANCH   1   2
ATOM      2  C   UNL     1       0.518  -3.655   4.832  1.00  0.00     0.116 C 
BRANCH   2   3
ATOM      3  N   UNL     1       0.438  -3.899   3.413  1.00  0.00    -0.354 N 
ATOM      4  C   UNL     1       0.943  -3.288   2.318  1.00  0.00     0.243 C 
ATOM      5  O   UNL     1       0.688  -3.874   1.252  1.00  0.00    -0.273 OA
ATOM      6  H   UNL     1      -0.107  -4.688   3.192  1.00  0.00     0.163 HD
BRANCH   4   7
ATOM      7  C   UNL     1       1.616  -1.890   2.240  1.00  0.00     0.181 C 
BRANCH   7   8
ATOM      8  N   UNL     1       0.640  -0.856   1.880  1.00  0.00    -0.344 N 
ATOM      9  C   UNL     1       1.638  -0.300  -0.325  1.00  0.00     0.114 C 
ATOM     10  C   UNL     1       0.585  -0.113   0.733  1.00  0.00     0.217 C 
ATOM     11  O   UNL     1      -0.335   0.688   0.586  1.00  0.00    -0.275 OA
ATOM     12  H   UNL     1      -0.061  -0.674   2.547  1.00  0.00     0.164 HD
ENDBRANCH   7   8
BRANCH   7  13
ATOM     13  C   UNL     1       2.795  -1.383   3.102  1.00  0.00     0.105 C 
BRANCH  13  14
ATOM     14  S   UNL     1       2.916  -1.143   4.920  1.00  0.00    -0.145 SA
BRANCH  14  15
ATOM     15  C   UNL     1       1.728   0.152   5.415  1.00  0.00     0.146 C 
ATOM     16  C   UNL     1       0.291   0.033   5.000  1.00  0.00     0.125 C 
ATOM     17  C   UNL     1       2.128   1.528   4.980  1.00  0.00     0.247 C 
ATOM     18  C   UNL     1       0.044   1.244   4.157  1.00  0.00     0.235 C 
ATOM     19  N   UNL     1       1.193   1.992   4.084  1.00  0.00    -0.249 N 
ATOM     20  O   UNL     1       3.075   2.122   5.480  1.00  0.00    -0.273 OA
ATOM     21  O   UNL     1      -1.061   1.436   3.668  1.00  0.00    -0.274 OA
BRANCH  19  22
ATOM     22  C   UNL     1       1.332   3.218   3.360  1.00  0.00     0.060 A 
ATOM     23  C   UNL     1       0.193   4.018   3.155  1.00  0.00     0.027 A 
ATOM     24  C   UNL     1       2.599   3.670   2.856  1.00  0.00     0.006 A 
ATOM     25  C   UNL     1       0.287   5.268   2.551  1.00  0.00     0.003 A 
ATOM     26  C   UNL     1       2.678   4.965   2.281  1.00  0.00    -0.016 A 
ATOM     27  C   UNL     1       3.799   2.907   2.833  1.00  0.00     0.011 A 
ATOM     28  C   UNL     1       1.524   5.746   2.142  1.00  0.00     0.009 A 
ATOM     29  C   UNL     1       3.908   5.474   1.831  1.00  0.00     0.009 A 
ATOM     30  C   UNL     1       5.016   3.422   2.385  1.00  0.00     0.001 A 
ATOM     31  C   UNL     1       5.074   4.716   1.898  1.00  0.00     0.001 A 
ENDBRANCH  19  22
ENDBRANCH  14  15
ENDBRANCH  13  14
ENDBRANCH   7  13
ENDBRANCH   4   7
ENDBRANCH   2   3
ENDBRANCH   1   2
BRANCH   1  32
ATOM     32  C   UNL     1      -1.446  -4.297   6.343  1.00  0.00     0.002 C 
BRANCH  32  33
ATOM     33  C   UNL     1      -0.625  -4.658   7.588  1.00  0.00     0.002 C 
BRANCH  33  34
ATOM     34  C   UNL     1      -0.239  -3.493   8.507  1.00  0.00     0.021 C 
BRANCH  34  35
ATOM     35  C   UNL     1      -1.399  -2.631   9.001  1.00  0.00     0.116 C 
BRANCH  35  36
ATOM     36  N   UNL     1      -2.422  -3.420   9.663  1.00  0.00    -0.352 N 
ATOM     37  C   UNL     1      -2.895  -3.379  10.947  1.00  0.00     0.251 C 
ATOM     38  H   UNL     1      -2.847  -4.100   9.092  1.00  0.00     0.163 HD
ATOM     39  O   UNL     1      -3.604  -4.295  11.354  1.00  0.00    -0.269 OA
BRANCH  37  40
ATOM     40  C   UNL     1      -2.575  -2.252  11.851  1.00  0.00     0.039 A 
ATOM     41  C   UNL     1      -2.375  -2.529  13.208  1.00  0.00     0.014 A 
ATOM     42  C   UNL     1      -2.567  -0.927  11.406  1.00  0.00     0.014 A 
ATOM     43  C   UNL     1      -2.152  -1.487  14.109  1.00  0.00     0.010 A 
ATOM     44  C   UNL     1      -2.278   0.109  12.295  1.00  0.00     0.010 A 
ATOM     45  C   UNL     1      -2.092  -0.158  13.659  1.00  0.00    -0.014 A 
BRANCH  45  46
ATOM     46  C   UNL     1      -1.883   0.955  14.620  1.00  0.00     0.031 A 
ATOM     47  C   UNL     1      -2.978   1.956  14.873  1.00  0.00     0.074 A 
ATOM     48  C   UNL     1      -0.701   1.076  15.254  1.00  0.00     0.049 A 
ATOM     49  N   UNL     1      -2.986   2.992  15.675  1.00  0.00    -0.248 NA
ATOM     50  C   UNL     1      -4.222   1.784  14.107  1.00  0.00     0.031 C 
ATOM     51  C   UNL     1       0.453   0.198  15.060  1.00  0.00     0.029 A 
ATOM     52  N   UNL     1      -0.275   1.985  16.188  1.00  0.00    -0.354 N 
ATOM     53  C   UNL     1      -4.223   3.597  15.500  1.00  0.00     0.074 A 
ATOM     54  C   UNL     1      -4.919   2.848  14.477  1.00  0.00     0.031 C 
ATOM     55  C   UNL     1       1.447   0.594  15.871  1.00  0.00     0.029 A 
ATOM     56  C   UNL     1       1.010   1.768  16.621  1.00  0.00     0.049 A 
ATOM     57  H   UNL     1      -0.837   2.724  16.517  1.00  0.00     0.167 HD
ATOM     58  C   UNL     1      -4.744   4.665  16.152  1.00  0.00     0.037 A 
ATOM     59  C   UNL     1       1.749   2.438  17.526  1.00  0.00     0.037 A 
ATOM     60  C   UNL     1      -4.061   5.392  17.190  1.00  0.00     0.049 A 
ATOM     61  C   UNL     1       1.143   3.614  18.244  1.00  0.00     0.074 A 
ATOM     62  C   UNL     1      -4.525   6.449  17.954  1.00  0.00     0.029 A 
ATOM     63  N   UNL     1      -2.765   5.135  17.611  1.00  0.00    -0.354 N 
ATOM     64  N   UNL     1      -0.055   4.131  18.122  1.00  0.00    -0.248 NA
ATOM     65  C   UNL     1       1.992   4.290  19.235  1.00  0.00     0.031 C 
ATOM     66  C   UNL     1      -3.494   6.858  18.808  1.00  0.00     0.029 A 
ATOM     67  C   UNL     1      -2.405   6.026  18.609  1.00  0.00     0.049 A 
ATOM     68  H   UNL     1      -2.186   4.423  17.253  1.00  0.00     0.167 HD
ATOM     69  C   UNL     1      -0.113   5.177  19.033  1.00  0.00     0.074 A 
ATOM     70  C   UNL     1       1.163   5.205  19.717  1.00  0.00     0.031 C 
ATOM     71  C   UNL     1      -1.130   6.040  19.279  1.00  0.00     0.037 A 
BRANCH  58  72
ATOM     72  C   UNL     1      -6.126   5.109  15.764  1.00  0.00     0.064 A 
ATOM     73  C   UNL     1      -7.259   4.340  16.072  1.00  0.00     0.173 A 
ATOM     74  C   UNL     1      -6.324   6.331  15.105  1.00  0.00     0.173 A 
ATOM     75  F   UNL     1      -7.124   3.157  16.692  1.00  0.00    -0.203 F 
ATOM     76  C   UNL     1      -8.534   4.763  15.707  1.00  0.00     0.198 A 
ATOM     77  C   UNL     1      -7.604   6.766  14.768  1.00  0.00     0.198 A 
ATOM     78  F   UNL     1      -5.277   7.109  14.792  1.00  0.00    -0.203 F 
ATOM     79  F   UNL     1      -9.595   3.986  15.967  1.00  0.00    -0.200 F 
ATOM     80  C   UNL     1      -8.707   5.977  15.061  1.00  0.00     0.200 A 
ATOM     81  F   UNL     1      -7.770   7.946  14.155  1.00  0.00    -0.200 F 
ATOM     82  F   UNL     1      -9.935   6.386  14.715  1.00  0.00    -0.200 F 
ENDBRANCH  58  72
BRANCH  59  83
ATOM     83  C   UNL     1       3.133   1.991  17.830  1.00  0.00     0.064 A 
ATOM     84  C   UNL     1       3.446   1.412  19.068  1.00  0.00     0.173 A 
ATOM     85  C   UNL     1       4.169   2.138  16.897  1.00  0.00     0.173 A 
ATOM     86  F   UNL     1       2.492   1.269  20.000  1.00  0.00    -0.203 F 
ATOM     87  C   UNL     1       4.747   1.016  19.369  1.00  0.00     0.198 A 
ATOM     88  C   UNL     1       5.465   1.716  17.189  1.00  0.00     0.198 A 
ATOM     89  F   UNL     1       3.921   2.681  15.697  1.00  0.00    -0.203 F 
ATOM     90  F   UNL     1       5.027   0.507  20.577  1.00  0.00    -0.200 F 
ATOM     91  C   UNL     1       5.754   1.163  18.428  1.00  0.00     0.200 A 
ATOM     92  F   UNL     1       6.433   1.847  16.272  1.00  0.00    -0.200 F 
ATOM     93  F   UNL     1       7.005   0.779  18.717  1.00  0.00    -0.200 F 
ENDBRANCH  59  83
BRANCH  71  94
ATOM     94  C   UNL     1      -0.907   7.071  20.347  1.00  0.00     0.064 A 
ATOM     95  C   UNL     1      -0.032   8.150  20.155  1.00  0.00     0.173 A 
ATOM     96  C   UNL     1      -1.593   6.989  21.569  1.00  0.00     0.173 A 
ATOM     97  F   UNL     1       0.659   8.263  19.011  1.00  0.00    -0.203 F 
ATOM     98  C   UNL     1       0.173   9.092  21.160  1.00  0.00     0.198 A 
ATOM     99  C   UNL     1      -1.409   7.951  22.559  1.00  0.00     0.198 A 
ATOM    100  F   UNL     1      -2.446   5.981  21.800  1.00  0.00    -0.203 F 
ATOM    101  F   UNL     1       1.055  10.084  20.975  1.00  0.00    -0.200 F 
ATOM    102  C   UNL     1      -0.520   8.995  22.357  1.00  0.00     0.200 A 
ATOM    103  F   UNL     1      -2.088   7.862  23.711  1.00  0.00    -0.200 F 
ATOM    104  F   UNL     1      -0.322   9.904  23.322  1.00  0.00    -0.200 F 
ENDBRANCH  71  94
ENDBRANCH  45  46
ENDBRANCH  37  40
ENDBRANCH  35  36
ENDBRANCH  34  35
ENDBRANCH  33  34
ENDBRANCH  32  33
ENDBRANCH   1  32
TORSDOF 18
