REMARK SMILES Cc1ccc(C(=O)c2cccc(C)c2C(=O)NCCCCCCNC(=O)c2ccc(-c3c4nc(c(-c5c(F)c(F)c(F)c(F)c5F)c5ccc([nH]5)c(-c5c(F)c(F)c(F)c(F)c5F)c5nc(c(-c6c(F)c(F)c(F)c(F)c6F)c6ccc3[nH]6)C=C5)C=C4)cc2)c(C)c1
REMARK SMILES IDX 20 1 19 2 18 3 17 4 15 5 16 6 14 8 8 9 9 10 10 11 12 12
REMARK SMILES IDX 11 13 13 14 6 15 7 16 5 17 1 18 2 19 3 20 92 21 4 22 90 23
REMARK SMILES IDX 91 24 21 25 22 26 23 27 24 28 25 29 26 31 27 32 28 33 89 34
REMARK SMILES IDX 29 35 88 36 30 37 31 38 32 39 82 40 33 41 87 42 81 43 83 44
REMARK SMILES IDX 34 45 86 46 80 47 79 48 35 50 67 51 47 52 66 53 48 54 51 55
REMARK SMILES IDX 65 56 84 57 49 58 50 59 64 61 85 62 52 63 36 64 37 65 45 66
REMARK SMILES IDX 38 67 39 68 43 69 46 70 40 71 41 72 44 73 42 74 68 75 69 76
REMARK SMILES IDX 77 77 70 78 71 79 75 80 78 81 72 82 73 83 76 84 74 85 53 86
REMARK SMILES IDX 54 87 62 88 55 89 56 90 60 91 63 92 57 93 58 94 61 95 59 96
REMARK H PARENT 17 7 24 30 83 49 51 60
REMARK Flexibility Score: inf
ROOT
ATOM      1  C   UNL     1      -3.942  -1.853  -4.063  1.00  0.00     0.002 C 
ENDROOT
BRANCH   1   2
ATOM      2  C   UNL     1      -2.966  -2.583  -3.127  1.00  0.00     0.021 C 
BRANCH   2   3
ATOM      3  C   UNL     1      -3.171  -2.446  -1.619  1.00  0.00     0.116 C 
BRANCH   3   4
ATOM      4  N   UNL     1      -4.472  -2.817  -1.118  1.00  0.00    -0.352 N 
ATOM      5  C   UNL     1      -4.896  -3.067   0.172  1.00  0.00     0.252 C 
ATOM      6  O   UNL     1      -6.111  -3.145   0.355  1.00  0.00    -0.269 OA
ATOM      7  H   UNL     1      -5.170  -2.906  -1.806  1.00  0.00     0.163 HD
BRANCH   5   8
ATOM      8  C   UNL     1      -3.960  -3.361   1.310  1.00  0.00     0.053 A 
ATOM      9  C   UNL     1      -2.888  -2.522   1.682  1.00  0.00     0.036 A 
ATOM     10  C   UNL     1      -2.062  -2.858   2.773  1.00  0.00     0.013 A 
ATOM     11  C   UNL     1      -2.275  -4.027   3.494  1.00  0.00     0.001 A 
ATOM     12  C   UNL     1      -4.223  -4.507   2.114  1.00  0.00    -0.038 A 
ATOM     13  C   UNL     1      -3.361  -4.833   3.180  1.00  0.00     0.004 A 
ATOM     14  C   UNL     1      -5.454  -5.364   1.940  1.00  0.00     0.045 C 
BRANCH   9  15
ATOM     15  C   UNL     1      -2.716  -1.169   1.105  1.00  0.00     0.194 C 
ATOM     16  O   UNL     1      -3.732  -0.486   1.025  1.00  0.00    -0.289 OA
BRANCH  15  17
ATOM     17  C   UNL     1      -1.373  -0.633   0.662  1.00  0.00     0.025 A 
ATOM     18  C   UNL     1       2.560   0.930  -0.257  1.00  0.00     0.044 C 
ATOM     19  C   UNL     1       1.194   0.361  -0.009  1.00  0.00    -0.051 A 
ATOM     20  C   UNL     1       1.011  -0.996   0.252  1.00  0.00     0.004 A 
ATOM     21  C   UNL     1       0.079   1.204  -0.002  1.00  0.00     0.007 A 
ATOM     22  C   UNL     1      -0.259  -1.489   0.569  1.00  0.00     0.013 A 
ATOM     23  C   UNL     1      -1.209   0.724   0.305  1.00  0.00    -0.040 A 
ATOM     24  C   UNL     1      -2.349   1.708   0.246  1.00  0.00     0.045 C 
ENDBRANCH  15  17
ENDBRANCH   9  15
ENDBRANCH   5   8
ENDBRANCH   3   4
ENDBRANCH   2   3
ENDBRANCH   1   2
BRANCH   1  25
ATOM     25  C   UNL     1      -4.338  -0.403  -3.747  1.00  0.00     0.002 C 
BRANCH  25  26
ATOM     26  C   UNL     1      -3.216   0.594  -3.466  1.00  0.00     0.021 C 
BRANCH  26  27
ATOM     27  C   UNL     1      -2.263   0.872  -4.619  1.00  0.00     0.116 C 
BRANCH  27  28
ATOM     28  N   UNL     1      -2.638   2.005  -5.463  1.00  0.00    -0.352 N 
ATOM     29  C   UNL     1      -1.933   2.565  -6.516  1.00  0.00     0.251 C 
ATOM     30  H   UNL     1      -3.505   2.424  -5.256  1.00  0.00     0.163 HD
ATOM     31  O   UNL     1      -2.394   3.496  -7.167  1.00  0.00    -0.269 OA
BRANCH  29  32
ATOM     32  C   UNL     1      -0.659   1.933  -6.928  1.00  0.00     0.039 A 
ATOM     33  C   UNL     1      -0.559   1.453  -8.238  1.00  0.00     0.014 A 
ATOM     34  C   UNL     1       0.289   1.585  -5.970  1.00  0.00     0.014 A 
ATOM     35  C   UNL     1       0.318   0.406  -8.505  1.00  0.00     0.010 A 
ATOM     36  C   UNL     1       1.086   0.482  -6.206  1.00  0.00     0.010 A 
ATOM     37  C   UNL     1       1.026  -0.164  -7.447  1.00  0.00    -0.014 A 
BRANCH  37  38
ATOM     38  C   UNL     1       1.567  -1.520  -7.493  1.00  0.00     0.031 A 
ATOM     39  C   UNL     1       3.024  -1.760  -7.526  1.00  0.00     0.074 A 
ATOM     40  C   UNL     1       0.714  -2.566  -7.406  1.00  0.00     0.049 A 
ATOM     41  N   UNL     1       3.559  -2.907  -7.782  1.00  0.00    -0.248 NA
ATOM     42  C   UNL     1       4.007  -0.695  -7.360  1.00  0.00     0.031 C 
ATOM     43  C   UNL     1       1.036  -3.959  -7.101  1.00  0.00     0.029 A 
ATOM     44  N   UNL     1      -0.631  -2.607  -7.819  1.00  0.00    -0.354 N 
ATOM     45  C   UNL     1       4.909  -2.805  -7.550  1.00  0.00     0.074 A 
ATOM     46  C   UNL     1       5.148  -1.389  -7.430  1.00  0.00     0.031 C 
ATOM     47  C   UNL     1       0.076  -4.746  -7.608  1.00  0.00     0.029 A 
ATOM     48  C   UNL     1      -0.805  -3.895  -8.385  1.00  0.00     0.049 A 
ATOM     49  H   UNL     1      -1.305  -1.895  -7.734  1.00  0.00     0.167 HD
ATOM     50  C   UNL     1       5.626  -3.950  -7.367  1.00  0.00     0.037 A 
ATOM     51  C   UNL     1      -1.075  -4.051  -9.715  1.00  0.00     0.037 A 
ATOM     52  C   UNL     1       4.877  -5.117  -7.843  1.00  0.00     0.049 A 
ATOM     53  C   UNL     1      -0.056  -4.865 -10.485  1.00  0.00     0.074 A 
ATOM     54  C   UNL     1       4.210  -6.172  -7.244  1.00  0.00     0.029 A 
ATOM     55  N   UNL     1       4.548  -5.172  -9.188  1.00  0.00    -0.354 N 
ATOM     56  N   UNL     1       1.075  -5.285  -9.990  1.00  0.00    -0.248 NA
ATOM     57  C   UNL     1      -0.187  -5.170 -11.912  1.00  0.00     0.031 C 
ATOM     58  C   UNL     1       3.428  -6.823  -8.246  1.00  0.00     0.029 A 
ATOM     59  C   UNL     1       3.639  -6.176  -9.450  1.00  0.00     0.049 A 
ATOM     60  H   UNL     1       4.917  -4.568  -9.873  1.00  0.00     0.167 HD
ATOM     61  C   UNL     1       1.824  -5.842 -10.989  1.00  0.00     0.074 A 
ATOM     62  C   UNL     1       0.995  -5.753 -12.175  1.00  0.00     0.031 C 
ATOM     63  C   UNL     1       3.091  -6.298 -10.790  1.00  0.00     0.037 A 
BRANCH  50  64
ATOM     64  C   UNL     1       6.946  -4.063  -6.621  1.00  0.00     0.064 A 
ATOM     65  C   UNL     1       7.526  -5.335  -6.402  1.00  0.00     0.173 A 
ATOM     66  C   UNL     1       7.627  -3.003  -5.983  1.00  0.00     0.173 A 
ATOM     67  F   UNL     1       7.005  -6.443  -6.947  1.00  0.00    -0.203 F 
ATOM     68  C   UNL     1       8.652  -5.525  -5.590  1.00  0.00     0.198 A 
ATOM     69  C   UNL     1       8.775  -3.190  -5.207  1.00  0.00     0.198 A 
ATOM     70  F   UNL     1       7.200  -1.740  -6.027  1.00  0.00    -0.203 F 
ATOM     71  F   UNL     1       9.112  -6.765  -5.372  1.00  0.00    -0.200 F 
ATOM     72  C   UNL     1       9.278  -4.452  -4.994  1.00  0.00     0.200 A 
ATOM     73  F   UNL     1       9.367  -2.128  -4.639  1.00  0.00    -0.200 F 
ATOM     74  F   UNL     1      10.347  -4.631  -4.207  1.00  0.00    -0.200 F 
ENDBRANCH  50  64
BRANCH  51  75
ATOM     75  C   UNL     1      -1.855  -2.923 -10.287  1.00  0.00     0.064 A 
ATOM     76  C   UNL     1      -3.129  -2.645  -9.757  1.00  0.00     0.173 A 
ATOM     77  C   UNL     1      -1.243  -1.931 -11.061  1.00  0.00     0.173 A 
ATOM     78  F   UNL     1      -3.758  -3.563  -9.005  1.00  0.00    -0.203 F 
ATOM     79  C   UNL     1      -3.710  -1.387  -9.893  1.00  0.00     0.198 A 
ATOM     80  C   UNL     1      -1.838  -0.678 -11.213  1.00  0.00     0.198 A 
ATOM     81  F   UNL     1      -0.020  -2.126 -11.574  1.00  0.00    -0.203 F 
ATOM     82  F   UNL     1      -4.868  -1.115  -9.276  1.00  0.00    -0.200 F 
ATOM     83  C   UNL     1      -3.050  -0.396 -10.600  1.00  0.00     0.200 A 
ATOM     84  F   UNL     1      -1.184   0.290 -11.870  1.00  0.00    -0.200 F 
ATOM     85  F   UNL     1      -3.557   0.843 -10.654  1.00  0.00    -0.200 F 
ENDBRANCH  51  75
BRANCH  63  86
ATOM     86  C   UNL     1       3.911  -6.899 -11.885  1.00  0.00     0.064 A 
ATOM     87  C   UNL     1       3.434  -7.957 -12.674  1.00  0.00     0.173 A 
ATOM     88  C   UNL     1       5.246  -6.504 -12.096  1.00  0.00     0.173 A 
ATOM     89  F   UNL     1       2.180  -8.410 -12.520  1.00  0.00    -0.203 F 
ATOM     90  C   UNL     1       4.242  -8.574 -13.629  1.00  0.00     0.198 A 
ATOM     91  C   UNL     1       6.064  -7.149 -13.020  1.00  0.00     0.198 A 
ATOM     92  F   UNL     1       5.774  -5.469 -11.425  1.00  0.00    -0.203 F 
ATOM     93  F   UNL     1       3.742  -9.557 -14.390  1.00  0.00    -0.200 F 
ATOM     94  C   UNL     1       5.561  -8.181 -13.791  1.00  0.00     0.200 A 
ATOM     95  F   UNL     1       7.341  -6.766 -13.161  1.00  0.00    -0.200 F 
ATOM     96  F   UNL     1       6.343  -8.792 -14.691  1.00  0.00    -0.200 F 
ENDBRANCH  63  86
ENDBRANCH  37  38
ENDBRANCH  29  32
ENDBRANCH  27  28
ENDBRANCH  26  27
ENDBRANCH  25  26
ENDBRANCH   1  25
TORSDOF 15
