REMARK SMILES CS(=O)(=O)c1ccc(C2=NN(c3ccc(C(=O)NCCCCCCNC(=O)c4ccc(-c5c6nc(c(-c7c(F)c(F)c(F)c(F)c7F)c7ccc([nH]7)c(-c7c(F)c(F)c(F)c(F)c7F)c7nc(c(-c8c(F)c(F)c(F)c(F)c8F)c8ccc5[nH]8)C=C7)C=C6)cc4)cc3)[C@H](c3ccc(Cl)cc3)C2)cc1
REMARK SMILES IDX 21 1 20 2 19 3 18 4 16 5 17 6 15 8 12 9 13 10 92 11 14 12
REMARK SMILES IDX 91 13 11 14 9 15 10 16 101 17 93 18 8 19 5 20 6 21 103 22
REMARK SMILES IDX 7 23 102 24 2 25 1 26 3 27 4 28 94 29 95 30 100 31 96 32
REMARK SMILES IDX 99 33 97 34 98 35 22 36 23 37 24 38 25 39 26 40 27 42 28 43
REMARK SMILES IDX 29 44 90 45 30 46 89 47 31 48 32 49 33 50 83 51 34 52 88 53
REMARK SMILES IDX 82 54 84 55 35 56 87 57 81 58 80 59 36 61 68 62 48 63 67 64
REMARK SMILES IDX 49 65 52 66 66 67 85 68 50 69 51 70 65 72 86 73 53 74 37 75
REMARK SMILES IDX 38 76 46 77 39 78 40 79 44 80 47 81 41 82 42 83 45 84 43 85
REMARK SMILES IDX 69 86 70 87 78 88 71 89 72 90 76 91 79 92 73 93 74 94 77 95
REMARK SMILES IDX 75 96 54 97 55 98 63 99 56 100 57 101 61 102 64 103 58 104
REMARK SMILES IDX 59 105 62 106 60 107
REMARK H PARENT 18 7 25 41 84 60 52 71
REMARK Flexibility Score: inf
ROOT
ATOM      1  C   UNL     1       4.478  -3.440 -16.334  1.00  0.00     0.002 C 
ENDROOT
BRANCH   1   2
ATOM      2  C   UNL     1       4.434  -2.896 -14.901  1.00  0.00     0.021 C 
BRANCH   2   3
ATOM      3  C   UNL     1       3.949  -1.448 -14.815  1.00  0.00     0.116 C 
BRANCH   3   4
ATOM      4  N   UNL     1       2.507  -1.389 -14.977  1.00  0.00    -0.352 N 
ATOM      5  C   UNL     1       1.507  -1.146 -14.070  1.00  0.00     0.251 C 
ATOM      6  O   UNL     1       0.345  -1.095 -14.470  1.00  0.00    -0.269 OA
ATOM      7  H   UNL     1       2.194  -1.550 -15.896  1.00  0.00     0.163 HD
BRANCH   5   8
ATOM      8  C   UNL     1       1.800  -0.867 -12.643  1.00  0.00     0.039 A 
ATOM      9  C   UNL     1       2.381  -0.113  -9.997  1.00  0.00     0.060 A 
ATOM     10  C   UNL     1       1.352   0.518 -10.703  1.00  0.00     0.029 A 
ATOM     11  C   UNL     1       3.054  -1.179 -10.601  1.00  0.00     0.029 A 
ATOM     12  C   UNL     1       1.058   0.141 -12.016  1.00  0.00     0.016 A 
ATOM     13  C   UNL     1       2.760  -1.566 -11.909  1.00  0.00     0.016 A 
BRANCH   9  14
ATOM     14  N   UNL     1       2.755   0.302  -8.733  1.00  0.00    -0.257 N 
ATOM     15  C   UNL     1       2.429   0.480  -6.649  1.00  0.00     0.071 C 
ATOM     16  N   UNL     1       2.242  -0.320  -7.651  1.00  0.00    -0.176 NA
ATOM     17  C   UNL     1       3.076   1.800  -6.981  1.00  0.00     0.091 C 
ATOM     18  C   UNL     1       3.467   1.546  -8.448  1.00  0.00     0.144 C 
BRANCH  15  19
ATOM     19  C   UNL     1       1.992   0.125  -5.288  1.00  0.00    -0.002 A 
ATOM     20  C   UNL     1       1.015  -0.684  -2.813  1.00  0.00     0.067 A 
ATOM     21  C   UNL     1       1.590  -1.628  -3.667  1.00  0.00     0.021 A 
ATOM     22  C   UNL     1       0.928   0.662  -3.187  1.00  0.00     0.021 A 
ATOM     23  C   UNL     1       2.067  -1.222  -4.910  1.00  0.00     0.011 A 
ATOM     24  C   UNL     1       1.432   1.072  -4.426  1.00  0.00     0.011 A 
BRANCH  20  25
ATOM     25  S   UNL     1       0.345  -1.220  -1.255  1.00  0.00     0.175 S 
ATOM     26  C   UNL     1       1.082  -0.146  -0.053  1.00  0.00     0.163 C 
ATOM     27  O   UNL     1       0.852  -2.556  -0.999  1.00  0.00    -0.224 OA
ATOM     28  O   UNL     1      -1.077  -0.951  -1.299  1.00  0.00    -0.224 OA
ENDBRANCH  20  25
ENDBRANCH  15  19
BRANCH  18  29
ATOM     29  C   UNL     1       4.949   1.363  -8.778  1.00  0.00    -0.023 A 
ATOM     30  C   UNL     1       5.930   1.034  -7.830  1.00  0.00     0.007 A 
ATOM     31  C   UNL     1       5.346   1.449 -10.130  1.00  0.00     0.007 A 
ATOM     32  C   UNL     1       7.258   0.811  -8.217  1.00  0.00     0.021 A 
ATOM     33  C   UNL     1       6.665   1.202 -10.521  1.00  0.00     0.021 A 
ATOM     34  C   UNL     1       7.617   0.887  -9.560  1.00  0.00     0.041 A 
ATOM     35  Cl  UNL     1       9.240   0.572 -10.036  1.00  0.00    -0.084 Cl
ENDBRANCH  18  29
ENDBRANCH   9  14
ENDBRANCH   5   8
ENDBRANCH   3   4
ENDBRANCH   2   3
ENDBRANCH   1   2
BRANCH   1  36
ATOM     36  C   UNL     1       5.482  -2.740 -17.259  1.00  0.00     0.002 C 
BRANCH  36  37
ATOM     37  C   UNL     1       6.926  -2.720 -16.751  1.00  0.00     0.021 C 
BRANCH  37  38
ATOM     38  C   UNL     1       7.536  -4.101 -16.530  1.00  0.00     0.116 C 
BRANCH  38  39
ATOM     39  N   UNL     1       7.673  -4.838 -17.777  1.00  0.00    -0.352 N 
ATOM     40  C   UNL     1       8.791  -5.407 -18.332  1.00  0.00     0.251 C 
ATOM     41  H   UNL     1       6.845  -4.942 -18.298  1.00  0.00     0.163 HD
ATOM     42  O   UNL     1       8.772  -5.804 -19.493  1.00  0.00    -0.269 OA
BRANCH  40  43
ATOM     43  C   UNL     1      10.028  -5.533 -17.534  1.00  0.00     0.039 A 
ATOM     44  C   UNL     1      11.251  -5.204 -18.125  1.00  0.00     0.014 A 
ATOM     45  C   UNL     1       9.986  -5.993 -16.215  1.00  0.00     0.014 A 
ATOM     46  C   UNL     1      12.426  -5.286 -17.375  1.00  0.00     0.010 A 
ATOM     47  C   UNL     1      11.148  -6.010 -15.449  1.00  0.00     0.010 A 
ATOM     48  C   UNL     1      12.380  -5.662 -16.023  1.00  0.00    -0.014 A 
BRANCH  48  49
ATOM     49  C   UNL     1      13.611  -5.700 -15.194  1.00  0.00     0.031 A 
ATOM     50  C   UNL     1      14.108  -7.007 -14.641  1.00  0.00     0.074 A 
ATOM     51  C   UNL     1      14.243  -4.551 -14.888  1.00  0.00     0.049 A 
ATOM     52  N   UNL     1      15.120  -7.237 -13.842  1.00  0.00    -0.248 NA
ATOM     53  C   UNL     1      13.354  -8.213 -15.017  1.00  0.00     0.031 C 
ATOM     54  C   UNL     1      13.832  -3.218 -15.329  1.00  0.00     0.029 A 
ATOM     55  N   UNL     1      15.361  -4.320 -14.126  1.00  0.00    -0.354 N 
ATOM     56  C   UNL     1      15.113  -8.605 -13.608  1.00  0.00     0.074 A 
ATOM     57  C   UNL     1      13.969  -9.149 -14.309  1.00  0.00     0.031 C 
ATOM     58  C   UNL     1      14.697  -2.310 -14.848  1.00  0.00     0.029 A 
ATOM     59  C   UNL     1      15.700  -2.992 -14.036  1.00  0.00     0.049 A 
ATOM     60  H   UNL     1      15.871  -5.038 -13.686  1.00  0.00     0.167 HD
ATOM     61  C   UNL     1      15.994  -9.344 -12.893  1.00  0.00     0.037 A 
ATOM     62  C   UNL     1      16.704  -2.393 -13.367  1.00  0.00     0.037 A 
ATOM     63  C   UNL     1      17.145  -8.803 -12.219  1.00  0.00     0.049 A 
ATOM     64  C   UNL     1      17.665  -3.238 -12.575  1.00  0.00     0.074 A 
ATOM     65  C   UNL     1      18.130  -9.476 -11.517  1.00  0.00     0.029 A 
ATOM     66  N   UNL     1      17.465  -7.455 -12.164  1.00  0.00    -0.354 N 
ATOM     67  N   UNL     1      17.686  -4.538 -12.414  1.00  0.00    -0.248 NA
ATOM     68  C   UNL     1      18.747  -2.529 -11.876  1.00  0.00     0.031 C 
ATOM     69  C   UNL     1      19.021  -8.531 -10.999  1.00  0.00     0.029 A 
ATOM     70  C   UNL     1      18.622  -7.273 -11.421  1.00  0.00     0.049 A 
ATOM     71  H   UNL     1      16.948  -6.733 -12.589  1.00  0.00     0.167 HD
ATOM     72  C   UNL     1      18.795  -4.807 -11.623  1.00  0.00     0.074 A 
ATOM     73  C   UNL     1      19.430  -3.535 -11.348  1.00  0.00     0.031 C 
ATOM     74  C   UNL     1      19.246  -6.001 -11.166  1.00  0.00     0.037 A 
BRANCH  61  75
ATOM     75  C   UNL     1      15.751 -10.823 -12.805  1.00  0.00     0.064 A 
ATOM     76  C   UNL     1      15.921 -11.664 -13.916  1.00  0.00     0.173 A 
ATOM     77  C   UNL     1      15.385 -11.414 -11.586  1.00  0.00     0.173 A 
ATOM     78  F   UNL     1      16.260 -11.148 -15.107  1.00  0.00    -0.203 F 
ATOM     79  C   UNL     1      15.708 -13.036 -13.816  1.00  0.00     0.198 A 
ATOM     80  C   UNL     1      15.202 -12.791 -11.483  1.00  0.00     0.198 A 
ATOM     81  F   UNL     1      15.215 -10.658 -10.491  1.00  0.00    -0.203 F 
ATOM     82  F   UNL     1      15.832 -13.812 -14.902  1.00  0.00    -0.200 F 
ATOM     83  C   UNL     1      15.357 -13.600 -12.599  1.00  0.00     0.200 A 
ATOM     84  F   UNL     1      14.876 -13.336 -10.303  1.00  0.00    -0.200 F 
ATOM     85  F   UNL     1      15.161 -14.922 -12.502  1.00  0.00    -0.200 F 
ENDBRANCH  61  75
BRANCH  62  86
ATOM     86  C   UNL     1      16.869  -0.918 -13.440  1.00  0.00     0.064 A 
ATOM     87  C   UNL     1      17.952  -0.350 -14.125  1.00  0.00     0.173 A 
ATOM     88  C   UNL     1      15.957  -0.048 -12.826  1.00  0.00     0.173 A 
ATOM     89  F   UNL     1      18.863  -1.142 -14.710  1.00  0.00    -0.203 F 
ATOM     90  C   UNL     1      18.128   1.030 -14.175  1.00  0.00     0.198 A 
ATOM     91  C   UNL     1      16.118   1.334 -12.901  1.00  0.00     0.198 A 
ATOM     92  F   UNL     1      14.901  -0.541 -12.162  1.00  0.00    -0.203 F 
ATOM     93  F   UNL     1      19.198   1.545 -14.797  1.00  0.00    -0.200 F 
ATOM     94  C   UNL     1      17.209   1.872 -13.569  1.00  0.00     0.200 A 
ATOM     95  F   UNL     1      15.220   2.144 -12.325  1.00  0.00    -0.200 F 
ATOM     96  F   UNL     1      17.377   3.200 -13.620  1.00  0.00    -0.200 F 
ENDBRANCH  62  86
BRANCH  74  97
ATOM     97  C   UNL     1      20.508  -5.993 -10.353  1.00  0.00     0.064 A 
ATOM     98  C   UNL     1      20.536  -5.497  -9.041  1.00  0.00     0.173 A 
ATOM     99  C   UNL     1      21.694  -6.527 -10.880  1.00  0.00     0.173 A 
ATOM    100  F   UNL     1      19.432  -4.962  -8.498  1.00  0.00    -0.203 F 
ATOM    101  C   UNL     1      21.712  -5.512  -8.297  1.00  0.00     0.198 A 
ATOM    102  C   UNL     1      22.860  -6.569 -10.122  1.00  0.00     0.198 A 
ATOM    103  F   UNL     1      21.718  -7.021 -12.127  1.00  0.00    -0.203 F 
ATOM    104  F   UNL     1      21.729  -4.989  -7.063  1.00  0.00    -0.200 F 
ATOM    105  C   UNL     1      22.870  -6.055  -8.834  1.00  0.00     0.200 A 
ATOM    106  F   UNL     1      23.974  -7.106 -10.637  1.00  0.00    -0.200 F 
ATOM    107  F   UNL     1      23.999  -6.076  -8.112  1.00  0.00    -0.200 F 
ENDBRANCH  74  97
ENDBRANCH  48  49
ENDBRANCH  40  43
ENDBRANCH  38  39
ENDBRANCH  37  38
ENDBRANCH  36  37
ENDBRANCH   1  36
TORSDOF 17
