REMARK SMILES O=C(NCCCCCCNC(=O)[C@@H]1C[C@@H]1C(=O)N1CCN(c2ncc(C(F)(F)F)cc2Cl)CC1)c1ccc(-c2c3nc(c(-c4c(F)c(F)c(F)c(F)c4F)c4ccc([nH]4)c(-c4c(F)c(F)c(F)c(F)c4F)c4nc(c(-c5c(F)c(F)c(F)c(F)c5F)c5ccc2[nH]5)C=C4)C=C3)cc1
REMARK SMILES IDX 7 1 6 2 5 3 4 4 3 5 1 6 2 7 35 9 36 10 97 11 37 12 96 13
REMARK SMILES IDX 38 14 39 15 40 16 90 17 41 18 95 19 89 20 91 21 42 22 94 23
REMARK SMILES IDX 88 24 87 25 43 27 75 28 55 29 74 30 56 31 59 32 73 33 92 34
REMARK SMILES IDX 57 35 58 36 72 38 93 39 60 40 44 41 45 42 53 43 46 44 47 45
REMARK SMILES IDX 51 46 54 47 48 48 49 49 52 50 50 51 76 52 77 53 85 54 78 55
REMARK SMILES IDX 79 56 83 57 86 58 80 59 81 60 84 61 82 62 61 63 62 64 70 65
REMARK SMILES IDX 63 66 64 67 68 68 71 69 65 70 66 71 69 72 67 73 8 74 9 75
REMARK SMILES IDX 10 76 11 77 12 79 13 80 14 81 15 82 16 83 17 84 18 85 19 86
REMARK SMILES IDX 34 87 20 88 33 89 21 90 22 91 23 92 31 93 24 94 30 95 32 96
REMARK SMILES IDX 25 97 26 98 27 99 28 100 29 101
REMARK H PARENT 3 8 91 26 59 37 10 78
REMARK Flexibility Score: inf
ROOT
ATOM      1  C   UNL     1       4.843  -2.120  -3.778  1.00  0.00     0.002 C 
ENDROOT
BRANCH   1   2
ATOM      2  C   UNL     1       4.156  -2.882  -2.641  1.00  0.00     0.002 C 
BRANCH   2   3
ATOM      3  C   UNL     1       4.544  -2.424  -1.236  1.00  0.00     0.021 C 
BRANCH   3   4
ATOM      4  C   UNL     1       4.348  -0.935  -0.981  1.00  0.00     0.116 C 
BRANCH   4   5
ATOM      5  N   UNL     1       2.949  -0.540  -1.004  1.00  0.00    -0.352 N 
ATOM      6  O   UNL     1       1.026   0.304  -0.165  1.00  0.00    -0.269 OA
ATOM      7  C   UNL     1       2.243   0.181  -0.071  1.00  0.00     0.251 C 
ATOM      8  H   UNL     1       2.438  -0.827  -1.796  1.00  0.00     0.163 HD
BRANCH   7   9
ATOM      9  C   UNL     1       2.962   0.781   1.073  1.00  0.00     0.039 A 
ATOM     10  C   UNL     1       4.159   1.472   0.872  1.00  0.00     0.014 A 
ATOM     11  C   UNL     1       2.447   0.624   2.362  1.00  0.00     0.014 A 
ATOM     12  C   UNL     1       4.920   1.859   1.966  1.00  0.00     0.010 A 
ATOM     13  C   UNL     1       3.171   1.100   3.459  1.00  0.00     0.010 A 
ATOM     14  C   UNL     1       4.433   1.686   3.273  1.00  0.00    -0.014 A 
BRANCH  14  15
ATOM     15  C   UNL     1       5.249   2.166   4.417  1.00  0.00     0.031 A 
ATOM     16  C   UNL     1       5.803   1.211   5.437  1.00  0.00     0.074 A 
ATOM     17  C   UNL     1       5.526   3.482   4.503  1.00  0.00     0.049 A 
ATOM     18  N   UNL     1       6.576   1.460   6.466  1.00  0.00    -0.248 NA
ATOM     19  C   UNL     1       5.438  -0.206   5.295  1.00  0.00     0.031 C 
ATOM     20  C   UNL     1       5.032   4.505   3.579  1.00  0.00     0.029 A 
ATOM     21  N   UNL     1       6.306   4.181   5.387  1.00  0.00    -0.354 N 
ATOM     22  C   UNL     1       6.767   0.241   7.105  1.00  0.00     0.074 A 
ATOM     23  C   UNL     1       6.011  -0.745   6.362  1.00  0.00     0.031 C 
ATOM     24  C   UNL     1       5.569   5.689   3.906  1.00  0.00     0.029 A 
ATOM     25  C   UNL     1       6.392   5.521   5.099  1.00  0.00     0.049 A 
ATOM     26  H   UNL     1       6.760   3.764   6.155  1.00  0.00     0.167 HD
ATOM     27  C   UNL     1       7.510  -0.028   8.207  1.00  0.00     0.037 A 
ATOM     28  C   UNL     1       7.053   6.508   5.728  1.00  0.00     0.037 A 
ATOM     29  C   UNL     1       8.280   0.955   8.927  1.00  0.00     0.049 A 
ATOM     30  C   UNL     1       7.859   6.181   6.952  1.00  0.00     0.074 A 
ATOM     31  C   UNL     1       9.107   0.772  10.022  1.00  0.00     0.029 A 
ATOM     32  N   UNL     1       8.314   2.310   8.626  1.00  0.00    -0.354 N 
ATOM     33  N   UNL     1       8.068   5.017   7.518  1.00  0.00    -0.248 NA
ATOM     34  C   UNL     1       8.519   7.306   7.625  1.00  0.00     0.031 C 
ATOM     35  C   UNL     1       9.601   2.021  10.414  1.00  0.00     0.029 A 
ATOM     36  C   UNL     1       9.126   2.977   9.531  1.00  0.00     0.049 A 
ATOM     37  H   UNL     1       7.832   2.734   7.879  1.00  0.00     0.167 HD
ATOM     38  C   UNL     1       8.900   5.265   8.600  1.00  0.00     0.074 A 
ATOM     39  C   UNL     1       9.173   6.688   8.598  1.00  0.00     0.031 C 
ATOM     40  C   UNL     1       9.391   4.393   9.514  1.00  0.00     0.037 A 
BRANCH  27  41
ATOM     41  C   UNL     1       7.511  -1.439   8.721  1.00  0.00     0.064 A 
ATOM     42  C   UNL     1       8.163  -2.477   8.039  1.00  0.00     0.173 A 
ATOM     43  C   UNL     1       6.887  -1.748   9.941  1.00  0.00     0.173 A 
ATOM     44  F   UNL     1       8.766  -2.239   6.865  1.00  0.00    -0.203 F 
ATOM     45  C   UNL     1       8.167  -3.776   8.544  1.00  0.00     0.198 A 
ATOM     46  C   UNL     1       6.918  -3.042  10.457  1.00  0.00     0.198 A 
ATOM     47  F   UNL     1       6.256  -0.793  10.638  1.00  0.00    -0.203 F 
ATOM     48  F   UNL     1       8.757  -4.760   7.852  1.00  0.00    -0.200 F 
ATOM     49  C   UNL     1       7.551  -4.056   9.755  1.00  0.00     0.200 A 
ATOM     50  F   UNL     1       6.333  -3.307  11.633  1.00  0.00    -0.200 F 
ATOM     51  F   UNL     1       7.562  -5.304  10.242  1.00  0.00    -0.200 F 
ENDBRANCH  27  41
BRANCH  28  52
ATOM     52  C   UNL     1       6.988   7.894   5.199  1.00  0.00     0.064 A 
ATOM     53  C   UNL     1       8.117   8.501   4.632  1.00  0.00     0.173 A 
ATOM     54  C   UNL     1       5.797   8.634   5.235  1.00  0.00     0.173 A 
ATOM     55  F   UNL     1       9.283   7.839   4.591  1.00  0.00    -0.203 F 
ATOM     56  C   UNL     1       8.061   9.800   4.134  1.00  0.00     0.198 A 
ATOM     57  C   UNL     1       5.734   9.922   4.709  1.00  0.00     0.198 A 
ATOM     58  F   UNL     1       4.688   8.095   5.762  1.00  0.00    -0.203 F 
ATOM     59  F   UNL     1       9.165  10.371   3.633  1.00  0.00    -0.200 F 
ATOM     60  C   UNL     1       6.868  10.507   4.166  1.00  0.00     0.200 A 
ATOM     61  F   UNL     1       4.575  10.593   4.726  1.00  0.00    -0.200 F 
ATOM     62  F   UNL     1       6.812  11.753   3.678  1.00  0.00    -0.200 F 
ENDBRANCH  28  52
BRANCH  40  63
ATOM     63  C   UNL     1      10.304   4.953  10.565  1.00  0.00     0.064 A 
ATOM     64  C   UNL     1       9.824   5.770  11.600  1.00  0.00     0.173 A 
ATOM     65  C   UNL     1      11.675   4.657  10.543  1.00  0.00     0.173 A 
ATOM     66  F   UNL     1       8.524   6.096  11.654  1.00  0.00    -0.203 F 
ATOM     67  C   UNL     1      10.689   6.297  12.555  1.00  0.00     0.198 A 
ATOM     68  C   UNL     1      12.532   5.160  11.518  1.00  0.00     0.198 A 
ATOM     69  F   UNL     1      12.184   3.876   9.578  1.00  0.00    -0.203 F 
ATOM     70  F   UNL     1      10.218   7.121  13.500  1.00  0.00    -0.200 F 
ATOM     71  C   UNL     1      12.041   5.987  12.516  1.00  0.00     0.200 A 
ATOM     72  F   UNL     1      13.836   4.851  11.486  1.00  0.00    -0.200 F 
ATOM     73  F   UNL     1      12.872   6.495  13.437  1.00  0.00    -0.200 F 
ENDBRANCH  40  63
ENDBRANCH  14  15
ENDBRANCH   7   9
ENDBRANCH   4   5
ENDBRANCH   3   4
ENDBRANCH   2   3
ENDBRANCH   1   2
BRANCH   1  74
ATOM     74  C   UNL     1       6.378  -2.080  -3.703  1.00  0.00     0.021 C 
BRANCH  74  75
ATOM     75  C   UNL     1       7.040  -3.458  -3.773  1.00  0.00     0.116 C 
BRANCH  75  76
ATOM     76  N   UNL     1       6.808  -4.028  -5.085  1.00  0.00    -0.356 N 
ATOM     77  C   UNL     1       7.684  -4.118  -6.128  1.00  0.00     0.223 C 
ATOM     78  H   UNL     1       5.908  -4.395  -5.244  1.00  0.00     0.163 HD
ATOM     79  O   UNL     1       7.255  -4.085  -7.281  1.00  0.00    -0.275 OA
BRANCH  77  80
ATOM     80  C   UNL     1       9.108  -4.390  -5.845  1.00  0.00     0.091 C 
ATOM     81  C   UNL     1      10.141  -4.152  -6.913  1.00  0.00     0.028 C 
ATOM     82  C   UNL     1       9.839  -5.564  -6.460  1.00  0.00     0.092 C 
BRANCH  82  83
ATOM     83  C   UNL     1       9.306  -6.550  -7.443  1.00  0.00     0.226 C 
ATOM     84  O   UNL     1       9.831  -6.646  -8.546  1.00  0.00    -0.275 OA
ATOM     85  N   UNL     1       8.502  -7.529  -6.890  1.00  0.00    -0.339 N 
ATOM     86  C   UNL     1       8.846  -8.937  -7.126  1.00  0.00     0.141 C 
ATOM     87  C   UNL     1       7.063  -7.305  -6.762  1.00  0.00     0.141 C 
ATOM     88  C   UNL     1       8.223  -9.865  -6.050  1.00  0.00     0.139 C 
ATOM     89  C   UNL     1       6.479  -8.160  -5.638  1.00  0.00     0.139 C 
ATOM     90  N   UNL     1       6.794  -9.558  -5.929  1.00  0.00    -0.352 N 
BRANCH  90  91
ATOM     91  C   UNL     1       5.888 -10.534  -5.586  1.00  0.00     0.147 A 
ATOM     92  N   UNL     1       6.275 -11.457  -4.672  1.00  0.00    -0.237 NA
ATOM     93  C   UNL     1       4.611 -10.598  -6.176  1.00  0.00     0.084 A 
ATOM     94  C   UNL     1       5.391 -12.422  -4.317  1.00  0.00     0.126 A 
ATOM     95  C   UNL     1       3.726 -11.605  -5.798  1.00  0.00     0.039 A 
ATOM     96  Cl  UNL     1       4.097  -9.532  -7.440  1.00  0.00    -0.080 Cl
ATOM     97  C   UNL     1       4.115 -12.543  -4.845  1.00  0.00     0.075 A 
BRANCH  97  98
ATOM     98  C   UNL     1       3.213 -13.649  -4.401  1.00  0.00     0.417 C 
ATOM     99  F   UNL     1       3.786 -14.876  -4.532  1.00  0.00    -0.166 F 
ATOM    100  F   UNL     1       2.860 -13.536  -3.092  1.00  0.00    -0.166 F 
ATOM    101  F   UNL     1       2.046 -13.705  -5.099  1.00  0.00    -0.166 F 
ENDBRANCH  97  98
ENDBRANCH  90  91
ENDBRANCH  82  83
ENDBRANCH  77  80
ENDBRANCH  75  76
ENDBRANCH  74  75
ENDBRANCH   1  74
TORSDOF 16
