REMARK SMILES O=C(C[N@@H+]1CCC[C@@H]1c1nc2ccccc2s1)Nc1sc2c(c1C(=O)NCCCCCCNC(=O)c1ccc(-c3c4nc(c(-c5c(F)c(F)c(F)c(F)c5F)c5ccc([nH]5)c(-c5c(F)c(F)c(F)c(F)c5F)c5nc(c(-c6c(F)c(F)c(F)c(F)c6F)c6ccc3[nH]6)C=C5)C=C4)cc1)CCCC2
REMARK SMILES IDX 28 1 27 2 26 3 24 4 25 5 23 7 19 8 20 9 21 10 22 11 102 12
REMARK SMILES IDX 99 13 101 14 100 15 18 16 1 17 2 18 3 20 4 21 5 22 8 23 6 25
REMARK SMILES IDX 7 26 9 27 10 28 17 29 11 30 16 31 12 32 15 33 13 34 14 35
REMARK SMILES IDX 29 36 30 37 31 38 32 39 33 40 34 41 35 43 36 44 37 45 98 46
REMARK SMILES IDX 38 47 97 48 39 49 40 50 41 51 91 52 42 53 96 54 90 55 92 56
REMARK SMILES IDX 43 57 95 58 89 59 88 60 44 62 76 63 56 64 75 65 57 66 60 67
REMARK SMILES IDX 74 68 93 69 58 70 59 71 73 73 94 74 61 75 45 76 46 77 54 78
REMARK SMILES IDX 47 79 48 80 52 81 55 82 49 83 50 84 53 85 51 86 77 87 78 88
REMARK SMILES IDX 86 89 79 90 80 91 84 92 87 93 81 94 82 95 85 96 83 97 62 98
REMARK SMILES IDX 63 99 71 100 64 101 65 102 69 103 72 104 66 105 67 106
REMARK SMILES IDX 70 107 68 108
REMARK H PARENT 26 6 18 19 4 24 33 42 92 61 60 72
REMARK Flexibility Score: inf
ROOT
ATOM      1  C   UNL     1       4.177   5.567  -4.595  1.00  0.00     0.021 C 
ENDROOT
BRANCH   1   2
ATOM      2  C   UNL     1       3.532   4.176  -4.601  1.00  0.00     0.116 C 
BRANCH   2   3
ATOM      3  N   UNL     1       4.133   3.357  -3.578  1.00  0.00    -0.352 N 
ATOM      4  C   UNL     1       3.703   2.874  -2.375  1.00  0.00     0.254 C 
ATOM      5  O   UNL     1       4.498   2.095  -1.836  1.00  0.00    -0.269 OA
ATOM      6  H   UNL     1       5.055   3.087  -3.794  1.00  0.00     0.163 HD
BRANCH   4   7
ATOM      7  C   UNL     1       2.388   3.155  -1.764  1.00  0.00     0.078 A 
ATOM      8  C   UNL     1       1.801   2.151  -0.979  1.00  0.00     0.109 A 
ATOM      9  S   UNL     1       0.343   2.626  -0.264  1.00  0.00    -0.122 S 
ATOM     10  C   UNL     1       0.427   4.170  -0.932  1.00  0.00     0.011 A 
ATOM     11  C   UNL     1       1.542   4.358  -1.735  1.00  0.00    -0.019 A 
ATOM     12  C   UNL     1      -0.617   5.194  -0.601  1.00  0.00     0.047 C 
ATOM     13  C   UNL     1       1.732   5.693  -2.407  1.00  0.00     0.037 C 
ATOM     14  C   UNL     1      -0.614   6.308  -1.647  1.00  0.00     0.006 C 
ATOM     15  C   UNL     1       0.813   6.809  -1.880  1.00  0.00     0.005 C 
BRANCH   8  16
ATOM     16  N   UNL     1       2.309   0.878  -0.733  1.00  0.00    -0.312 N 
ATOM     17  O   UNL     1       0.631  -0.132   0.539  1.00  0.00    -0.268 OA
ATOM     18  C   UNL     1       1.745  -0.139   0.013  1.00  0.00     0.280 C 
ATOM     19  H   UNL     1       3.182   0.678  -1.143  1.00  0.00     0.170 HD
BRANCH  18  20
ATOM     20  C   UNL     1       2.620  -1.401   0.169  1.00  0.00     0.364 C 
BRANCH  20  21
ATOM     21  N   UNL     1       3.701  -1.518  -0.851  1.00  0.00    -0.319 N 
ATOM     22  C   UNL     1       3.803  -2.934  -1.274  1.00  0.00     0.263 C 
ATOM     23  C   UNL     1       5.093  -1.201  -0.357  1.00  0.00     0.245 C 
ATOM     24  H   UNL     1       3.436  -0.852  -1.577  1.00  0.00     0.349 HD
ATOM     25  C   UNL     1       4.664  -3.590  -0.214  1.00  0.00     0.068 C 
ATOM     26  C   UNL     1       5.738  -2.549   0.026  1.00  0.00     0.079 C 
BRANCH  23  27
ATOM     27  C   UNL     1       5.282  -0.146   0.718  1.00  0.00     0.151 A 
ATOM     28  N   UNL     1       4.314   0.482   1.347  1.00  0.00    -0.235 NA
ATOM     29  S   UNL     1       6.872   0.318   1.209  1.00  0.00    -0.113 S 
ATOM     30  C   UNL     1       4.817   1.350   2.290  1.00  0.00     0.082 A 
ATOM     31  C   UNL     1       6.206   1.373   2.396  1.00  0.00     0.055 A 
ATOM     32  C   UNL     1       4.048   2.170   3.136  1.00  0.00     0.030 A 
ATOM     33  C   UNL     1       6.858   2.169   3.352  1.00  0.00     0.021 A 
ATOM     34  C   UNL     1       4.685   2.970   4.088  1.00  0.00     0.002 A 
ATOM     35  C   UNL     1       6.072   2.961   4.198  1.00  0.00     0.002 A 
ENDBRANCH  23  27
ENDBRANCH  20  21
ENDBRANCH  18  20
ENDBRANCH   8  16
ENDBRANCH   4   7
ENDBRANCH   2   3
ENDBRANCH   1   2
BRANCH   1  36
ATOM     36  C   UNL     1       5.276   5.731  -5.649  1.00  0.00     0.002 C 
BRANCH  36  37
ATOM     37  C   UNL     1       4.755   5.808  -7.089  1.00  0.00     0.002 C 
BRANCH  37  38
ATOM     38  C   UNL     1       3.783   6.959  -7.368  1.00  0.00     0.021 C 
BRANCH  38  39
ATOM     39  C   UNL     1       4.339   8.350  -7.073  1.00  0.00     0.116 C 
BRANCH  39  40
ATOM     40  N   UNL     1       5.489   8.657  -7.909  1.00  0.00    -0.352 N 
ATOM     41  C   UNL     1       5.651   9.651  -8.841  1.00  0.00     0.251 C 
ATOM     42  H   UNL     1       6.266   8.065  -7.788  1.00  0.00     0.163 HD
ATOM     43  O   UNL     1       6.588   9.612  -9.630  1.00  0.00    -0.269 OA
BRANCH  41  44
ATOM     44  C   UNL     1       4.690  10.772  -8.897  1.00  0.00     0.039 A 
ATOM     45  C   UNL     1       4.235  11.214 -10.142  1.00  0.00     0.014 A 
ATOM     46  C   UNL     1       4.268  11.408  -7.726  1.00  0.00     0.014 A 
ATOM     47  C   UNL     1       3.317  12.264 -10.210  1.00  0.00     0.010 A 
ATOM     48  C   UNL     1       3.301  12.408  -7.791  1.00  0.00     0.010 A 
ATOM     49  C   UNL     1       2.823  12.851  -9.034  1.00  0.00    -0.014 A 
BRANCH  49  50
ATOM     50  C   UNL     1       1.812  13.936  -9.081  1.00  0.00     0.031 A 
ATOM     51  C   UNL     1       2.158  15.312  -8.585  1.00  0.00     0.074 A 
ATOM     52  C   UNL     1       0.562  13.661  -9.499  1.00  0.00     0.049 A 
ATOM     53  N   UNL     1       1.393  16.368  -8.470  1.00  0.00    -0.248 NA
ATOM     54  C   UNL     1       3.541  15.520  -8.129  1.00  0.00     0.031 C 
ATOM     55  C   UNL     1       0.092  12.351  -9.952  1.00  0.00     0.029 A 
ATOM     56  N   UNL     1      -0.547  14.464  -9.595  1.00  0.00    -0.354 N 
ATOM     57  C   UNL     1       2.194  17.355  -7.910  1.00  0.00     0.074 A 
ATOM     58  C   UNL     1       3.489  16.759  -7.664  1.00  0.00     0.031 C 
ATOM     59  C   UNL     1      -1.204  12.443 -10.289  1.00  0.00     0.029 A 
ATOM     60  C   UNL     1      -1.665  13.806 -10.044  1.00  0.00     0.049 A 
ATOM     61  H   UNL     1      -0.541  15.421  -9.363  1.00  0.00     0.167 HD
ATOM     62  C   UNL     1       1.881  18.646  -7.645  1.00  0.00     0.037 A 
ATOM     63  C   UNL     1      -2.922  14.251 -10.229  1.00  0.00     0.037 A 
ATOM     64  C   UNL     1       0.600  19.240  -7.923  1.00  0.00     0.049 A 
ATOM     65  C   UNL     1      -3.239  15.694  -9.945  1.00  0.00     0.074 A 
ATOM     66  C   UNL     1       0.207  20.558  -7.766  1.00  0.00     0.029 A 
ATOM     67  N   UNL     1      -0.500  18.550  -8.412  1.00  0.00    -0.354 N 
ATOM     68  N   UNL     1      -2.453  16.639  -9.491  1.00  0.00    -0.248 NA
ATOM     69  C   UNL     1      -4.616  16.134 -10.210  1.00  0.00     0.031 C 
ATOM     70  C   UNL     1      -1.144  20.656  -8.116  1.00  0.00     0.029 A 
ATOM     71  C   UNL     1      -1.579  19.410  -8.540  1.00  0.00     0.049 A 
ATOM     72  H   UNL     1      -0.512  17.592  -8.636  1.00  0.00     0.167 HD
ATOM     73  C   UNL     1      -3.229  17.788  -9.437  1.00  0.00     0.074 A 
ATOM     74  C   UNL     1      -4.545  17.426  -9.921  1.00  0.00     0.031 C 
ATOM     75  C   UNL     1      -2.882  19.033  -9.026  1.00  0.00     0.037 A 
BRANCH  62  76
ATOM     76  C   UNL     1       2.943  19.504  -7.020  1.00  0.00     0.064 A 
ATOM     77  C   UNL     1       4.087  19.898  -7.731  1.00  0.00     0.173 A 
ATOM     78  C   UNL     1       2.801  19.963  -5.702  1.00  0.00     0.173 A 
ATOM     79  F   UNL     1       4.278  19.478  -8.991  1.00  0.00    -0.203 F 
ATOM     80  C   UNL     1       5.064  20.693  -7.135  1.00  0.00     0.198 A 
ATOM     81  C   UNL     1       3.764  20.784  -5.120  1.00  0.00     0.198 A 
ATOM     82  F   UNL     1       1.724  19.622  -4.978  1.00  0.00    -0.203 F 
ATOM     83  F   UNL     1       6.172  21.013  -7.817  1.00  0.00    -0.200 F 
ATOM     84  C   UNL     1       4.898  21.141  -5.833  1.00  0.00     0.200 A 
ATOM     85  F   UNL     1       3.596  21.226  -3.866  1.00  0.00    -0.200 F 
ATOM     86  F   UNL     1       5.836  21.910  -5.263  1.00  0.00    -0.200 F 
ENDBRANCH  62  76
BRANCH  63  87
ATOM     87  C   UNL     1      -3.966  13.321 -10.730  1.00  0.00     0.064 A 
ATOM     88  C   UNL     1      -4.479  13.446 -12.029  1.00  0.00     0.173 A 
ATOM     89  C   UNL     1      -4.462  12.281  -9.930  1.00  0.00     0.173 A 
ATOM     90  F   UNL     1      -4.049  14.436 -12.825  1.00  0.00    -0.203 F 
ATOM     91  C   UNL     1      -5.459  12.577 -12.503  1.00  0.00     0.198 A 
ATOM     92  C   UNL     1      -5.422  11.395 -10.415  1.00  0.00     0.198 A 
ATOM     93  F   UNL     1      -3.998  12.114  -8.683  1.00  0.00    -0.203 F 
ATOM     94  F   UNL     1      -5.960  12.743 -13.734  1.00  0.00    -0.200 F 
ATOM     95  C   UNL     1      -5.925  11.548 -11.698  1.00  0.00     0.200 A 
ATOM     96  F   UNL     1      -5.858  10.393  -9.639  1.00  0.00    -0.200 F 
ATOM     97  F   UNL     1      -6.862  10.707 -12.157  1.00  0.00    -0.200 F 
ENDBRANCH  63  87
BRANCH  75  98
ATOM     98  C   UNL     1      -3.933  20.102  -9.107  1.00  0.00     0.064 A 
ATOM     99  C   UNL     1      -5.021  20.131  -8.224  1.00  0.00     0.173 A 
ATOM    100  C   UNL     1      -3.824  21.133 -10.053  1.00  0.00     0.173 A 
ATOM    101  F   UNL     1      -5.178  19.160  -7.312  1.00  0.00    -0.203 F 
ATOM    102  C   UNL     1      -5.976  21.142  -8.300  1.00  0.00     0.198 A 
ATOM    103  C   UNL     1      -4.763  22.158 -10.106  1.00  0.00     0.198 A 
ATOM    104  F   UNL     1      -2.797  21.153 -10.916  1.00  0.00    -0.203 F 
ATOM    105  F   UNL     1      -7.033  21.127  -7.476  1.00  0.00    -0.200 F 
ATOM    106  C   UNL     1      -5.842  22.158  -9.235  1.00  0.00     0.200 A 
ATOM    107  F   UNL     1      -4.625  23.146 -11.001  1.00  0.00    -0.200 F 
ATOM    108  F   UNL     1      -6.757  23.135  -9.301  1.00  0.00    -0.200 F 
ENDBRANCH  75  98
ENDBRANCH  49  50
ENDBRANCH  41  44
ENDBRANCH  39  40
ENDBRANCH  38  39
ENDBRANCH  37  38
ENDBRANCH  36  37
ENDBRANCH   1  36
TORSDOF 17
