REMARK SMILES CC(C)(C[NH+]1CCC(C(N)=S)CC1)C(=O)NCCCCCCNC(=O)c1ccc(-c2c3nc(c(-c4c(F)c(F)c(F)c(F)c4F)c4ccc([nH]4)c(-c4c(F)c(F)c(F)c(F)c4F)c4nc(c(-c5c(F)c(F)c(F)c(F)c5F)c5ccc2[nH]5)C=C4)C=C3)cc1
REMARK SMILES IDX 18 1 17 2 16 3 14 4 15 5 2 7 1 8 3 9 4 10 5 11 6 12 13 13
REMARK SMILES IDX 7 15 12 16 8 17 9 18 11 19 10 20 19 23 20 24 21 25 22 26
REMARK SMILES IDX 23 27 24 28 25 30 26 31 27 32 88 33 28 34 87 35 29 36 30 37
REMARK SMILES IDX 31 38 81 39 32 40 86 41 80 42 82 43 33 44 85 45 79 46 78 47
REMARK SMILES IDX 34 49 66 50 46 51 65 52 47 53 50 54 64 55 83 56 48 57 49 58
REMARK SMILES IDX 63 60 84 61 51 62 35 63 36 64 44 65 37 66 38 67 42 68 45 69
REMARK SMILES IDX 39 70 40 71 43 72 41 73 67 74 68 75 76 76 69 77 70 78 74 79
REMARK SMILES IDX 77 80 71 81 72 82 75 83 73 84 52 85 53 86 61 87 54 88 55 89
REMARK SMILES IDX 59 90 62 91 56 92 57 93 60 94 58 95
REMARK H PARENT 16 6 5 14 10 21 10 22 23 29 82 48 50 59
REMARK Flexibility Score: inf
ROOT
ATOM      1  C   UNL     1      -1.351  -0.507   4.909  1.00  0.00     0.021 C 
ENDROOT
BRANCH   1   2
ATOM      2  C   UNL     1      -0.230   0.357   4.333  1.00  0.00     0.116 C 
BRANCH   2   3
ATOM      3  N   UNL     1       0.809  -0.425   3.694  1.00  0.00    -0.355 N 
ATOM      4  C   UNL     1       1.283  -0.481   2.422  1.00  0.00     0.231 C 
ATOM      5  O   UNL     1       2.247  -1.238   2.253  1.00  0.00    -0.274 OA
ATOM      6  H   UNL     1       1.266  -1.044   4.308  1.00  0.00     0.163 HD
BRANCH   4   7
ATOM      7  C   UNL     1       0.693   0.334   1.254  1.00  0.00     0.092 C 
ATOM      8  C   UNL     1       1.510   0.023  -0.022  1.00  0.00     0.027 C 
ATOM      9  C   UNL     1       0.933   1.837   1.532  1.00  0.00     0.027 C 
BRANCH   7  10
ATOM     10  C   UNL     1      -0.827   0.066   1.004  1.00  0.00     0.278 C 
BRANCH  10  11
ATOM     11  N   UNL     1      -1.355  -1.242   0.569  1.00  0.00    -0.334 N 
ATOM     12  C   UNL     1      -1.286  -1.472  -0.876  1.00  0.00     0.262 C 
ATOM     13  C   UNL     1      -0.901  -2.382   1.365  1.00  0.00     0.262 C 
ATOM     14  H   UNL     1      -2.351  -1.172   0.775  1.00  0.00     0.348 HD
ATOM     15  C   UNL     1      -2.010  -2.759  -1.290  1.00  0.00     0.072 C 
ATOM     16  C   UNL     1      -1.649  -3.664   1.003  1.00  0.00     0.072 C 
ATOM     17  C   UNL     1      -1.478  -3.950  -0.489  1.00  0.00     0.058 C 
BRANCH  17  18
ATOM     18  C   UNL     1      -2.080  -5.289  -0.891  1.00  0.00     0.076 C 
ATOM     19  S   UNL     1      -3.706  -5.654  -0.908  1.00  0.00    -0.066 S 
BRANCH  18  20
ATOM     20  N   UNL     1      -1.175  -6.256  -1.231  1.00  0.00    -0.393 N 
ATOM     21  H   UNL     1      -0.212  -6.052  -1.225  1.00  0.00     0.157 HD
ATOM     22  H   UNL     1      -1.487  -7.155  -1.482  1.00  0.00     0.157 HD
ENDBRANCH  18  20
ENDBRANCH  17  18
ENDBRANCH  10  11
ENDBRANCH   7  10
ENDBRANCH   4   7
ENDBRANCH   2   3
ENDBRANCH   1   2
BRANCH   1  23
ATOM     23  C   UNL     1      -0.909  -1.512   5.978  1.00  0.00     0.002 C 
BRANCH  23  24
ATOM     24  C   UNL     1      -0.164  -0.907   7.171  1.00  0.00     0.002 C 
BRANCH  24  25
ATOM     25  C   UNL     1      -0.873   0.264   7.856  1.00  0.00     0.021 C 
BRANCH  25  26
ATOM     26  C   UNL     1      -2.282  -0.041   8.352  1.00  0.00     0.116 C 
BRANCH  26  27
ATOM     27  N   UNL     1      -2.289  -1.043   9.404  1.00  0.00    -0.352 N 
ATOM     28  C   UNL     1      -2.843  -0.981  10.658  1.00  0.00     0.251 C 
ATOM     29  H   UNL     1      -1.831  -1.887   9.186  1.00  0.00     0.163 HD
ATOM     30  O   UNL     1      -2.592  -1.847  11.489  1.00  0.00    -0.269 OA
BRANCH  28  31
ATOM     31  C   UNL     1      -3.727   0.149  11.018  1.00  0.00     0.039 A 
ATOM     32  C   UNL     1      -3.548   0.774  12.255  1.00  0.00     0.014 A 
ATOM     33  C   UNL     1      -4.732   0.585  10.149  1.00  0.00     0.014 A 
ATOM     34  C   UNL     1      -4.338   1.874  12.595  1.00  0.00     0.010 A 
ATOM     35  C   UNL     1      -5.470   1.724  10.459  1.00  0.00     0.010 A 
ATOM     36  C   UNL     1      -5.282   2.379  11.685  1.00  0.00    -0.014 A 
BRANCH  36  37
ATOM     37  C   UNL     1      -6.071   3.597  12.002  1.00  0.00     0.031 A 
ATOM     38  C   UNL     1      -7.564   3.518  12.158  1.00  0.00     0.074 A 
ATOM     39  C   UNL     1      -5.444   4.786  12.096  1.00  0.00     0.049 A 
ATOM     40  N   UNL     1      -8.423   4.478  12.393  1.00  0.00    -0.248 NA
ATOM     41  C   UNL     1      -8.175   2.189  12.006  1.00  0.00     0.031 C 
ATOM     42  C   UNL     1      -4.008   5.000  11.916  1.00  0.00     0.029 A 
ATOM     43  N   UNL     1      -5.936   6.040  12.359  1.00  0.00    -0.354 N 
ATOM     44  C   UNL     1      -9.672   3.871  12.408  1.00  0.00     0.074 A 
ATOM     45  C   UNL     1      -9.466   2.472  12.103  1.00  0.00     0.031 C 
ATOM     46  C   UNL     1      -3.731   6.300  12.098  1.00  0.00     0.029 A 
ATOM     47  C   UNL     1      -4.972   7.018  12.371  1.00  0.00     0.049 A 
ATOM     48  H   UNL     1      -6.890   6.221  12.524  1.00  0.00     0.167 HD
ATOM     49  C   UNL     1     -10.879   4.427  12.675  1.00  0.00     0.037 A 
ATOM     50  C   UNL     1      -5.078   8.345  12.573  1.00  0.00     0.037 A 
ATOM     51  C   UNL     1     -11.078   5.817  12.995  1.00  0.00     0.049 A 
ATOM     52  C   UNL     1      -6.431   8.938  12.857  1.00  0.00     0.074 A 
ATOM     53  C   UNL     1     -12.252   6.464  13.340  1.00  0.00     0.029 A 
ATOM     54  N   UNL     1     -10.075   6.776  13.006  1.00  0.00    -0.354 N 
ATOM     55  N   UNL     1      -7.596   8.342  12.941  1.00  0.00    -0.248 NA
ATOM     56  C   UNL     1      -6.483  10.389  13.081  1.00  0.00     0.031 C 
ATOM     57  C   UNL     1     -11.969   7.823  13.510  1.00  0.00     0.029 A 
ATOM     58  C   UNL     1     -10.610   8.015  13.325  1.00  0.00     0.049 A 
ATOM     59  H   UNL     1      -9.125   6.603  12.815  1.00  0.00     0.167 HD
ATOM     60  C   UNL     1      -8.512   9.337  13.253  1.00  0.00     0.074 A 
ATOM     61  C   UNL     1      -7.765  10.573  13.362  1.00  0.00     0.031 C 
ATOM     62  C   UNL     1      -9.852   9.236  13.432  1.00  0.00     0.037 A 
BRANCH  49  63
ATOM     63  C   UNL     1     -12.082   3.529  12.634  1.00  0.00     0.064 A 
ATOM     64  C   UNL     1     -12.292   2.536  13.604  1.00  0.00     0.173 A 
ATOM     65  C   UNL     1     -13.057   3.687  11.637  1.00  0.00     0.173 A 
ATOM     66  F   UNL     1     -11.386   2.336  14.572  1.00  0.00    -0.203 F 
ATOM     67  C   UNL     1     -13.418   1.717  13.560  1.00  0.00     0.198 A 
ATOM     68  C   UNL     1     -14.197   2.887  11.615  1.00  0.00     0.198 A 
ATOM     69  F   UNL     1     -12.910   4.625  10.689  1.00  0.00    -0.203 F 
ATOM     70  F   UNL     1     -13.572   0.744  14.468  1.00  0.00    -0.200 F 
ATOM     71  C   UNL     1     -14.372   1.898  12.570  1.00  0.00     0.200 A 
ATOM     72  F   UNL     1     -15.125   3.073  10.666  1.00  0.00    -0.200 F 
ATOM     73  F   UNL     1     -15.459   1.115  12.534  1.00  0.00    -0.200 F 
ENDBRANCH  49  63
BRANCH  50  74
ATOM     74  C   UNL     1      -3.864   9.201  12.537  1.00  0.00     0.064 A 
ATOM     75  C   UNL     1      -3.374   9.805  13.704  1.00  0.00     0.173 A 
ATOM     76  C   UNL     1      -3.172   9.438  11.340  1.00  0.00     0.173 A 
ATOM     77  F   UNL     1      -4.013   9.624  14.869  1.00  0.00    -0.203 F 
ATOM     78  C   UNL     1      -2.252  10.630  13.671  1.00  0.00     0.198 A 
ATOM     79  C   UNL     1      -2.033  10.240  11.314  1.00  0.00     0.198 A 
ATOM     80  F   UNL     1      -3.596   8.880  10.197  1.00  0.00    -0.203 F 
ATOM     81  F   UNL     1      -1.834  11.233  14.793  1.00  0.00    -0.200 F 
ATOM     82  C   UNL     1      -1.579  10.843  12.478  1.00  0.00     0.200 A 
ATOM     83  F   UNL     1      -1.376  10.430  10.162  1.00  0.00    -0.200 F 
ATOM     84  F   UNL     1      -0.498  11.634  12.447  1.00  0.00    -0.200 F 
ENDBRANCH  50  74
BRANCH  62  85
ATOM     85  C   UNL     1     -10.593  10.492  13.791  1.00  0.00     0.064 A 
ATOM     86  C   UNL     1     -10.788  11.525  12.862  1.00  0.00     0.173 A 
ATOM     87  C   UNL     1     -11.139  10.652  15.074  1.00  0.00     0.173 A 
ATOM     88  F   UNL     1     -10.271  11.428  11.627  1.00  0.00    -0.203 F 
ATOM     89  C   UNL     1     -11.476  12.683  13.212  1.00  0.00     0.198 A 
ATOM     90  C   UNL     1     -11.855  11.797  15.411  1.00  0.00     0.198 A 
ATOM     91  F   UNL     1     -10.987   9.692  15.999  1.00  0.00    -0.203 F 
ATOM     92  F   UNL     1     -11.604  13.679  12.324  1.00  0.00    -0.200 F 
ATOM     93  C   UNL     1     -12.015  12.815  14.483  1.00  0.00     0.200 A 
ATOM     94  F   UNL     1     -12.387  11.917  16.635  1.00  0.00    -0.200 F 
ATOM     95  F   UNL     1     -12.682  13.929  14.817  1.00  0.00    -0.200 F 
ENDBRANCH  62  85
ENDBRANCH  36  37
ENDBRANCH  28  31
ENDBRANCH  26  27
ENDBRANCH  25  26
ENDBRANCH  24  25
ENDBRANCH  23  24
ENDBRANCH   1  23
TORSDOF 17
