REMARK SMILES CC1(C)C[C@@H]([C@H](CCNC(=O)c2ccccc2C(=O)NCCCCCCNC(=O)c2ccc(-c3c4nc(c(-c5c(F)c(F)c(F)c(F)c5F)c5ccc([nH]5)c(-c5c(F)c(F)c(F)c(F)c5F)c5nc(c(-c6c(F)c(F)c(F)c(F)c6F)c6ccc3[nH]6)C=C5)C=C4)cc2)c2ccccc2)CCO1
REMARK SMILES IDX 22 1 21 2 20 3 18 4 19 5 17 7 12 8 13 9 14 10 16 11 15 12
REMARK SMILES IDX 10 13 9 14 11 16 8 17 7 18 6 19 5 20 1 21 2 22 3 23 4 24
REMARK SMILES IDX 101 25 100 26 99 27 93 28 94 29 98 30 95 31 97 32 96 33
REMARK SMILES IDX 23 34 24 35 25 36 26 37 27 38 28 39 29 41 30 42 31 43 92 44
REMARK SMILES IDX 32 45 91 46 33 47 34 48 35 49 85 50 36 51 90 52 84 53 86 54
REMARK SMILES IDX 37 55 89 56 83 57 82 58 38 60 70 61 50 62 69 63 51 64 54 65
REMARK SMILES IDX 68 66 87 67 52 68 53 69 67 71 88 72 55 73 39 74 40 75 48 76
REMARK SMILES IDX 41 77 42 78 46 79 49 80 43 81 44 82 47 83 45 84 71 85 72 86
REMARK SMILES IDX 80 87 73 88 74 89 78 90 81 91 75 92 76 93 79 94 77 95 56 96
REMARK SMILES IDX 57 97 65 98 58 99 59 100 63 101 66 102 60 103 61 104 64 105
REMARK SMILES IDX 62 106
REMARK H PARENT 20 6 9 15 27 40 86 59 54 70
REMARK Flexibility Score: inf
ROOT
ATOM      1  C   UNL     1       5.323  -5.206  -4.091  1.00  0.00     0.021 C 
ENDROOT
BRANCH   1   2
ATOM      2  C   UNL     1       4.014  -5.384  -3.322  1.00  0.00     0.116 C 
BRANCH   2   3
ATOM      3  N   UNL     1       2.843  -4.738  -3.879  1.00  0.00    -0.352 N 
ATOM      4  C   UNL     1       1.513  -5.074  -3.736  1.00  0.00     0.252 C 
ATOM      5  O   UNL     1       0.661  -4.332  -4.227  1.00  0.00    -0.269 OA
ATOM      6  H   UNL     1       3.022  -3.948  -4.439  1.00  0.00     0.163 HD
BRANCH   4   7
ATOM      7  C   UNL     1       1.045  -6.323  -3.068  1.00  0.00     0.052 A 
ATOM      8  C   UNL     1       1.501  -6.860  -1.857  1.00  0.00     0.052 A 
ATOM      9  C   UNL     1       1.064  -8.138  -1.452  1.00  0.00     0.014 A 
ATOM     10  C   UNL     1       0.097  -8.831  -2.177  1.00  0.00     0.001 A 
ATOM     11  C   UNL     1       0.019  -7.010  -3.754  1.00  0.00     0.014 A 
ATOM     12  C   UNL     1      -0.455  -8.248  -3.310  1.00  0.00     0.001 A 
BRANCH   8  13
ATOM     13  C   UNL     1       2.468  -6.228  -0.939  1.00  0.00     0.252 C 
ATOM     14  N   UNL     1       2.325  -4.944  -0.493  1.00  0.00    -0.352 N 
ATOM     15  H   UNL     1       3.050  -4.628   0.094  1.00  0.00     0.163 HD
ATOM     16  O   UNL     1       3.440  -6.883  -0.561  1.00  0.00    -0.269 OA
BRANCH  14  17
ATOM     17  C   UNL     1       1.283  -3.975  -0.743  1.00  0.00     0.117 C 
BRANCH  17  18
ATOM     18  C   UNL     1       1.181  -2.880   0.326  1.00  0.00     0.030 C 
BRANCH  18  19
ATOM     19  C   UNL     1       2.257  -1.728   0.361  1.00  0.00     0.024 C 
BRANCH  19  20
ATOM     20  C   UNL     1       3.152  -1.847   1.679  1.00  0.00     0.002 C 
ATOM     21  C   UNL     1       5.500   0.584   0.550  1.00  0.00     0.042 C 
ATOM     22  C   UNL     1       5.440  -0.598   1.543  1.00  0.00     0.063 C 
ATOM     23  C   UNL     1       6.510  -0.301   2.605  1.00  0.00     0.042 C 
ATOM     24  C   UNL     1       4.015  -0.658   2.131  1.00  0.00     0.039 C 
ATOM     25  O   UNL     1       5.876  -1.785   0.873  1.00  0.00    -0.376 OA
ATOM     26  C   UNL     1       5.282  -3.053   1.125  1.00  0.00     0.161 C 
ATOM     27  C   UNL     1       4.007  -3.078   1.924  1.00  0.00     0.033 C 
ENDBRANCH  19  20
BRANCH  19  28
ATOM     28  C   UNL     1       2.665  -1.275  -1.048  1.00  0.00    -0.045 A 
ATOM     29  C   UNL     1       3.963  -1.180  -1.530  1.00  0.00     0.004 A 
ATOM     30  C   UNL     1       1.665  -0.871  -1.960  1.00  0.00     0.004 A 
ATOM     31  C   UNL     1       4.279  -0.644  -2.790  1.00  0.00     0.000 A 
ATOM     32  C   UNL     1       1.961  -0.403  -3.252  1.00  0.00     0.000 A 
ATOM     33  C   UNL     1       3.277  -0.270  -3.663  1.00  0.00     0.000 A 
ENDBRANCH  19  28
ENDBRANCH  18  19
ENDBRANCH  17  18
ENDBRANCH  14  17
ENDBRANCH   8  13
ENDBRANCH   4   7
ENDBRANCH   2   3
ENDBRANCH   1   2
BRANCH   1  34
ATOM     34  C   UNL     1       6.025  -3.847  -3.969  1.00  0.00     0.002 C 
BRANCH  34  35
ATOM     35  C   UNL     1       6.256  -3.336  -2.548  1.00  0.00     0.002 C 
BRANCH  35  36
ATOM     36  C   UNL     1       7.317  -4.040  -1.721  1.00  0.00     0.021 C 
BRANCH  36  37
ATOM     37  C   UNL     1       8.728  -3.546  -1.996  1.00  0.00     0.116 C 
BRANCH  37  38
ATOM     38  N   UNL     1       8.944  -2.127  -1.679  1.00  0.00    -0.352 N 
ATOM     39  C   UNL     1       9.655  -1.470  -0.700  1.00  0.00     0.251 C 
ATOM     40  H   UNL     1       8.483  -1.516  -2.299  1.00  0.00     0.163 HD
ATOM     41  O   UNL     1       9.584  -0.241  -0.623  1.00  0.00    -0.269 OA
BRANCH  39  42
ATOM     42  C   UNL     1      10.483  -2.205   0.280  1.00  0.00     0.039 A 
ATOM     43  C   UNL     1      10.663  -1.708   1.576  1.00  0.00     0.014 A 
ATOM     44  C   UNL     1      11.090  -3.401  -0.070  1.00  0.00     0.014 A 
ATOM     45  C   UNL     1      11.353  -2.470   2.528  1.00  0.00     0.010 A 
ATOM     46  C   UNL     1      11.575  -4.242   0.914  1.00  0.00     0.010 A 
ATOM     47  C   UNL     1      11.760  -3.777   2.221  1.00  0.00    -0.014 A 
BRANCH  47  48
ATOM     48  C   UNL     1      12.449  -4.681   3.183  1.00  0.00     0.031 A 
ATOM     49  C   UNL     1      13.737  -5.352   2.760  1.00  0.00     0.074 A 
ATOM     50  C   UNL     1      11.873  -5.004   4.357  1.00  0.00     0.049 A 
ATOM     51  N   UNL     1      14.363  -6.369   3.295  1.00  0.00    -0.248 NA
ATOM     52  C   UNL     1      14.362  -4.862   1.516  1.00  0.00     0.031 C 
ATOM     53  C   UNL     1      10.601  -4.482   4.859  1.00  0.00     0.029 A 
ATOM     54  N   UNL     1      12.278  -5.878   5.337  1.00  0.00    -0.354 N 
ATOM     55  C   UNL     1      15.404  -6.668   2.422  1.00  0.00     0.074 A 
ATOM     56  C   UNL     1      15.270  -5.794   1.281  1.00  0.00     0.031 C 
ATOM     57  C   UNL     1      10.346  -5.018   6.063  1.00  0.00     0.029 A 
ATOM     58  C   UNL     1      11.404  -5.966   6.394  1.00  0.00     0.049 A 
ATOM     59  H   UNL     1      13.116  -6.392   5.287  1.00  0.00     0.167 HD
ATOM     60  C   UNL     1      16.414  -7.555   2.579  1.00  0.00     0.037 A 
ATOM     61  C   UNL     1      11.447  -6.740   7.496  1.00  0.00     0.037 A 
ATOM     62  C   UNL     1      16.592  -8.354   3.759  1.00  0.00     0.049 A 
ATOM     63  C   UNL     1      12.609  -7.684   7.673  1.00  0.00     0.074 A 
ATOM     64  C   UNL     1      17.616  -9.231   4.064  1.00  0.00     0.029 A 
ATOM     65  N   UNL     1      15.729  -8.346   4.846  1.00  0.00    -0.354 N 
ATOM     66  N   UNL     1      13.613  -7.924   6.864  1.00  0.00    -0.248 NA
ATOM     67  C   UNL     1      12.649  -8.459   8.921  1.00  0.00     0.031 C 
ATOM     68  C   UNL     1      17.358  -9.778   5.323  1.00  0.00     0.029 A 
ATOM     69  C   UNL     1      16.201  -9.202   5.824  1.00  0.00     0.049 A 
ATOM     70  H   UNL     1      14.906  -7.811   4.911  1.00  0.00     0.167 HD
ATOM     71  C   UNL     1      14.422  -8.842   7.520  1.00  0.00     0.074 A 
ATOM     72  C   UNL     1      13.798  -9.108   8.799  1.00  0.00     0.031 C 
ATOM     73  C   UNL     1      15.577  -9.417   7.104  1.00  0.00     0.037 A 
BRANCH  60  74
ATOM     74  C   UNL     1      17.425  -7.672   1.472  1.00  0.00     0.064 A 
ATOM     75  C   UNL     1      18.296  -6.617   1.156  1.00  0.00     0.173 A 
ATOM     76  C   UNL     1      17.549  -8.861   0.737  1.00  0.00     0.173 A 
ATOM     77  F   UNL     1      18.215  -5.452   1.818  1.00  0.00    -0.203 F 
ATOM     78  C   UNL     1      19.224  -6.733   0.125  1.00  0.00     0.198 A 
ATOM     79  C   UNL     1      18.506  -8.988  -0.267  1.00  0.00     0.198 A 
ATOM     80  F   UNL     1      16.748  -9.905   0.998  1.00  0.00    -0.203 F 
ATOM     81  F   UNL     1      20.000  -5.688  -0.196  1.00  0.00    -0.200 F 
ATOM     82  C   UNL     1      19.335  -7.921  -0.579  1.00  0.00     0.200 A 
ATOM     83  F   UNL     1      18.623 -10.143  -0.937  1.00  0.00    -0.200 F 
ATOM     84  F   UNL     1      20.237  -8.037  -1.563  1.00  0.00    -0.200 F 
ENDBRANCH  60  74
BRANCH  61  85
ATOM     85  C   UNL     1      10.380  -6.640   8.529  1.00  0.00     0.064 A 
ATOM     86  C   UNL     1      10.660  -6.127   9.804  1.00  0.00     0.173 A 
ATOM     87  C   UNL     1       9.070  -7.073   8.277  1.00  0.00     0.173 A 
ATOM     88  F   UNL     1      11.901  -5.713  10.101  1.00  0.00    -0.203 F 
ATOM     89  C   UNL     1       9.683  -6.086  10.797  1.00  0.00     0.198 A 
ATOM     90  C   UNL     1       8.085  -6.998   9.260  1.00  0.00     0.198 A 
ATOM     91  F   UNL     1       8.743  -7.561   7.072  1.00  0.00    -0.203 F 
ATOM     92  F   UNL     1       9.997  -5.649  12.024  1.00  0.00    -0.200 F 
ATOM     93  C   UNL     1       8.395  -6.518  10.523  1.00  0.00     0.200 A 
ATOM     94  F   UNL     1       6.836  -7.400   8.986  1.00  0.00    -0.200 F 
ATOM     95  F   UNL     1       7.457  -6.481  11.479  1.00  0.00    -0.200 F 
ENDBRANCH  61  85
BRANCH  73  96
ATOM     96  C   UNL     1      16.279 -10.333   8.061  1.00  0.00     0.064 A 
ATOM     97  C   UNL     1      15.784 -11.609   8.362  1.00  0.00     0.173 A 
ATOM     98  C   UNL     1      17.504  -9.948   8.630  1.00  0.00     0.173 A 
ATOM     99  F   UNL     1      14.612 -12.017   7.853  1.00  0.00    -0.203 F 
ATOM    100  C   UNL     1      16.480 -12.459   9.217  1.00  0.00     0.198 A 
ATOM    101  C   UNL     1      18.212 -10.814   9.456  1.00  0.00     0.198 A 
ATOM    102  F   UNL     1      18.024  -8.740   8.363  1.00  0.00    -0.203 F 
ATOM    103  F   UNL     1      15.968 -13.659   9.526  1.00  0.00    -0.200 F 
ATOM    104  C   UNL     1      17.697 -12.066   9.754  1.00  0.00     0.200 A 
ATOM    105  F   UNL     1      19.397 -10.439   9.958  1.00  0.00    -0.200 F 
ATOM    106  F   UNL     1      18.372 -12.893  10.562  1.00  0.00    -0.200 F 
ENDBRANCH  73  96
ENDBRANCH  47  48
ENDBRANCH  39  42
ENDBRANCH  37  38
ENDBRANCH  36  37
ENDBRANCH  35  36
ENDBRANCH  34  35
ENDBRANCH   1  34
TORSDOF 19
