REMARK SMILES CSc1ccc(C[NH+]2CCC(CC(=O)NCCCCCCNC(=O)c3ccc(-c4c5nc(c(-c6c(F)c(F)c(F)c(F)c6F)c6ccc([nH]6)c(-c6c(F)c(F)c(F)c(F)c6F)c6nc(c(-c7c(F)c(F)c(F)c(F)c7F)c7ccc4[nH]7)C=C6)C=C5)cc3)CC2)cc1
REMARK SMILES IDX 17 1 16 2 15 3 13 4 14 5 12 7 11 8 8 9 9 10 89 11 10 13
REMARK SMILES IDX 88 14 7 15 6 16 3 17 4 18 91 19 5 20 90 21 2 22 1 23 18 24
REMARK SMILES IDX 19 25 20 26 21 27 22 28 23 29 24 31 25 32 26 33 87 34 27 35
REMARK SMILES IDX 86 36 28 37 29 38 30 39 80 40 31 41 85 42 79 43 81 44 32 45
REMARK SMILES IDX 84 46 78 47 77 48 33 50 65 51 45 52 64 53 46 54 49 55 63 56
REMARK SMILES IDX 82 57 47 58 48 59 62 61 83 62 50 63 34 64 35 65 43 66 36 67
REMARK SMILES IDX 37 68 41 69 44 70 38 71 39 72 42 73 40 74 66 75 67 76 75 77
REMARK SMILES IDX 68 78 69 79 73 80 76 81 70 82 71 83 74 84 72 85 51 86 52 87
REMARK SMILES IDX 60 88 53 89 54 90 58 91 61 92 55 93 56 94 59 95 57 96
REMARK H PARENT 15 6 8 12 22 30 81 49 49 60
REMARK Flexibility Score: inf
ROOT
ATOM      1  C   UNL     1      -2.134  -5.969   8.238  1.00  0.00     0.021 C 
ENDROOT
BRANCH   1   2
ATOM      2  C   UNL     1      -2.793  -7.284   7.799  1.00  0.00     0.116 C 
BRANCH   2   3
ATOM      3  N   UNL     1      -3.898  -7.034   6.886  1.00  0.00    -0.356 N 
ATOM      4  C   UNL     1      -4.022  -7.266   5.547  1.00  0.00     0.220 C 
ATOM      5  O   UNL     1      -5.046  -6.871   4.985  1.00  0.00    -0.275 OA
ATOM      6  H   UNL     1      -4.691  -6.629   7.306  1.00  0.00     0.163 HD
BRANCH   4   7
ATOM      7  C   UNL     1      -2.937  -7.988   4.762  1.00  0.00     0.104 C 
BRANCH   7   8
ATOM      8  C   UNL     1      -1.924  -7.036   4.098  1.00  0.00     0.009 C 
ATOM      9  N   UNL     1       0.914  -6.364   3.670  1.00  0.00    -0.331 N 
ATOM     10  C   UNL     1       0.098  -5.553   4.572  1.00  0.00     0.262 C 
ATOM     11  C   UNL     1       0.102  -6.880   2.562  1.00  0.00     0.262 C 
ATOM     12  H   UNL     1       1.255  -7.178   4.181  1.00  0.00     0.348 HD
ATOM     13  C   UNL     1      -1.044  -6.364   5.147  1.00  0.00     0.066 C 
ATOM     14  C   UNL     1      -1.034  -7.774   3.086  1.00  0.00     0.066 C 
BRANCH   9  15
ATOM     15  C   UNL     1       2.133  -5.651   3.236  1.00  0.00     0.299 C 
BRANCH  15  16
ATOM     16  C   UNL     1       1.927  -4.215   2.794  1.00  0.00     0.006 A 
ATOM     17  C   UNL     1       1.225  -1.574   2.097  1.00  0.00     0.007 A 
ATOM     18  C   UNL     1       1.053  -2.620   1.187  1.00  0.00     0.015 A 
ATOM     19  C   UNL     1       1.774  -1.852   3.352  1.00  0.00     0.015 A 
ATOM     20  C   UNL     1       1.417  -3.926   1.525  1.00  0.00     0.011 A 
ATOM     21  C   UNL     1       2.130  -3.159   3.696  1.00  0.00     0.011 A 
BRANCH  17  22
ATOM     22  S   UNL     1       0.697   0.099   1.761  1.00  0.00    -0.130 SA
ATOM     23  C   UNL     1       1.171   0.274   0.021  1.00  0.00     0.091 C 
ENDBRANCH  17  22
ENDBRANCH  15  16
ENDBRANCH   9  15
ENDBRANCH   7   8
ENDBRANCH   4   7
ENDBRANCH   2   3
ENDBRANCH   1   2
BRANCH   1  24
ATOM     24  C   UNL     1      -2.594  -5.434   9.592  1.00  0.00     0.002 C 
BRANCH  24  25
ATOM     25  C   UNL     1      -2.130  -6.245  10.803  1.00  0.00     0.002 C 
BRANCH  25  26
ATOM     26  C   UNL     1      -0.617  -6.466  10.916  1.00  0.00     0.021 C 
BRANCH  26  27
ATOM     27  C   UNL     1       0.238  -5.201  10.858  1.00  0.00     0.116 C 
BRANCH  27  28
ATOM     28  N   UNL     1      -0.081  -4.271  11.929  1.00  0.00    -0.352 N 
ATOM     29  C   UNL     1       0.693  -3.832  12.974  1.00  0.00     0.251 C 
ATOM     30  H   UNL     1      -0.992  -3.898  11.900  1.00  0.00     0.163 HD
ATOM     31  O   UNL     1       0.184  -3.206  13.898  1.00  0.00    -0.269 OA
BRANCH  29  32
ATOM     32  C   UNL     1       2.143  -4.119  12.998  1.00  0.00     0.039 A 
ATOM     33  C   UNL     1       2.721  -4.568  14.189  1.00  0.00     0.014 A 
ATOM     34  C   UNL     1       2.936  -3.910  11.867  1.00  0.00     0.014 A 
ATOM     35  C   UNL     1       4.086  -4.862  14.229  1.00  0.00     0.010 A 
ATOM     36  C   UNL     1       4.284  -4.261  11.891  1.00  0.00     0.010 A 
ATOM     37  C   UNL     1       4.873  -4.737  13.073  1.00  0.00    -0.014 A 
BRANCH  37  38
ATOM     38  C   UNL     1       6.314  -5.094  13.082  1.00  0.00     0.031 A 
ATOM     39  C   UNL     1       7.357  -4.033  12.869  1.00  0.00     0.074 A 
ATOM     40  C   UNL     1       6.679  -6.383  13.216  1.00  0.00     0.049 A 
ATOM     41  N   UNL     1       8.657  -4.157  12.768  1.00  0.00    -0.248 NA
ATOM     42  C   UNL     1       6.873  -2.652  12.723  1.00  0.00     0.031 C 
ATOM     43  C   UNL     1       5.759  -7.509  13.382  1.00  0.00     0.029 A 
ATOM     44  N   UNL     1       7.922  -6.967  13.218  1.00  0.00    -0.354 N 
ATOM     45  C   UNL     1       9.141  -2.877  12.531  1.00  0.00     0.074 A 
ATOM     46  C   UNL     1       7.994  -1.998  12.456  1.00  0.00     0.031 C 
ATOM     47  C   UNL     1       6.468  -8.645  13.484  1.00  0.00     0.029 A 
ATOM     48  C   UNL     1       7.889  -8.333  13.357  1.00  0.00     0.049 A 
ATOM     49  H   UNL     1       8.758  -6.454  13.128  1.00  0.00     0.167 HD
ATOM     50  C   UNL     1      10.427  -2.470  12.407  1.00  0.00     0.037 A 
ATOM     51  C   UNL     1       8.891  -9.232  13.372  1.00  0.00     0.037 A 
ATOM     52  C   UNL     1      11.567  -3.343  12.512  1.00  0.00     0.049 A 
ATOM     53  C   UNL     1      10.311  -8.752  13.240  1.00  0.00     0.074 A 
ATOM     54  C   UNL     1      12.911  -3.017  12.469  1.00  0.00     0.029 A 
ATOM     55  N   UNL     1      11.495  -4.718  12.682  1.00  0.00    -0.354 N 
ATOM     56  N   UNL     1      10.761  -7.531  13.086  1.00  0.00    -0.248 NA
ATOM     57  C   UNL     1      11.364  -9.776  13.292  1.00  0.00     0.031 C 
ATOM     58  C   UNL     1      13.652  -4.199  12.571  1.00  0.00     0.029 A 
ATOM     59  C   UNL     1      12.771  -5.257  12.725  1.00  0.00     0.049 A 
ATOM     60  H   UNL     1      10.660  -5.235  12.761  1.00  0.00     0.167 HD
ATOM     61  C   UNL     1      12.144  -7.635  13.050  1.00  0.00     0.074 A 
ATOM     62  C   UNL     1      12.462  -9.038  13.213  1.00  0.00     0.031 C 
ATOM     63  C   UNL     1      13.069  -6.656  12.896  1.00  0.00     0.037 A 
BRANCH  50  64
ATOM     64  C   UNL     1      10.673  -1.013  12.145  1.00  0.00     0.064 A 
ATOM     65  C   UNL     1      10.449  -0.041  13.132  1.00  0.00     0.173 A 
ATOM     66  C   UNL     1      11.175  -0.586  10.907  1.00  0.00     0.173 A 
ATOM     67  F   UNL     1       9.959  -0.395  14.329  1.00  0.00    -0.203 F 
ATOM     68  C   UNL     1      10.691   1.307  12.879  1.00  0.00     0.198 A 
ATOM     69  C   UNL     1      11.445   0.759  10.667  1.00  0.00     0.198 A 
ATOM     70  F   UNL     1      11.414  -1.475   9.931  1.00  0.00    -0.203 F 
ATOM     71  F   UNL     1      10.425   2.222  13.821  1.00  0.00    -0.200 F 
ATOM     72  C   UNL     1      11.196   1.705  11.650  1.00  0.00     0.200 A 
ATOM     73  F   UNL     1      11.944   1.140   9.483  1.00  0.00    -0.200 F 
ATOM     74  F   UNL     1      11.436   3.001  11.410  1.00  0.00    -0.200 F 
ENDBRANCH  50  64
BRANCH  51  75
ATOM     75  C   UNL     1       8.588 -10.676  13.543  1.00  0.00     0.064 A 
ATOM     76  C   UNL     1       8.924 -11.346  14.728  1.00  0.00     0.173 A 
ATOM     77  C   UNL     1       7.963 -11.416  12.529  1.00  0.00     0.173 A 
ATOM     78  F   UNL     1       9.541 -10.685  15.718  1.00  0.00    -0.203 F 
ATOM     79  C   UNL     1       8.664 -12.706  14.884  1.00  0.00     0.198 A 
ATOM     80  C   UNL     1       7.679 -12.770  12.697  1.00  0.00     0.198 A 
ATOM     81  F   UNL     1       7.618 -10.821  11.378  1.00  0.00    -0.203 F 
ATOM     82  F   UNL     1       9.035 -13.331  16.010  1.00  0.00    -0.200 F 
ATOM     83  C   UNL     1       8.037 -13.415  13.871  1.00  0.00     0.200 A 
ATOM     84  F   UNL     1       7.061 -13.449  11.721  1.00  0.00    -0.200 F 
ATOM     85  F   UNL     1       7.784 -14.722  14.023  1.00  0.00    -0.200 F 
ENDBRANCH  51  75
BRANCH  63  86
ATOM     86  C   UNL     1      14.513  -7.063  12.929  1.00  0.00     0.064 A 
ATOM     87  C   UNL     1      15.106  -7.757  11.865  1.00  0.00     0.173 A 
ATOM     88  C   UNL     1      15.321  -6.718  14.023  1.00  0.00     0.173 A 
ATOM     89  F   UNL     1      14.370  -8.123  10.804  1.00  0.00    -0.203 F 
ATOM     90  C   UNL     1      16.451  -8.112  11.905  1.00  0.00     0.198 A 
ATOM     91  C   UNL     1      16.673  -7.050  14.047  1.00  0.00     0.198 A 
ATOM     92  F   UNL     1      14.803  -6.049  15.064  1.00  0.00    -0.203 F 
ATOM     93  F   UNL     1      16.987  -8.815  10.898  1.00  0.00    -0.200 F 
ATOM     94  C   UNL     1      17.235  -7.752  12.992  1.00  0.00     0.200 A 
ATOM     95  F   UNL     1      17.431  -6.691  15.092  1.00  0.00    -0.200 F 
ATOM     96  F   UNL     1      18.532  -8.089  13.025  1.00  0.00    -0.200 F 
ENDBRANCH  63  86
ENDBRANCH  37  38
ENDBRANCH  29  32
ENDBRANCH  27  28
ENDBRANCH  26  27
ENDBRANCH  25  26
ENDBRANCH  24  25
ENDBRANCH   1  24
TORSDOF 17
