REMARK SMILES CCc1ccc(S(=O)(=O)N2CCC3(CC2)NC(=O)C[C@H]3C(=O)NCCCCCCNC(=O)c2ccc(-c3c4nc(c(-c5c(F)c(F)c(F)c(F)c5F)c5ccc([nH]5)c(-c5c(F)c(F)c(F)c(F)c5F)c5nc(c(-c6c(F)c(F)c(F)c(F)c6F)c6ccc3[nH]6)C=C5)C=C4)cc2)s1
REMARK SMILES IDX 26 1 25 2 24 3 23 4 21 5 22 6 20 8 10 9 11 10 15 11 12 12
REMARK SMILES IDX 14 13 13 14 16 15 17 16 19 18 18 19 7 20 8 21 9 22 6 23 3 24
REMARK SMILES IDX 4 25 96 26 5 27 2 28 1 29 27 30 28 31 29 32 30 33 31 34
REMARK SMILES IDX 32 36 33 37 34 38 95 39 35 40 94 41 36 42 37 43 38 44 88 45
REMARK SMILES IDX 39 46 93 47 87 48 89 49 40 50 92 51 86 52 85 53 41 55 73 56
REMARK SMILES IDX 53 57 72 58 54 59 57 60 71 61 90 62 55 63 56 64 70 66 91 67
REMARK SMILES IDX 58 68 42 69 43 70 51 71 44 72 45 73 49 74 52 75 46 76 47 77
REMARK SMILES IDX 50 78 48 79 74 80 75 81 83 82 76 83 77 84 81 85 84 86 78 87
REMARK SMILES IDX 79 88 82 89 80 90 59 91 60 92 68 93 61 94 62 95 66 96 69 97
REMARK SMILES IDX 63 98 64 99 67 100 65 101
REMARK H PARENT 23 7 16 17 30 35 89 54 57 65
REMARK Flexibility Score: inf
ROOT
ATOM      1  C   UNL     1       6.955   4.561  -3.017  1.00  0.00     0.002 C 
ENDROOT
BRANCH   1   2
ATOM      2  C   UNL     1       5.453   4.364  -3.225  1.00  0.00     0.021 C 
BRANCH   2   3
ATOM      3  C   UNL     1       4.763   5.487  -4.005  1.00  0.00     0.116 C 
BRANCH   3   4
ATOM      4  N   UNL     1       5.144   5.518  -5.407  1.00  0.00    -0.356 N 
ATOM      5  C   UNL     1       4.500   5.270  -6.574  1.00  0.00     0.226 C 
ATOM      6  O   UNL     1       5.191   5.353  -7.597  1.00  0.00    -0.275 OA
ATOM      7  H   UNL     1       6.085   5.777  -5.540  1.00  0.00     0.163 HD
BRANCH   5   8
ATOM      8  C   UNL     1       3.016   4.922  -6.729  1.00  0.00     0.113 C 
ATOM      9  N   UNL     1       2.237   0.832  -6.631  1.00  0.00    -0.197 NA
ATOM     10  C   UNL     1       1.308   1.663  -7.386  1.00  0.00     0.105 C 
ATOM     11  C   UNL     1       3.565   1.411  -6.502  1.00  0.00     0.105 C 
ATOM     12  C   UNL     1       1.222   3.093  -6.848  1.00  0.00     0.046 C 
ATOM     13  C   UNL     1       3.473   2.620  -5.601  1.00  0.00     0.046 C 
ATOM     14  C   UNL     1       2.427   3.672  -6.022  1.00  0.00     0.055 C 
ATOM     15  N   UNL     1       1.846   4.302  -4.838  1.00  0.00    -0.350 N 
ATOM     16  C   UNL     1       1.564   5.641  -4.989  1.00  0.00     0.221 C 
ATOM     17  H   UNL     1       1.671   3.811  -4.003  1.00  0.00     0.164 HD
ATOM     18  C   UNL     1       2.119   6.096  -6.305  1.00  0.00     0.116 C 
ATOM     19  O   UNL     1       0.980   6.322  -4.166  1.00  0.00    -0.275 OA
BRANCH   9  20
ATOM     20  S   UNL     1       1.744  -0.449  -5.644  1.00  0.00     0.252 S 
ATOM     21  O   UNL     1       2.907  -1.243  -5.344  1.00  0.00    -0.206 OA
ATOM     22  O   UNL     1       0.544  -1.022  -6.229  1.00  0.00    -0.206 OA
BRANCH  20  23
ATOM     23  C   UNL     1       1.184   0.209  -4.076  1.00  0.00     0.135 A 
ATOM     24  C   UNL     1       0.637   0.371  -1.654  1.00  0.00     0.006 A 
ATOM     25  C   UNL     1       0.347   1.532  -2.341  1.00  0.00     0.017 A 
ATOM     26  S   UNL     1       1.310  -0.811  -2.702  1.00  0.00    -0.127 S 
ATOM     27  C   UNL     1       0.574   1.396  -3.734  1.00  0.00     0.034 A 
BRANCH  24  28
ATOM     28  C   UNL     1       0.319   0.114  -0.206  1.00  0.00     0.043 C 
ATOM     29  C   UNL     1       1.292  -0.776   0.543  1.00  0.00     0.010 C 
ENDBRANCH  24  28
ENDBRANCH  20  23
ENDBRANCH   9  20
ENDBRANCH   5   8
ENDBRANCH   3   4
ENDBRANCH   2   3
ENDBRANCH   1   2
BRANCH   1  30
ATOM     30  C   UNL     1       7.334   5.821  -2.237  1.00  0.00     0.002 C 
BRANCH  30  31
ATOM     31  C   UNL     1       6.621   5.992  -0.893  1.00  0.00     0.021 C 
BRANCH  31  32
ATOM     32  C   UNL     1       6.800   4.829   0.079  1.00  0.00     0.116 C 
BRANCH  32  33
ATOM     33  N   UNL     1       8.191   4.642   0.453  1.00  0.00    -0.352 N 
ATOM     34  C   UNL     1       8.772   4.676   1.695  1.00  0.00     0.251 C 
ATOM     35  H   UNL     1       8.807   4.464  -0.294  1.00  0.00     0.163 HD
ATOM     36  O   UNL     1       9.993   4.708   1.806  1.00  0.00    -0.269 OA
BRANCH  34  37
ATOM     37  C   UNL     1       7.925   4.687   2.906  1.00  0.00     0.039 A 
ATOM     38  C   UNL     1       8.233   5.577   3.937  1.00  0.00     0.014 A 
ATOM     39  C   UNL     1       6.849   3.804   3.035  1.00  0.00     0.014 A 
ATOM     40  C   UNL     1       7.432   5.617   5.080  1.00  0.00     0.010 A 
ATOM     41  C   UNL     1       6.014   3.887   4.147  1.00  0.00     0.010 A 
ATOM     42  C   UNL     1       6.303   4.790   5.182  1.00  0.00    -0.014 A 
BRANCH  42  43
ATOM     43  C   UNL     1       5.418   4.844   6.372  1.00  0.00     0.031 A 
ATOM     44  C   UNL     1       5.325   3.663   7.296  1.00  0.00     0.074 A 
ATOM     45  C   UNL     1       4.656   5.933   6.587  1.00  0.00     0.049 A 
ATOM     46  N   UNL     1       4.565   3.491   8.348  1.00  0.00    -0.248 NA
ATOM     47  C   UNL     1       6.184   2.511   6.981  1.00  0.00     0.031 C 
ATOM     48  C   UNL     1       4.631   7.127   5.741  1.00  0.00     0.029 A 
ATOM     49  N   UNL     1       3.750   6.209   7.580  1.00  0.00    -0.354 N 
ATOM     50  C   UNL     1       4.843   2.212   8.810  1.00  0.00     0.074 A 
ATOM     51  C   UNL     1       5.803   1.631   7.895  1.00  0.00     0.031 C 
ATOM     52  C   UNL     1       3.773   8.017   6.264  1.00  0.00     0.029 A 
ATOM     53  C   UNL     1       3.162   7.444   7.460  1.00  0.00     0.049 A 
ATOM     54  H   UNL     1       3.542   5.581   8.309  1.00  0.00     0.167 HD
ATOM     55  C   UNL     1       4.360   1.586   9.910  1.00  0.00     0.037 A 
ATOM     56  C   UNL     1       2.233   8.043   8.228  1.00  0.00     0.037 A 
ATOM     57  C   UNL     1       3.424   2.176  10.831  1.00  0.00     0.049 A 
ATOM     58  C   UNL     1       1.702   7.321   9.436  1.00  0.00     0.074 A 
ATOM     59  C   UNL     1       2.915   1.646  12.004  1.00  0.00     0.029 A 
ATOM     60  N   UNL     1       2.855   3.432  10.680  1.00  0.00    -0.354 N 
ATOM     61  N   UNL     1       2.016   6.136   9.897  1.00  0.00    -0.248 NA
ATOM     62  C   UNL     1       0.688   8.026  10.233  1.00  0.00     0.031 C 
ATOM     63  C   UNL     1       2.009   2.566  12.542  1.00  0.00     0.029 A 
ATOM     64  C   UNL     1       1.985   3.687  11.728  1.00  0.00     0.049 A 
ATOM     65  H   UNL     1       3.042   4.051   9.938  1.00  0.00     0.167 HD
ATOM     66  C   UNL     1       1.265   5.963  11.051  1.00  0.00     0.074 A 
ATOM     67  C   UNL     1       0.486   7.171  11.226  1.00  0.00     0.031 C 
ATOM     68  C   UNL     1       1.225   4.900  11.891  1.00  0.00     0.037 A 
BRANCH  55  69
ATOM     69  C   UNL     1       4.840   0.189  10.176  1.00  0.00     0.064 A 
ATOM     70  C   UNL     1       6.159  -0.070  10.580  1.00  0.00     0.173 A 
ATOM     71  C   UNL     1       3.968  -0.902  10.045  1.00  0.00     0.173 A 
ATOM     72  F   UNL     1       7.036   0.937  10.708  1.00  0.00    -0.203 F 
ATOM     73  C   UNL     1       6.595  -1.373  10.810  1.00  0.00     0.198 A 
ATOM     74  C   UNL     1       4.400  -2.200  10.305  1.00  0.00     0.198 A 
ATOM     75  F   UNL     1       2.695  -0.710   9.667  1.00  0.00    -0.203 F 
ATOM     76  F   UNL     1       7.874  -1.600  11.142  1.00  0.00    -0.200 F 
ATOM     77  C   UNL     1       5.715  -2.435  10.678  1.00  0.00     0.200 A 
ATOM     78  F   UNL     1       3.544  -3.225  10.188  1.00  0.00    -0.200 F 
ATOM     79  F   UNL     1       6.136  -3.688  10.902  1.00  0.00    -0.200 F 
ENDBRANCH  55  69
BRANCH  56  80
ATOM     80  C   UNL     1       1.771   9.415   7.897  1.00  0.00     0.064 A 
ATOM     81  C   UNL     1       2.130  10.504   8.704  1.00  0.00     0.173 A 
ATOM     82  C   UNL     1       0.968   9.669   6.777  1.00  0.00     0.173 A 
ATOM     83  F   UNL     1       2.880  10.306   9.798  1.00  0.00    -0.203 F 
ATOM     84  C   UNL     1       1.690  11.792   8.412  1.00  0.00     0.198 A 
ATOM     85  C   UNL     1       0.548  10.962   6.471  1.00  0.00     0.198 A 
ATOM     86  F   UNL     1       0.600   8.661   5.971  1.00  0.00    -0.203 F 
ATOM     87  F   UNL     1       2.014  12.809   9.222  1.00  0.00    -0.200 F 
ATOM     88  C   UNL     1       0.904  12.021   7.292  1.00  0.00     0.200 A 
ATOM     89  F   UNL     1      -0.201  11.181   5.382  1.00  0.00    -0.200 F 
ATOM     90  F   UNL     1       0.483  13.262   7.009  1.00  0.00    -0.200 F 
ENDBRANCH  56  80
BRANCH  68  91
ATOM     91  C   UNL     1       0.336   5.011  13.095  1.00  0.00     0.064 A 
ATOM     92  C   UNL     1      -1.060   4.940  12.987  1.00  0.00     0.173 A 
ATOM     93  C   UNL     1       0.892   5.153  14.375  1.00  0.00     0.173 A 
ATOM     94  F   UNL     1      -1.639   4.820  11.782  1.00  0.00    -0.203 F 
ATOM     95  C   UNL     1      -1.869   5.031  14.116  1.00  0.00     0.198 A 
ATOM     96  C   UNL     1       0.080   5.217  15.504  1.00  0.00     0.198 A 
ATOM     97  F   UNL     1       2.222   5.221  14.532  1.00  0.00    -0.203 F 
ATOM     98  F   UNL     1      -3.203   5.007  13.985  1.00  0.00    -0.200 F 
ATOM     99  C   UNL     1      -1.299   5.163  15.373  1.00  0.00     0.200 A 
ATOM    100  F   UNL     1       0.634   5.332  16.720  1.00  0.00    -0.200 F 
ATOM    101  F   UNL     1      -2.080   5.245  16.459  1.00  0.00    -0.200 F 
ENDBRANCH  68  91
ENDBRANCH  42  43
ENDBRANCH  34  37
ENDBRANCH  32  33
ENDBRANCH  31  32
ENDBRANCH  30  31
ENDBRANCH   1  30
TORSDOF 16
