REMARK SMILES C[C@@H](C(=O)NCCCCCCNC(=O)c1ccc(-c2c3nc(c(-c4c(F)c(F)c(F)c(F)c4F)c4ccc([nH]4)c(-c4c(F)c(F)c(F)c(F)c4F)c4nc(c(-c5c(F)c(F)c(F)c(F)c5F)c5ccc2[nH]5)C=C4)C=C3)cc1)c1cc(C(=O)c2ccccc2)ccc1O
REMARK SMILES IDX 8 1 7 2 6 3 5 4 3 5 4 6 2 8 1 9 78 10 79 11 91 12 80 13
REMARK SMILES IDX 90 14 89 15 92 16 81 18 82 19 83 20 84 21 88 22 85 23 87 24
REMARK SMILES IDX 86 25 9 26 10 27 11 28 12 29 13 30 14 32 15 33 16 34 77 35
REMARK SMILES IDX 17 36 76 37 18 38 19 39 20 40 70 41 21 42 75 43 69 44 71 45
REMARK SMILES IDX 22 46 74 47 68 48 67 49 23 51 55 52 35 53 54 54 36 55 39 56
REMARK SMILES IDX 53 57 72 58 37 59 38 60 52 62 73 63 40 64 24 65 25 66 33 67
REMARK SMILES IDX 26 68 27 69 31 70 34 71 28 72 29 73 32 74 30 75 56 76 57 77
REMARK SMILES IDX 65 78 58 79 59 80 63 81 66 82 60 83 61 84 64 85 62 86 41 87
REMARK SMILES IDX 42 88 50 89 43 90 44 91 48 92 51 93 45 94 46 95 49 96 47 97
REMARK H PARENT 5 7 92 17 12 31 71 50 39 61
REMARK Flexibility Score: inf
ROOT
ATOM      1  C   UNL     1       4.916  -2.292  -1.407  1.00  0.00     0.002 C 
ENDROOT
BRANCH   1   2
ATOM      2  C   UNL     1       4.215  -1.085  -0.767  1.00  0.00     0.021 C 
BRANCH   2   3
ATOM      3  C   UNL     1       3.440  -0.205  -1.752  1.00  0.00     0.116 C 
BRANCH   3   4
ATOM      4  N   UNL     1       2.403  -0.966  -2.410  1.00  0.00    -0.356 N 
ATOM      5  C   UNL     1       1.063  -1.016  -2.197  1.00  0.00     0.227 C 
ATOM      6  O   UNL     1       0.451  -1.861  -2.860  1.00  0.00    -0.274 OA
ATOM      7  H   UNL     1       2.723  -1.548  -3.137  1.00  0.00     0.163 HD
BRANCH   5   8
ATOM      8  C   UNL     1       0.365  -0.043  -1.228  1.00  0.00     0.109 C 
ATOM      9  C   UNL     1       0.784  -0.194   0.236  1.00  0.00     0.023 C 
BRANCH   8  10
ATOM     10  C   UNL     1      -1.166  -0.104  -1.269  1.00  0.00     0.007 A 
ATOM     11  C   UNL     1      -1.884   1.108  -1.219  1.00  0.00     0.020 A 
ATOM     12  C   UNL     1      -1.906  -1.296  -1.212  1.00  0.00     0.119 A 
ATOM     13  C   UNL     1      -3.285   1.119  -1.129  1.00  0.00     0.023 A 
ATOM     14  C   UNL     1      -3.296  -1.295  -1.171  1.00  0.00     0.047 A 
ATOM     15  C   UNL     1      -3.988  -0.090  -1.154  1.00  0.00     0.016 A 
BRANCH  12  16
ATOM     16  O   UNL     1      -1.320  -2.528  -1.182  1.00  0.00    -0.508 OA
ATOM     17  H   UNL     1      -0.386  -2.603  -1.207  1.00  0.00     0.293 HD
ENDBRANCH  12  16
BRANCH  13  18
ATOM     18  C   UNL     1      -3.983   2.429  -0.997  1.00  0.00     0.193 C 
ATOM     19  O   UNL     1      -3.424   3.463  -1.349  1.00  0.00    -0.289 OA
BRANCH  18  20
ATOM     20  C   UNL     1      -5.362   2.503  -0.454  1.00  0.00     0.022 A 
ATOM     21  C   UNL     1      -6.298   3.298  -1.121  1.00  0.00     0.012 A 
ATOM     22  C   UNL     1      -5.737   1.784   0.688  1.00  0.00     0.012 A 
ATOM     23  C   UNL     1      -7.622   3.322  -0.684  1.00  0.00     0.001 A 
ATOM     24  C   UNL     1      -7.065   1.805   1.116  1.00  0.00     0.001 A 
ATOM     25  C   UNL     1      -8.007   2.566   0.424  1.00  0.00     0.000 A 
ENDBRANCH  18  20
ENDBRANCH  13  18
ENDBRANCH   8  10
ENDBRANCH   5   8
ENDBRANCH   3   4
ENDBRANCH   2   3
ENDBRANCH   1   2
BRANCH   1  26
ATOM     26  C   UNL     1       5.856  -1.962  -2.570  1.00  0.00     0.002 C 
BRANCH  26  27
ATOM     27  C   UNL     1       6.922  -0.911  -2.257  1.00  0.00     0.021 C 
BRANCH  27  28
ATOM     28  C   UNL     1       7.847  -1.278  -1.105  1.00  0.00     0.116 C 
BRANCH  28  29
ATOM     29  N   UNL     1       8.677  -2.430  -1.415  1.00  0.00    -0.352 N 
ATOM     30  C   UNL     1      10.034  -2.569  -1.296  1.00  0.00     0.251 C 
ATOM     31  H   UNL     1       8.198  -3.219  -1.756  1.00  0.00     0.163 HD
ATOM     32  O   UNL     1      10.603  -3.546  -1.785  1.00  0.00    -0.269 OA
BRANCH  30  33
ATOM     33  C   UNL     1      10.825  -1.538  -0.592  1.00  0.00     0.039 A 
ATOM     34  C   UNL     1      12.047  -1.135  -1.133  1.00  0.00     0.014 A 
ATOM     35  C   UNL     1      10.374  -0.987   0.612  1.00  0.00     0.014 A 
ATOM     36  C   UNL     1      12.804  -0.158  -0.483  1.00  0.00     0.010 A 
ATOM     37  C   UNL     1      11.087   0.044   1.213  1.00  0.00     0.010 A 
ATOM     38  C   UNL     1      12.323   0.450   0.688  1.00  0.00    -0.014 A 
BRANCH  38  39
ATOM     39  C   UNL     1      13.127   1.468   1.410  1.00  0.00     0.031 A 
ATOM     40  C   UNL     1      13.630   1.175   2.798  1.00  0.00     0.074 A 
ATOM     41  C   UNL     1      13.367   2.664   0.842  1.00  0.00     0.049 A 
ATOM     42  N   UNL     1      14.314   1.940   3.612  1.00  0.00    -0.248 NA
ATOM     43  C   UNL     1      13.291  -0.142   3.360  1.00  0.00     0.031 C 
ATOM     44  C   UNL     1      12.898   3.082  -0.480  1.00  0.00     0.029 A 
ATOM     45  N   UNL     1      14.066   3.750   1.306  1.00  0.00    -0.354 N 
ATOM     46  C   UNL     1      14.464   1.206   4.782  1.00  0.00     0.074 A 
ATOM     47  C   UNL     1      13.750  -0.038   4.597  1.00  0.00     0.031 C 
ATOM     48  C   UNL     1      13.350   4.321  -0.734  1.00  0.00     0.029 A 
ATOM     49  C   UNL     1      14.111   4.796   0.418  1.00  0.00     0.049 A 
ATOM     50  H   UNL     1      14.494   3.776   2.192  1.00  0.00     0.167 HD
ATOM     51  C   UNL     1      15.156   1.529   5.901  1.00  0.00     0.037 A 
ATOM     52  C   UNL     1      14.704   6.001   0.523  1.00  0.00     0.037 A 
ATOM     53  C   UNL     1      15.895   2.753   6.066  1.00  0.00     0.049 A 
ATOM     54  C   UNL     1      15.473   6.332   1.775  1.00  0.00     0.074 A 
ATOM     55  C   UNL     1      16.685   3.148   7.130  1.00  0.00     0.029 A 
ATOM     56  N   UNL     1      15.931   3.782   5.136  1.00  0.00    -0.354 N 
ATOM     57  N   UNL     1      15.672   5.602   2.845  1.00  0.00    -0.248 NA
ATOM     58  C   UNL     1      16.111   7.655   1.825  1.00  0.00     0.031 C 
ATOM     59  C   UNL     1      17.157   4.438   6.868  1.00  0.00     0.029 A 
ATOM     60  C   UNL     1      16.713   4.822   5.613  1.00  0.00     0.049 A 
ATOM     61  H   UNL     1      15.470   3.774   4.266  1.00  0.00     0.167 HD
ATOM     62  C   UNL     1      16.493   6.355   3.675  1.00  0.00     0.074 A 
ATOM     63  C   UNL     1      16.759   7.597   2.979  1.00  0.00     0.031 C 
ATOM     64  C   UNL     1      16.985   6.044   4.899  1.00  0.00     0.037 A 
BRANCH  51  65
ATOM     65  C   UNL     1      15.139   0.544   7.036  1.00  0.00     0.064 A 
ATOM     66  C   UNL     1      15.771  -0.706   6.943  1.00  0.00     0.173 A 
ATOM     67  C   UNL     1      14.495   0.862   8.242  1.00  0.00     0.173 A 
ATOM     68  F   UNL     1      16.391  -1.067   5.809  1.00  0.00    -0.203 F 
ATOM     69  C   UNL     1      15.725  -1.615   7.998  1.00  0.00     0.198 A 
ATOM     70  C   UNL     1      14.482  -0.035   9.308  1.00  0.00     0.198 A 
ATOM     71  F   UNL     1      13.880   2.045   8.390  1.00  0.00    -0.203 F 
ATOM     72  F   UNL     1      16.282  -2.826   7.861  1.00  0.00    -0.200 F 
ATOM     73  C   UNL     1      15.087  -1.276   9.181  1.00  0.00     0.200 A 
ATOM     74  F   UNL     1      13.877   0.300  10.456  1.00  0.00    -0.200 F 
ATOM     75  F   UNL     1      15.046  -2.150  10.196  1.00  0.00    -0.200 F 
ENDBRANCH  51  65
BRANCH  52  76
ATOM     76  C   UNL     1      14.639   6.964  -0.607  1.00  0.00     0.064 A 
ATOM     77  C   UNL     1      15.786   7.274  -1.351  1.00  0.00     0.173 A 
ATOM     78  C   UNL     1      13.441   7.600  -0.962  1.00  0.00     0.173 A 
ATOM     79  F   UNL     1      16.960   6.705  -1.038  1.00  0.00    -0.203 F 
ATOM     80  C   UNL     1      15.744   8.200  -2.390  1.00  0.00     0.198 A 
ATOM     81  C   UNL     1      13.393   8.505  -2.020  1.00  0.00     0.198 A 
ATOM     82  F   UNL     1      12.313   7.335  -0.286  1.00  0.00    -0.203 F 
ATOM     83  F   UNL     1      16.866   8.514  -3.052  1.00  0.00    -0.200 F 
ATOM     84  C   UNL     1      14.546   8.812  -2.728  1.00  0.00     0.200 A 
ATOM     85  F   UNL     1      12.230   9.082  -2.353  1.00  0.00    -0.200 F 
ATOM     86  F   UNL     1      14.504   9.701  -3.728  1.00  0.00    -0.200 F 
ENDBRANCH  52  76
BRANCH  64  87
ATOM     87  C   UNL     1      17.917   7.034   5.540  1.00  0.00     0.064 A 
ATOM     88  C   UNL     1      17.468   8.271   6.025  1.00  0.00     0.173 A 
ATOM     89  C   UNL     1      19.276   6.720   5.697  1.00  0.00     0.173 A 
ATOM     90  F   UNL     1      16.181   8.624   5.888  1.00  0.00    -0.203 F 
ATOM     91  C   UNL     1      18.353   9.171   6.612  1.00  0.00     0.198 A 
ATOM     92  C   UNL     1      20.150   7.608   6.317  1.00  0.00     0.198 A 
ATOM     93  F   UNL     1      19.756   5.546   5.259  1.00  0.00    -0.203 F 
ATOM     94  F   UNL     1      17.914  10.371   7.016  1.00  0.00    -0.200 F 
ATOM     95  C   UNL     1      19.691   8.837   6.764  1.00  0.00     0.200 A 
ATOM     96  F   UNL     1      21.439   7.276   6.478  1.00  0.00    -0.200 F 
ATOM     97  F   UNL     1      20.539   9.703   7.336  1.00  0.00    -0.200 F 
ENDBRANCH  64  87
ENDBRANCH  38  39
ENDBRANCH  30  33
ENDBRANCH  28  29
ENDBRANCH  27  28
ENDBRANCH  26  27
ENDBRANCH   1  26
TORSDOF 17
