REMARK SMILES C[C@@H]1[C@@H](C(=O)NCCCCCCNC(=O)c2ccc(-c3c4nc(c(-c5c(F)c(F)c(F)c(F)c5F)c5ccc([nH]5)c(-c5c(F)c(F)c(F)c(F)c5F)c5nc(c(-c6c(F)c(F)c(F)c(F)c6F)c6ccc3[nH]6)C=C5)C=C4)cc2)CCN1C(=O)N1CCC[C@H]2CCC[C@@H]21
REMARK SMILES IDX 9 1 8 2 7 3 6 4 4 5 5 6 3 8 1 9 2 10 81 11 79 12 80 13 82 14
REMARK SMILES IDX 83 15 84 16 85 17 92 18 86 19 88 20 91 21 87 22 89 23 90 24
REMARK SMILES IDX 10 25 11 26 12 27 13 28 14 29 15 31 16 32 17 33 78 34 18 35
REMARK SMILES IDX 77 36 19 37 20 38 21 39 71 40 22 41 76 42 70 43 72 44 23 45
REMARK SMILES IDX 75 46 69 47 68 48 24 50 56 51 36 52 55 53 37 54 40 55 54 56
REMARK SMILES IDX 73 57 38 58 39 59 53 61 74 62 41 63 25 64 26 65 34 66 27 67
REMARK SMILES IDX 28 68 32 69 35 70 29 71 30 72 33 73 31 74 57 75 58 76 66 77
REMARK SMILES IDX 59 78 60 79 64 80 67 81 61 82 62 83 65 84 63 85 42 86 43 87
REMARK SMILES IDX 51 88 44 89 45 90 49 91 52 92 46 93 47 94 50 95 48 96
REMARK H PARENT 6 7 13 30 72 49 40 60
REMARK Flexibility Score: inf
ROOT
ATOM      1  C   UNL     1      -3.757   4.233  -2.695  1.00  0.00     0.002 C 
ENDROOT
BRANCH   1   2
ATOM      2  C   UNL     1      -2.833   4.219  -1.473  1.00  0.00     0.021 C 
BRANCH   2   3
ATOM      3  C   UNL     1      -2.452   2.842  -0.939  1.00  0.00     0.116 C 
BRANCH   3   4
ATOM      4  N   UNL     1      -1.759   2.021  -1.909  1.00  0.00    -0.356 N 
ATOM      5  C   UNL     1      -0.804   1.064  -1.702  1.00  0.00     0.225 C 
ATOM      6  O   UNL     1      -0.390   0.449  -2.683  1.00  0.00    -0.275 OA
ATOM      7  H   UNL     1      -2.009   2.172  -2.849  1.00  0.00     0.163 HD
BRANCH   5   8
ATOM      8  C   UNL     1      -0.243   0.873  -0.296  1.00  0.00     0.102 C 
ATOM      9  C   UNL     1       1.889   0.223   0.832  1.00  0.00     0.032 C 
ATOM     10  C   UNL     1       0.881  -0.187  -0.250  1.00  0.00     0.096 C 
ATOM     11  N   UNL     1       0.177  -1.443   0.074  1.00  0.00    -0.321 N 
ATOM     12  C   UNL     1      -1.255   0.328   0.716  1.00  0.00     0.037 C 
ATOM     13  C   UNL     1      -1.167  -1.177   0.546  1.00  0.00     0.122 C 
BRANCH  11  14
ATOM     14  C   UNL     1       0.427  -2.713  -0.425  1.00  0.00     0.320 C 
ATOM     15  O   UNL     1      -0.404  -3.618  -0.348  1.00  0.00    -0.248 OA
BRANCH  14  16
ATOM     16  N   UNL     1       1.597  -2.865  -1.125  1.00  0.00    -0.321 N 
ATOM     17  C   UNL     1       2.884  -2.855  -0.445  1.00  0.00     0.121 C 
ATOM     18  C   UNL     1       1.633  -3.580  -2.386  1.00  0.00     0.090 C 
ATOM     19  C   UNL     1       3.948  -2.173  -1.310  1.00  0.00     0.022 C 
ATOM     20  C   UNL     1       2.578  -2.812  -3.314  1.00  0.00     0.012 C 
ATOM     21  C   UNL     1       0.376  -3.677  -3.244  1.00  0.00     0.025 C 
ATOM     22  C   UNL     1       3.989  -2.758  -2.734  1.00  0.00     0.007 C 
ATOM     23  C   UNL     1       2.398  -3.519  -4.646  1.00  0.00     0.006 C 
ATOM     24  C   UNL     1       0.915  -3.921  -4.662  1.00  0.00     0.002 C 
ENDBRANCH  14  16
ENDBRANCH  11  14
ENDBRANCH   5   8
ENDBRANCH   3   4
ENDBRANCH   2   3
ENDBRANCH   1   2
BRANCH   1  25
ATOM     25  C   UNL     1      -5.040   3.405  -2.589  1.00  0.00     0.002 C 
BRANCH  25  26
ATOM     26  C   UNL     1      -5.937   3.692  -1.383  1.00  0.00     0.021 C 
BRANCH  26  27
ATOM     27  C   UNL     1      -6.329   5.151  -1.170  1.00  0.00     0.116 C 
BRANCH  27  28
ATOM     28  N   UNL     1      -7.045   5.722  -2.295  1.00  0.00    -0.352 N 
ATOM     29  C   UNL     1      -8.177   6.498  -2.318  1.00  0.00     0.251 C 
ATOM     30  H   UNL     1      -6.660   5.521  -3.178  1.00  0.00     0.163 HD
ATOM     31  O   UNL     1      -8.683   6.800  -3.395  1.00  0.00    -0.269 OA
BRANCH  29  32
ATOM     32  C   UNL     1      -8.816   6.954  -1.061  1.00  0.00     0.039 A 
ATOM     33  C   UNL     1     -10.213   6.924  -0.981  1.00  0.00     0.014 A 
ATOM     34  C   UNL     1      -8.071   7.443   0.016  1.00  0.00     0.014 A 
ATOM     35  C   UNL     1     -10.856   7.334   0.189  1.00  0.00     0.010 A 
ATOM     36  C   UNL     1      -8.710   7.793   1.206  1.00  0.00     0.010 A 
ATOM     37  C   UNL     1     -10.109   7.748   1.303  1.00  0.00    -0.014 A 
BRANCH  37  38
ATOM     38  C   UNL     1     -10.783   8.147   2.565  1.00  0.00     0.031 A 
ATOM     39  C   UNL     1     -10.723   9.571   3.043  1.00  0.00     0.074 A 
ATOM     40  C   UNL     1     -11.420   7.217   3.303  1.00  0.00     0.049 A 
ATOM     41  N   UNL     1     -11.226  10.102   4.130  1.00  0.00    -0.248 NA
ATOM     42  C   UNL     1      -9.982  10.521   2.201  1.00  0.00     0.031 C 
ATOM     43  C   UNL     1     -11.512   5.794   2.973  1.00  0.00     0.029 A 
ATOM     44  N   UNL     1     -12.106   7.329   4.487  1.00  0.00    -0.354 N 
ATOM     45  C   UNL     1     -10.852  11.439   4.107  1.00  0.00     0.074 A 
ATOM     46  C   UNL     1     -10.040  11.629   2.924  1.00  0.00     0.031 C 
ATOM     47  C   UNL     1     -12.233   5.170   3.918  1.00  0.00     0.029 A 
ATOM     48  C   UNL     1     -12.630   6.141   4.934  1.00  0.00     0.049 A 
ATOM     49  H   UNL     1     -12.213   8.180   4.969  1.00  0.00     0.167 HD
ATOM     50  C   UNL     1     -11.176  12.423   4.979  1.00  0.00     0.037 A 
ATOM     51  C   UNL     1     -13.350   5.865   6.038  1.00  0.00     0.037 A 
ATOM     52  C   UNL     1     -12.009  12.242   6.139  1.00  0.00     0.049 A 
ATOM     53  C   UNL     1     -13.702   6.979   6.986  1.00  0.00     0.074 A 
ATOM     54  C   UNL     1     -12.445  13.191   7.046  1.00  0.00     0.029 A 
ATOM     55  N   UNL     1     -12.533  11.025   6.551  1.00  0.00    -0.354 N 
ATOM     56  N   UNL     1     -13.400   8.252   6.916  1.00  0.00    -0.248 NA
ATOM     57  C   UNL     1     -14.504   6.616   8.164  1.00  0.00     0.031 C 
ATOM     58  C   UNL     1     -13.203  12.544   8.029  1.00  0.00     0.029 A 
ATOM     59  C   UNL     1     -13.272  11.197   7.710  1.00  0.00     0.049 A 
ATOM     60  H   UNL     1     -12.400  10.167   6.088  1.00  0.00     0.167 HD
ATOM     61  C   UNL     1     -13.990   8.845   8.023  1.00  0.00     0.074 A 
ATOM     62  C   UNL     1     -14.684   7.796   8.741  1.00  0.00     0.031 C 
ATOM     63  C   UNL     1     -13.959  10.144   8.411  1.00  0.00     0.037 A 
BRANCH  50  64
ATOM     64  C   UNL     1     -10.632  13.795   4.707  1.00  0.00     0.064 A 
ATOM     65  C   UNL     1     -11.114  14.579   3.648  1.00  0.00     0.173 A 
ATOM     66  C   UNL     1      -9.646  14.349   5.538  1.00  0.00     0.173 A 
ATOM     67  F   UNL     1     -12.049  14.090   2.818  1.00  0.00    -0.203 F 
ATOM     68  C   UNL     1     -10.610  15.855   3.413  1.00  0.00     0.198 A 
ATOM     69  C   UNL     1      -9.164  15.636   5.316  1.00  0.00     0.198 A 
ATOM     70  F   UNL     1      -9.156  13.644   6.569  1.00  0.00    -0.203 F 
ATOM     71  F   UNL     1     -11.053  16.567   2.367  1.00  0.00    -0.200 F 
ATOM     72  C   UNL     1      -9.640  16.385   4.251  1.00  0.00     0.200 A 
ATOM     73  F   UNL     1      -8.235  16.152   6.133  1.00  0.00    -0.200 F 
ATOM     74  F   UNL     1      -9.159  17.616   4.027  1.00  0.00    -0.200 F 
ENDBRANCH  50  64
BRANCH  51  75
ATOM     75  C   UNL     1     -13.814   4.478   6.292  1.00  0.00     0.064 A 
ATOM     76  C   UNL     1     -15.170   4.141   6.171  1.00  0.00     0.173 A 
ATOM     77  C   UNL     1     -12.919   3.465   6.663  1.00  0.00     0.173 A 
ATOM     78  F   UNL     1     -16.066   5.082   5.841  1.00  0.00    -0.203 F 
ATOM     79  C   UNL     1     -15.615   2.846   6.430  1.00  0.00     0.198 A 
ATOM     80  C   UNL     1     -13.362   2.165   6.897  1.00  0.00     0.198 A 
ATOM     81  F   UNL     1     -11.612   3.736   6.788  1.00  0.00    -0.203 F 
ATOM     82  F   UNL     1     -16.921   2.561   6.349  1.00  0.00    -0.200 F 
ATOM     83  C   UNL     1     -14.710   1.858   6.787  1.00  0.00     0.200 A 
ATOM     84  F   UNL     1     -12.483   1.210   7.231  1.00  0.00    -0.200 F 
ATOM     85  F   UNL     1     -15.138   0.613   7.034  1.00  0.00    -0.200 F 
ENDBRANCH  51  75
BRANCH  63  86
ATOM     86  C   UNL     1     -14.715  10.506   9.655  1.00  0.00     0.064 A 
ATOM     87  C   UNL     1     -14.247  10.146  10.927  1.00  0.00     0.173 A 
ATOM     88  C   UNL     1     -15.902  11.249   9.575  1.00  0.00     0.173 A 
ATOM     89  F   UNL     1     -13.126   9.421  11.054  1.00  0.00    -0.203 F 
ATOM     90  C   UNL     1     -14.953  10.499  12.074  1.00  0.00     0.198 A 
ATOM     91  C   UNL     1     -16.591  11.622  10.726  1.00  0.00     0.198 A 
ATOM     92  F   UNL     1     -16.388  11.622   8.382  1.00  0.00    -0.203 F 
ATOM     93  F   UNL     1     -14.511  10.107  13.277  1.00  0.00    -0.200 F 
ATOM     94  C   UNL     1     -16.120  11.241  11.973  1.00  0.00     0.200 A 
ATOM     95  F   UNL     1     -17.713  12.349  10.627  1.00  0.00    -0.200 F 
ATOM     96  F   UNL     1     -16.796  11.584  13.079  1.00  0.00    -0.200 F 
ENDBRANCH  63  86
ENDBRANCH  37  38
ENDBRANCH  29  32
ENDBRANCH  27  28
ENDBRANCH  26  27
ENDBRANCH  25  26
ENDBRANCH   1  25
TORSDOF 15
