REMARK SMILES NC(=O)C[C@@H](CC(=O)NCCCCCCNC(=O)c1ccc(-c2c3nc(c(-c4c(F)c(F)c(F)c(F)c4F)c4ccc([nH]4)c(-c4c(F)c(F)c(F)c(F)c4F)c4nc(c(-c5c(F)c(F)c(F)c(F)c5F)c5ccc2[nH]5)C=C4)C=C3)cc1)c1cccc(Br)c1
REMARK SMILES IDX 12 1 11 2 10 3 9 4 7 5 8 6 6 8 5 9 4 10 2 11 1 12 3 15 82 16
REMARK SMILES IDX 83 17 88 18 84 19 86 20 85 21 87 22 13 23 14 24 15 25 16 26
REMARK SMILES IDX 17 27 18 29 19 30 20 31 81 32 21 33 80 34 22 35 23 36 24 37
REMARK SMILES IDX 74 38 25 39 79 40 73 41 75 42 26 43 78 44 72 45 71 46 27 48
REMARK SMILES IDX 59 49 39 50 58 51 40 52 43 53 57 54 76 55 41 56 42 57 56 59
REMARK SMILES IDX 77 60 44 61 28 62 29 63 37 64 30 65 31 66 35 67 38 68 32 69
REMARK SMILES IDX 33 70 36 71 34 72 60 73 61 74 69 75 62 76 63 77 67 78 70 79
REMARK SMILES IDX 64 80 65 81 68 82 66 83 45 84 46 85 54 86 47 87 48 88 52 89
REMARK SMILES IDX 55 90 49 91 50 92 53 93 51 94
REMARK H PARENT 9 7 1 13 1 14 16 28 75 47 43 58
REMARK Flexibility Score: inf
ROOT
ATOM      1  C   UNL     1       2.364   0.667   4.733  1.00  0.00     0.002 C 
ENDROOT
BRANCH   1   2
ATOM      2  C   UNL     1       1.860  -0.191   3.572  1.00  0.00     0.021 C 
BRANCH   2   3
ATOM      3  C   UNL     1       2.378   0.248   2.201  1.00  0.00     0.116 C 
BRANCH   3   4
ATOM      4  N   UNL     1       3.697  -0.277   1.939  1.00  0.00    -0.356 N 
ATOM      5  C   UNL     1       4.129  -1.226   1.070  1.00  0.00     0.220 C 
ATOM      6  O   UNL     1       5.340  -1.459   1.058  1.00  0.00    -0.275 OA
ATOM      7  H   UNL     1       4.409   0.124   2.487  1.00  0.00     0.163 HD
BRANCH   5   8
ATOM      8  C   UNL     1       3.203  -1.934   0.092  1.00  0.00     0.108 C 
BRANCH   8   9
ATOM      9  C   UNL     1       2.144  -2.977   0.527  1.00  0.00     0.038 C 
BRANCH   9  10
ATOM     10  C   UNL     1       0.781  -2.515   1.075  1.00  0.00     0.108 C 
BRANCH  10  11
ATOM     11  C   UNL     1      -0.205  -1.757   0.195  1.00  0.00     0.218 C 
ATOM     12  N   UNL     1       0.207  -0.723  -0.577  1.00  0.00    -0.370 N 
ATOM     13  H   UNL     1      -0.440  -0.241  -1.141  1.00  0.00     0.159 HD
ATOM     14  H   UNL     1       1.154  -0.454  -0.573  1.00  0.00     0.159 HD
ATOM     15  O   UNL     1      -1.413  -1.989   0.247  1.00  0.00    -0.275 OA
ENDBRANCH  10  11
ENDBRANCH   9  10
BRANCH   9  16
ATOM     16  C   UNL     1       2.698  -4.064   1.457  1.00  0.00    -0.043 A 
ATOM     17  C   UNL     1       2.458  -5.417   1.161  1.00  0.00     0.004 A 
ATOM     18  C   UNL     1       3.374  -3.771   2.652  1.00  0.00     0.019 A 
ATOM     19  C   UNL     1       2.900  -6.433   2.016  1.00  0.00     0.001 A 
ATOM     20  C   UNL     1       3.828  -4.787   3.495  1.00  0.00     0.018 A 
ATOM     21  C   UNL     1       3.594  -6.119   3.182  1.00  0.00     0.016 A 
ATOM     22  Br  UNL     1       4.756  -4.336   5.081  1.00  0.00    -0.051 Br
ENDBRANCH   9  16
ENDBRANCH   8   9
ENDBRANCH   5   8
ENDBRANCH   3   4
ENDBRANCH   2   3
ENDBRANCH   1   2
BRANCH   1  23
ATOM     23  C   UNL     1       1.899   2.126   4.691  1.00  0.00     0.002 C 
BRANCH  23  24
ATOM     24  C   UNL     1       0.384   2.322   4.571  1.00  0.00     0.021 C 
BRANCH  24  25
ATOM     25  C   UNL     1      -0.433   1.657   5.675  1.00  0.00     0.116 C 
BRANCH  25  26
ATOM     26  N   UNL     1      -0.075   2.163   6.990  1.00  0.00    -0.352 N 
ATOM     27  C   UNL     1      -0.843   2.827   7.908  1.00  0.00     0.251 C 
ATOM     28  H   UNL     1       0.858   2.005   7.261  1.00  0.00     0.163 HD
ATOM     29  O   UNL     1      -0.309   3.395   8.866  1.00  0.00    -0.269 OA
BRANCH  27  30
ATOM     30  C   UNL     1      -2.309   2.876   7.756  1.00  0.00     0.039 A 
ATOM     31  C   UNL     1      -2.976   4.080   7.992  1.00  0.00     0.014 A 
ATOM     32  C   UNL     1      -3.030   1.727   7.416  1.00  0.00     0.014 A 
ATOM     33  C   UNL     1      -4.362   4.147   7.837  1.00  0.00     0.010 A 
ATOM     34  C   UNL     1      -4.401   1.810   7.193  1.00  0.00     0.010 A 
ATOM     35  C   UNL     1      -5.081   3.018   7.411  1.00  0.00    -0.014 A 
BRANCH  35  36
ATOM     36  C   UNL     1      -6.547   3.081   7.194  1.00  0.00     0.031 A 
ATOM     37  C   UNL     1      -7.474   2.268   8.052  1.00  0.00     0.074 A 
ATOM     38  C   UNL     1      -7.036   3.816   6.178  1.00  0.00     0.049 A 
ATOM     39  N   UNL     1      -8.774   2.137   7.975  1.00  0.00    -0.248 NA
ATOM     40  C   UNL     1      -6.852   1.473   9.121  1.00  0.00     0.031 C 
ATOM     41  C   UNL     1      -6.232   4.602   5.242  1.00  0.00     0.029 A 
ATOM     42  N   UNL     1      -8.326   4.007   5.752  1.00  0.00    -0.354 N 
ATOM     43  C   UNL     1      -9.122   1.239   8.975  1.00  0.00     0.074 A 
ATOM     44  C   UNL     1      -7.892   0.811   9.605  1.00  0.00     0.031 C 
ATOM     45  C   UNL     1      -7.046   5.199   4.359  1.00  0.00     0.029 A 
ATOM     46  C   UNL     1      -8.425   4.812   4.645  1.00  0.00     0.049 A 
ATOM     47  H   UNL     1      -9.107   3.606   6.198  1.00  0.00     0.167 HD
ATOM     48  C   UNL     1     -10.358   0.829   9.351  1.00  0.00     0.037 A 
ATOM     49  C   UNL     1      -9.504   5.188   3.934  1.00  0.00     0.037 A 
ATOM     50  C   UNL     1     -11.579   1.267   8.726  1.00  0.00     0.049 A 
ATOM     51  C   UNL     1     -10.867   4.723   4.367  1.00  0.00     0.074 A 
ATOM     52  C   UNL     1     -12.884   0.956   9.065  1.00  0.00     0.029 A 
ATOM     53  N   UNL     1     -11.642   2.108   7.623  1.00  0.00    -0.354 N 
ATOM     54  N   UNL     1     -11.193   3.932   5.361  1.00  0.00    -0.248 NA
ATOM     55  C   UNL     1     -12.012   5.210   3.587  1.00  0.00     0.031 C 
ATOM     56  C   UNL     1     -13.734   1.570   8.138  1.00  0.00     0.029 A 
ATOM     57  C   UNL     1     -12.963   2.308   7.254  1.00  0.00     0.049 A 
ATOM     58  H   UNL     1     -10.863   2.504   7.169  1.00  0.00     0.167 HD
ATOM     59  C   UNL     1     -12.577   3.842   5.340  1.00  0.00     0.074 A 
ATOM     60  C   UNL     1     -13.031   4.673   4.244  1.00  0.00     0.031 C 
ATOM     61  C   UNL     1     -13.398   3.135   6.156  1.00  0.00     0.037 A 
BRANCH  48  62
ATOM     62  C   UNL     1     -10.441  -0.148  10.490  1.00  0.00     0.064 A 
ATOM     63  C   UNL     1     -10.097   0.219  11.801  1.00  0.00     0.173 A 
ATOM     64  C   UNL     1     -10.872  -1.465  10.272  1.00  0.00     0.173 A 
ATOM     65  F   UNL     1      -9.669   1.463  12.063  1.00  0.00    -0.203 F 
ATOM     66  C   UNL     1     -10.138  -0.707  12.840  1.00  0.00     0.198 A 
ATOM     67  C   UNL     1     -10.944  -2.379  11.320  1.00  0.00     0.198 A 
ATOM     68  F   UNL     1     -11.221  -1.869   9.041  1.00  0.00    -0.203 F 
ATOM     69  F   UNL     1      -9.741  -0.349  14.069  1.00  0.00    -0.200 F 
ATOM     70  C   UNL     1     -10.566  -2.003  12.600  1.00  0.00     0.200 A 
ATOM     71  F   UNL     1     -11.372  -3.628  11.090  1.00  0.00    -0.200 F 
ATOM     72  F   UNL     1     -10.603  -2.894  13.601  1.00  0.00    -0.200 F 
ENDBRANCH  48  62
BRANCH  49  73
ATOM     73  C   UNL     1      -9.330   6.073   2.754  1.00  0.00     0.064 A 
ATOM     74  C   UNL     1      -9.735   7.413   2.792  1.00  0.00     0.173 A 
ATOM     75  C   UNL     1      -8.723   5.606   1.579  1.00  0.00     0.173 A 
ATOM     76  F   UNL     1     -10.335   7.901   3.887  1.00  0.00    -0.203 F 
ATOM     77  C   UNL     1      -9.549   8.252   1.695  1.00  0.00     0.198 A 
ATOM     78  C   UNL     1      -8.513   6.452   0.492  1.00  0.00     0.198 A 
ATOM     79  F   UNL     1      -8.309   4.333   1.496  1.00  0.00    -0.203 F 
ATOM     80  F   UNL     1      -9.973   9.522   1.745  1.00  0.00    -0.200 F 
ATOM     81  C   UNL     1      -8.930   7.773   0.549  1.00  0.00     0.200 A 
ATOM     82  F   UNL     1      -7.899   5.990  -0.606  1.00  0.00    -0.200 F 
ATOM     83  F   UNL     1      -8.738   8.584  -0.500  1.00  0.00    -0.200 F 
ENDBRANCH  49  73
BRANCH  61  84
ATOM     84  C   UNL     1     -14.875   3.245   5.907  1.00  0.00     0.064 A 
ATOM     85  C   UNL     1     -15.480   2.647   4.792  1.00  0.00     0.173 A 
ATOM     86  C   UNL     1     -15.699   3.925   6.816  1.00  0.00     0.173 A 
ATOM     87  F   UNL     1     -14.733   1.999   3.885  1.00  0.00    -0.203 F 
ATOM     88  C   UNL     1     -16.854   2.745   4.585  1.00  0.00     0.198 A 
ATOM     89  C   UNL     1     -17.076   3.996   6.622  1.00  0.00     0.198 A 
ATOM     90  F   UNL     1     -15.171   4.511   7.902  1.00  0.00    -0.203 F 
ATOM     91  F   UNL     1     -17.404   2.206   3.489  1.00  0.00    -0.200 F 
ATOM     92  C   UNL     1     -17.651   3.413   5.503  1.00  0.00     0.200 A 
ATOM     93  F   UNL     1     -17.846   4.630   7.517  1.00  0.00    -0.200 F 
ATOM     94  F   UNL     1     -18.973   3.500   5.306  1.00  0.00    -0.200 F 
ENDBRANCH  61  84
ENDBRANCH  35  36
ENDBRANCH  27  30
ENDBRANCH  25  26
ENDBRANCH  24  25
ENDBRANCH  23  24
ENDBRANCH   1  23
TORSDOF 17
