REMARK SMILES C=C(C)C[N@@H+]1CC[C@H](C(=O)NCCCCCCNC(=O)c2ccc(-c3c4nc(c(-c5c(F)c(F)c(F)c(F)c5F)c5ccc([nH]5)c(-c5c(F)c(F)c(F)c(F)c5F)c5nc(c(-c6c(F)c(F)c(F)c(F)c6F)c6ccc3[nH]6)C=C5)C=C4)cc2)[C@H]1C
REMARK SMILES IDX 14 1 13 2 12 3 11 4 9 5 10 6 8 8 5 9 6 10 84 11 7 13 85 14
REMARK SMILES IDX 4 15 2 16 1 17 3 18 15 19 16 20 17 21 18 22 19 23 20 25
REMARK SMILES IDX 21 26 22 27 83 28 23 29 82 30 24 31 25 32 26 33 76 34 27 35
REMARK SMILES IDX 81 36 75 37 77 38 28 39 80 40 74 41 73 42 29 44 61 45 41 46
REMARK SMILES IDX 60 47 42 48 45 49 59 50 78 51 43 52 44 53 58 55 79 56 46 57
REMARK SMILES IDX 30 58 31 59 39 60 32 61 33 62 37 63 40 64 34 65 35 66 38 67
REMARK SMILES IDX 36 68 62 69 63 70 71 71 64 72 65 73 69 74 72 75 66 76 67 77
REMARK SMILES IDX 70 78 68 79 47 80 48 81 56 82 49 83 50 84 54 85 57 86 51 87
REMARK SMILES IDX 52 88 55 89 53 90
REMARK H PARENT 11 7 5 12 18 24 77 43 45 54
REMARK Flexibility Score: inf
ROOT
ATOM      1  C   UNL     1       4.503  -2.227  -7.424  1.00  0.00     0.002 C 
ENDROOT
BRANCH   1   2
ATOM      2  C   UNL     1       4.348  -2.696  -5.969  1.00  0.00     0.021 C 
BRANCH   2   3
ATOM      3  C   UNL     1       5.295  -2.003  -4.988  1.00  0.00     0.116 C 
BRANCH   3   4
ATOM      4  N   UNL     1       5.030  -0.587  -4.955  1.00  0.00    -0.356 N 
ATOM      5  C   UNL     1       4.450   0.185  -4.005  1.00  0.00     0.229 C 
ATOM      6  O   UNL     1       4.221   1.353  -4.330  1.00  0.00    -0.275 OA
ATOM      7  H   UNL     1       5.319  -0.097  -5.758  1.00  0.00     0.163 HD
BRANCH   5   8
ATOM      8  C   UNL     1       4.202  -0.342  -2.588  1.00  0.00     0.142 C 
ATOM      9  N   UNL     1       2.094  -0.852  -1.659  1.00  0.00    -0.329 N 
ATOM     10  C   UNL     1       2.098   0.567  -1.974  1.00  0.00     0.263 C 
ATOM     11  C   UNL     1       3.152  -1.478  -2.456  1.00  0.00     0.193 C 
ATOM     12  H   UNL     1       2.331  -0.991  -0.677  1.00  0.00     0.348 HD
ATOM     13  C   UNL     1       3.583   0.794  -1.758  1.00  0.00     0.081 C 
ATOM     14  C   UNL     1       3.692  -2.662  -1.647  1.00  0.00     0.076 C 
BRANCH   9  15
ATOM     15  C   UNL     1       0.815  -1.515  -1.508  1.00  0.00     0.293 C 
BRANCH  15  16
ATOM     16  C   UNL     1      -0.021  -0.875  -0.409  1.00  0.00    -0.026 C 
ATOM     17  C   UNL     1       0.515  -0.372   0.720  1.00  0.00     0.013 C 
ATOM     18  C   UNL     1      -1.494  -0.781  -0.673  1.00  0.00     0.045 C 
ENDBRANCH  15  16
ENDBRANCH   9  15
ENDBRANCH   5   8
ENDBRANCH   3   4
ENDBRANCH   2   3
ENDBRANCH   1   2
BRANCH   1  19
ATOM     19  C   UNL     1       5.916  -2.360  -8.000  1.00  0.00     0.002 C 
BRANCH  19  20
ATOM     20  C   UNL     1       6.513  -3.764  -7.909  1.00  0.00     0.021 C 
BRANCH  20  21
ATOM     21  C   UNL     1       5.690  -4.844  -8.601  1.00  0.00     0.116 C 
BRANCH  21  22
ATOM     22  N   UNL     1       5.610  -4.633 -10.038  1.00  0.00    -0.352 N 
ATOM     23  C   UNL     1       5.928  -5.493 -11.056  1.00  0.00     0.251 C 
ATOM     24  H   UNL     1       5.282  -3.748 -10.318  1.00  0.00     0.163 HD
ATOM     25  O   UNL     1       5.993  -5.085 -12.216  1.00  0.00    -0.269 OA
BRANCH  23  26
ATOM     26  C   UNL     1       6.214  -6.910 -10.759  1.00  0.00     0.039 A 
ATOM     27  C   UNL     1       7.314  -7.521 -11.365  1.00  0.00     0.014 A 
ATOM     28  C   UNL     1       5.400  -7.635  -9.882  1.00  0.00     0.014 A 
ATOM     29  C   UNL     1       7.632  -8.842 -11.047  1.00  0.00     0.010 A 
ATOM     30  C   UNL     1       5.765  -8.924  -9.506  1.00  0.00     0.010 A 
ATOM     31  C   UNL     1       6.881  -9.543 -10.088  1.00  0.00    -0.014 A 
BRANCH  31  32
ATOM     32  C   UNL     1       7.250 -10.924  -9.684  1.00  0.00     0.031 A 
ATOM     33  C   UNL     1       6.307 -12.066  -9.946  1.00  0.00     0.074 A 
ATOM     34  C   UNL     1       8.406 -11.139  -9.027  1.00  0.00     0.049 A 
ATOM     35  N   UNL     1       6.424 -13.329  -9.619  1.00  0.00    -0.248 NA
ATOM     36  C   UNL     1       5.054 -11.743 -10.647  1.00  0.00     0.031 C 
ATOM     37  C   UNL     1       9.384 -10.107  -8.676  1.00  0.00     0.029 A 
ATOM     38  N   UNL     1       8.954 -12.296  -8.531  1.00  0.00    -0.354 N 
ATOM     39  C   UNL     1       5.258 -13.943 -10.058  1.00  0.00     0.074 A 
ATOM     40  C   UNL     1       4.423 -12.908 -10.627  1.00  0.00     0.031 C 
ATOM     41  C   UNL     1      10.422 -10.681  -8.048  1.00  0.00     0.029 A 
ATOM     42  C   UNL     1      10.166 -12.111  -7.912  1.00  0.00     0.049 A 
ATOM     43  H   UNL     1       8.519 -13.176  -8.612  1.00  0.00     0.167 HD
ATOM     44  C   UNL     1       4.926 -15.255 -10.011  1.00  0.00     0.037 A 
ATOM     45  C   UNL     1      10.975 -12.995  -7.296  1.00  0.00     0.037 A 
ATOM     46  C   UNL     1       5.772 -16.284  -9.466  1.00  0.00     0.049 A 
ATOM     47  C   UNL     1      10.569 -14.444  -7.241  1.00  0.00     0.074 A 
ATOM     48  C   UNL     1       5.556 -17.651  -9.434  1.00  0.00     0.029 A 
ATOM     49  N   UNL     1       6.995 -16.059  -8.851  1.00  0.00    -0.354 N 
ATOM     50  N   UNL     1       9.501 -15.025  -7.730  1.00  0.00    -0.248 NA
ATOM     51  C   UNL     1      11.486 -15.361  -6.550  1.00  0.00     0.031 C 
ATOM     52  C   UNL     1       6.617 -18.245  -8.744  1.00  0.00     0.029 A 
ATOM     53  C   UNL     1       7.528 -17.258  -8.405  1.00  0.00     0.049 A 
ATOM     54  H   UNL     1       7.421 -15.177  -8.745  1.00  0.00     0.167 HD
ATOM     55  C   UNL     1       9.635 -16.377  -7.440  1.00  0.00     0.074 A 
ATOM     56  C   UNL     1      10.895 -16.531  -6.745  1.00  0.00     0.031 C 
ATOM     57  C   UNL     1       8.790 -17.398  -7.725  1.00  0.00     0.037 A 
BRANCH  44  58
ATOM     58  C   UNL     1       3.585 -15.656 -10.557  1.00  0.00     0.064 A 
ATOM     59  C   UNL     1       3.299 -15.600 -11.930  1.00  0.00     0.173 A 
ATOM     60  C   UNL     1       2.589 -16.150  -9.701  1.00  0.00     0.173 A 
ATOM     61  F   UNL     1       4.211 -15.127 -12.792  1.00  0.00    -0.203 F 
ATOM     62  C   UNL     1       2.056 -15.995 -12.421  1.00  0.00     0.198 A 
ATOM     63  C   UNL     1       1.360 -16.576 -10.199  1.00  0.00     0.198 A 
ATOM     64  F   UNL     1       2.811 -16.232  -8.381  1.00  0.00    -0.203 F 
ATOM     65  F   UNL     1       1.789 -15.884 -13.729  1.00  0.00    -0.200 F 
ATOM     66  C   UNL     1       1.092 -16.491 -11.556  1.00  0.00     0.200 A 
ATOM     67  F   UNL     1       0.435 -17.070  -9.364  1.00  0.00    -0.200 F 
ATOM     68  F   UNL     1      -0.099 -16.881 -12.032  1.00  0.00    -0.200 F 
ENDBRANCH  44  58
BRANCH  45  69
ATOM     69  C   UNL     1      12.259 -12.544  -6.697  1.00  0.00     0.064 A 
ATOM     70  C   UNL     1      13.487 -12.961  -7.230  1.00  0.00     0.173 A 
ATOM     71  C   UNL     1      12.290 -11.710  -5.570  1.00  0.00     0.173 A 
ATOM     72  F   UNL     1      13.512 -13.776  -8.296  1.00  0.00    -0.203 F 
ATOM     73  C   UNL     1      14.694 -12.588  -6.642  1.00  0.00     0.198 A 
ATOM     74  C   UNL     1      13.498 -11.309  -5.002  1.00  0.00     0.198 A 
ATOM     75  F   UNL     1      11.144 -11.277  -5.023  1.00  0.00    -0.203 F 
ATOM     76  F   UNL     1      15.850 -13.050  -7.138  1.00  0.00    -0.200 F 
ATOM     77  C   UNL     1      14.698 -11.758  -5.531  1.00  0.00     0.200 A 
ATOM     78  F   UNL     1      13.498 -10.494  -3.939  1.00  0.00    -0.200 F 
ATOM     79  F   UNL     1      15.858 -11.399  -4.965  1.00  0.00    -0.200 F 
ENDBRANCH  45  69
BRANCH  57  80
ATOM     80  C   UNL     1       9.221 -18.782  -7.328  1.00  0.00     0.064 A 
ATOM     81  C   UNL     1       9.277 -19.183  -5.985  1.00  0.00     0.173 A 
ATOM     82  C   UNL     1       9.547 -19.731  -8.310  1.00  0.00     0.173 A 
ATOM     83  F   UNL     1       8.990 -18.311  -5.006  1.00  0.00    -0.203 F 
ATOM     84  C   UNL     1       9.672 -20.473  -5.639  1.00  0.00     0.198 A 
ATOM     85  C   UNL     1       9.906 -21.030  -7.962  1.00  0.00     0.198 A 
ATOM     86  F   UNL     1       9.502 -19.402  -9.610  1.00  0.00    -0.203 F 
ATOM     87  F   UNL     1       9.772 -20.817  -4.348  1.00  0.00    -0.200 F 
ATOM     88  C   UNL     1       9.978 -21.397  -6.627  1.00  0.00     0.200 A 
ATOM     89  F   UNL     1      10.183 -21.925  -8.919  1.00  0.00    -0.200 F 
ATOM     90  F   UNL     1      10.348 -22.641  -6.293  1.00  0.00    -0.200 F 
ENDBRANCH  57  80
ENDBRANCH  31  32
ENDBRANCH  23  26
ENDBRANCH  21  22
ENDBRANCH  20  21
ENDBRANCH  19  20
ENDBRANCH   1  19
TORSDOF 15
