REMARK SMILES O=C(NCCCCCCNC(=O)[C@@H]1CN(Cc2ccccc2)c2ccccc2O1)c1ccc(-c2c3nc(c(-c4c(F)c(F)c(F)c(F)c4F)c4ccc([nH]4)c(-c4c(F)c(F)c(F)c(F)c4F)c4nc(c(-c5c(F)c(F)c(F)c(F)c5F)c5ccc2[nH]5)C=C4)C=C3)cc1
REMARK SMILES IDX 6 1 5 2 4 3 3 4 1 5 2 6 30 8 31 9 92 10 32 11 91 12 33 13
REMARK SMILES IDX 34 14 35 15 85 16 36 17 90 18 84 19 86 20 37 21 89 22 83 23
REMARK SMILES IDX 82 24 38 26 70 27 50 28 69 29 51 30 54 31 68 32 87 33 52 34
REMARK SMILES IDX 53 35 67 37 88 38 55 39 39 40 40 41 48 42 41 43 42 44 46 45
REMARK SMILES IDX 49 46 43 47 44 48 47 49 45 50 71 51 72 52 80 53 73 54 74 55
REMARK SMILES IDX 78 56 81 57 75 58 76 59 79 60 77 61 56 62 57 63 65 64 58 65
REMARK SMILES IDX 59 66 63 67 66 68 60 69 61 70 64 71 62 72 7 73 8 74 9 75
REMARK SMILES IDX 10 76 11 77 12 79 13 80 14 81 29 82 15 83 28 84 23 85 27 86
REMARK SMILES IDX 24 87 26 88 25 89 16 90 17 91 18 92 22 93 19 94 21 95 20 96
REMARK H PARENT 3 7 86 25 54 36 10 78
REMARK Flexibility Score: inf
ROOT
ATOM      1  C   UNL     1       3.672  -3.591  -1.418  1.00  0.00     0.002 C 
ENDROOT
BRANCH   1   2
ATOM      2  C   UNL     1       4.364  -2.604  -0.475  1.00  0.00     0.021 C 
BRANCH   2   3
ATOM      3  C   UNL     1       4.246  -1.139  -0.884  1.00  0.00     0.116 C 
BRANCH   3   4
ATOM      4  N   UNL     1       2.866  -0.678  -0.894  1.00  0.00    -0.352 N 
ATOM      5  O   UNL     1       0.973   0.227  -0.068  1.00  0.00    -0.269 OA
ATOM      6  C   UNL     1       2.198   0.130  -0.011  1.00  0.00     0.251 C 
ATOM      7  H   UNL     1       2.328  -0.997  -1.655  1.00  0.00     0.163 HD
BRANCH   6   8
ATOM      8  C   UNL     1       2.944   0.868   1.029  1.00  0.00     0.039 A 
ATOM      9  C   UNL     1       4.140   1.516   0.721  1.00  0.00     0.014 A 
ATOM     10  C   UNL     1       2.433   0.925   2.329  1.00  0.00     0.014 A 
ATOM     11  C   UNL     1       4.912   2.060   1.739  1.00  0.00     0.010 A 
ATOM     12  C   UNL     1       3.160   1.572   3.333  1.00  0.00     0.010 A 
ATOM     13  C   UNL     1       4.428   2.107   3.056  1.00  0.00    -0.014 A 
BRANCH  13  14
ATOM     14  C   UNL     1       5.256   2.754   4.108  1.00  0.00     0.031 A 
ATOM     15  C   UNL     1       5.771   1.973   5.285  1.00  0.00     0.074 A 
ATOM     16  C   UNL     1       5.578   4.055   3.968  1.00  0.00     0.049 A 
ATOM     17  N   UNL     1       6.550   2.369   6.263  1.00  0.00    -0.248 NA
ATOM     18  C   UNL     1       5.355   0.566   5.389  1.00  0.00     0.031 C 
ATOM     19  C   UNL     1       5.127   4.920   2.876  1.00  0.00     0.029 A 
ATOM     20  N   UNL     1       6.377   4.871   4.728  1.00  0.00    -0.354 N 
ATOM     21  C   UNL     1       6.697   1.274   7.104  1.00  0.00     0.074 A 
ATOM     22  C   UNL     1       5.902   0.203   6.541  1.00  0.00     0.031 C 
ATOM     23  C   UNL     1       5.700   6.125   3.002  1.00  0.00     0.029 A 
ATOM     24  C   UNL     1       6.503   6.141   4.220  1.00  0.00     0.049 A 
ATOM     25  H   UNL     1       6.817   4.575   5.558  1.00  0.00     0.167 HD
ATOM     26  C   UNL     1       7.434   1.170   8.237  1.00  0.00     0.037 A 
ATOM     27  C   UNL     1       7.179   7.206   4.687  1.00  0.00     0.037 A 
ATOM     28  C   UNL     1       8.234   2.238   8.784  1.00  0.00     0.049 A 
ATOM     29  C   UNL     1       7.965   7.067   5.960  1.00  0.00     0.074 A 
ATOM     30  C   UNL     1       9.052   2.219   9.901  1.00  0.00     0.029 A 
ATOM     31  N   UNL     1       8.307   3.522   8.261  1.00  0.00    -0.354 N 
ATOM     32  N   UNL     1       8.138   6.011   6.717  1.00  0.00    -0.248 NA
ATOM     33  C   UNL     1       8.652   8.271   6.441  1.00  0.00     0.031 C 
ATOM     34  C   UNL     1       9.567   3.505  10.091  1.00  0.00     0.029 A 
ATOM     35  C   UNL     1       9.132   4.310   9.050  1.00  0.00     0.049 A 
ATOM     36  H   UNL     1       7.842   3.828   7.449  1.00  0.00     0.167 HD
ATOM     37  C   UNL     1       8.979   6.413   7.745  1.00  0.00     0.074 A 
ATOM     38  C   UNL     1       9.295   7.806   7.502  1.00  0.00     0.031 C 
ATOM     39  C   UNL     1       9.447   5.693   8.794  1.00  0.00     0.037 A 
BRANCH  26  40
ATOM     40  C   UNL     1       7.393  -0.135   8.983  1.00  0.00     0.064 A 
ATOM     41  C   UNL     1       7.973  -1.305   8.468  1.00  0.00     0.173 A 
ATOM     42  C   UNL     1       6.801  -0.206  10.254  1.00  0.00     0.173 A 
ATOM     43  F   UNL     1       8.545  -1.299   7.255  1.00  0.00    -0.203 F 
ATOM     44  C   UNL     1       7.933  -2.501   9.183  1.00  0.00     0.198 A 
ATOM     45  C   UNL     1       6.793  -1.394  10.980  1.00  0.00     0.198 A 
ATOM     46  F   UNL     1       6.239   0.883  10.800  1.00  0.00    -0.203 F 
ATOM     47  F   UNL     1       8.446  -3.617   8.647  1.00  0.00    -0.200 F 
ATOM     48  C   UNL     1       7.350  -2.543  10.441  1.00  0.00     0.200 A 
ATOM     49  F   UNL     1       6.244  -1.427  12.202  1.00  0.00    -0.200 F 
ATOM     50  F   UNL     1       7.320  -3.692  11.130  1.00  0.00    -0.200 F 
ENDBRANCH  26  40
BRANCH  27  51
ATOM     51  C   UNL     1       7.147   8.491   3.942  1.00  0.00     0.064 A 
ATOM     52  C   UNL     1       8.302   9.003   3.335  1.00  0.00     0.173 A 
ATOM     53  C   UNL     1       5.964   9.237   3.824  1.00  0.00     0.173 A 
ATOM     54  F   UNL     1       9.462   8.335   3.432  1.00  0.00    -0.203 F 
ATOM     55  C   UNL     1       8.281  10.222   2.661  1.00  0.00     0.198 A 
ATOM     56  C   UNL     1       5.936  10.438   3.120  1.00  0.00     0.198 A 
ATOM     57  F   UNL     1       4.829   8.788   4.380  1.00  0.00    -0.203 F 
ATOM     58  F   UNL     1       9.412  10.713   2.135  1.00  0.00    -0.200 F 
ATOM     59  C   UNL     1       7.097  10.935   2.548  1.00  0.00     0.200 A 
ATOM     60  F   UNL     1       4.785  11.113   2.996  1.00  0.00    -0.200 F 
ATOM     61  F   UNL     1       7.077  12.105   1.896  1.00  0.00    -0.200 F 
ENDBRANCH  27  51
BRANCH  39  62
ATOM     62  C   UNL     1      10.399   6.386   9.729  1.00  0.00     0.064 A 
ATOM     63  C   UNL     1       9.986   7.424  10.578  1.00  0.00     0.173 A 
ATOM     64  C   UNL     1      11.745   5.993   9.782  1.00  0.00     0.173 A 
ATOM     65  F   UNL     1       8.713   7.848  10.556  1.00  0.00    -0.203 F 
ATOM     66  C   UNL     1      10.893   8.069  11.414  1.00  0.00     0.198 A 
ATOM     67  C   UNL     1      12.641   6.615  10.647  1.00  0.00     0.198 A 
ATOM     68  F   UNL     1      12.193   5.001   8.998  1.00  0.00    -0.203 F 
ATOM     69  F   UNL     1      10.490   9.103  12.165  1.00  0.00    -0.200 F 
ATOM     70  C   UNL     1      12.218   7.660  11.453  1.00  0.00     0.200 A 
ATOM     71  F   UNL     1      13.917   6.206  10.696  1.00  0.00    -0.200 F 
ATOM     72  F   UNL     1      13.089   8.281  12.260  1.00  0.00    -0.200 F 
ENDBRANCH  39  62
ENDBRANCH  13  14
ENDBRANCH   6   8
ENDBRANCH   3   4
ENDBRANCH   2   3
ENDBRANCH   1   2
BRANCH   1  73
ATOM     73  C   UNL     1       4.089  -3.497  -2.888  1.00  0.00     0.002 C 
BRANCH  73  74
ATOM     74  C   UNL     1       5.596  -3.455  -3.127  1.00  0.00     0.021 C 
BRANCH  74  75
ATOM     75  C   UNL     1       6.370  -4.703  -2.696  1.00  0.00     0.116 C 
BRANCH  75  76
ATOM     76  N   UNL     1       6.552  -5.573  -3.832  1.00  0.00    -0.353 N 
ATOM     77  C   UNL     1       7.562  -5.745  -4.721  1.00  0.00     0.262 C 
ATOM     78  H   UNL     1       5.784  -6.166  -3.996  1.00  0.00     0.163 HD
ATOM     79  O   UNL     1       7.211  -6.356  -5.743  1.00  0.00    -0.271 OA
BRANCH  77  80
ATOM     80  C   UNL     1       9.061  -5.422  -4.478  1.00  0.00     0.281 C 
ATOM     81  C   UNL     1       9.616  -4.224  -3.704  1.00  0.00     0.172 C 
ATOM     82  O   UNL     1       9.729  -5.503  -5.753  1.00  0.00    -0.477 OA
ATOM     83  N   UNL     1       9.450  -2.934  -4.394  1.00  0.00    -0.360 N 
ATOM     84  C   UNL     1       9.750  -4.300  -6.422  1.00  0.00     0.143 A 
ATOM     85  C   UNL     1       9.671  -3.045  -5.778  1.00  0.00     0.080 A 
ATOM     86  C   UNL     1       9.884  -4.405  -7.811  1.00  0.00     0.049 A 
ATOM     87  C   UNL     1       9.844  -1.918  -6.589  1.00  0.00     0.030 A 
ATOM     88  C   UNL     1       9.959  -3.258  -8.594  1.00  0.00     0.004 A 
ATOM     89  C   UNL     1       9.960  -2.013  -7.980  1.00  0.00     0.002 A 
BRANCH  83  90
ATOM     90  C   UNL     1       8.399  -2.037  -3.905  1.00  0.00     0.152 C 
BRANCH  90  91
ATOM     91  C   UNL     1       8.713  -0.571  -3.709  1.00  0.00    -0.029 A 
ATOM     92  C   UNL     1       9.233  -0.094  -2.497  1.00  0.00     0.005 A 
ATOM     93  C   UNL     1       8.351   0.365  -4.692  1.00  0.00     0.005 A 
ATOM     94  C   UNL     1       9.402   1.279  -2.287  1.00  0.00     0.000 A 
ATOM     95  C   UNL     1       8.564   1.729  -4.502  1.00  0.00     0.000 A 
ATOM     96  C   UNL     1       9.084   2.188  -3.296  1.00  0.00     0.000 A 
ENDBRANCH  90  91
ENDBRANCH  83  90
ENDBRANCH  77  80
ENDBRANCH  75  76
ENDBRANCH  74  75
ENDBRANCH  73  74
ENDBRANCH   1  73
TORSDOF 15
