REMARK SMILES Cn1c(C(=O)NCCCCCCNC(=O)c2ccc(-c3c4nc(c(-c5c(F)c(F)c(F)c(F)c5F)c5ccc([nH]5)c(-c5c(F)c(F)c(F)c(F)c5F)c5nc(c(-c6c(F)c(F)c(F)c(F)c6F)c6ccc3[nH]6)C=C5)C=C4)cc2)cc2cc(OCc3ccccc3)ccc21
REMARK SMILES IDX 9 1 8 2 7 3 6 4 4 5 5 6 3 8 1 9 2 10 93 11 79 12 80 13 92 14
REMARK SMILES IDX 81 15 91 16 82 17 83 18 84 19 85 20 86 21 90 22 87 23 89 24
REMARK SMILES IDX 88 25 10 26 11 27 12 28 13 29 14 30 15 32 16 33 17 34 78 35
REMARK SMILES IDX 18 36 77 37 19 38 20 39 21 40 71 41 22 42 76 43 70 44 72 45
REMARK SMILES IDX 23 46 75 47 69 48 68 49 24 51 56 52 36 53 55 54 37 55 40 56
REMARK SMILES IDX 54 57 73 58 38 59 39 60 53 62 74 63 41 64 25 65 26 66 34 67
REMARK SMILES IDX 27 68 28 69 32 70 35 71 29 72 30 73 33 74 31 75 57 76 58 77
REMARK SMILES IDX 66 78 59 79 60 80 64 81 67 82 61 83 62 84 65 85 63 86 42 87
REMARK SMILES IDX 43 88 51 89 44 90 45 91 49 92 52 93 46 94 47 95 50 96 48 97
REMARK H PARENT 6 7 13 31 72 50 40 61
REMARK Flexibility Score: inf
ROOT
ATOM      1  C   UNL     1       6.853   1.112   1.322  1.00  0.00     0.002 C 
ENDROOT
BRANCH   1   2
ATOM      2  C   UNL     1       5.409   1.170   1.827  1.00  0.00     0.021 C 
BRANCH   2   3
ATOM      3  C   UNL     1       4.320   0.846   0.812  1.00  0.00     0.116 C 
BRANCH   3   4
ATOM      4  N   UNL     1       4.324  -0.505   0.309  1.00  0.00    -0.351 N 
ATOM      5  C   UNL     1       3.291  -1.281  -0.165  1.00  0.00     0.267 C 
ATOM      6  O   UNL     1       3.587  -2.429  -0.497  1.00  0.00    -0.268 OA
ATOM      7  H   UNL     1       5.207  -0.942   0.303  1.00  0.00     0.163 HD
BRANCH   5   8
ATOM      8  C   UNL     1       1.917  -0.802  -0.204  1.00  0.00     0.107 A 
ATOM      9  C   UNL     1       2.091   1.560  -1.127  1.00  0.00     0.150 C 
ATOM     10  N   UNL     1       1.408   0.447  -0.504  1.00  0.00    -0.340 N 
ATOM     11  C   UNL     1       0.043   0.484  -0.289  1.00  0.00     0.049 A 
ATOM     12  C   UNL     1       0.794  -1.617  -0.045  1.00  0.00     0.042 A 
ATOM     13  C   UNL     1      -0.381  -0.822  -0.081  1.00  0.00     0.004 A 
ATOM     14  C   UNL     1      -0.847   1.560  -0.333  1.00  0.00     0.031 A 
ATOM     15  C   UNL     1      -1.766  -1.074   0.047  1.00  0.00     0.056 A 
ATOM     16  C   UNL     1      -2.208   1.285  -0.215  1.00  0.00     0.048 A 
ATOM     17  C   UNL     1      -2.680  -0.010  -0.023  1.00  0.00     0.120 A 
BRANCH  17  18
ATOM     18  O   UNL     1      -3.999  -0.356   0.130  1.00  0.00    -0.489 OA
BRANCH  18  19
ATOM     19  C   UNL     1      -4.991   0.680   0.044  1.00  0.00     0.265 C 
BRANCH  19  20
ATOM     20  C   UNL     1      -5.028   1.567   1.271  1.00  0.00    -0.011 A 
ATOM     21  C   UNL     1      -5.129   1.003   2.549  1.00  0.00     0.007 A 
ATOM     22  C   UNL     1      -4.915   2.962   1.153  1.00  0.00     0.007 A 
ATOM     23  C   UNL     1      -5.070   1.811   3.685  1.00  0.00     0.000 A 
ATOM     24  C   UNL     1      -4.831   3.766   2.290  1.00  0.00     0.000 A 
ATOM     25  C   UNL     1      -4.905   3.189   3.556  1.00  0.00     0.000 A 
ENDBRANCH  19  20
ENDBRANCH  18  19
ENDBRANCH  17  18
ENDBRANCH   5   8
ENDBRANCH   3   4
ENDBRANCH   2   3
ENDBRANCH   1   2
BRANCH   1  26
ATOM     26  C   UNL     1       7.177   1.863   0.025  1.00  0.00     0.002 C 
BRANCH  26  27
ATOM     27  C   UNL     1       6.763   3.334  -0.049  1.00  0.00     0.021 C 
BRANCH  27  28
ATOM     28  C   UNL     1       7.212   4.219   1.109  1.00  0.00     0.116 C 
BRANCH  28  29
ATOM     29  N   UNL     1       8.652   4.229   1.295  1.00  0.00    -0.352 N 
ATOM     30  C   UNL     1       9.514   5.290   1.431  1.00  0.00     0.251 C 
ATOM     31  H   UNL     1       9.075   3.341   1.330  1.00  0.00     0.163 HD
ATOM     32  O   UNL     1      10.725   5.097   1.454  1.00  0.00    -0.269 OA
BRANCH  30  33
ATOM     33  C   UNL     1       8.991   6.672   1.517  1.00  0.00     0.039 A 
ATOM     34  C   UNL     1       9.627   7.675   0.780  1.00  0.00     0.014 A 
ATOM     35  C   UNL     1       7.895   6.987   2.325  1.00  0.00     0.014 A 
ATOM     36  C   UNL     1       9.126   8.979   0.803  1.00  0.00     0.010 A 
ATOM     37  C   UNL     1       7.351   8.269   2.286  1.00  0.00     0.010 A 
ATOM     38  C   UNL     1       7.961   9.279   1.527  1.00  0.00    -0.014 A 
BRANCH  38  39
ATOM     39  C   UNL     1       7.368  10.641   1.497  1.00  0.00     0.031 A 
ATOM     40  C   UNL     1       7.281  11.460   2.755  1.00  0.00     0.074 A 
ATOM     41  C   UNL     1       6.852  11.117   0.347  1.00  0.00     0.049 A 
ATOM     42  N   UNL     1       6.742  12.639   2.941  1.00  0.00    -0.248 NA
ATOM     43  C   UNL     1       7.852  10.863   3.972  1.00  0.00     0.031 C 
ATOM     44  C   UNL     1       6.835  10.402  -0.931  1.00  0.00     0.029 A 
ATOM     45  N   UNL     1       6.231  12.309   0.067  1.00  0.00    -0.354 N 
ATOM     46  C   UNL     1       6.899  12.917   4.293  1.00  0.00     0.074 A 
ATOM     47  C   UNL     1       7.529  11.760   4.891  1.00  0.00     0.031 C 
ATOM     48  C   UNL     1       6.258  11.178  -1.861  1.00  0.00     0.029 A 
ATOM     49  C   UNL     1       5.824  12.425  -1.240  1.00  0.00     0.049 A 
ATOM     50  H   UNL     1       6.092  13.014   0.740  1.00  0.00     0.167 HD
ATOM     51  C   UNL     1       6.569  14.044   4.968  1.00  0.00     0.037 A 
ATOM     52  C   UNL     1       5.166  13.421  -1.865  1.00  0.00     0.037 A 
ATOM     53  C   UNL     1       5.956  15.199   4.364  1.00  0.00     0.049 A 
ATOM     54  C   UNL     1       4.792  14.654  -1.087  1.00  0.00     0.074 A 
ATOM     55  C   UNL     1       5.633  16.410   4.950  1.00  0.00     0.029 A 
ATOM     56  N   UNL     1       5.566  15.282   3.035  1.00  0.00    -0.354 N 
ATOM     57  N   UNL     1       5.007  14.934   0.175  1.00  0.00    -0.248 NA
ATOM     58  C   UNL     1       4.089  15.713  -1.824  1.00  0.00     0.031 C 
ATOM     59  C   UNL     1       4.995  17.204   3.992  1.00  0.00     0.029 A 
ATOM     60  C   UNL     1       4.980  16.514   2.790  1.00  0.00     0.049 A 
ATOM     61  H   UNL     1       5.689  14.572   2.365  1.00  0.00     0.167 HD
ATOM     62  C   UNL     1       4.498  16.210   0.376  1.00  0.00     0.074 A 
ATOM     63  C   UNL     1       3.974  16.655  -0.899  1.00  0.00     0.031 C 
ATOM     64  C   UNL     1       4.469  16.948   1.514  1.00  0.00     0.037 A 
BRANCH  51  65
ATOM     65  C   UNL     1       6.858  14.081   6.443  1.00  0.00     0.064 A 
ATOM     66  C   UNL     1       8.172  14.109   6.937  1.00  0.00     0.173 A 
ATOM     67  C   UNL     1       5.809  14.121   7.374  1.00  0.00     0.173 A 
ATOM     68  F   UNL     1       9.213  14.063   6.092  1.00  0.00    -0.203 F 
ATOM     69  C   UNL     1       8.424  14.139   8.307  1.00  0.00     0.198 A 
ATOM     70  C   UNL     1       6.064  14.187   8.742  1.00  0.00     0.198 A 
ATOM     71  F   UNL     1       4.534  14.104   6.958  1.00  0.00    -0.203 F 
ATOM     72  F   UNL     1       9.686  14.106   8.755  1.00  0.00    -0.200 F 
ATOM     73  C   UNL     1       7.370  14.185   9.207  1.00  0.00     0.200 A 
ATOM     74  F   UNL     1       5.045  14.248   9.610  1.00  0.00    -0.200 F 
ATOM     75  F   UNL     1       7.614  14.221  10.524  1.00  0.00    -0.200 F 
ENDBRANCH  51  65
BRANCH  52  76
ATOM     76  C   UNL     1       4.837  13.300  -3.310  1.00  0.00     0.064 A 
ATOM     77  C   UNL     1       5.460  14.119  -4.262  1.00  0.00     0.173 A 
ATOM     78  C   UNL     1       3.894  12.368  -3.769  1.00  0.00     0.173 A 
ATOM     79  F   UNL     1       6.354  15.039  -3.871  1.00  0.00    -0.203 F 
ATOM     80  C   UNL     1       5.138  14.025  -5.614  1.00  0.00     0.198 A 
ATOM     81  C   UNL     1       3.596  12.254  -5.125  1.00  0.00     0.198 A 
ATOM     82  F   UNL     1       3.273  11.556  -2.901  1.00  0.00    -0.203 F 
ATOM     83  F   UNL     1       5.713  14.854  -6.496  1.00  0.00    -0.200 F 
ATOM     84  C   UNL     1       4.211  13.089  -6.046  1.00  0.00     0.200 A 
ATOM     85  F   UNL     1       2.712  11.335  -5.539  1.00  0.00    -0.200 F 
ATOM     86  F   UNL     1       3.905  12.995  -7.347  1.00  0.00    -0.200 F 
ENDBRANCH  52  76
BRANCH  64  87
ATOM     87  C   UNL     1       3.890  18.331   1.426  1.00  0.00     0.064 A 
ATOM     88  C   UNL     1       2.517  18.550   1.241  1.00  0.00     0.173 A 
ATOM     89  C   UNL     1       4.719  19.455   1.573  1.00  0.00     0.173 A 
ATOM     90  F   UNL     1       1.684  17.511   1.080  1.00  0.00    -0.203 F 
ATOM     91  C   UNL     1       2.000  19.842   1.178  1.00  0.00     0.198 A 
ATOM     92  C   UNL     1       4.194  20.744   1.545  1.00  0.00     0.198 A 
ATOM     93  F   UNL     1       6.039  19.302   1.760  1.00  0.00    -0.203 F 
ATOM     94  F   UNL     1       0.693  20.027   0.948  1.00  0.00    -0.200 F 
ATOM     95  C   UNL     1       2.837  20.936   1.339  1.00  0.00     0.200 A 
ATOM     96  F   UNL     1       5.002  21.799   1.718  1.00  0.00    -0.200 F 
ATOM     97  F   UNL     1       2.335  22.178   1.289  1.00  0.00    -0.200 F 
ENDBRANCH  64  87
ENDBRANCH  38  39
ENDBRANCH  30  33
ENDBRANCH  28  29
ENDBRANCH  27  28
ENDBRANCH  26  27
ENDBRANCH   1  26
TORSDOF 16
