REMARK SMILES [NH3+][C@]1(C(=O)NCCCCCCNC(=O)c2ccc(-c3c4nc(c(-c5c(F)c(F)c(F)c(F)c5F)c5ccc([nH]5)c(-c5c(F)c(F)c(F)c(F)c5F)c5nc(c(-c6c(F)c(F)c(F)c(F)c6F)c6ccc3[nH]6)C=C5)C=C4)cc2)CCC[C@@H]1CCn1cc(I)cn1
REMARK SMILES IDX 8 1 7 2 6 3 5 4 3 5 4 6 2 8 78 9 81 10 79 11 80 12 1 13
REMARK SMILES IDX 82 17 83 18 84 19 85 20 89 21 86 22 88 23 87 24 9 25 10 26
REMARK SMILES IDX 11 27 12 28 13 29 14 31 15 32 16 33 77 34 17 35 76 36 18 37
REMARK SMILES IDX 19 38 20 39 70 40 21 41 75 42 69 43 71 44 22 45 74 46 68 47
REMARK SMILES IDX 67 48 23 50 55 51 35 52 54 53 36 54 39 55 53 56 72 57 37 58
REMARK SMILES IDX 38 59 52 61 73 62 40 63 24 64 25 65 33 66 26 67 27 68 31 69
REMARK SMILES IDX 34 70 28 71 29 72 32 73 30 74 56 75 57 76 65 77 58 78 59 79
REMARK SMILES IDX 63 80 66 81 60 82 61 83 64 84 62 85 41 86 42 87 50 88 43 89
REMARK SMILES IDX 44 90 48 91 51 92 45 93 46 94 49 95 47 96
REMARK H PARENT 5 7 1 14 1 15 1 16 12 30 71 49 39 60
REMARK Flexibility Score: inf
ROOT
ATOM      1  C   UNL     1       4.270  -0.890   2.854  1.00  0.00     0.002 C 
ENDROOT
BRANCH   1   2
ATOM      2  C   UNL     1       3.171  -1.815   2.324  1.00  0.00     0.021 C 
BRANCH   2   3
ATOM      3  C   UNL     1       1.753  -1.304   2.583  1.00  0.00     0.116 C 
BRANCH   3   4
ATOM      4  N   UNL     1       1.443  -0.211   1.705  1.00  0.00    -0.351 N 
ATOM      5  C   UNL     1       1.117  -0.200   0.395  1.00  0.00     0.281 C 
ATOM      6  O   UNL     1       1.008   0.929  -0.111  1.00  0.00    -0.268 OA
ATOM      7  H   UNL     1       1.474   0.677   2.128  1.00  0.00     0.163 HD
BRANCH   5   8
ATOM      8  C   UNL     1       0.739  -1.463  -0.463  1.00  0.00     0.176 C 
ATOM      9  C   UNL     1       1.242  -2.890  -0.141  1.00  0.00     0.079 C 
ATOM     10  C   UNL     1      -0.829  -1.588  -0.369  1.00  0.00     0.062 C 
ATOM     11  C   UNL     1       0.101  -3.808  -0.555  1.00  0.00     0.008 C 
ATOM     12  C   UNL     1      -1.098  -3.066  -0.006  1.00  0.00     0.011 C 
BRANCH   8  13
ATOM     13  N   UNL     1       1.367  -1.226  -1.764  1.00  0.00    -0.345 N 
ATOM     14  H   UNL     1       1.167  -2.010  -2.386  1.00  0.00     0.345 HD
ATOM     15  H   UNL     1       2.376  -1.137  -1.644  1.00  0.00     0.345 HD
ATOM     16  H   UNL     1       0.995  -0.368  -2.170  1.00  0.00     0.345 HD
ENDBRANCH   8  13
BRANCH  10  17
ATOM     17  C   UNL     1      -1.813  -1.148  -1.484  1.00  0.00     0.034 C 
BRANCH  17  18
ATOM     18  C   UNL     1      -1.468  -0.011  -2.446  1.00  0.00     0.145 C 
BRANCH  18  19
ATOM     19  N   UNL     1      -0.737  -0.393  -3.646  1.00  0.00    -0.272 N 
ATOM     20  C   UNL     1      -0.656  -1.627  -4.239  1.00  0.00     0.123 A 
ATOM     21  N   UNL     1       0.105   0.507  -4.199  1.00  0.00    -0.180 NA
ATOM     22  C   UNL     1       0.403  -1.544  -5.107  1.00  0.00     0.051 A 
ATOM     23  C   UNL     1       0.820  -0.211  -5.071  1.00  0.00     0.149 A 
ATOM     24  I   UNL     1       1.224  -3.074  -6.117  1.00  0.00    -0.041 I 
ENDBRANCH  18  19
ENDBRANCH  17  18
ENDBRANCH  10  17
ENDBRANCH   5   8
ENDBRANCH   3   4
ENDBRANCH   2   3
ENDBRANCH   1   2
BRANCH   1  25
ATOM     25  C   UNL     1       4.171  -0.565   4.346  1.00  0.00     0.002 C 
BRANCH  25  26
ATOM     26  C   UNL     1       3.939  -1.776   5.251  1.00  0.00     0.021 C 
BRANCH  26  27
ATOM     27  C   UNL     1       4.975  -2.881   5.097  1.00  0.00     0.116 C 
BRANCH  27  28
ATOM     28  N   UNL     1       6.294  -2.429   5.495  1.00  0.00    -0.352 N 
ATOM     29  C   UNL     1       7.117  -2.944   6.455  1.00  0.00     0.251 C 
ATOM     30  H   UNL     1       6.643  -1.648   5.008  1.00  0.00     0.163 HD
ATOM     31  O   UNL     1       8.093  -2.299   6.847  1.00  0.00    -0.269 OA
BRANCH  29  32
ATOM     32  C   UNL     1       6.842  -4.277   7.026  1.00  0.00     0.039 A 
ATOM     33  C   UNL     1       7.013  -4.469   8.398  1.00  0.00     0.014 A 
ATOM     34  C   UNL     1       6.474  -5.348   6.203  1.00  0.00     0.014 A 
ATOM     35  C   UNL     1       6.818  -5.736   8.946  1.00  0.00     0.010 A 
ATOM     36  C   UNL     1       6.204  -6.592   6.762  1.00  0.00     0.010 A 
ATOM     37  C   UNL     1       6.416  -6.807   8.131  1.00  0.00    -0.014 A 
BRANCH  37  38
ATOM     38  C   UNL     1       6.310  -8.178   8.684  1.00  0.00     0.031 A 
ATOM     39  C   UNL     1       7.279  -9.236   8.232  1.00  0.00     0.074 A 
ATOM     40  C   UNL     1       5.343  -8.472   9.573  1.00  0.00     0.049 A 
ATOM     41  N   UNL     1       7.355 -10.495   8.582  1.00  0.00    -0.248 NA
ATOM     42  C   UNL     1       8.279  -8.834   7.230  1.00  0.00     0.031 C 
ATOM     43  C   UNL     1       4.323  -7.539  10.052  1.00  0.00     0.029 A 
ATOM     44  N   UNL     1       5.064  -9.641  10.233  1.00  0.00    -0.354 N 
ATOM     45  C   UNL     1       8.395 -11.032   7.834  1.00  0.00     0.074 A 
ATOM     46  C   UNL     1       8.881  -9.983   6.966  1.00  0.00     0.031 C 
ATOM     47  C   UNL     1       3.546  -8.165  10.951  1.00  0.00     0.029 A 
ATOM     48  C   UNL     1       3.999  -9.546  11.092  1.00  0.00     0.049 A 
ATOM     49  H   UNL     1       5.579 -10.470  10.102  1.00  0.00     0.167 HD
ATOM     50  C   UNL     1       8.919 -12.279   7.887  1.00  0.00     0.037 A 
ATOM     51  C   UNL     1       3.459 -10.470  11.909  1.00  0.00     0.037 A 
ATOM     52  C   UNL     1       8.456 -13.308   8.779  1.00  0.00     0.049 A 
ATOM     53  C   UNL     1       4.077 -11.841  11.971  1.00  0.00     0.074 A 
ATOM     54  C   UNL     1       8.943 -14.592   8.946  1.00  0.00     0.029 A 
ATOM     55  N   UNL     1       7.396 -13.162   9.662  1.00  0.00    -0.354 N 
ATOM     56  N   UNL     1       5.099 -12.320  11.303  1.00  0.00    -0.248 NA
ATOM     57  C   UNL     1       3.478 -12.794  12.914  1.00  0.00     0.031 C 
ATOM     58  C   UNL     1       8.156 -15.235   9.908  1.00  0.00     0.029 A 
ATOM     59  C   UNL     1       7.210 -14.335  10.374  1.00  0.00     0.049 A 
ATOM     60  H   UNL     1       6.857 -12.345   9.768  1.00  0.00     0.167 HD
ATOM     61  C   UNL     1       5.289 -13.613  11.771  1.00  0.00     0.074 A 
ATOM     62  C   UNL     1       4.281 -13.840  12.786  1.00  0.00     0.031 C 
ATOM     63  C   UNL     1       6.214 -14.530  11.396  1.00  0.00     0.037 A 
BRANCH  50  64
ATOM     64  C   UNL     1      10.058 -12.592   6.959  1.00  0.00     0.064 A 
ATOM     65  C   UNL     1      11.327 -12.018   7.131  1.00  0.00     0.173 A 
ATOM     66  C   UNL     1       9.885 -13.492   5.896  1.00  0.00     0.173 A 
ATOM     67  F   UNL     1      11.541 -11.140   8.123  1.00  0.00    -0.203 F 
ATOM     68  C   UNL     1      12.370 -12.307   6.256  1.00  0.00     0.198 A 
ATOM     69  C   UNL     1      10.940 -13.803   5.042  1.00  0.00     0.198 A 
ATOM     70  F   UNL     1       8.694 -14.072   5.688  1.00  0.00    -0.203 F 
ATOM     71  F   UNL     1      13.557 -11.703   6.408  1.00  0.00    -0.200 F 
ATOM     72  C   UNL     1      12.178 -13.204   5.216  1.00  0.00     0.200 A 
ATOM     73  F   UNL     1      10.755 -14.678   4.044  1.00  0.00    -0.200 F 
ATOM     74  F   UNL     1      13.184 -13.484   4.377  1.00  0.00    -0.200 F 
ENDBRANCH  50  64
BRANCH  51  75
ATOM     75  C   UNL     1       2.302 -10.114  12.770  1.00  0.00     0.064 A 
ATOM     76  C   UNL     1       2.449  -9.999  14.160  1.00  0.00     0.173 A 
ATOM     77  C   UNL     1       1.031  -9.883  12.226  1.00  0.00     0.173 A 
ATOM     78  F   UNL     1       3.642 -10.226  14.728  1.00  0.00    -0.203 F 
ATOM     79  C   UNL     1       1.362  -9.691  14.975  1.00  0.00     0.198 A 
ATOM     80  C   UNL     1      -0.050  -9.549  13.040  1.00  0.00     0.198 A 
ATOM     81  F   UNL     1       0.840  -9.973  10.902  1.00  0.00    -0.203 F 
ATOM     82  F   UNL     1       1.520  -9.633  16.305  1.00  0.00    -0.200 F 
ATOM     83  C   UNL     1       0.115  -9.461  14.415  1.00  0.00     0.200 A 
ATOM     84  F   UNL     1      -1.250  -9.313  12.493  1.00  0.00    -0.200 F 
ATOM     85  F   UNL     1      -0.930  -9.163  15.199  1.00  0.00    -0.200 F 
ENDBRANCH  51  75
BRANCH  63  86
ATOM     86  C   UNL     1       6.215 -15.842  12.124  1.00  0.00     0.064 A 
ATOM     87  C   UNL     1       5.210 -16.799  11.925  1.00  0.00     0.173 A 
ATOM     88  C   UNL     1       7.259 -16.156  13.008  1.00  0.00     0.173 A 
ATOM     89  F   UNL     1       4.184 -16.539  11.100  1.00  0.00    -0.203 F 
ATOM     90  C   UNL     1       5.234 -18.012  12.607  1.00  0.00     0.198 A 
ATOM     91  C   UNL     1       7.295 -17.382  13.666  1.00  0.00     0.198 A 
ATOM     92  F   UNL     1       8.248 -15.278  13.226  1.00  0.00    -0.203 F 
ATOM     93  F   UNL     1       4.236 -18.892  12.441  1.00  0.00    -0.200 F 
ATOM     94  C   UNL     1       6.279 -18.305  13.471  1.00  0.00     0.200 A 
ATOM     95  F   UNL     1       8.312 -17.669  14.489  1.00  0.00    -0.200 F 
ATOM     96  F   UNL     1       6.302 -19.476  14.123  1.00  0.00    -0.200 F 
ENDBRANCH  63  86
ENDBRANCH  37  38
ENDBRANCH  29  32
ENDBRANCH  27  28
ENDBRANCH  26  27
ENDBRANCH  25  26
ENDBRANCH   1  25
TORSDOF 17
