REMARK SMILES Cc1cc(F)cc(-n2nc(C(=O)NCCCCCCNC(=O)c3ccc(-c4c5nc(c(-c6c(F)c(F)c(F)c(F)c6F)c6ccc([nH]6)c(-c6c(F)c(F)c(F)c(F)c6F)c6nc(c(-c7c(F)c(F)c(F)c(F)c7F)c7ccc4[nH]7)C=C6)C=C5)cc3)c3c2CC[C@H](C)C3)c1
REMARK SMILES IDX 17 1 16 2 15 3 14 4 13 5 11 6 12 7 10 9 8 10 9 11 87 12
REMARK SMILES IDX 86 13 88 14 92 15 89 16 90 17 91 18 7 19 1 20 2 21 3 22
REMARK SMILES IDX 93 23 4 24 5 25 6 26 18 27 19 28 20 29 21 30 22 32 23 33
REMARK SMILES IDX 24 34 85 35 25 36 84 37 26 38 27 39 28 40 78 41 29 42 83 43
REMARK SMILES IDX 77 44 79 45 30 46 82 47 76 48 75 49 31 51 63 52 43 53 62 54
REMARK SMILES IDX 44 55 47 56 61 57 80 58 45 59 46 60 60 62 81 63 48 64 32 65
REMARK SMILES IDX 33 66 41 67 34 68 35 69 39 70 42 71 36 72 37 73 40 74 38 75
REMARK SMILES IDX 64 76 65 77 73 78 66 79 67 80 71 81 74 82 68 83 69 84 72 85
REMARK SMILES IDX 70 86 49 87 50 88 58 89 51 90 52 91 56 92 59 93 53 94 54 95
REMARK SMILES IDX 57 96 55 97
REMARK H PARENT 13 8 20 31 79 50 47 61
REMARK Flexibility Score: inf
ROOT
ATOM      1  C   UNL     1       0.296 -11.547   0.089  1.00  0.00     0.002 C 
ENDROOT
BRANCH   1   2
ATOM      2  C   UNL     1       1.560 -10.761  -0.298  1.00  0.00     0.002 C 
BRANCH   2   3
ATOM      3  C   UNL     1       1.333  -9.269  -0.536  1.00  0.00     0.021 C 
BRANCH   3   4
ATOM      4  C   UNL     1       0.690  -8.550   0.654  1.00  0.00     0.116 C 
BRANCH   4   5
ATOM      5  N   UNL     1       1.588  -7.592   1.239  1.00  0.00    -0.351 N 
ATOM      6  C   UNL     1       1.721  -6.230   1.188  1.00  0.00     0.272 C 
ATOM      7  O   UNL     1       2.575  -5.798   1.974  1.00  0.00    -0.267 OA
ATOM      8  H   UNL     1       2.268  -8.014   1.812  1.00  0.00     0.163 HD
BRANCH   6   9
ATOM      9  C   UNL     1       0.928  -5.311   0.328  1.00  0.00     0.154 A 
ATOM     10  N   UNL     1       0.220  -3.332  -0.211  1.00  0.00    -0.237 N 
ATOM     11  N   UNL     1       1.069  -3.993   0.590  1.00  0.00    -0.162 NA
ATOM     12  C   UNL     1      -0.409  -4.182  -1.086  1.00  0.00     0.048 A 
ATOM     13  C   UNL     1       0.071  -5.453  -0.811  1.00  0.00     0.007 A 
ATOM     14  C   UNL     1      -1.246  -3.800  -2.262  1.00  0.00     0.057 C 
ATOM     15  C   UNL     1      -0.288  -6.602  -1.679  1.00  0.00     0.043 C 
ATOM     16  C   UNL     1      -1.900  -5.046  -2.880  1.00  0.00     0.010 C 
ATOM     17  C   UNL     1      -0.893  -6.199  -3.041  1.00  0.00    -0.009 C 
ATOM     18  C   UNL     1      -1.553  -7.422  -3.681  1.00  0.00     0.008 C 
BRANCH  10  19
ATOM     19  C   UNL     1       0.138  -1.924  -0.126  1.00  0.00     0.068 A 
ATOM     20  C   UNL     1       2.541   1.024   0.147  1.00  0.00     0.044 C 
ATOM     21  C   UNL     1       1.280   0.216   0.067  1.00  0.00    -0.046 A 
ATOM     22  C   UNL     1       0.039   0.859  -0.005  1.00  0.00     0.042 A 
ATOM     23  C   UNL     1       1.321  -1.185   0.047  1.00  0.00     0.032 A 
ATOM     24  C   UNL     1      -1.129   0.110  -0.123  1.00  0.00     0.125 A 
ATOM     25  F   UNL     1      -2.311   0.738  -0.162  1.00  0.00    -0.207 F 
ATOM     26  C   UNL     1      -1.094  -1.276  -0.202  1.00  0.00     0.067 A 
ENDBRANCH  10  19
ENDBRANCH   6   9
ENDBRANCH   4   5
ENDBRANCH   3   4
ENDBRANCH   2   3
ENDBRANCH   1   2
BRANCH   1  27
ATOM     27  C   UNL     1      -0.916 -11.374  -0.841  1.00  0.00     0.021 C 
BRANCH  27  28
ATOM     28  C   UNL     1      -0.678 -12.018  -2.188  1.00  0.00     0.116 C 
BRANCH  28  29
ATOM     29  N   UNL     1      -0.610 -13.474  -2.077  1.00  0.00    -0.352 N 
ATOM     30  C   UNL     1      -0.709 -14.436  -3.060  1.00  0.00     0.251 C 
ATOM     31  H   UNL     1      -0.473 -13.819  -1.165  1.00  0.00     0.163 HD
ATOM     32  O   UNL     1      -0.977 -15.590  -2.780  1.00  0.00    -0.269 OA
BRANCH  30  33
ATOM     33  C   UNL     1      -0.436 -14.050  -4.455  1.00  0.00     0.039 A 
ATOM     34  C   UNL     1      -0.938 -14.787  -5.535  1.00  0.00     0.014 A 
ATOM     35  C   UNL     1       0.443 -12.997  -4.670  1.00  0.00     0.014 A 
ATOM     36  C   UNL     1      -0.513 -14.466  -6.820  1.00  0.00     0.010 A 
ATOM     37  C   UNL     1       0.662 -12.527  -5.919  1.00  0.00     0.010 A 
ATOM     38  C   UNL     1       0.301 -13.342  -6.979  1.00  0.00    -0.014 A 
BRANCH  38  39
ATOM     39  C   UNL     1       0.934 -12.931  -8.209  1.00  0.00     0.031 A 
ATOM     40  C   UNL     1       0.078 -12.448  -9.280  1.00  0.00     0.074 A 
ATOM     41  C   UNL     1       2.285 -12.883  -8.188  1.00  0.00     0.049 A 
ATOM     42  N   UNL     1       0.310 -12.624 -10.527  1.00  0.00    -0.248 NA
ATOM     43  C   UNL     1      -1.182 -11.765  -9.011  1.00  0.00     0.031 C 
ATOM     44  C   UNL     1       3.229 -12.314  -9.131  1.00  0.00     0.029 A 
ATOM     45  N   UNL     1       3.105 -13.513  -7.232  1.00  0.00    -0.354 N 
ATOM     46  C   UNL     1      -0.529 -11.766 -11.202  1.00  0.00     0.074 A 
ATOM     47  C   UNL     1      -1.555 -11.422 -10.248  1.00  0.00     0.031 C 
ATOM     48  C   UNL     1       4.428 -12.897  -8.931  1.00  0.00     0.029 A 
ATOM     49  C   UNL     1       4.255 -13.928  -7.915  1.00  0.00     0.049 A 
ATOM     50  H   UNL     1       2.910 -13.636  -6.275  1.00  0.00     0.167 HD
ATOM     51  C   UNL     1      -0.106 -11.280 -12.405  1.00  0.00     0.037 A 
ATOM     52  C   UNL     1       4.438 -15.270  -8.087  1.00  0.00     0.037 A 
ATOM     53  C   UNL     1       1.235 -11.814 -12.692  1.00  0.00     0.049 A 
ATOM     54  C   UNL     1       4.267 -15.648  -9.533  1.00  0.00     0.074 A 
ATOM     55  C   UNL     1       2.497 -11.268 -12.511  1.00  0.00     0.029 A 
ATOM     56  N   UNL     1       1.419 -13.189 -12.824  1.00  0.00    -0.354 N 
ATOM     57  N   UNL     1       3.522 -14.989 -10.382  1.00  0.00    -0.248 NA
ATOM     58  C   UNL     1       5.026 -16.723 -10.154  1.00  0.00     0.031 C 
ATOM     59  C   UNL     1       3.434 -12.336 -12.472  1.00  0.00     0.029 A 
ATOM     60  C   UNL     1       2.748 -13.528 -12.639  1.00  0.00     0.049 A 
ATOM     61  H   UNL     1       0.701 -13.832 -13.023  1.00  0.00     0.167 HD
ATOM     62  C   UNL     1       3.752 -15.466 -11.647  1.00  0.00     0.074 A 
ATOM     63  C   UNL     1       4.697 -16.553 -11.445  1.00  0.00     0.031 C 
ATOM     64  C   UNL     1       3.195 -14.910 -12.768  1.00  0.00     0.037 A 
BRANCH  51  65
ATOM     65  C   UNL     1      -0.697 -10.091 -13.142  1.00  0.00     0.064 A 
ATOM     66  C   UNL     1       0.063  -9.416 -14.125  1.00  0.00     0.173 A 
ATOM     67  C   UNL     1      -1.979  -9.547 -12.929  1.00  0.00     0.173 A 
ATOM     68  F   UNL     1       1.264  -9.865 -14.512  1.00  0.00    -0.203 F 
ATOM     69  C   UNL     1      -0.384  -8.254 -14.764  1.00  0.00     0.198 A 
ATOM     70  C   UNL     1      -2.413  -8.365 -13.542  1.00  0.00     0.198 A 
ATOM     71  F   UNL     1      -2.892 -10.161 -12.173  1.00  0.00    -0.203 F 
ATOM     72  F   UNL     1       0.392  -7.661 -15.681  1.00  0.00    -0.200 F 
ATOM     73  C   UNL     1      -1.614  -7.714 -14.454  1.00  0.00     0.200 A 
ATOM     74  F   UNL     1      -3.625  -7.871 -13.244  1.00  0.00    -0.200 F 
ATOM     75  F   UNL     1      -2.038  -6.594 -15.054  1.00  0.00    -0.200 F 
ENDBRANCH  51  65
BRANCH  52  76
ATOM     76  C   UNL     1       4.022 -16.043  -6.871  1.00  0.00     0.064 A 
ATOM     77  C   UNL     1       4.746 -15.767  -5.690  1.00  0.00     0.173 A 
ATOM     78  C   UNL     1       2.736 -16.579  -6.717  1.00  0.00     0.173 A 
ATOM     79  F   UNL     1       5.998 -15.288  -5.773  1.00  0.00    -0.203 F 
ATOM     80  C   UNL     1       4.141 -15.814  -4.436  1.00  0.00     0.198 A 
ATOM     81  C   UNL     1       2.148 -16.672  -5.448  1.00  0.00     0.198 A 
ATOM     82  F   UNL     1       1.999 -16.896  -7.791  1.00  0.00    -0.203 F 
ATOM     83  F   UNL     1       4.800 -15.364  -3.358  1.00  0.00    -0.200 F 
ATOM     84  C   UNL     1       2.827 -16.226  -4.320  1.00  0.00     0.200 A 
ATOM     85  F   UNL     1       0.892 -17.121  -5.324  1.00  0.00    -0.200 F 
ATOM     86  F   UNL     1       2.208 -16.151  -3.133  1.00  0.00    -0.200 F 
ENDBRANCH  52  76
BRANCH  64  87
ATOM     87  C   UNL     1       3.143 -15.547 -14.143  1.00  0.00     0.064 A 
ATOM     88  C   UNL     1       3.333 -16.917 -14.385  1.00  0.00     0.173 A 
ATOM     89  C   UNL     1       2.755 -14.790 -15.280  1.00  0.00     0.173 A 
ATOM     90  F   UNL     1       3.524 -17.790 -13.390  1.00  0.00    -0.203 F 
ATOM     91  C   UNL     1       3.262 -17.461 -15.670  1.00  0.00     0.198 A 
ATOM     92  C   UNL     1       2.595 -15.354 -16.543  1.00  0.00     0.198 A 
ATOM     93  F   UNL     1       2.482 -13.480 -15.209  1.00  0.00    -0.203 F 
ATOM     94  F   UNL     1       3.536 -18.760 -15.850  1.00  0.00    -0.200 F 
ATOM     95  C   UNL     1       2.883 -16.684 -16.745  1.00  0.00     0.200 A 
ATOM     96  F   UNL     1       2.144 -14.600 -17.555  1.00  0.00    -0.200 F 
ATOM     97  F   UNL     1       2.768 -17.222 -17.966  1.00  0.00    -0.200 F 
ENDBRANCH  64  87
ENDBRANCH  38  39
ENDBRANCH  30  33
ENDBRANCH  28  29
ENDBRANCH  27  28
ENDBRANCH   1  27
TORSDOF 14
