REMARK SMILES CC(C)[C@@H](CO)Nc1ccc(C(=O)NCCCCCCNC(=O)c2ccc(-c3c4nc(c(-c5c(F)c(F)c(F)c(F)c5F)c5ccc([nH]5)c(-c5c(F)c(F)c(F)c(F)c5F)c5nc(c(-c6c(F)c(F)c(F)c(F)c6F)c6ccc3[nH]6)C=C5)C=C4)cc2)nn1
REMARK SMILES IDX 16 1 15 2 14 3 12 4 13 5 11 7 8 8 9 9 88 10 10 11 87 12 7 13
REMARK SMILES IDX 4 15 2 16 1 17 3 18 5 19 6 20 17 22 18 23 19 24 20 25 21 26
REMARK SMILES IDX 22 27 23 29 24 30 25 31 86 32 26 33 85 34 27 35 28 36 29 37
REMARK SMILES IDX 79 38 30 39 84 40 78 41 80 42 31 43 83 44 77 45 76 46 32 48
REMARK SMILES IDX 64 49 44 50 63 51 45 52 48 53 62 54 81 55 46 56 47 57 61 59
REMARK SMILES IDX 82 60 49 61 33 62 34 63 42 64 35 65 36 66 40 67 43 68 37 69
REMARK SMILES IDX 38 70 41 71 39 72 65 73 66 74 74 75 67 76 68 77 72 78 75 79
REMARK SMILES IDX 69 80 70 81 73 82 71 83 50 84 51 85 59 86 52 87 53 88 57 89
REMARK SMILES IDX 60 90 54 91 55 92 58 93 56 94
REMARK H PARENT 14 6 7 14 6 21 21 28 80 47 48 58
REMARK Flexibility Score: inf
ROOT
ATOM      1  C   UNL     1      -7.389  -1.547   4.728  1.00  0.00     0.021 C 
ENDROOT
BRANCH   1   2
ATOM      2  C   UNL     1      -5.968  -1.387   5.272  1.00  0.00     0.116 C 
BRANCH   2   3
ATOM      3  N   UNL     1      -5.450  -2.671   5.698  1.00  0.00    -0.351 N 
ATOM      4  C   UNL     1      -4.573  -3.569   5.132  1.00  0.00     0.271 C 
ATOM      5  O   UNL     1      -4.353  -4.593   5.782  1.00  0.00    -0.267 OA
ATOM      6  H   UNL     1      -5.796  -2.961   6.573  1.00  0.00     0.163 HD
BRANCH   4   7
ATOM      7  C   UNL     1      -3.866  -3.347   3.832  1.00  0.00     0.150 A 
ATOM      8  C   UNL     1      -2.270  -3.034   1.602  1.00  0.00     0.148 A 
ATOM      9  C   UNL     1      -3.465  -2.341   1.695  1.00  0.00     0.051 A 
ATOM     10  N   UNL     1      -1.931  -3.900   2.571  1.00  0.00    -0.132 NA
ATOM     11  C   UNL     1      -4.295  -2.528   2.804  1.00  0.00     0.040 A 
ATOM     12  N   UNL     1      -2.713  -4.040   3.703  1.00  0.00    -0.143 NA
BRANCH   8  13
ATOM     13  N   UNL     1      -1.390  -2.869   0.552  1.00  0.00    -0.363 N 
ATOM     14  H   UNL     1      -1.058  -3.655   0.060  1.00  0.00     0.162 HD
BRANCH  13  15
ATOM     15  C   UNL     1      -0.949  -1.524   0.169  1.00  0.00     0.108 C 
BRANCH  15  16
ATOM     16  C   UNL     1       0.605  -1.447   0.270  1.00  0.00     0.007 C 
ATOM     17  C   UNL     1       1.139  -0.072  -0.146  1.00  0.00     0.009 C 
ATOM     18  C   UNL     1       1.097  -1.748   1.695  1.00  0.00     0.009 C 
ENDBRANCH  15  16
BRANCH  15  19
ATOM     19  C   UNL     1      -1.503  -1.196  -1.241  1.00  0.00     0.181 C 
BRANCH  19  20
ATOM     20  O   UNL     1      -1.003  -2.048  -2.268  1.00  0.00    -0.394 OA
ATOM     21  H   UNL     1      -0.041  -1.943  -2.336  1.00  0.00     0.210 HD
ENDBRANCH  19  20
ENDBRANCH  15  19
ENDBRANCH  13  15
ENDBRANCH   8  13
ENDBRANCH   4   7
ENDBRANCH   2   3
ENDBRANCH   1   2
BRANCH   1  22
ATOM     22  C   UNL     1      -8.459  -1.597   5.829  1.00  0.00     0.002 C 
BRANCH  22  23
ATOM     23  C   UNL     1      -8.583  -0.318   6.668  1.00  0.00     0.002 C 
BRANCH  23  24
ATOM     24  C   UNL     1      -8.801   0.966   5.864  1.00  0.00     0.021 C 
BRANCH  24  25
ATOM     25  C   UNL     1     -10.075   0.973   5.024  1.00  0.00     0.116 C 
BRANCH  25  26
ATOM     26  N   UNL     1     -11.267   0.930   5.856  1.00  0.00    -0.352 N 
ATOM     27  C   UNL     1     -12.292   1.838   5.960  1.00  0.00     0.251 C 
ATOM     28  H   UNL     1     -11.352   0.134   6.429  1.00  0.00     0.163 HD
ATOM     29  O   UNL     1     -13.095   1.762   6.883  1.00  0.00    -0.269 OA
BRANCH  27  30
ATOM     30  C   UNL     1     -12.421   2.919   4.961  1.00  0.00     0.039 A 
ATOM     31  C   UNL     1     -12.697   4.216   5.399  1.00  0.00     0.014 A 
ATOM     32  C   UNL     1     -12.294   2.648   3.596  1.00  0.00     0.014 A 
ATOM     33  C   UNL     1     -12.786   5.255   4.470  1.00  0.00     0.010 A 
ATOM     34  C   UNL     1     -12.317   3.694   2.677  1.00  0.00     0.010 A 
ATOM     35  C   UNL     1     -12.565   5.007   3.106  1.00  0.00    -0.014 A 
BRANCH  35  36
ATOM     36  C   UNL     1     -12.579   6.108   2.111  1.00  0.00     0.031 A 
ATOM     37  C   UNL     1     -13.628   6.142   1.036  1.00  0.00     0.074 A 
ATOM     38  C   UNL     1     -11.602   7.035   2.134  1.00  0.00     0.049 A 
ATOM     39  N   UNL     1     -13.756   6.969   0.029  1.00  0.00    -0.248 NA
ATOM     40  C   UNL     1     -14.656   5.091   1.083  1.00  0.00     0.031 C 
ATOM     41  C   UNL     1     -10.504   7.081   3.100  1.00  0.00     0.029 A 
ATOM     42  N   UNL     1     -11.366   8.108   1.311  1.00  0.00    -0.354 N 
ATOM     43  C   UNL     1     -14.864   6.530  -0.683  1.00  0.00     0.074 A 
ATOM     44  C   UNL     1     -15.346   5.337  -0.022  1.00  0.00     0.031 C 
ATOM     45  C   UNL     1      -9.719   8.135   2.824  1.00  0.00     0.029 A 
ATOM     46  C   UNL     1     -10.235   8.815   1.640  1.00  0.00     0.049 A 
ATOM     47  H   UNL     1     -11.951   8.348   0.557  1.00  0.00     0.167 HD
ATOM     48  C   UNL     1     -15.439   7.086  -1.776  1.00  0.00     0.037 A 
ATOM     49  C   UNL     1      -9.671   9.883   1.045  1.00  0.00     0.037 A 
ATOM     50  C   UNL     1     -14.971   8.289  -2.414  1.00  0.00     0.049 A 
ATOM     51  C   UNL     1     -10.328  10.477  -0.171  1.00  0.00     0.074 A 
ATOM     52  C   UNL     1     -15.524   8.968  -3.485  1.00  0.00     0.029 A 
ATOM     53  N   UNL     1     -13.834   8.989  -2.040  1.00  0.00    -0.354 N 
ATOM     54  N   UNL     1     -11.416  10.095  -0.793  1.00  0.00    -0.248 NA
ATOM     55  C   UNL     1      -9.681  11.655  -0.764  1.00  0.00     0.031 C 
ATOM     56  C   UNL     1     -14.694  10.053  -3.791  1.00  0.00     0.029 A 
ATOM     57  C   UNL     1     -13.653  10.079  -2.877  1.00  0.00     0.049 A 
ATOM     58  H   UNL     1     -13.242   8.748  -1.291  1.00  0.00     0.167 HD
ATOM     59  C   UNL     1     -11.599  10.997  -1.833  1.00  0.00     0.074 A 
ATOM     60  C   UNL     1     -10.518  11.957  -1.747  1.00  0.00     0.031 C 
ATOM     61  C   UNL     1     -12.573  11.027  -2.775  1.00  0.00     0.037 A 
BRANCH  48  62
ATOM     62  C   UNL     1     -16.642   6.400  -2.356  1.00  0.00     0.064 A 
ATOM     63  C   UNL     1     -17.878   6.395  -1.692  1.00  0.00     0.173 A 
ATOM     64  C   UNL     1     -16.571   5.780  -3.612  1.00  0.00     0.173 A 
ATOM     65  F   UNL     1     -17.998   6.964  -0.483  1.00  0.00    -0.203 F 
ATOM     66  C   UNL     1     -18.991   5.772  -2.252  1.00  0.00     0.198 A 
ATOM     67  C   UNL     1     -17.693   5.185  -4.184  1.00  0.00     0.198 A 
ATOM     68  F   UNL     1     -15.415   5.760  -4.293  1.00  0.00    -0.203 F 
ATOM     69  F   UNL     1     -20.149   5.741  -1.579  1.00  0.00    -0.200 F 
ATOM     70  C   UNL     1     -18.900   5.175  -3.501  1.00  0.00     0.200 A 
ATOM     71  F   UNL     1     -17.606   4.620  -5.396  1.00  0.00    -0.200 F 
ATOM     72  F   UNL     1     -19.974   4.585  -4.043  1.00  0.00    -0.200 F 
ENDBRANCH  48  62
BRANCH  49  73
ATOM     73  C   UNL     1      -8.422  10.469   1.599  1.00  0.00     0.064 A 
ATOM     74  C   UNL     1      -8.426  11.732   2.206  1.00  0.00     0.173 A 
ATOM     75  C   UNL     1      -7.201   9.783   1.526  1.00  0.00     0.173 A 
ATOM     76  F   UNL     1      -9.565  12.435   2.281  1.00  0.00    -0.203 F 
ATOM     77  C   UNL     1      -7.251  12.298   2.698  1.00  0.00     0.198 A 
ATOM     78  C   UNL     1      -6.032  10.337   2.046  1.00  0.00     0.198 A 
ATOM     79  F   UNL     1      -7.144   8.568   0.961  1.00  0.00    -0.203 F 
ATOM     80  F   UNL     1      -7.274  13.527   3.230  1.00  0.00    -0.200 F 
ATOM     81  C   UNL     1      -6.057  11.598   2.623  1.00  0.00     0.200 A 
ATOM     82  F   UNL     1      -4.883   9.650   1.984  1.00  0.00    -0.200 F 
ATOM     83  F   UNL     1      -4.928  12.140   3.099  1.00  0.00    -0.200 F 
ENDBRANCH  49  73
BRANCH  61  84
ATOM     84  C   UNL     1     -12.532  12.150  -3.770  1.00  0.00     0.064 A 
ATOM     85  C   UNL     1     -11.562  12.200  -4.782  1.00  0.00     0.173 A 
ATOM     86  C   UNL     1     -13.497  13.168  -3.733  1.00  0.00     0.173 A 
ATOM     87  F   UNL     1     -10.608  11.259  -4.850  1.00  0.00    -0.203 F 
ATOM     88  C   UNL     1     -11.545  13.242  -5.705  1.00  0.00     0.198 A 
ATOM     89  C   UNL     1     -13.495  14.191  -4.677  1.00  0.00     0.198 A 
ATOM     90  F   UNL     1     -14.450  13.163  -2.789  1.00  0.00    -0.203 F 
ATOM     91  F   UNL     1     -10.580  13.296  -6.634  1.00  0.00    -0.200 F 
ATOM     92  C   UNL     1     -12.515  14.232  -5.657  1.00  0.00     0.200 A 
ATOM     93  F   UNL     1     -14.442  15.139  -4.636  1.00  0.00    -0.200 F 
ATOM     94  F   UNL     1     -12.501  15.230  -6.551  1.00  0.00    -0.200 F 
ENDBRANCH  61  84
ENDBRANCH  35  36
ENDBRANCH  27  30
ENDBRANCH  25  26
ENDBRANCH  24  25
ENDBRANCH  23  24
ENDBRANCH  22  23
ENDBRANCH   1  22
TORSDOF 18
