REMARK SMILES Cc1cc(C)c(C(=O)NCCCCCCNC(=O)c2ccc(-c3c4nc(c(-c5c(F)c(F)c(F)c(F)c5F)c5ccc([nH]5)c(-c5c(F)c(F)c(F)c(F)c5F)c5nc(c(-c6c(F)c(F)c(F)c(F)c6F)c6ccc3[nH]6)C=C5)C=C4)cc2)c(N[C@@H](CO)C(C)C)n1
REMARK SMILES IDX 11 1 10 2 9 3 7 4 8 5 6 7 1 8 2 9 3 10 90 11 4 12 82 13 5 14
REMARK SMILES IDX 83 15 84 17 85 18 86 19 87 21 88 22 89 23 12 24 13 25 14 26
REMARK SMILES IDX 15 27 16 28 17 29 18 31 19 32 20 33 81 34 21 35 80 36 22 37
REMARK SMILES IDX 23 38 24 39 74 40 25 41 79 42 73 43 75 44 26 45 78 46 72 47
REMARK SMILES IDX 71 48 27 50 59 51 39 52 58 53 40 54 43 55 57 56 76 57 41 58
REMARK SMILES IDX 42 59 56 61 77 62 44 63 28 64 29 65 37 66 30 67 31 68 35 69
REMARK SMILES IDX 38 70 32 71 33 72 36 73 34 74 60 75 61 76 69 77 62 78 63 79
REMARK SMILES IDX 67 80 70 81 64 82 65 83 68 84 66 85 45 86 46 87 54 88 47 89
REMARK SMILES IDX 48 90 52 91 55 92 49 93 50 94 53 95 51 96
REMARK H PARENT 9 6 83 16 86 20 16 30 75 49 43 60
REMARK Flexibility Score: inf
ROOT
ATOM      1  C   UNL     1       5.023  -0.120   1.866  1.00  0.00     0.021 C 
ENDROOT
BRANCH   1   2
ATOM      2  C   UNL     1       3.868  -0.040   0.870  1.00  0.00     0.116 C 
BRANCH   2   3
ATOM      3  N   UNL     1       3.496  -1.292   0.246  1.00  0.00    -0.352 N 
ATOM      4  C   UNL     1       2.306  -1.704  -0.319  1.00  0.00     0.255 C 
ATOM      5  O   UNL     1       2.288  -2.830  -0.825  1.00  0.00    -0.269 OA
ATOM      6  H   UNL     1       4.215  -1.964   0.221  1.00  0.00     0.163 HD
BRANCH   4   7
ATOM      7  C   UNL     1       1.041  -0.901  -0.280  1.00  0.00     0.085 A 
ATOM      8  C   UNL     1      -2.726   1.065   0.119  1.00  0.00     0.067 C 
ATOM      9  C   UNL     1      -1.397   0.397  -0.059  1.00  0.00     0.040 A 
ATOM     10  C   UNL     1      -0.279   1.127  -0.412  1.00  0.00     0.028 A 
ATOM     11  N   UNL     1      -1.349  -0.936   0.110  1.00  0.00    -0.236 NA
ATOM     12  C   UNL     1       0.949   0.472  -0.593  1.00  0.00    -0.033 A 
ATOM     13  C   UNL     1      -0.167  -1.591  -0.012  1.00  0.00     0.139 A 
ATOM     14  C   UNL     1       2.047   1.301  -1.190  1.00  0.00     0.045 C 
BRANCH  13  15
ATOM     15  N   UNL     1      -0.222  -2.969   0.137  1.00  0.00    -0.364 N 
ATOM     16  H   UNL     1       0.611  -3.468   0.297  1.00  0.00     0.162 HD
BRANCH  15  17
ATOM     17  C   UNL     1      -1.492  -3.701   0.060  1.00  0.00     0.108 C 
BRANCH  17  18
ATOM     18  C   UNL     1      -1.543  -4.470  -1.283  1.00  0.00     0.181 C 
BRANCH  18  19
ATOM     19  O   UNL     1      -0.546  -5.489  -1.361  1.00  0.00    -0.394 OA
ATOM     20  H   UNL     1       0.334  -5.086  -1.298  1.00  0.00     0.210 HD
ENDBRANCH  18  19
ENDBRANCH  17  18
BRANCH  17  21
ATOM     21  C   UNL     1      -1.632  -4.617   1.303  1.00  0.00     0.007 C 
ATOM     22  C   UNL     1      -1.541  -3.798   2.599  1.00  0.00     0.009 C 
ATOM     23  C   UNL     1      -2.964  -5.378   1.300  1.00  0.00     0.009 C 
ENDBRANCH  17  21
ENDBRANCH  15  17
ENDBRANCH  13  15
ENDBRANCH   4   7
ENDBRANCH   2   3
ENDBRANCH   1   2
BRANCH   1  24
ATOM     24  C   UNL     1       6.370  -0.628   1.335  1.00  0.00     0.002 C 
BRANCH  24  25
ATOM     25  C   UNL     1       6.898  -0.031   0.026  1.00  0.00     0.002 C 
BRANCH  25  26
ATOM     26  C   UNL     1       6.999   1.492  -0.065  1.00  0.00     0.021 C 
BRANCH  26  27
ATOM     27  C   UNL     1       7.733   2.197   1.070  1.00  0.00     0.116 C 
BRANCH  27  28
ATOM     28  N   UNL     1       9.114   1.776   1.222  1.00  0.00    -0.352 N 
ATOM     29  C   UNL     1      10.250   2.536   1.373  1.00  0.00     0.251 C 
ATOM     30  H   UNL     1       9.259   0.802   1.216  1.00  0.00     0.163 HD
ATOM     31  O   UNL     1      11.352   1.995   1.400  1.00  0.00    -0.269 OA
BRANCH  29  32
ATOM     32  C   UNL     1      10.159   4.011   1.465  1.00  0.00     0.039 A 
ATOM     33  C   UNL     1      11.049   4.785   0.713  1.00  0.00     0.014 A 
ATOM     34  C   UNL     1       9.211   4.634   2.280  1.00  0.00     0.014 A 
ATOM     35  C   UNL     1      10.938   6.178   0.719  1.00  0.00     0.010 A 
ATOM     36  C   UNL     1       9.055   6.019   2.230  1.00  0.00     0.010 A 
ATOM     37  C   UNL     1       9.913   6.805   1.446  1.00  0.00    -0.014 A 
BRANCH  37  38
ATOM     38  C   UNL     1       9.717   8.278   1.389  1.00  0.00     0.031 A 
ATOM     39  C   UNL     1       9.882   9.114   2.628  1.00  0.00     0.074 A 
ATOM     40  C   UNL     1       9.323   8.854   0.236  1.00  0.00     0.049 A 
ATOM     41  N   UNL     1       9.678  10.396   2.796  1.00  0.00    -0.248 NA
ATOM     42  C   UNL     1      10.306   8.409   3.847  1.00  0.00     0.031 C 
ATOM     43  C   UNL     1       9.085   8.148  -1.023  1.00  0.00     0.029 A 
ATOM     44  N   UNL     1       9.039  10.165  -0.060  1.00  0.00    -0.354 N 
ATOM     45  C   UNL     1       9.934  10.648   4.137  1.00  0.00     0.074 A 
ATOM     46  C   UNL     1      10.255   9.377   4.751  1.00  0.00     0.031 C 
ATOM     47  C   UNL     1       8.712   9.033  -1.961  1.00  0.00     0.029 A 
ATOM     48  C   UNL     1       8.644  10.363  -1.361  1.00  0.00     0.049 A 
ATOM     49  H   UNL     1       9.111  10.894   0.598  1.00  0.00     0.167 HD
ATOM     50  C   UNL     1       9.924  11.834   4.792  1.00  0.00     0.037 A 
ATOM     51  C   UNL     1       8.261  11.487  -1.997  1.00  0.00     0.037 A 
ATOM     52  C   UNL     1       9.627  13.099   4.173  1.00  0.00     0.049 A 
ATOM     53  C   UNL     1       8.250  12.790  -1.244  1.00  0.00     0.074 A 
ATOM     54  C   UNL     1       9.647  14.362   4.739  1.00  0.00     0.029 A 
ATOM     55  N   UNL     1       9.251  13.261   2.848  1.00  0.00    -0.354 N 
ATOM     56  N   UNL     1       8.559  13.025   0.008  1.00  0.00    -0.248 NA
ATOM     57  C   UNL     1       7.843  13.986  -1.995  1.00  0.00     0.031 C 
ATOM     58  C   UNL     1       9.236  15.283   3.770  1.00  0.00     0.029 A 
ATOM     59  C   UNL     1       9.015  14.601   2.584  1.00  0.00     0.049 A 
ATOM     60  H   UNL     1       9.165  12.532   2.191  1.00  0.00     0.167 HD
ATOM     61  C   UNL     1       8.418  14.395   0.186  1.00  0.00     0.074 A 
ATOM     62  C   UNL     1       8.004  14.941  -1.089  1.00  0.00     0.031 C 
ATOM     63  C   UNL     1       8.617  15.133   1.305  1.00  0.00     0.037 A 
BRANCH  50  64
ATOM     64  C   UNL     1      10.246  11.820   6.260  1.00  0.00     0.064 A 
ATOM     65  C   UNL     1      11.538  11.534   6.728  1.00  0.00     0.173 A 
ATOM     66  C   UNL     1       9.260  12.133   7.208  1.00  0.00     0.173 A 
ATOM     67  F   UNL     1      12.515  11.219   5.864  1.00  0.00    -0.203 F 
ATOM     68  C   UNL     1      11.822  11.531   8.091  1.00  0.00     0.198 A 
ATOM     69  C   UNL     1       9.557  12.161   8.569  1.00  0.00     0.198 A 
ATOM     70  F   UNL     1       8.010  12.422   6.816  1.00  0.00    -0.203 F 
ATOM     71  F   UNL     1      13.050  11.203   8.517  1.00  0.00    -0.200 F 
ATOM     72  C   UNL     1      10.834  11.852   9.010  1.00  0.00     0.200 A 
ATOM     73  F   UNL     1       8.604  12.486   9.454  1.00  0.00    -0.200 F 
ATOM     74  F   UNL     1      11.111  11.855  10.321  1.00  0.00    -0.200 F 
ENDBRANCH  50  64
BRANCH  51  75
ATOM     75  C   UNL     1       7.881  11.435  -3.433  1.00  0.00     0.064 A 
ATOM     76  C   UNL     1       8.689  12.027  -4.414  1.00  0.00     0.173 A 
ATOM     77  C   UNL     1       6.705  10.797  -3.855  1.00  0.00     0.173 A 
ATOM     78  F   UNL     1       9.813  12.666  -4.058  1.00  0.00    -0.203 F 
ATOM     79  C   UNL     1       8.325  12.002  -5.759  1.00  0.00     0.198 A 
ATOM     80  C   UNL     1       6.357  10.748  -5.204  1.00  0.00     0.198 A 
ATOM     81  F   UNL     1       5.899  10.210  -2.958  1.00  0.00    -0.203 F 
ATOM     82  F   UNL     1       9.092  12.617  -6.669  1.00  0.00    -0.200 F 
ATOM     83  C   UNL     1       7.163  11.357  -6.154  1.00  0.00     0.200 A 
ATOM     84  F   UNL     1       5.241  10.110  -5.582  1.00  0.00    -0.200 F 
ATOM     85  F   UNL     1       6.816  11.330  -7.447  1.00  0.00    -0.200 F 
ENDBRANCH  51  75
BRANCH  63  86
ATOM     86  C   UNL     1       8.438  16.620   1.195  1.00  0.00     0.064 A 
ATOM     87  C   UNL     1       7.170  17.203   1.059  1.00  0.00     0.173 A 
ATOM     88  C   UNL     1       9.549  17.474   1.281  1.00  0.00     0.173 A 
ATOM     89  F   UNL     1       6.078  16.430   0.958  1.00  0.00    -0.203 F 
ATOM     90  C   UNL     1       7.023  18.586   0.991  1.00  0.00     0.198 A 
ATOM     91  C   UNL     1       9.395  18.856   1.243  1.00  0.00     0.198 A 
ATOM     92  F   UNL     1      10.783  16.966   1.418  1.00  0.00    -0.203 F 
ATOM     93  F   UNL     1       5.806  19.121   0.816  1.00  0.00    -0.200 F 
ATOM     94  C   UNL     1       8.133  19.411   1.092  1.00  0.00     0.200 A 
ATOM     95  F   UNL     1      10.467  19.652   1.356  1.00  0.00    -0.200 F 
ATOM     96  F   UNL     1       7.988  20.742   1.038  1.00  0.00    -0.200 F 
ENDBRANCH  63  86
ENDBRANCH  37  38
ENDBRANCH  29  32
ENDBRANCH  27  28
ENDBRANCH  26  27
ENDBRANCH  25  26
ENDBRANCH  24  25
ENDBRANCH   1  24
TORSDOF 18
