REMARK SMILES O=C(NCCCCCCNC(=O)c1ccc(-c2c3nc(c(-c4c(F)c(F)c(F)c(F)c4F)c4ccc([nH]4)c(-c4c(F)c(F)c(F)c(F)c4F)c4nc(c(-c5c(F)c(F)c(F)c(F)c5F)c5ccc2[nH]5)C=C4)C=C3)cc1)c1ccc(NCn2c(=S)sc3cc([N+](=O)[O-])ccc32)cc1
REMARK SMILES IDX 5 1 4 2 3 3 1 4 2 5 76 7 77 8 96 9 78 10 95 11 79 12 80 13
REMARK SMILES IDX 81 15 82 16 83 17 94 18 84 19 85 20 86 21 93 22 87 23 92 24
REMARK SMILES IDX 88 25 89 26 90 27 91 28 6 29 7 30 8 31 9 32 10 33 11 34
REMARK SMILES IDX 12 36 13 37 14 38 75 39 15 40 74 41 16 42 17 43 18 44 68 45
REMARK SMILES IDX 19 46 73 47 67 48 69 49 20 50 72 51 66 52 65 53 21 55 53 56
REMARK SMILES IDX 33 57 52 58 34 59 37 60 51 61 70 62 35 63 36 64 50 66 71 67
REMARK SMILES IDX 38 68 22 69 23 70 31 71 24 72 25 73 29 74 32 75 26 76 27 77
REMARK SMILES IDX 30 78 28 79 54 80 55 81 63 82 56 83 57 84 61 85 64 86 58 87
REMARK SMILES IDX 59 88 62 89 60 90 39 91 40 92 48 93 41 94 42 95 46 96 49 97
REMARK SMILES IDX 43 98 44 99 47 100 45 101
REMARK H PARENT 3 6 80 14 10 35 69 54 37 65
REMARK Flexibility Score: inf
ROOT
ATOM      1  C   UNL     1       4.835   2.454   0.687  1.00  0.00     0.021 C 
ENDROOT
BRANCH   1   2
ATOM      2  C   UNL     1       4.520   0.964   0.796  1.00  0.00     0.116 C 
BRANCH   2   3
ATOM      3  N   UNL     1       3.089   0.731   0.779  1.00  0.00    -0.352 N 
ATOM      4  O   UNL     1       1.115   0.149  -0.117  1.00  0.00    -0.269 OA
ATOM      5  C   UNL     1       2.333  -0.008  -0.091  1.00  0.00     0.251 C 
ATOM      6  H   UNL     1       2.585   1.170   1.502  1.00  0.00     0.163 HD
BRANCH   5   7
ATOM      7  C   UNL     1       2.950  -1.030  -0.965  1.00  0.00     0.039 A 
ATOM      8  C   UNL     1       3.950  -1.871  -0.492  1.00  0.00     0.016 A 
ATOM      9  C   UNL     1       2.406  -1.261  -2.230  1.00  0.00     0.016 A 
ATOM     10  C   UNL     1       4.372  -2.946  -1.272  1.00  0.00     0.026 A 
ATOM     11  C   UNL     1       2.798  -2.388  -2.967  1.00  0.00     0.026 A 
ATOM     12  C   UNL     1       3.743  -3.290  -2.464  1.00  0.00     0.035 A 
BRANCH  12  13
ATOM     13  N   UNL     1       3.908  -4.521  -3.071  1.00  0.00    -0.367 N 
ATOM     14  H   UNL     1       3.391  -4.691  -3.891  1.00  0.00     0.162 HD
BRANCH  13  15
ATOM     15  C   UNL     1       4.776  -5.581  -2.605  1.00  0.00     0.241 C 
BRANCH  15  16
ATOM     16  N   UNL     1       4.330  -6.240  -1.368  1.00  0.00    -0.305 N 
ATOM     17  C   UNL     1       5.323  -6.458  -0.390  1.00  0.00     0.163 A 
ATOM     18  C   UNL     1       3.554  -7.434  -1.513  1.00  0.00     0.062 A 
ATOM     19  S   UNL     1       5.723  -5.465   0.889  1.00  0.00    -0.048 S 
ATOM     20  S   UNL     1       5.833  -8.152  -0.447  1.00  0.00    -0.105 S 
ATOM     21  C   UNL     1       4.221  -8.571  -1.033  1.00  0.00     0.061 A 
ATOM     22  C   UNL     1       2.209  -7.502  -1.848  1.00  0.00     0.035 A 
ATOM     23  C   UNL     1       3.601  -9.793  -0.875  1.00  0.00     0.106 A 
ATOM     24  C   UNL     1       1.536  -8.721  -1.632  1.00  0.00     0.088 A 
ATOM     25  C   UNL     1       2.233  -9.850  -1.139  1.00  0.00     0.270 A 
BRANCH  25  26
ATOM     26  N   UNL     1       1.508 -11.076  -0.785  1.00  0.00     0.062 N 
ATOM     27  O   UNL     1       2.181 -12.088  -0.539  1.00  0.00    -0.258 OA
ATOM     28  O   UNL     1       0.273 -11.020  -0.733  1.00  0.00    -0.258 OA
ENDBRANCH  25  26
ENDBRANCH  15  16
ENDBRANCH  13  15
ENDBRANCH  12  13
ENDBRANCH   5   7
ENDBRANCH   2   3
ENDBRANCH   1   2
BRANCH   1  29
ATOM     29  C   UNL     1       4.306   3.313   1.841  1.00  0.00     0.002 C 
BRANCH  29  30
ATOM     30  C   UNL     1       4.769   2.895   3.240  1.00  0.00     0.002 C 
BRANCH  30  31
ATOM     31  C   UNL     1       6.283   2.783   3.423  1.00  0.00     0.021 C 
BRANCH  31  32
ATOM     32  C   UNL     1       7.074   4.033   3.052  1.00  0.00     0.116 C 
BRANCH  32  33
ATOM     33  N   UNL     1       6.736   5.177   3.881  1.00  0.00    -0.352 N 
ATOM     34  C   UNL     1       7.564   6.038   4.558  1.00  0.00     0.251 C 
ATOM     35  H   UNL     1       5.773   5.362   3.971  1.00  0.00     0.163 HD
ATOM     36  O   UNL     1       7.097   6.864   5.333  1.00  0.00    -0.269 OA
BRANCH  34  37
ATOM     37  C   UNL     1       9.030   5.952   4.374  1.00  0.00     0.039 A 
ATOM     38  C   UNL     1       9.852   5.999   5.503  1.00  0.00     0.014 A 
ATOM     39  C   UNL     1       9.594   5.833   3.101  1.00  0.00     0.014 A 
ATOM     40  C   UNL     1      11.235   5.864   5.361  1.00  0.00     0.010 A 
ATOM     41  C   UNL     1      10.965   5.629   2.966  1.00  0.00     0.010 A 
ATOM     42  C   UNL     1      11.800   5.644   4.094  1.00  0.00    -0.014 A 
BRANCH  42  43
ATOM     43  C   UNL     1      13.260   5.423   3.931  1.00  0.00     0.031 A 
ATOM     44  C   UNL     1      14.094   6.410   3.161  1.00  0.00     0.074 A 
ATOM     45  C   UNL     1      13.823   4.302   4.422  1.00  0.00     0.049 A 
ATOM     46  N   UNL     1      15.366   6.357   2.853  1.00  0.00    -0.248 NA
ATOM     47  C   UNL     1      13.402   7.601   2.646  1.00  0.00     0.031 C 
ATOM     48  C   UNL     1      13.114   3.249   5.151  1.00  0.00     0.029 A 
ATOM     49  N   UNL     1      15.120   3.855   4.372  1.00  0.00    -0.354 N 
ATOM     50  C   UNL     1      15.618   7.492   2.094  1.00  0.00     0.074 A 
ATOM     51  C   UNL     1      14.361   8.194   1.950  1.00  0.00     0.031 C 
ATOM     52  C   UNL     1      13.988   2.292   5.501  1.00  0.00     0.029 A 
ATOM     53  C   UNL     1      15.309   2.642   4.989  1.00  0.00     0.049 A 
ATOM     54  H   UNL     1      15.847   4.357   3.937  1.00  0.00     0.167 HD
ATOM     55  C   UNL     1      16.797   7.919   1.580  1.00  0.00     0.037 A 
ATOM     56  C   UNL     1      16.422   1.894   5.119  1.00  0.00     0.037 A 
ATOM     57  C   UNL     1      18.053   7.238   1.757  1.00  0.00     0.049 A 
ATOM     58  C   UNL     1      17.716   2.393   4.534  1.00  0.00     0.074 A 
ATOM     59  C   UNL     1      19.313   7.633   1.344  1.00  0.00     0.029 A 
ATOM     60  N   UNL     1      18.206   6.018   2.398  1.00  0.00    -0.354 N 
ATOM     61  N   UNL     1      17.958   3.506   3.885  1.00  0.00    -0.248 NA
ATOM     62  C   UNL     1      18.894   1.530   4.702  1.00  0.00     0.031 C 
ATOM     63  C   UNL     1      20.223   6.629   1.691  1.00  0.00     0.029 A 
ATOM     64  C   UNL     1      19.537   5.632   2.366  1.00  0.00     0.049 A 
ATOM     65  H   UNL     1      17.478   5.502   2.814  1.00  0.00     0.167 HD
ATOM     66  C   UNL     1      19.316   3.494   3.600  1.00  0.00     0.074 A 
ATOM     67  C   UNL     1      19.849   2.268   4.156  1.00  0.00     0.031 C 
ATOM     68  C   UNL     1      20.056   4.416   2.937  1.00  0.00     0.037 A 
BRANCH  55  69
ATOM     69  C   UNL     1      16.790   9.186   0.774  1.00  0.00     0.064 A 
ATOM     70  C   UNL     1      16.592  10.439   1.372  1.00  0.00     0.173 A 
ATOM     71  C   UNL     1      17.039   9.149  -0.606  1.00  0.00     0.173 A 
ATOM     72  F   UNL     1      16.341  10.529   2.687  1.00  0.00    -0.203 F 
ATOM     73  C   UNL     1      16.619  11.607   0.613  1.00  0.00     0.198 A 
ATOM     74  C   UNL     1      17.095  10.320  -1.356  1.00  0.00     0.198 A 
ATOM     75  F   UNL     1      17.241   7.977  -1.226  1.00  0.00    -0.203 F 
ATOM     76  F   UNL     1      16.385  12.790   1.198  1.00  0.00    -0.200 F 
ATOM     77  C   UNL     1      16.879  11.547  -0.748  1.00  0.00     0.200 A 
ATOM     78  F   UNL     1      17.359  10.262  -2.669  1.00  0.00    -0.200 F 
ATOM     79  F   UNL     1      16.916  12.673  -1.474  1.00  0.00    -0.200 F 
ENDBRANCH  55  69
BRANCH  56  80
ATOM     80  C   UNL     1      16.373   0.604   5.856  1.00  0.00     0.064 A 
ATOM     81  C   UNL     1      17.025   0.458   7.089  1.00  0.00     0.173 A 
ATOM     82  C   UNL     1      15.699  -0.511   5.338  1.00  0.00     0.173 A 
ATOM     83  F   UNL     1      17.703   1.489   7.614  1.00  0.00    -0.203 F 
ATOM     84  C   UNL     1      17.026  -0.762   7.763  1.00  0.00     0.198 A 
ATOM     85  C   UNL     1      15.676  -1.722   6.028  1.00  0.00     0.198 A 
ATOM     86  F   UNL     1      15.057  -0.423   4.164  1.00  0.00    -0.203 F 
ATOM     87  F   UNL     1      17.702  -0.888   8.913  1.00  0.00    -0.200 F 
ATOM     88  C   UNL     1      16.348  -1.849   7.234  1.00  0.00     0.200 A 
ATOM     89  F   UNL     1      15.009  -2.767   5.520  1.00  0.00    -0.200 F 
ATOM     90  F   UNL     1      16.350  -3.022   7.882  1.00  0.00    -0.200 F 
ENDBRANCH  56  80
BRANCH  68  91
ATOM     91  C   UNL     1      21.530   4.158   2.814  1.00  0.00     0.064 A 
ATOM     92  C   UNL     1      22.036   3.162   1.968  1.00  0.00     0.173 A 
ATOM     93  C   UNL     1      22.448   4.947   3.525  1.00  0.00     0.173 A 
ATOM     94  F   UNL     1      21.199   2.371   1.279  1.00  0.00    -0.203 F 
ATOM     95  C   UNL     1      23.407   2.947   1.857  1.00  0.00     0.198 A 
ATOM     96  C   UNL     1      23.819   4.750   3.388  1.00  0.00     0.198 A 
ATOM     97  F   UNL     1      22.015   5.918   4.343  1.00  0.00    -0.203 F 
ATOM     98  F   UNL     1      23.867   1.957   1.079  1.00  0.00    -0.200 F 
ATOM     99  C   UNL     1      24.297   3.745   2.560  1.00  0.00     0.200 A 
ATOM    100  F   UNL     1      24.677   5.531   4.057  1.00  0.00    -0.200 F 
ATOM    101  F   UNL     1      25.617   3.542   2.445  1.00  0.00    -0.200 F 
ENDBRANCH  68  91
ENDBRANCH  42  43
ENDBRANCH  34  37
ENDBRANCH  32  33
ENDBRANCH  31  32
ENDBRANCH  30  31
ENDBRANCH  29  30
ENDBRANCH   1  29
TORSDOF 17
