REMARK SMILES CC(C)(C)OC(=O)N1CCC[C@H]1C(=O)N[C@@H](Cc1ccccc1)C(=O)NCCCCCCNC(=O)c1ccc(-c2c3nc(c(-c4c(F)c(F)c(F)c(F)c4F)c4ccc([nH]4)c(-c4c(F)c(F)c(F)c(F)c4F)c4nc(c(-c5c(F)c(F)c(F)c(F)c5F)c5ccc2[nH]5)C=C4)C=C3)cc1
REMARK SMILES IDX 28 1 27 2 26 3 24 4 25 5 16 7 15 8 13 9 14 10 12 12 8 13
REMARK SMILES IDX 9 14 10 15 11 16 6 17 7 18 5 19 2 20 1 21 3 22 4 23 17 24
REMARK SMILES IDX 18 25 19 26 23 27 20 28 22 29 21 30 29 31 30 32 31 33 32 34
REMARK SMILES IDX 33 35 34 36 35 38 36 39 37 40 98 41 38 42 97 43 39 44 40 45
REMARK SMILES IDX 41 46 91 47 42 48 96 49 90 50 92 51 43 52 95 53 89 54 88 55
REMARK SMILES IDX 44 57 76 58 56 59 75 60 57 61 60 62 74 63 93 64 58 65 59 66
REMARK SMILES IDX 73 68 94 69 61 70 45 71 46 72 54 73 47 74 48 75 52 76 55 77
REMARK SMILES IDX 49 78 50 79 53 80 51 81 77 82 78 83 86 84 79 85 80 86 84 87
REMARK SMILES IDX 87 88 81 89 82 90 85 91 83 92 62 93 63 94 71 95 64 96 65 97
REMARK SMILES IDX 69 98 72 99 66 100 67 101 70 102 68 103
REMARK H PARENT 26 6 15 11 33 37 92 56 60 67
REMARK Flexibility Score: inf
ROOT
ATOM      1  C   UNL     1      -1.617  -2.574 -11.599  1.00  0.00     0.021 C 
ENDROOT
BRANCH   1   2
ATOM      2  C   UNL     1      -0.433  -1.651 -11.371  1.00  0.00     0.116 C 
BRANCH   2   3
ATOM      3  N   UNL     1      -0.783  -0.260 -11.242  1.00  0.00    -0.354 N 
ATOM      4  C   UNL     1      -0.199   0.696 -10.471  1.00  0.00     0.242 C 
ATOM      5  O   UNL     1      -0.418   1.873 -10.783  1.00  0.00    -0.273 OA
ATOM      6  H   UNL     1      -1.549   0.039 -11.784  1.00  0.00     0.163 HD
BRANCH   4   7
ATOM      7  C   UNL     1       0.767   0.386  -9.301  1.00  0.00     0.175 C 
BRANCH   7   8
ATOM      8  N   UNL     1       0.300  -0.599  -8.321  1.00  0.00    -0.342 N 
ATOM      9  C   UNL     1       0.450  -0.661  -6.966  1.00  0.00     0.243 C 
ATOM     10  O   UNL     1       0.349  -1.800  -6.497  1.00  0.00    -0.273 OA
ATOM     11  H   UNL     1      -0.211  -1.346  -8.708  1.00  0.00     0.164 HD
BRANCH   9  12
ATOM     12  C   UNL     1       0.567   0.605  -6.062  1.00  0.00     0.178 C 
ATOM     13  N   UNL     1       1.106   0.280  -4.734  1.00  0.00    -0.296 N 
ATOM     14  C   UNL     1       2.388   0.915  -4.508  1.00  0.00     0.124 C 
ATOM     15  C   UNL     1       2.248   2.197  -5.295  1.00  0.00     0.024 C 
ATOM     16  C   UNL     1       1.508   1.721  -6.538  1.00  0.00     0.037 C 
BRANCH  13  17
ATOM     17  C   UNL     1       0.343  -0.320  -3.759  1.00  0.00     0.410 C 
ATOM     18  O   UNL     1      -0.768  -0.780  -3.951  1.00  0.00    -0.224 OA
BRANCH  17  19
ATOM     19  O   UNL     1       0.968  -0.264  -2.556  1.00  0.00    -0.444 OA
BRANCH  19  20
ATOM     20  C   UNL     1       0.437  -0.869  -1.351  1.00  0.00     0.106 C 
ATOM     21  C   UNL     1       1.124  -0.110  -0.205  1.00  0.00     0.056 C 
ATOM     22  C   UNL     1       0.873  -2.334  -1.328  1.00  0.00     0.056 C 
ATOM     23  C   UNL     1      -1.079  -0.728  -1.176  1.00  0.00     0.056 C 
ENDBRANCH  19  20
ENDBRANCH  17  19
ENDBRANCH  13  17
ENDBRANCH   9  12
ENDBRANCH   7   8
BRANCH   7  24
ATOM     24  C   UNL     1       2.248   0.159  -9.718  1.00  0.00     0.070 C 
BRANCH  24  25
ATOM     25  C   UNL     1       2.624  -1.035 -10.569  1.00  0.00    -0.045 A 
ATOM     26  C   UNL     1       3.161  -0.833 -11.850  1.00  0.00     0.004 A 
ATOM     27  C   UNL     1       2.490  -2.353 -10.104  1.00  0.00     0.004 A 
ATOM     28  C   UNL     1       3.479  -1.917 -12.672  1.00  0.00     0.000 A 
ATOM     29  C   UNL     1       2.772  -3.437 -10.942  1.00  0.00     0.000 A 
ATOM     30  C   UNL     1       3.260  -3.218 -12.228  1.00  0.00     0.000 A 
ENDBRANCH  24  25
ENDBRANCH   7  24
ENDBRANCH   4   7
ENDBRANCH   2   3
ENDBRANCH   1   2
BRANCH   1  31
ATOM     31  C   UNL     1      -2.197  -2.538 -13.011  1.00  0.00     0.002 C 
BRANCH  31  32
ATOM     32  C   UNL     1      -1.195  -2.751 -14.151  1.00  0.00     0.002 C 
BRANCH  32  33
ATOM     33  C   UNL     1      -0.287  -3.978 -14.024  1.00  0.00     0.021 C 
BRANCH  33  34
ATOM     34  C   UNL     1      -1.010  -5.307 -13.841  1.00  0.00     0.116 C 
BRANCH  34  35
ATOM     35  N   UNL     1      -1.918  -5.596 -14.938  1.00  0.00    -0.352 N 
ATOM     36  C   UNL     1      -1.944  -6.658 -15.805  1.00  0.00     0.251 C 
ATOM     37  H   UNL     1      -2.624  -4.926 -15.080  1.00  0.00     0.163 HD
ATOM     38  O   UNL     1      -2.674  -6.625 -16.791  1.00  0.00    -0.269 OA
BRANCH  36  39
ATOM     39  C   UNL     1      -1.083  -7.836 -15.570  1.00  0.00     0.039 A 
ATOM     40  C   UNL     1      -0.423  -8.412 -16.659  1.00  0.00     0.014 A 
ATOM     41  C   UNL     1      -0.944  -8.390 -14.295  1.00  0.00     0.014 A 
ATOM     42  C   UNL     1       0.424  -9.504 -16.459  1.00  0.00     0.010 A 
ATOM     43  C   UNL     1      -0.041  -9.429 -14.084  1.00  0.00     0.010 A 
ATOM     44  C   UNL     1       0.650  -9.999 -15.165  1.00  0.00    -0.014 A 
BRANCH  44  45
ATOM     45  C   UNL     1       1.608 -11.107 -14.922  1.00  0.00     0.031 A 
ATOM     46  C   UNL     1       1.127 -12.419 -14.368  1.00  0.00     0.074 A 
ATOM     47  C   UNL     1       2.923 -10.907 -15.138  1.00  0.00     0.049 A 
ATOM     48  N   UNL     1       1.818 -13.475 -14.020  1.00  0.00    -0.248 NA
ATOM     49  C   UNL     1      -0.322 -12.553 -14.152  1.00  0.00     0.031 C 
ATOM     50  C   UNL     1       3.518  -9.664 -15.631  1.00  0.00     0.029 A 
ATOM     51  N   UNL     1       3.999 -11.741 -14.957  1.00  0.00    -0.354 N 
ATOM     52  C   UNL     1       0.893 -14.388 -13.531  1.00  0.00     0.074 A 
ATOM     53  C   UNL     1      -0.402 -13.745 -13.579  1.00  0.00     0.031 C 
ATOM     54  C   UNL     1       4.847  -9.822 -15.731  1.00  0.00     0.029 A 
ATOM     55  C   UNL     1       5.204 -11.159 -15.268  1.00  0.00     0.049 A 
ATOM     56  H   UNL     1       3.914 -12.667 -14.636  1.00  0.00     0.167 HD
ATOM     57  C   UNL     1       1.104 -15.655 -13.101  1.00  0.00     0.037 A 
ATOM     58  C   UNL     1       6.457 -11.645 -15.175  1.00  0.00     0.037 A 
ATOM     59  C   UNL     1       2.392 -16.298 -13.078  1.00  0.00     0.049 A 
ATOM     60  C   UNL     1       6.665 -13.050 -14.679  1.00  0.00     0.074 A 
ATOM     61  C   UNL     1       2.699 -17.601 -12.729  1.00  0.00     0.029 A 
ATOM     62  N   UNL     1       3.589 -15.680 -13.409  1.00  0.00    -0.354 N 
ATOM     63  N   UNL     1       5.774 -13.931 -14.294  1.00  0.00    -0.248 NA
ATOM     64  C   UNL     1       8.052 -13.530 -14.609  1.00  0.00     0.031 C 
ATOM     65  C   UNL     1       4.088 -17.755 -12.793  1.00  0.00     0.029 A 
ATOM     66  C   UNL     1       4.641 -16.566 -13.240  1.00  0.00     0.049 A 
ATOM     67  H   UNL     1       3.678 -14.750 -13.719  1.00  0.00     0.167 HD
ATOM     68  C   UNL     1       6.488 -15.074 -13.959  1.00  0.00     0.074 A 
ATOM     69  C   UNL     1       7.884 -14.781 -14.204  1.00  0.00     0.031 C 
ATOM     70  C   UNL     1       6.027 -16.260 -13.490  1.00  0.00     0.037 A 
BRANCH  57  71
ATOM     71  C   UNL     1      -0.086 -16.433 -12.616  1.00  0.00     0.064 A 
ATOM     72  C   UNL     1      -1.095 -16.863 -13.491  1.00  0.00     0.173 A 
ATOM     73  C   UNL     1      -0.198 -16.791 -11.263  1.00  0.00     0.173 A 
ATOM     74  F   UNL     1      -1.042 -16.542 -14.793  1.00  0.00    -0.203 F 
ATOM     75  C   UNL     1      -2.186 -17.593 -13.026  1.00  0.00     0.198 A 
ATOM     76  C   UNL     1      -1.273 -17.549 -10.807  1.00  0.00     0.198 A 
ATOM     77  F   UNL     1       0.742 -16.413 -10.383  1.00  0.00    -0.203 F 
ATOM     78  F   UNL     1      -3.163 -17.947 -13.873  1.00  0.00    -0.200 F 
ATOM     79  C   UNL     1      -2.271 -17.942 -11.687  1.00  0.00     0.200 A 
ATOM     80  F   UNL     1      -1.345 -17.898  -9.515  1.00  0.00    -0.200 F 
ATOM     81  F   UNL     1      -3.317 -18.652 -11.242  1.00  0.00    -0.200 F 
ENDBRANCH  57  71
BRANCH  58  82
ATOM     82  C   UNL     1       7.611 -10.795 -15.570  1.00  0.00     0.064 A 
ATOM     83  C   UNL     1       8.374 -11.098 -16.707  1.00  0.00     0.173 A 
ATOM     84  C   UNL     1       7.976  -9.666 -14.822  1.00  0.00     0.173 A 
ATOM     85  F   UNL     1       8.078 -12.179 -17.444  1.00  0.00    -0.203 F 
ATOM     86  C   UNL     1       9.470 -10.317 -17.068  1.00  0.00     0.198 A 
ATOM     87  C   UNL     1       9.053  -8.868 -15.202  1.00  0.00     0.198 A 
ATOM     88  F   UNL     1       7.276  -9.328 -13.730  1.00  0.00    -0.203 F 
ATOM     89  F   UNL     1      10.210 -10.656 -18.132  1.00  0.00    -0.200 F 
ATOM     90  C   UNL     1       9.805  -9.198 -16.319  1.00  0.00     0.200 A 
ATOM     91  F   UNL     1       9.362  -7.778 -14.486  1.00  0.00    -0.200 F 
ATOM     92  F   UNL     1      10.854  -8.443 -16.671  1.00  0.00    -0.200 F 
ENDBRANCH  58  82
BRANCH  70  93
ATOM     93  C   UNL     1       7.038 -17.341 -13.235  1.00  0.00     0.064 A 
ATOM     94  C   UNL     1       7.937 -17.270 -12.161  1.00  0.00     0.173 A 
ATOM     95  C   UNL     1       7.073 -18.486 -14.047  1.00  0.00     0.173 A 
ATOM     96  F   UNL     1       7.955 -16.190 -11.366  1.00  0.00    -0.203 F 
ATOM     97  C   UNL     1       8.849 -18.295 -11.923  1.00  0.00     0.198 A 
ATOM     98  C   UNL     1       7.964 -19.523 -13.786  1.00  0.00     0.198 A 
ATOM     99  F   UNL     1       6.230 -18.606 -15.084  1.00  0.00    -0.203 F 
ATOM    100  F   UNL     1       9.730 -18.185 -10.919  1.00  0.00    -0.200 F 
ATOM    101  C   UNL     1       8.856 -19.424 -12.729  1.00  0.00     0.200 A 
ATOM    102  F   UNL     1       7.958 -20.619 -14.557  1.00  0.00    -0.200 F 
ATOM    103  F   UNL     1       9.727 -20.414 -12.491  1.00  0.00    -0.200 F 
ENDBRANCH  70  93
ENDBRANCH  44  45
ENDBRANCH  36  39
ENDBRANCH  34  35
ENDBRANCH  33  34
ENDBRANCH  32  33
ENDBRANCH  31  32
ENDBRANCH   1  31
TORSDOF 20
