REMARK SMILES O=CN[C@@H](Cc1cc(Cl)ccc1[N+](=O)[O-])C(=O)NCCCCCCNC(=O)c1ccc(-c2c3nc(c(-c4c(F)c(F)c(F)c(F)c4F)c4ccc([nH]4)c(-c4c(F)c(F)c(F)c(F)c4F)c4nc(c(-c5c(F)c(F)c(F)c(F)c5F)c5ccc2[nH]5)C=C4)C=C3)cc1
REMARK SMILES IDX 21 1 20 2 19 3 18 4 16 5 17 6 4 8 3 9 1 10 2 11 5 13 6 14
REMARK SMILES IDX 7 15 12 16 8 17 11 18 9 19 10 20 13 21 14 22 15 23 22 24
REMARK SMILES IDX 23 25 24 26 25 27 26 28 27 30 28 31 29 32 90 33 30 34 89 35
REMARK SMILES IDX 31 36 32 37 33 38 83 39 34 40 88 41 82 42 84 43 35 44 87 45
REMARK SMILES IDX 81 46 80 47 36 49 68 50 48 51 67 52 49 53 52 54 66 55 85 56
REMARK SMILES IDX 50 57 51 58 65 60 86 61 53 62 37 63 38 64 46 65 39 66 40 67
REMARK SMILES IDX 44 68 47 69 41 70 42 71 45 72 43 73 69 74 70 75 78 76 71 77
REMARK SMILES IDX 72 78 76 79 79 80 73 81 74 82 77 83 75 84 54 85 55 86 63 87
REMARK SMILES IDX 56 88 57 89 61 90 64 91 58 92 59 93 62 94 60 95
REMARK H PARENT 18 7 3 12 25 29 84 48 52 59
REMARK Flexibility Score: inf
ROOT
ATOM      1  C   UNL     1       3.064   5.554   3.508  1.00  0.00     0.002 C 
ENDROOT
BRANCH   1   2
ATOM      2  C   UNL     1       2.536   4.483   2.555  1.00  0.00     0.021 C 
BRANCH   2   3
ATOM      3  C   UNL     1       3.543   3.977   1.538  1.00  0.00     0.116 C 
BRANCH   3   4
ATOM      4  N   UNL     1       4.523   3.046   2.044  1.00  0.00    -0.354 N 
ATOM      5  C   UNL     1       5.087   1.977   1.401  1.00  0.00     0.242 C 
ATOM      6  O   UNL     1       6.188   1.589   1.800  1.00  0.00    -0.273 OA
ATOM      7  H   UNL     1       4.825   3.200   2.968  1.00  0.00     0.163 HD
BRANCH   5   8
ATOM      8  C   UNL     1       4.426   1.313   0.169  1.00  0.00     0.175 C 
BRANCH   8   9
ATOM      9  N   UNL     1       3.014   1.032   0.397  1.00  0.00    -0.347 N 
ATOM     10  O   UNL     1       1.285  -0.432   0.454  1.00  0.00    -0.279 OA
ATOM     11  C   UNL     1       2.413  -0.147   0.068  1.00  0.00     0.337 C 
ATOM     12  H   UNL     1       2.463   1.734   0.812  1.00  0.00     0.164 HD
ENDBRANCH   8   9
BRANCH   8  13
ATOM     13  C   UNL     1       4.763   1.960  -1.200  1.00  0.00     0.078 C 
BRANCH  13  14
ATOM     14  C   UNL     1       4.326   3.383  -1.503  1.00  0.00     0.034 A 
ATOM     15  C   UNL     1       5.300   4.404  -1.452  1.00  0.00     0.031 A 
ATOM     16  C   UNL     1       3.003   3.778  -1.801  1.00  0.00     0.272 A 
ATOM     17  C   UNL     1       4.951   5.750  -1.629  1.00  0.00     0.041 A 
ATOM     18  C   UNL     1       2.649   5.131  -1.959  1.00  0.00     0.087 A 
ATOM     19  Cl  UNL     1       6.157   6.969  -1.499  1.00  0.00    -0.084 Cl
ATOM     20  C   UNL     1       3.630   6.117  -1.868  1.00  0.00     0.027 A 
BRANCH  16  21
ATOM     21  N   UNL     1       1.912   2.814  -1.871  1.00  0.00     0.062 N 
ATOM     22  O   UNL     1       0.941   3.029  -1.132  1.00  0.00    -0.258 OA
ATOM     23  O   UNL     1       2.033   1.874  -2.664  1.00  0.00    -0.258 OA
ENDBRANCH  16  21
ENDBRANCH  13  14
ENDBRANCH   8  13
ENDBRANCH   5   8
ENDBRANCH   3   4
ENDBRANCH   2   3
ENDBRANCH   1   2
BRANCH   1  24
ATOM     24  C   UNL     1       3.715   6.778   2.850  1.00  0.00     0.002 C 
BRANCH  24  25
ATOM     25  C   UNL     1       2.885   7.488   1.777  1.00  0.00     0.021 C 
BRANCH  25  26
ATOM     26  C   UNL     1       1.504   7.962   2.221  1.00  0.00     0.116 C 
BRANCH  26  27
ATOM     27  N   UNL     1       1.567   8.883   3.342  1.00  0.00    -0.352 N 
ATOM     28  C   UNL     1       1.105  10.170   3.459  1.00  0.00     0.251 C 
ATOM     29  H   UNL     1       2.010   8.528   4.146  1.00  0.00     0.163 HD
ATOM     30  O   UNL     1       1.414  10.845   4.437  1.00  0.00    -0.269 OA
BRANCH  28  31
ATOM     31  C   UNL     1       0.260  10.762   2.400  1.00  0.00     0.039 A 
ATOM     32  C   UNL     1       0.517  12.074   1.991  1.00  0.00     0.014 A 
ATOM     33  C   UNL     1      -0.790  10.043   1.823  1.00  0.00     0.014 A 
ATOM     34  C   UNL     1      -0.228  12.636   0.952  1.00  0.00     0.010 A 
ATOM     35  C   UNL     1      -1.482  10.577   0.738  1.00  0.00     0.010 A 
ATOM     36  C   UNL     1      -1.203  11.876   0.287  1.00  0.00    -0.014 A 
BRANCH  36  37
ATOM     37  C   UNL     1      -1.921  12.411  -0.899  1.00  0.00     0.031 A 
ATOM     38  C   UNL     1      -3.409  12.615  -0.860  1.00  0.00     0.074 A 
ATOM     39  C   UNL     1      -1.237  12.645  -2.037  1.00  0.00     0.049 A 
ATOM     40  N   UNL     1      -4.219  12.987  -1.819  1.00  0.00    -0.248 NA
ATOM     41  C   UNL     1      -4.080  12.341   0.420  1.00  0.00     0.031 C 
ATOM     42  C   UNL     1       0.203  12.452  -2.211  1.00  0.00     0.029 A 
ATOM     43  N   UNL     1      -1.664  13.081  -3.267  1.00  0.00    -0.354 N 
ATOM     44  C   UNL     1      -5.492  12.982  -1.264  1.00  0.00     0.074 A 
ATOM     45  C   UNL     1      -5.354  12.520   0.101  1.00  0.00     0.031 C 
ATOM     46  C   UNL     1       0.544  12.786  -3.465  1.00  0.00     0.029 A 
ATOM     47  C   UNL     1      -0.659  13.168  -4.199  1.00  0.00     0.049 A 
ATOM     48  H   UNL     1      -2.601  13.311  -3.462  1.00  0.00     0.167 HD
ATOM     49  C   UNL     1      -6.664  13.350  -1.834  1.00  0.00     0.037 A 
ATOM     50  C   UNL     1      -0.703  13.500  -5.504  1.00  0.00     0.037 A 
ATOM     51  C   UNL     1      -6.792  13.822  -3.189  1.00  0.00     0.049 A 
ATOM     52  C   UNL     1      -2.025  13.866  -6.123  1.00  0.00     0.074 A 
ATOM     53  C   UNL     1      -7.927  14.274  -3.840  1.00  0.00     0.029 A 
ATOM     54  N   UNL     1      -5.752  13.894  -4.104  1.00  0.00    -0.354 N 
ATOM     55  N   UNL     1      -3.210  13.925  -5.568  1.00  0.00    -0.248 NA
ATOM     56  C   UNL     1      -2.014  14.212  -7.552  1.00  0.00     0.031 C 
ATOM     57  C   UNL     1      -7.585  14.560  -5.166  1.00  0.00     0.029 A 
ATOM     58  C   UNL     1      -6.225  14.348  -5.324  1.00  0.00     0.049 A 
ATOM     59  H   UNL     1      -4.815  13.657  -3.914  1.00  0.00     0.167 HD
ATOM     60  C   UNL     1      -4.080  14.341  -6.568  1.00  0.00     0.074 A 
ATOM     61  C   UNL     1      -3.283  14.535  -7.761  1.00  0.00     0.031 C 
ATOM     62  C   UNL     1      -5.419  14.541  -6.503  1.00  0.00     0.037 A 
BRANCH  49  63
ATOM     63  C   UNL     1      -7.908  13.251  -0.998  1.00  0.00     0.064 A 
ATOM     64  C   UNL     1      -8.133  14.104   0.094  1.00  0.00     0.173 A 
ATOM     65  C   UNL     1      -8.911  12.323  -1.320  1.00  0.00     0.173 A 
ATOM     66  F   UNL     1      -7.204  15.004   0.451  1.00  0.00    -0.203 F 
ATOM     67  C   UNL     1      -9.300  14.010   0.849  1.00  0.00     0.198 A 
ATOM     68  C   UNL     1     -10.091  12.255  -0.584  1.00  0.00     0.198 A 
ATOM     69  F   UNL     1      -8.752  11.489  -2.359  1.00  0.00    -0.203 F 
ATOM     70  F   UNL     1      -9.469  14.801   1.918  1.00  0.00    -0.200 F 
ATOM     71  C   UNL     1     -10.280  13.092   0.505  1.00  0.00     0.200 A 
ATOM     72  F   UNL     1     -11.044  11.379  -0.928  1.00  0.00    -0.200 F 
ATOM     73  F   UNL     1     -11.406  13.011   1.227  1.00  0.00    -0.200 F 
ENDBRANCH  49  63
BRANCH  50  74
ATOM     74  C   UNL     1       0.545  13.504  -6.313  1.00  0.00     0.064 A 
ATOM     75  C   UNL     1       1.079  14.702  -6.809  1.00  0.00     0.173 A 
ATOM     76  C   UNL     1       1.226  12.315  -6.612  1.00  0.00     0.173 A 
ATOM     77  F   UNL     1       0.454  15.864  -6.567  1.00  0.00    -0.203 F 
ATOM     78  C   UNL     1       2.231  14.707  -7.593  1.00  0.00     0.198 A 
ATOM     79  C   UNL     1       2.397  12.325  -7.369  1.00  0.00     0.198 A 
ATOM     80  F   UNL     1       0.763  11.141  -6.157  1.00  0.00    -0.203 F 
ATOM     81  F   UNL     1       2.690  15.861  -8.097  1.00  0.00    -0.200 F 
ATOM     82  C   UNL     1       2.892  13.520  -7.867  1.00  0.00     0.200 A 
ATOM     83  F   UNL     1       3.042  11.177  -7.615  1.00  0.00    -0.200 F 
ATOM     84  F   UNL     1       4.003  13.526  -8.616  1.00  0.00    -0.200 F 
ENDBRANCH  50  74
BRANCH  62  85
ATOM     85  C   UNL     1      -6.108  15.023  -7.748  1.00  0.00     0.064 A 
ATOM     86  C   UNL     1      -6.287  14.189  -8.861  1.00  0.00     0.173 A 
ATOM     87  C   UNL     1      -6.640  16.321  -7.808  1.00  0.00     0.173 A 
ATOM     88  F   UNL     1      -5.783  12.946  -8.862  1.00  0.00    -0.203 F 
ATOM     89  C   UNL     1      -6.955  14.643  -9.996  1.00  0.00     0.198 A 
ATOM     90  C   UNL     1      -7.336  16.760  -8.931  1.00  0.00     0.198 A 
ATOM     91  F   UNL     1      -6.501  17.157  -6.769  1.00  0.00    -0.203 F 
ATOM     92  F   UNL     1      -7.074  13.844 -11.065  1.00  0.00    -0.200 F 
ATOM     93  C   UNL     1      -7.487  15.923 -10.026  1.00  0.00     0.200 A 
ATOM     94  F   UNL     1      -7.864  17.991  -8.951  1.00  0.00    -0.200 F 
ATOM     95  F   UNL     1      -8.142  16.353 -11.114  1.00  0.00    -0.200 F 
ENDBRANCH  62  85
ENDBRANCH  36  37
ENDBRANCH  28  31
ENDBRANCH  26  27
ENDBRANCH  25  26
ENDBRANCH  24  25
ENDBRANCH   1  24
TORSDOF 17
