REMARK SMILES Cc1ccnc(C(=O)c2[nH]c3ccc(F)cc3c2CC(=O)NCCCCCCNC(=O)c2ccc(-c3c4nc(c(-c5c(F)c(F)c(F)c(F)c5F)c5ccc([nH]5)c(-c5c(F)c(F)c(F)c(F)c5F)c5nc(c(-c6c(F)c(F)c(F)c(F)c6F)c6ccc3[nH]6)C=C5)C=C4)cc2)c1
REMARK SMILES IDX 25 1 24 2 23 3 22 4 20 5 21 6 19 8 18 9 9 10 10 11 11 12
REMARK SMILES IDX 17 14 12 15 16 16 13 17 14 18 15 19 7 20 8 21 6 22 1 23 2 24
REMARK SMILES IDX 3 25 95 26 4 27 5 28 26 29 27 30 28 31 29 32 30 33 31 35
REMARK SMILES IDX 32 36 33 37 94 38 34 39 93 40 35 41 36 42 37 43 87 44 38 45
REMARK SMILES IDX 92 46 86 47 88 48 39 49 91 50 85 51 84 52 40 54 72 55 52 56
REMARK SMILES IDX 71 57 53 58 56 59 70 60 89 61 54 62 55 63 69 65 90 66 57 67
REMARK SMILES IDX 41 68 42 69 50 70 43 71 44 72 48 73 51 74 45 75 46 76 49 77
REMARK SMILES IDX 47 78 73 79 74 80 82 81 75 82 76 83 80 84 83 85 77 86 78 87
REMARK SMILES IDX 81 88 79 89 58 90 59 91 67 92 60 93 61 94 65 95 68 96 62 97
REMARK SMILES IDX 63 98 66 99 64 100
REMARK H PARENT 22 7 10 13 29 34 88 53 56 64
REMARK Flexibility Score: inf
ROOT
ATOM      1  C   UNL     1      -3.415  -2.501   1.471  1.00  0.00     0.002 C 
ENDROOT
BRANCH   1   2
ATOM      2  C   UNL     1      -2.783  -3.663   0.698  1.00  0.00     0.021 C 
BRANCH   2   3
ATOM      3  C   UNL     1      -2.986  -3.663  -0.823  1.00  0.00     0.116 C 
BRANCH   3   4
ATOM      4  N   UNL     1      -2.393  -2.536  -1.512  1.00  0.00    -0.356 N 
ATOM      5  C   UNL     1      -1.216  -2.418  -2.189  1.00  0.00     0.224 C 
ATOM      6  O   UNL     1      -1.036  -1.366  -2.811  1.00  0.00    -0.275 OA
ATOM      7  H   UNL     1      -2.933  -1.714  -1.488  1.00  0.00     0.163 HD
BRANCH   5   8
ATOM      8  C   UNL     1      -0.187  -3.529  -2.254  1.00  0.00     0.138 C 
BRANCH   8   9
ATOM      9  C   UNL     1       0.247  -4.130  -0.947  1.00  0.00    -0.002 A 
ATOM     10  C   UNL     1       1.085  -3.605   0.041  1.00  0.00     0.093 A 
ATOM     11  N   UNL     1       1.282  -4.617   0.964  1.00  0.00    -0.352 N 
ATOM     12  C   UNL     1       0.516  -5.718   0.686  1.00  0.00     0.046 A 
ATOM     13  H   UNL     1       1.898  -4.553   1.729  1.00  0.00     0.167 HD
ATOM     14  C   UNL     1      -0.087  -5.481  -0.544  1.00  0.00     0.007 A 
ATOM     15  C   UNL     1       0.340  -6.906   1.411  1.00  0.00     0.030 A 
ATOM     16  C   UNL     1      -0.870  -6.513  -1.107  1.00  0.00     0.049 A 
ATOM     17  C   UNL     1      -0.496  -7.881   0.861  1.00  0.00     0.041 A 
ATOM     18  C   UNL     1      -1.081  -7.683  -0.380  1.00  0.00     0.123 A 
ATOM     19  F   UNL     1      -1.886  -8.628  -0.886  1.00  0.00    -0.207 F 
BRANCH  10  20
ATOM     20  C   UNL     1       1.835  -2.360   0.214  1.00  0.00     0.227 C 
ATOM     21  O   UNL     1       3.002  -2.421   0.601  1.00  0.00    -0.285 OA
BRANCH  20  22
ATOM     22  C   UNL     1       1.202  -0.998   0.086  1.00  0.00     0.113 A 
ATOM     23  C   UNL     1      -2.163   0.781   0.135  1.00  0.00     0.044 C 
ATOM     24  C   UNL     1      -0.690   0.503   0.098  1.00  0.00    -0.047 A 
ATOM     25  C   UNL     1       0.200   1.560  -0.068  1.00  0.00     0.023 A 
ATOM     26  C   UNL     1      -0.165  -0.790   0.237  1.00  0.00     0.036 A 
ATOM     27  C   UNL     1       1.552   1.280  -0.143  1.00  0.00     0.112 A 
ATOM     28  N   UNL     1       2.069   0.035  -0.082  1.00  0.00    -0.253 NA
ENDBRANCH  20  22
ENDBRANCH  10  20
ENDBRANCH   8   9
ENDBRANCH   5   8
ENDBRANCH   3   4
ENDBRANCH   2   3
ENDBRANCH   1   2
BRANCH   1  29
ATOM     29  C   UNL     1      -4.870  -2.200   1.127  1.00  0.00     0.002 C 
BRANCH  29  30
ATOM     30  C   UNL     1      -5.816  -3.367   1.397  1.00  0.00     0.021 C 
BRANCH  30  31
ATOM     31  C   UNL     1      -5.894  -3.762   2.865  1.00  0.00     0.116 C 
BRANCH  31  32
ATOM     32  N   UNL     1      -6.487  -2.715   3.681  1.00  0.00    -0.352 N 
ATOM     33  C   UNL     1      -7.468  -2.831   4.635  1.00  0.00     0.251 C 
ATOM     34  H   UNL     1      -6.140  -1.806   3.531  1.00  0.00     0.163 HD
ATOM     35  O   UNL     1      -8.008  -1.840   5.105  1.00  0.00    -0.269 OA
BRANCH  33  36
ATOM     36  C   UNL     1      -7.879  -4.182   5.069  1.00  0.00     0.039 A 
ATOM     37  C   UNL     1      -9.239  -4.485   5.147  1.00  0.00     0.014 A 
ATOM     38  C   UNL     1      -6.916  -5.149   5.373  1.00  0.00     0.014 A 
ATOM     39  C   UNL     1      -9.633  -5.776   5.496  1.00  0.00     0.010 A 
ATOM     40  C   UNL     1      -7.310  -6.455   5.634  1.00  0.00     0.010 A 
ATOM     41  C   UNL     1      -8.672  -6.777   5.719  1.00  0.00    -0.014 A 
BRANCH  41  42
ATOM     42  C   UNL     1      -9.075  -8.157   6.085  1.00  0.00     0.031 A 
ATOM     43  C   UNL     1      -8.688  -8.717   7.426  1.00  0.00     0.074 A 
ATOM     44  C   UNL     1      -9.743  -8.918   5.198  1.00  0.00     0.049 A 
ATOM     45  N   UNL     1      -8.904  -9.910   7.920  1.00  0.00    -0.248 NA
ATOM     46  C   UNL     1      -7.931  -7.827   8.321  1.00  0.00     0.031 C 
ATOM     47  C   UNL     1     -10.131  -8.502   3.850  1.00  0.00     0.029 A 
ATOM     48  N   UNL     1     -10.211 -10.204   5.298  1.00  0.00    -0.354 N 
ATOM     49  C   UNL     1      -8.300  -9.914   9.171  1.00  0.00     0.074 A 
ATOM     50  C   UNL     1      -7.650  -8.633   9.333  1.00  0.00     0.031 C 
ATOM     51  C   UNL     1     -10.803  -9.503   3.258  1.00  0.00     0.029 A 
ATOM     52  C   UNL     1     -10.860 -10.642   4.169  1.00  0.00     0.049 A 
ATOM     53  H   UNL     1     -10.092 -10.760   6.101  1.00  0.00     0.167 HD
ATOM     54  C   UNL     1      -8.312 -10.888  10.112  1.00  0.00     0.037 A 
ATOM     55  C   UNL     1     -11.432 -11.831   3.902  1.00  0.00     0.037 A 
ATOM     56  C   UNL     1      -8.978 -12.153   9.952  1.00  0.00     0.049 A 
ATOM     57  C   UNL     1     -11.424 -12.901   4.962  1.00  0.00     0.074 A 
ATOM     58  C   UNL     1      -9.093 -13.190  10.861  1.00  0.00     0.029 A 
ATOM     59  N   UNL     1      -9.639 -12.556   8.801  1.00  0.00    -0.354 N 
ATOM     60  N   UNL     1     -10.910 -12.870   6.168  1.00  0.00    -0.248 NA
ATOM     61  C   UNL     1     -12.089 -14.167   4.627  1.00  0.00     0.031 C 
ATOM     62  C   UNL     1      -9.774 -14.242  10.241  1.00  0.00     0.029 A 
ATOM     63  C   UNL     1     -10.145 -13.835   8.969  1.00  0.00     0.049 A 
ATOM     64  H   UNL     1      -9.735 -12.014   7.985  1.00  0.00     0.167 HD
ATOM     65  C   UNL     1     -11.222 -14.093   6.748  1.00  0.00     0.074 A 
ATOM     66  C   UNL     1     -11.981 -14.837   5.764  1.00  0.00     0.031 C 
ATOM     67  C   UNL     1     -10.910 -14.558   7.984  1.00  0.00     0.037 A 
BRANCH  54  68
ATOM     68  C   UNL     1      -7.579 -10.619  11.397  1.00  0.00     0.064 A 
ATOM     69  C   UNL     1      -8.016  -9.645  12.308  1.00  0.00     0.173 A 
ATOM     70  C   UNL     1      -6.434 -11.358  11.731  1.00  0.00     0.173 A 
ATOM     71  F   UNL     1      -9.097  -8.899  12.033  1.00  0.00    -0.203 F 
ATOM     72  C   UNL     1      -7.315  -9.395  13.485  1.00  0.00     0.198 A 
ATOM     73  C   UNL     1      -5.757 -11.132  12.927  1.00  0.00     0.198 A 
ATOM     74  F   UNL     1      -5.973 -12.305  10.900  1.00  0.00    -0.203 F 
ATOM     75  F   UNL     1      -7.717  -8.417  14.308  1.00  0.00    -0.200 F 
ATOM     76  C   UNL     1      -6.191 -10.144  13.797  1.00  0.00     0.200 A 
ATOM     77  F   UNL     1      -4.679 -11.868  13.234  1.00  0.00    -0.200 F 
ATOM     78  F   UNL     1      -5.521  -9.908  14.933  1.00  0.00    -0.200 F 
ENDBRANCH  54  68
BRANCH  55  79
ATOM     79  C   UNL     1     -12.087 -12.063   2.588  1.00  0.00     0.064 A 
ATOM     80  C   UNL     1     -13.478 -12.218   2.492  1.00  0.00     0.173 A 
ATOM     81  C   UNL     1     -11.341 -12.145   1.403  1.00  0.00     0.173 A 
ATOM     82  F   UNL     1     -14.234 -12.166   3.599  1.00  0.00    -0.203 F 
ATOM     83  C   UNL     1     -14.092 -12.473   1.268  1.00  0.00     0.198 A 
ATOM     84  C   UNL     1     -11.960 -12.367   0.175  1.00  0.00     0.198 A 
ATOM     85  F   UNL     1     -10.008 -11.996   1.438  1.00  0.00    -0.203 F 
ATOM     86  F   UNL     1     -15.417 -12.670   1.215  1.00  0.00    -0.200 F 
ATOM     87  C   UNL     1     -13.334 -12.542   0.110  1.00  0.00     0.200 A 
ATOM     88  F   UNL     1     -11.225 -12.415  -0.944  1.00  0.00    -0.200 F 
ATOM     89  F   UNL     1     -13.925 -12.784  -1.068  1.00  0.00    -0.200 F 
ENDBRANCH  55  79
BRANCH  67  90
ATOM     90  C   UNL     1     -11.438 -15.913   8.364  1.00  0.00     0.064 A 
ATOM     91  C   UNL     1     -10.961 -17.091   7.770  1.00  0.00     0.173 A 
ATOM     92  C   UNL     1     -12.421 -16.032   9.359  1.00  0.00     0.173 A 
ATOM     93  F   UNL     1     -10.031 -17.032   6.805  1.00  0.00    -0.203 F 
ATOM     94  C   UNL     1     -11.475 -18.334   8.132  1.00  0.00     0.198 A 
ATOM     95  C   UNL     1     -12.905 -17.278   9.745  1.00  0.00     0.198 A 
ATOM     96  F   UNL     1     -12.906 -14.938   9.967  1.00  0.00    -0.203 F 
ATOM     97  F   UNL     1     -11.049 -19.440   7.507  1.00  0.00    -0.200 F 
ATOM     98  C   UNL     1     -12.441 -18.427   9.123  1.00  0.00     0.200 A 
ATOM     99  F   UNL     1     -13.824 -17.367  10.717  1.00  0.00    -0.200 F 
ATOM    100  F   UNL     1     -12.930 -19.624   9.474  1.00  0.00    -0.200 F 
ENDBRANCH  67  90
ENDBRANCH  41  42
ENDBRANCH  33  36
ENDBRANCH  31  32
ENDBRANCH  30  31
ENDBRANCH  29  30
ENDBRANCH   1  29
TORSDOF 16
