REMARK SMILES Cc1ccc([C@H](C)NC(=O)[C@H]2[C@@H]3CC[C@@H](C3)[C@@H]2C(=O)NCCCCCCNC(=O)c2ccc(-c3c4nc(c(-c5c(F)c(F)c(F)c(F)c5F)c5ccc([nH]5)c(-c5c(F)c(F)c(F)c(F)c5F)c5nc(c(-c6c(F)c(F)c(F)c(F)c6F)c6ccc3[nH]6)C=C5)C=C4)cc2)cc1
REMARK SMILES IDX 23 1 22 2 21 3 20 4 18 5 19 6 17 8 11 9 12 10 13 11 16 12
REMARK SMILES IDX 15 13 14 14 9 15 8 16 10 18 6 19 7 20 5 21 1 22 2 23 3 24
REMARK SMILES IDX 94 25 4 26 93 27 24 28 25 29 26 30 27 31 28 32 29 34 30 35
REMARK SMILES IDX 31 36 92 37 32 38 91 39 33 40 34 41 35 42 85 43 36 44 90 45
REMARK SMILES IDX 84 46 86 47 37 48 89 49 83 50 82 51 38 53 70 54 50 55 69 56
REMARK SMILES IDX 51 57 54 58 68 59 87 60 52 61 53 62 67 64 88 65 55 66 39 67
REMARK SMILES IDX 40 68 48 69 41 70 42 71 46 72 49 73 43 74 44 75 47 76 45 77
REMARK SMILES IDX 71 78 72 79 80 80 73 81 74 82 78 83 81 84 75 85 76 86 79 87
REMARK SMILES IDX 77 88 56 89 57 90 65 91 58 92 59 93 63 94 66 95 60 96 61 97
REMARK SMILES IDX 64 98 62 99
REMARK H PARENT 20 7 8 17 27 33 86 52 54 63
REMARK Flexibility Score: inf
ROOT
ATOM      1  C   UNL     1      -9.863   0.313   1.737  1.00  0.00     0.002 C 
ENDROOT
BRANCH   1   2
ATOM      2  C   UNL     1      -8.353   0.342   2.025  1.00  0.00     0.021 C 
BRANCH   2   3
ATOM      3  C   UNL     1      -7.479   0.184   0.778  1.00  0.00     0.116 C 
BRANCH   3   4
ATOM      4  N   UNL     1      -7.461   1.411   0.011  1.00  0.00    -0.356 N 
ATOM      5  C   UNL     1      -6.529   2.386  -0.124  1.00  0.00     0.224 C 
ATOM      6  O   UNL     1      -6.849   3.352  -0.825  1.00  0.00    -0.275 OA
ATOM      7  H   UNL     1      -8.280   1.566  -0.513  1.00  0.00     0.163 HD
BRANCH   5   8
ATOM      8  C   UNL     1      -5.098   2.240   0.394  1.00  0.00     0.094 C 
ATOM      9  C   UNL     1      -4.828   1.705   1.804  1.00  0.00     0.094 C 
ATOM     10  C   UNL     1      -3.917   2.781   2.448  1.00  0.00     0.002 C 
ATOM     11  C   UNL     1      -4.788   4.008   2.780  1.00  0.00     0.005 C 
ATOM     12  C   UNL     1      -3.114   3.312   1.267  1.00  0.00     0.009 C 
ATOM     13  C   UNL     1      -4.362   3.617   0.438  1.00  0.00     0.002 C 
ATOM     14  C   UNL     1      -5.087   4.593   1.392  1.00  0.00     0.005 C 
BRANCH   9  15
ATOM     15  C   UNL     1      -4.250   0.296   1.982  1.00  0.00     0.224 C 
ATOM     16  N   UNL     1      -3.429  -0.370   1.142  1.00  0.00    -0.349 N 
ATOM     17  H   UNL     1      -3.251  -1.287   1.454  1.00  0.00     0.164 HD
ATOM     18  O   UNL     1      -4.549  -0.319   3.018  1.00  0.00    -0.275 OA
BRANCH  16  19
ATOM     19  C   UNL     1      -2.738  -0.078  -0.112  1.00  0.00     0.109 C 
ATOM     20  C   UNL     1      -1.249  -0.406   0.034  1.00  0.00     0.036 C 
BRANCH  19  21
ATOM     21  C   UNL     1      -3.345  -0.824  -1.291  1.00  0.00    -0.026 A 
ATOM     22  C   UNL     1      -4.741  -2.847  -4.858  1.00  0.00     0.044 C 
ATOM     23  C   UNL     1      -4.293  -2.159  -3.602  1.00  0.00    -0.051 A 
ATOM     24  C   UNL     1      -4.318  -0.764  -3.529  1.00  0.00     0.004 A 
ATOM     25  C   UNL     1      -3.825  -2.884  -2.502  1.00  0.00     0.004 A 
ATOM     26  C   UNL     1      -3.842  -0.106  -2.392  1.00  0.00     0.006 A 
ATOM     27  C   UNL     1      -3.362  -2.225  -1.356  1.00  0.00     0.006 A 
ENDBRANCH  19  21
ENDBRANCH  16  19
ENDBRANCH   9  15
ENDBRANCH   5   8
ENDBRANCH   3   4
ENDBRANCH   2   3
ENDBRANCH   1   2
BRANCH   1  28
ATOM     28  C   UNL     1     -10.385  -0.933   1.001  1.00  0.00     0.002 C 
BRANCH  28  29
ATOM     29  C   UNL     1      -9.941  -2.280   1.580  1.00  0.00     0.021 C 
BRANCH  29  30
ATOM     30  C   UNL     1     -10.572  -2.598   2.928  1.00  0.00     0.116 C 
BRANCH  30  31
ATOM     31  N   UNL     1     -11.817  -3.349   2.837  1.00  0.00    -0.352 N 
ATOM     32  C   UNL     1     -12.759  -3.640   3.812  1.00  0.00     0.251 C 
ATOM     33  H   UNL     1     -12.022  -3.705   1.943  1.00  0.00     0.163 HD
ATOM     34  O   UNL     1     -13.700  -4.365   3.554  1.00  0.00    -0.269 OA
BRANCH  32  35
ATOM     35  C   UNL     1     -12.688  -2.955   5.129  1.00  0.00     0.039 A 
ATOM     36  C   UNL     1     -13.878  -2.452   5.675  1.00  0.00     0.014 A 
ATOM     37  C   UNL     1     -11.468  -2.644   5.719  1.00  0.00     0.014 A 
ATOM     38  C   UNL     1     -13.822  -1.454   6.647  1.00  0.00     0.010 A 
ATOM     39  C   UNL     1     -11.404  -1.579   6.591  1.00  0.00     0.010 A 
ATOM     40  C   UNL     1     -12.578  -0.946   7.012  1.00  0.00    -0.014 A 
BRANCH  40  41
ATOM     41  C   UNL     1     -12.389   0.297   7.746  1.00  0.00     0.031 A 
ATOM     42  C   UNL     1     -11.905   0.281   9.142  1.00  0.00     0.074 A 
ATOM     43  C   UNL     1     -12.510   1.475   7.093  1.00  0.00     0.049 A 
ATOM     44  N   UNL     1     -12.061   1.260   9.968  1.00  0.00    -0.248 NA
ATOM     45  C   UNL     1     -11.230  -0.865   9.737  1.00  0.00     0.031 C 
ATOM     46  C   UNL     1     -12.005   2.774   7.529  1.00  0.00     0.029 A 
ATOM     47  N   UNL     1     -13.272   1.764   5.948  1.00  0.00    -0.354 N 
ATOM     48  C   UNL     1     -11.283   1.008  11.076  1.00  0.00     0.074 A 
ATOM     49  C   UNL     1     -10.847  -0.360  10.915  1.00  0.00     0.031 C 
ATOM     50  C   UNL     1     -12.666   3.741   6.877  1.00  0.00     0.029 A 
ATOM     51  C   UNL     1     -13.719   3.097   6.115  1.00  0.00     0.049 A 
ATOM     52  H   UNL     1     -13.458   1.165   5.189  1.00  0.00     0.167 HD
ATOM     53  C   UNL     1     -10.993   2.035  11.928  1.00  0.00     0.037 A 
ATOM     54  C   UNL     1     -15.043   3.413   6.203  1.00  0.00     0.037 A 
ATOM     55  C   UNL     1     -11.628   3.275  11.486  1.00  0.00     0.049 A 
ATOM     56  C   UNL     1     -15.423   4.142   7.467  1.00  0.00     0.074 A 
ATOM     57  C   UNL     1     -11.149   4.370  10.784  1.00  0.00     0.029 A 
ATOM     58  N   UNL     1     -13.011   3.392  11.506  1.00  0.00    -0.354 N 
ATOM     59  N   UNL     1     -14.714   4.109   8.560  1.00  0.00    -0.248 NA
ATOM     60  C   UNL     1     -16.636   4.939   7.614  1.00  0.00     0.031 C 
ATOM     61  C   UNL     1     -12.255   5.159  10.391  1.00  0.00     0.029 A 
ATOM     62  C   UNL     1     -13.404   4.545  10.857  1.00  0.00     0.049 A 
ATOM     63  H   UNL     1     -13.625   2.745  11.923  1.00  0.00     0.167 HD
ATOM     64  C   UNL     1     -15.341   4.838   9.540  1.00  0.00     0.074 A 
ATOM     65  C   UNL     1     -16.532   5.351   8.890  1.00  0.00     0.031 C 
ATOM     66  C   UNL     1     -14.806   4.932  10.795  1.00  0.00     0.037 A 
BRANCH  53  67
ATOM     67  C   UNL     1      -9.915   2.016  12.995  1.00  0.00     0.064 A 
ATOM     68  C   UNL     1      -9.319   3.220  13.440  1.00  0.00     0.173 A 
ATOM     69  C   UNL     1      -9.390   0.856  13.592  1.00  0.00     0.173 A 
ATOM     70  F   UNL     1      -9.792   4.418  13.075  1.00  0.00    -0.203 F 
ATOM     71  C   UNL     1      -8.210   3.246  14.291  1.00  0.00     0.198 A 
ATOM     72  C   UNL     1      -8.252   0.876  14.407  1.00  0.00     0.198 A 
ATOM     73  F   UNL     1      -9.998  -0.329  13.470  1.00  0.00    -0.203 F 
ATOM     74  F   UNL     1      -7.683   4.422  14.660  1.00  0.00    -0.200 F 
ATOM     75  C   UNL     1      -7.651   2.071  14.743  1.00  0.00     0.200 A 
ATOM     76  F   UNL     1      -7.747  -0.277  14.869  1.00  0.00    -0.200 F 
ATOM     77  F   UNL     1      -6.564   2.091  15.524  1.00  0.00    -0.200 F 
ENDBRANCH  53  67
BRANCH  54  78
ATOM     78  C   UNL     1     -15.916   2.466   5.468  1.00  0.00     0.064 A 
ATOM     79  C   UNL     1     -15.831   2.443   4.063  1.00  0.00     0.173 A 
ATOM     80  C   UNL     1     -16.471   1.351   6.106  1.00  0.00     0.173 A 
ATOM     81  F   UNL     1     -15.303   3.489   3.408  1.00  0.00    -0.203 F 
ATOM     82  C   UNL     1     -16.170   1.303   3.339  1.00  0.00     0.198 A 
ATOM     83  C   UNL     1     -16.817   0.213   5.375  1.00  0.00     0.198 A 
ATOM     84  F   UNL     1     -16.561   1.311   7.443  1.00  0.00    -0.203 F 
ATOM     85  F   UNL     1     -15.971   1.269   2.014  1.00  0.00    -0.200 F 
ATOM     86  C   UNL     1     -16.632   0.177   4.000  1.00  0.00     0.200 A 
ATOM     87  F   UNL     1     -17.239  -0.887   6.016  1.00  0.00    -0.200 F 
ATOM     88  F   UNL     1     -16.861  -0.955   3.319  1.00  0.00    -0.200 F 
ENDBRANCH  54  78
BRANCH  66  89
ATOM     89  C   UNL     1     -15.456   5.465  12.059  1.00  0.00     0.064 A 
ATOM     90  C   UNL     1     -16.838   5.634  12.241  1.00  0.00     0.173 A 
ATOM     91  C   UNL     1     -14.671   5.700  13.222  1.00  0.00     0.173 A 
ATOM     92  F   UNL     1     -17.715   5.346  11.273  1.00  0.00    -0.203 F 
ATOM     93  C   UNL     1     -17.384   6.050  13.462  1.00  0.00     0.198 A 
ATOM     94  C   UNL     1     -15.225   6.053  14.452  1.00  0.00     0.198 A 
ATOM     95  F   UNL     1     -13.338   5.563  13.218  1.00  0.00    -0.203 F 
ATOM     96  F   UNL     1     -18.709   6.230  13.566  1.00  0.00    -0.200 F 
ATOM     97  C   UNL     1     -16.582   6.244  14.569  1.00  0.00     0.200 A 
ATOM     98  F   UNL     1     -14.431   6.185  15.525  1.00  0.00    -0.200 F 
ATOM     99  F   UNL     1     -17.117   6.589  15.748  1.00  0.00    -0.200 F 
ENDBRANCH  66  89
ENDBRANCH  40  41
ENDBRANCH  32  35
ENDBRANCH  30  31
ENDBRANCH  29  30
ENDBRANCH  28  29
ENDBRANCH   1  28
TORSDOF 16
