REMARK SMILES C[C@@H]1CCC[C@@H](N(C)C(=O)N2CCC(CC(=O)NCCCCCCNC(=O)c3ccc(-c4c5nc(c(-c6c(F)c(F)c(F)c(F)c6F)c6ccc([nH]6)c(-c6c(F)c(F)c(F)c(F)c6F)c6nc(c(-c7c(F)c(F)c(F)c(F)c7F)c7ccc4[nH]7)C=C6)C=C5)cc3)CC2)C1
REMARK SMILES IDX 21 1 20 2 19 3 18 4 16 5 17 6 15 8 14 9 9 10 10 11 11 12
REMARK SMILES IDX 12 13 92 14 13 15 91 16 7 17 8 18 6 19 1 20 2 21 3 22 93 23
REMARK SMILES IDX 4 24 5 25 22 26 23 27 24 28 25 29 26 30 27 32 28 33 29 34
REMARK SMILES IDX 90 35 30 36 89 37 31 38 32 39 33 40 83 41 34 42 88 43 82 44
REMARK SMILES IDX 84 45 35 46 87 47 81 48 80 49 36 51 68 52 48 53 67 54 49 55
REMARK SMILES IDX 52 56 66 57 85 58 50 59 51 60 65 62 86 63 53 64 37 65 38 66
REMARK SMILES IDX 46 67 39 68 40 69 44 70 47 71 41 72 42 73 45 74 43 75 69 76
REMARK SMILES IDX 70 77 78 78 71 79 72 80 76 81 79 82 73 83 74 84 77 85 75 86
REMARK SMILES IDX 54 87 55 88 63 89 56 90 57 91 61 92 64 93 58 94 59 95 62 96
REMARK SMILES IDX 60 97
REMARK H PARENT 18 7 25 31 84 50 52 61
REMARK Flexibility Score: inf
ROOT
ATOM      1  C   UNL     1      -1.978  -7.303  -7.338  1.00  0.00     0.002 C 
ENDROOT
BRANCH   1   2
ATOM      2  C   UNL     1      -2.537  -6.312  -6.320  1.00  0.00     0.021 C 
BRANCH   2   3
ATOM      3  C   UNL     1      -3.483  -5.253  -6.901  1.00  0.00     0.116 C 
BRANCH   3   4
ATOM      4  N   UNL     1      -4.866  -5.681  -6.778  1.00  0.00    -0.356 N 
ATOM      5  C   UNL     1      -5.864  -5.242  -5.959  1.00  0.00     0.220 C 
ATOM      6  O   UNL     1      -6.926  -5.867  -5.953  1.00  0.00    -0.275 OA
ATOM      7  H   UNL     1      -5.126  -6.409  -7.388  1.00  0.00     0.163 HD
BRANCH   5   8
ATOM      8  C   UNL     1      -5.685  -4.009  -5.085  1.00  0.00     0.103 C 
BRANCH   8   9
ATOM      9  C   UNL     1      -5.211  -4.311  -3.648  1.00  0.00     0.002 C 
ATOM     10  C   UNL     1      -2.311  -2.824  -1.316  1.00  0.00     0.319 C 
ATOM     11  O   UNL     1      -1.544  -2.573  -2.242  1.00  0.00    -0.248 OA
ATOM     12  N   UNL     1      -3.361  -3.712  -1.478  1.00  0.00    -0.325 N 
ATOM     13  C   UNL     1      -3.157  -4.911  -2.252  1.00  0.00     0.121 C 
ATOM     14  C   UNL     1      -4.743  -3.267  -1.360  1.00  0.00     0.121 C 
ATOM     15  C   UNL     1      -3.752  -4.774  -3.638  1.00  0.00     0.026 C 
ATOM     16  C   UNL     1      -5.374  -3.071  -2.746  1.00  0.00     0.026 C 
BRANCH  10  17
ATOM     17  N   UNL     1      -2.185  -2.297  -0.037  1.00  0.00    -0.325 N 
ATOM     18  C   UNL     1      -2.813  -2.927   1.119  1.00  0.00     0.149 C 
BRANCH  17  19
ATOM     19  C   UNL     1      -1.351  -1.119   0.239  1.00  0.00     0.086 C 
ATOM     20  C   UNL     1       1.164  -0.045   1.848  1.00  0.00     0.008 C 
ATOM     21  C   UNL     1       0.973  -0.072   0.329  1.00  0.00    -0.012 C 
ATOM     22  C   UNL     1       0.366   1.242  -0.194  1.00  0.00     0.003 C 
ATOM     23  C   UNL     1       0.135  -1.284  -0.119  1.00  0.00     0.028 C 
ATOM     24  C   UNL     1      -1.133   1.380   0.077  1.00  0.00     0.002 C 
ATOM     25  C   UNL     1      -1.919   0.156  -0.393  1.00  0.00     0.025 C 
ENDBRANCH  17  19
ENDBRANCH  10  17
ENDBRANCH   8   9
ENDBRANCH   5   8
ENDBRANCH   3   4
ENDBRANCH   2   3
ENDBRANCH   1   2
BRANCH   1  26
ATOM     26  C   UNL     1      -0.986  -6.710  -8.338  1.00  0.00     0.002 C 
BRANCH  26  27
ATOM     27  C   UNL     1       0.208  -5.974  -7.722  1.00  0.00     0.021 C 
BRANCH  27  28
ATOM     28  C   UNL     1       1.009  -6.781  -6.703  1.00  0.00     0.116 C 
BRANCH  28  29
ATOM     29  N   UNL     1       1.572  -7.990  -7.285  1.00  0.00    -0.352 N 
ATOM     30  C   UNL     1       2.886  -8.338  -7.473  1.00  0.00     0.251 C 
ATOM     31  H   UNL     1       0.913  -8.656  -7.588  1.00  0.00     0.163 HD
ATOM     32  O   UNL     1       3.181  -9.291  -8.184  1.00  0.00    -0.269 OA
BRANCH  30  33
ATOM     33  C   UNL     1       3.950  -7.550  -6.820  1.00  0.00     0.039 A 
ATOM     34  C   UNL     1       5.061  -7.155  -7.569  1.00  0.00     0.014 A 
ATOM     35  C   UNL     1       3.854  -7.211  -5.468  1.00  0.00     0.014 A 
ATOM     36  C   UNL     1       6.048  -6.365  -6.976  1.00  0.00     0.010 A 
ATOM     37  C   UNL     1       4.802  -6.367  -4.898  1.00  0.00     0.010 A 
ATOM     38  C   UNL     1       5.909  -5.938  -5.646  1.00  0.00    -0.014 A 
BRANCH  38  39
ATOM     39  C   UNL     1       6.909  -5.041  -5.014  1.00  0.00     0.031 A 
ATOM     40  C   UNL     1       7.719  -5.523  -3.844  1.00  0.00     0.074 A 
ATOM     41  C   UNL     1       7.033  -3.772  -5.447  1.00  0.00     0.049 A 
ATOM     42  N   UNL     1       8.574  -4.866  -3.100  1.00  0.00    -0.248 NA
ATOM     43  C   UNL     1       7.523  -6.923  -3.438  1.00  0.00     0.031 C 
ATOM     44  C   UNL     1       6.271  -3.176  -6.546  1.00  0.00     0.029 A 
ATOM     45  N   UNL     1       7.833  -2.748  -5.004  1.00  0.00    -0.354 N 
ATOM     46  C   UNL     1       9.002  -5.766  -2.133  1.00  0.00     0.074 A 
ATOM     47  C   UNL     1       8.277  -6.999  -2.351  1.00  0.00     0.031 C 
ATOM     48  C   UNL     1       6.652  -1.898  -6.702  1.00  0.00     0.029 A 
ATOM     49  C   UNL     1       7.651  -1.572  -5.690  1.00  0.00     0.049 A 
ATOM     50  H   UNL     1       8.476  -2.848  -4.265  1.00  0.00     0.167 HD
ATOM     51  C   UNL     1       9.932  -5.586  -1.165  1.00  0.00     0.037 A 
ATOM     52  C   UNL     1       8.218  -0.363  -5.512  1.00  0.00     0.037 A 
ATOM     53  C   UNL     1      10.665  -4.363  -0.967  1.00  0.00     0.049 A 
ATOM     54  C   UNL     1       9.237  -0.185  -4.418  1.00  0.00     0.074 A 
ATOM     55  C   UNL     1      11.669  -4.097  -0.053  1.00  0.00     0.029 A 
ATOM     56  N   UNL     1      10.467  -3.197  -1.694  1.00  0.00    -0.354 N 
ATOM     57  N   UNL     1       9.686  -1.062  -3.554  1.00  0.00    -0.248 NA
ATOM     58  C   UNL     1       9.833   1.151  -4.280  1.00  0.00     0.031 C 
ATOM     59  C   UNL     1      12.043  -2.757  -0.192  1.00  0.00     0.029 A 
ATOM     60  C   UNL     1      11.314  -2.203  -1.232  1.00  0.00     0.049 A 
ATOM     61  H   UNL     1       9.820  -3.093  -2.429  1.00  0.00     0.167 HD
ATOM     62  C   UNL     1      10.637  -0.397  -2.792  1.00  0.00     0.074 A 
ATOM     63  C   UNL     1      10.709   0.956  -3.304  1.00  0.00     0.031 C 
ATOM     64  C   UNL     1      11.383  -0.865  -1.762  1.00  0.00     0.037 A 
BRANCH  51  65
ATOM     65  C   UNL     1      10.211  -6.739  -0.245  1.00  0.00     0.064 A 
ATOM     66  C   UNL     1      10.856  -7.902  -0.695  1.00  0.00     0.173 A 
ATOM     67  C   UNL     1       9.864  -6.667   1.113  1.00  0.00     0.173 A 
ATOM     68  F   UNL     1      11.200  -8.027  -1.986  1.00  0.00    -0.203 F 
ATOM     69  C   UNL     1      11.115  -8.960   0.172  1.00  0.00     0.198 A 
ATOM     70  C   UNL     1      10.154  -7.714   1.984  1.00  0.00     0.198 A 
ATOM     71  F   UNL     1       9.253  -5.577   1.599  1.00  0.00    -0.203 F 
ATOM     72  F   UNL     1      11.685 -10.080  -0.292  1.00  0.00    -0.200 F 
ATOM     73  C   UNL     1      10.771  -8.863   1.512  1.00  0.00     0.200 A 
ATOM     74  F   UNL     1       9.835  -7.612   3.282  1.00  0.00    -0.200 F 
ATOM     75  F   UNL     1      11.029  -9.878   2.347  1.00  0.00    -0.200 F 
ENDBRANCH  51  65
BRANCH  52  76
ATOM     76  C   UNL     1       7.849   0.769  -6.402  1.00  0.00     0.064 A 
ATOM     77  C   UNL     1       8.770   1.290  -7.322  1.00  0.00     0.173 A 
ATOM     78  C   UNL     1       6.577   1.356  -6.351  1.00  0.00     0.173 A 
ATOM     79  F   UNL     1      10.007   0.776  -7.395  1.00  0.00    -0.203 F 
ATOM     80  C   UNL     1       8.440   2.368  -8.141  1.00  0.00     0.198 A 
ATOM     81  C   UNL     1       6.237   2.414  -7.191  1.00  0.00     0.198 A 
ATOM     82  F   UNL     1       5.657   0.892  -5.492  1.00  0.00    -0.203 F 
ATOM     83  F   UNL     1       9.355   2.876  -8.976  1.00  0.00    -0.200 F 
ATOM     84  C   UNL     1       7.172   2.925  -8.079  1.00  0.00     0.200 A 
ATOM     85  F   UNL     1       5.006   2.941  -7.139  1.00  0.00    -0.200 F 
ATOM     86  F   UNL     1       6.854   3.960  -8.869  1.00  0.00    -0.200 F 
ENDBRANCH  52  76
BRANCH  64  87
ATOM     87  C   UNL     1      12.377   0.076  -1.146  1.00  0.00     0.064 A 
ATOM     88  C   UNL     1      11.976   1.156  -0.345  1.00  0.00     0.173 A 
ATOM     89  C   UNL     1      13.754  -0.137  -1.319  1.00  0.00     0.173 A 
ATOM     90  F   UNL     1      10.671   1.411  -0.162  1.00  0.00    -0.203 F 
ATOM     91  C   UNL     1      12.915   2.000   0.241  1.00  0.00     0.198 A 
ATOM     92  C   UNL     1      14.690   0.689  -0.705  1.00  0.00     0.198 A 
ATOM     93  F   UNL     1      14.191  -1.160  -2.069  1.00  0.00    -0.203 F 
ATOM     94  F   UNL     1      12.508   3.051   0.965  1.00  0.00    -0.200 F 
ATOM     95  C   UNL     1      14.271   1.760   0.069  1.00  0.00     0.200 A 
ATOM     96  F   UNL     1      15.999   0.447  -0.860  1.00  0.00    -0.200 F 
ATOM     97  F   UNL     1      15.173   2.567   0.644  1.00  0.00    -0.200 F 
ENDBRANCH  64  87
ENDBRANCH  38  39
ENDBRANCH  30  33
ENDBRANCH  28  29
ENDBRANCH  27  28
ENDBRANCH  26  27
ENDBRANCH   1  26
TORSDOF 16
