REMARK SMILES COc1cccc([C@H]2CC(c3ccc(S(C)(=O)=O)cc3)=NN2c2ccc(C(=O)NCCCCCCNC(=O)c3ccc(-c4c5nc(c(-c6c(F)c(F)c(F)c(F)c6F)c6ccc([nH]6)c(-c6c(F)c(F)c(F)c(F)c6F)c6nc(c(-c7c(F)c(F)c(F)c(F)c7F)c7ccc4[nH]7)C=C6)C=C5)cc3)cc2)c1
REMARK SMILES IDX 32 1 31 2 30 3 29 4 27 5 28 6 26 8 23 9 24 10 103 11 25 12
REMARK SMILES IDX 102 13 22 14 8 15 9 16 10 17 21 18 7 19 3 20 4 21 104 22
REMARK SMILES IDX 5 23 6 24 2 25 1 26 11 27 12 28 20 29 13 30 19 31 14 32
REMARK SMILES IDX 15 33 16 34 17 35 18 36 33 37 34 38 35 39 36 40 37 41 38 43
REMARK SMILES IDX 39 44 40 45 101 46 41 47 100 48 42 49 43 50 44 51 94 52
REMARK SMILES IDX 45 53 99 54 93 55 95 56 46 57 98 58 92 59 91 60 47 62 79 63
REMARK SMILES IDX 59 64 78 65 60 66 63 67 77 68 96 69 61 70 62 71 76 73 97 74
REMARK SMILES IDX 64 75 48 76 49 77 57 78 50 79 51 80 55 81 58 82 52 83 53 84
REMARK SMILES IDX 56 85 54 86 80 87 81 88 89 89 82 90 83 91 87 92 90 93 84 94
REMARK SMILES IDX 85 95 88 96 86 97 65 98 66 99 74 100 67 101 68 102 72 103
REMARK SMILES IDX 75 104 69 105 70 106 73 107 71 108
REMARK H PARENT 29 7 36 42 95 61 63 72
REMARK Flexibility Score: inf
ROOT
ATOM      1  C   UNL     1       5.295   8.837   7.944  1.00  0.00     0.002 C 
ENDROOT
BRANCH   1   2
ATOM      2  C   UNL     1       5.242   7.367   7.506  1.00  0.00     0.021 C 
BRANCH   2   3
ATOM      3  C   UNL     1       4.016   7.038   6.651  1.00  0.00     0.116 C 
BRANCH   3   4
ATOM      4  N   UNL     1       4.213   7.529   5.302  1.00  0.00    -0.352 N 
ATOM      5  C   UNL     1       4.558   6.908   4.131  1.00  0.00     0.251 C 
ATOM      6  O   UNL     1       4.678   7.617   3.131  1.00  0.00    -0.269 OA
ATOM      7  H   UNL     1       4.071   8.498   5.210  1.00  0.00     0.163 HD
BRANCH   5   8
ATOM      8  C   UNL     1       4.722   5.434   4.000  1.00  0.00     0.039 A 
ATOM      9  C   UNL     1       4.861   2.641   3.579  1.00  0.00     0.060 A 
ATOM     10  C   UNL     1       4.523   3.506   2.535  1.00  0.00     0.029 A 
ATOM     11  C   UNL     1       5.192   3.195   4.817  1.00  0.00     0.029 A 
ATOM     12  C   UNL     1       4.434   4.883   2.745  1.00  0.00     0.016 A 
ATOM     13  C   UNL     1       5.164   4.582   5.016  1.00  0.00     0.016 A 
BRANCH   9  14
ATOM     14  N   UNL     1       4.875   1.276   3.357  1.00  0.00    -0.257 N 
ATOM     15  C   UNL     1       4.038   0.310   4.068  1.00  0.00     0.144 C 
ATOM     16  C   UNL     1       4.566  -1.034   3.547  1.00  0.00     0.091 C 
ATOM     17  C   UNL     1       5.748  -0.556   2.753  1.00  0.00     0.071 C 
ATOM     18  N   UNL     1       5.900   0.727   2.662  1.00  0.00    -0.176 NA
BRANCH  15  19
ATOM     19  C   UNL     1       2.564   0.532   3.776  1.00  0.00    -0.019 A 
ATOM     20  C   UNL     1       0.727   0.784   2.188  1.00  0.00     0.119 A 
ATOM     21  C   UNL     1      -0.139   1.060   3.245  1.00  0.00     0.046 A 
ATOM     22  C   UNL     1       2.074   0.534   2.453  1.00  0.00     0.052 A 
ATOM     23  C   UNL     1       0.325   1.055   4.560  1.00  0.00     0.004 A 
ATOM     24  C   UNL     1       1.669   0.789   4.825  1.00  0.00     0.006 A 
BRANCH  20  25
ATOM     25  O   UNL     1       0.157   0.826   0.945  1.00  0.00    -0.497 OA
ATOM     26  C   UNL     1       0.837   0.107  -0.078  1.00  0.00     0.278 C 
ENDBRANCH  20  25
ENDBRANCH  15  19
BRANCH  17  27
ATOM     27  C   UNL     1       6.693  -1.498   2.151  1.00  0.00    -0.002 A 
ATOM     28  C   UNL     1       8.038  -1.420   2.526  1.00  0.00     0.011 A 
ATOM     29  C   UNL     1       6.261  -2.420   1.197  1.00  0.00     0.011 A 
ATOM     30  C   UNL     1       8.964  -2.288   1.953  1.00  0.00     0.021 A 
ATOM     31  C   UNL     1       7.192  -3.273   0.601  1.00  0.00     0.021 A 
ATOM     32  C   UNL     1       8.538  -3.199   0.981  1.00  0.00     0.067 A 
BRANCH  32  33
ATOM     33  S   UNL     1       9.733  -4.288   0.240  1.00  0.00     0.175 S 
ATOM     34  C   UNL     1      10.878  -3.196  -0.564  1.00  0.00     0.163 C 
ATOM     35  O   UNL     1      10.418  -4.955   1.329  1.00  0.00    -0.224 OA
ATOM     36  O   UNL     1       9.052  -5.046  -0.794  1.00  0.00    -0.224 OA
ENDBRANCH  32  33
ENDBRANCH  17  27
ENDBRANCH   9  14
ENDBRANCH   5   8
ENDBRANCH   3   4
ENDBRANCH   2   3
ENDBRANCH   1   2
BRANCH   1  37
ATOM     37  C   UNL     1       4.156   9.271   8.875  1.00  0.00     0.002 C 
BRANCH  37  38
ATOM     38  C   UNL     1       4.008   8.436  10.150  1.00  0.00     0.021 C 
BRANCH  38  39
ATOM     39  C   UNL     1       5.232   8.450  11.060  1.00  0.00     0.116 C 
BRANCH  39  40
ATOM     40  N   UNL     1       5.490   9.774  11.599  1.00  0.00    -0.352 N 
ATOM     41  C   UNL     1       5.707  10.160  12.897  1.00  0.00     0.251 C 
ATOM     42  H   UNL     1       5.511  10.501  10.936  1.00  0.00     0.163 HD
ATOM     43  O   UNL     1       5.701  11.351  13.193  1.00  0.00    -0.269 OA
BRANCH  41  44
ATOM     44  C   UNL     1       5.936   9.145  13.947  1.00  0.00     0.039 A 
ATOM     45  C   UNL     1       5.324   9.319  15.191  1.00  0.00     0.014 A 
ATOM     46  C   UNL     1       6.781   8.052  13.729  1.00  0.00     0.014 A 
ATOM     47  C   UNL     1       5.528   8.379  16.202  1.00  0.00     0.010 A 
ATOM     48  C   UNL     1       6.932   7.081  14.716  1.00  0.00     0.010 A 
ATOM     49  C   UNL     1       6.318   7.242  15.966  1.00  0.00    -0.014 A 
BRANCH  49  50
ATOM     50  C   UNL     1       6.512   6.225  17.030  1.00  0.00     0.031 A 
ATOM     51  C   UNL     1       7.867   6.014  17.644  1.00  0.00     0.074 A 
ATOM     52  C   UNL     1       5.467   5.471  17.421  1.00  0.00     0.049 A 
ATOM     53  N   UNL     1       8.225   5.187  18.595  1.00  0.00    -0.248 NA
ATOM     54  C   UNL     1       8.973   6.818  17.102  1.00  0.00     0.031 C 
ATOM     55  C   UNL     1       4.119   5.539  16.857  1.00  0.00     0.029 A 
ATOM     56  N   UNL     1       5.376   4.500  18.386  1.00  0.00    -0.354 N 
ATOM     57  C   UNL     1       9.593   5.365  18.756  1.00  0.00     0.074 A 
ATOM     58  C   UNL     1      10.012   6.337  17.770  1.00  0.00     0.031 C 
ATOM     59  C   UNL     1       3.326   4.672  17.508  1.00  0.00     0.029 A 
ATOM     60  C   UNL     1       4.115   3.973  18.518  1.00  0.00     0.049 A 
ATOM     61  H   UNL     1       6.141   4.208  18.932  1.00  0.00     0.167 HD
ATOM     62  C   UNL     1      10.419   4.790  19.663  1.00  0.00     0.037 A 
ATOM     63  C   UNL     1       3.645   3.041  19.368  1.00  0.00     0.037 A 
ATOM     64  C   UNL     1       9.994   3.843  20.660  1.00  0.00     0.049 A 
ATOM     65  C   UNL     1       4.575   2.446  20.390  1.00  0.00     0.074 A 
ATOM     66  C   UNL     1      10.742   3.242  21.658  1.00  0.00     0.029 A 
ATOM     67  N   UNL     1       8.699   3.361  20.787  1.00  0.00    -0.354 N 
ATOM     68  N   UNL     1       5.850   2.679  20.583  1.00  0.00    -0.248 NA
ATOM     69  C   UNL     1       3.994   1.473  21.324  1.00  0.00     0.031 C 
ATOM     70  C   UNL     1       9.907   2.370  22.366  1.00  0.00     0.029 A 
ATOM     71  C   UNL     1       8.629   2.463  21.840  1.00  0.00     0.049 A 
ATOM     72  H   UNL     1       7.941   3.620  20.214  1.00  0.00     0.167 HD
ATOM     73  C   UNL     1       6.217   1.908  21.678  1.00  0.00     0.074 A 
ATOM     74  C   UNL     1       5.025   1.211  22.114  1.00  0.00     0.031 C 
ATOM     75  C   UNL     1       7.431   1.787  22.268  1.00  0.00     0.037 A 
BRANCH  62  76
ATOM     76  C   UNL     1      11.869   5.178  19.622  1.00  0.00     0.064 A 
ATOM     77  C   UNL     1      12.298   6.456  20.013  1.00  0.00     0.173 A 
ATOM     78  C   UNL     1      12.845   4.253  19.221  1.00  0.00     0.173 A 
ATOM     79  F   UNL     1      11.404   7.381  20.393  1.00  0.00    -0.203 F 
ATOM     80  C   UNL     1      13.646   6.803  19.975  1.00  0.00     0.198 A 
ATOM     81  C   UNL     1      14.196   4.595  19.213  1.00  0.00     0.198 A 
ATOM     82  F   UNL     1      12.491   3.016  18.843  1.00  0.00    -0.203 F 
ATOM     83  F   UNL     1      14.026   8.045  20.305  1.00  0.00    -0.200 F 
ATOM     84  C   UNL     1      14.594   5.871  19.582  1.00  0.00     0.200 A 
ATOM     85  F   UNL     1      15.112   3.689  18.843  1.00  0.00    -0.200 F 
ATOM     86  F   UNL     1      15.892   6.204  19.551  1.00  0.00    -0.200 F 
ENDBRANCH  62  76
BRANCH  63  87
ATOM     87  C   UNL     1       2.212   2.656  19.325  1.00  0.00     0.064 A 
ATOM     88  C   UNL     1       1.335   3.036  20.351  1.00  0.00     0.173 A 
ATOM     89  C   UNL     1       1.688   1.907  18.262  1.00  0.00     0.173 A 
ATOM     90  F   UNL     1       1.794   3.739  21.397  1.00  0.00    -0.203 F 
ATOM     91  C   UNL     1      -0.007   2.663  20.326  1.00  0.00     0.198 A 
ATOM     92  C   UNL     1       0.340   1.556  18.225  1.00  0.00     0.198 A 
ATOM     93  F   UNL     1       2.485   1.526  17.253  1.00  0.00    -0.203 F 
ATOM     94  F   UNL     1      -0.813   3.002  21.341  1.00  0.00    -0.200 F 
ATOM     95  C   UNL     1      -0.504   1.928  19.261  1.00  0.00     0.200 A 
ATOM     96  F   UNL     1      -0.140   0.859  17.187  1.00  0.00    -0.200 F 
ATOM     97  F   UNL     1      -1.796   1.572  19.235  1.00  0.00    -0.200 F 
ENDBRANCH  63  87
BRANCH  75  98
ATOM     98  C   UNL     1       7.520   0.900  23.475  1.00  0.00     0.064 A 
ATOM     99  C   UNL     1       7.441  -0.496  23.371  1.00  0.00     0.173 A 
ATOM    100  C   UNL     1       7.708   1.456  24.749  1.00  0.00     0.173 A 
ATOM    101  F   UNL     1       7.248  -1.075  22.176  1.00  0.00    -0.203 F 
ATOM    102  C   UNL     1       7.515  -1.303  24.503  1.00  0.00     0.198 A 
ATOM    103  C   UNL     1       7.810   0.645  25.876  1.00  0.00     0.198 A 
ATOM    104  F   UNL     1       7.796   2.786  24.901  1.00  0.00    -0.203 F 
ATOM    105  F   UNL     1       7.383  -2.631  24.387  1.00  0.00    -0.200 F 
ATOM    106  C   UNL     1       7.704  -0.732  25.753  1.00  0.00     0.200 A 
ATOM    107  F   UNL     1       8.004   1.197  27.082  1.00  0.00    -0.200 F 
ATOM    108  F   UNL     1       7.775  -1.510  26.842  1.00  0.00    -0.200 F 
ENDBRANCH  75  98
ENDBRANCH  49  50
ENDBRANCH  41  44
ENDBRANCH  39  40
ENDBRANCH  38  39
ENDBRANCH  37  38
ENDBRANCH   1  37
TORSDOF 18
