REMARK SMILES CSc1ccc(CNc2ccc(N3CCOCC3)c(C(=O)NCCCCCCNC(=O)c3ccc(-c4c5nc(c(-c6c(F)c(F)c(F)c(F)c6F)c6ccc([nH]6)c(-c6c(F)c(F)c(F)c(F)c6F)c6nc(c(-c7c(F)c(F)c(F)c(F)c7F)c7ccc4[nH]7)C=C6)C=C5)cc3)c2)cc1
REMARK SMILES IDX 24 1 23 2 22 3 20 4 21 5 19 7 9 8 10 9 95 10 11 11 12 12
REMARK SMILES IDX 8 13 7 15 6 16 3 17 4 18 97 19 5 20 96 21 2 22 1 23 13 24
REMARK SMILES IDX 14 25 18 26 15 27 17 28 16 29 25 30 26 31 27 32 28 33 29 34
REMARK SMILES IDX 30 35 31 37 32 38 33 39 94 40 34 41 93 42 35 43 36 44 37 45
REMARK SMILES IDX 87 46 38 47 92 48 86 49 88 50 39 51 91 52 85 53 84 54 40 56
REMARK SMILES IDX 72 57 52 58 71 59 53 60 56 61 70 62 89 63 54 64 55 65 69 67
REMARK SMILES IDX 90 68 57 69 41 70 42 71 50 72 43 73 44 74 48 75 51 76 45 77
REMARK SMILES IDX 46 78 49 79 47 80 73 81 74 82 82 83 75 84 76 85 80 86 83 87
REMARK SMILES IDX 77 88 78 89 81 90 79 91 58 92 59 93 67 94 60 95 61 96 65 97
REMARK SMILES IDX 68 98 62 99 63 100 66 101 64 102
REMARK H PARENT 22 6 8 14 29 36 88 55 56 66
REMARK Flexibility Score: inf
ROOT
ATOM      1  C   UNL     1       4.385  -9.206   6.516  1.00  0.00     0.021 C 
ENDROOT
BRANCH   1   2
ATOM      2  C   UNL     1       3.790  -8.844   5.162  1.00  0.00     0.116 C 
BRANCH   2   3
ATOM      3  N   UNL     1       3.761  -9.930   4.194  1.00  0.00    -0.352 N 
ATOM      4  C   UNL     1       2.844 -10.273   3.214  1.00  0.00     0.253 C 
ATOM      5  O   UNL     1       3.167 -11.182   2.454  1.00  0.00    -0.269 OA
ATOM      6  H   UNL     1       4.538 -10.533   4.245  1.00  0.00     0.163 HD
BRANCH   4   7
ATOM      7  C   UNL     1       1.523  -9.579   3.095  1.00  0.00     0.065 A 
ATOM      8  C   UNL     1       0.316  -7.472   3.482  1.00  0.00     0.035 A 
ATOM      9  C   UNL     1      -0.870  -8.142   3.201  1.00  0.00     0.028 A 
ATOM     10  C   UNL     1       1.495  -8.196   3.339  1.00  0.00     0.041 A 
ATOM     11  C   UNL     1      -0.856  -9.473   2.772  1.00  0.00     0.029 A 
ATOM     12  C   UNL     1       0.336 -10.218   2.689  1.00  0.00     0.050 A 
BRANCH   8  13
ATOM     13  N   UNL     1       0.288  -6.146   3.844  1.00  0.00    -0.381 N 
ATOM     14  H   UNL     1      -0.598  -5.727   3.938  1.00  0.00     0.160 HD
BRANCH  13  15
ATOM     15  C   UNL     1       1.444  -5.305   4.101  1.00  0.00     0.148 C 
BRANCH  15  16
ATOM     16  C   UNL     1       1.223  -3.948   3.482  1.00  0.00    -0.029 A 
ATOM     17  C   UNL     1       0.803  -1.429   2.294  1.00  0.00     0.007 A 
ATOM     18  C   UNL     1       0.491  -2.598   1.598  1.00  0.00     0.015 A 
ATOM     19  C   UNL     1       1.342  -1.529   3.583  1.00  0.00     0.015 A 
ATOM     20  C   UNL     1       0.718  -3.844   2.178  1.00  0.00     0.007 A 
ATOM     21  C   UNL     1       1.558  -2.778   4.172  1.00  0.00     0.007 A 
BRANCH  17  22
ATOM     22  S   UNL     1       0.469   0.194   1.632  1.00  0.00    -0.130 SA
ATOM     23  C   UNL     1       1.050   0.003  -0.074  1.00  0.00     0.091 C 
ENDBRANCH  17  22
ENDBRANCH  15  16
ENDBRANCH  13  15
ENDBRANCH   8  13
BRANCH  12  24
ATOM     24  N   UNL     1       0.275 -11.462   2.102  1.00  0.00    -0.366 N 
ATOM     25  C   UNL     1       0.505 -12.724   2.804  1.00  0.00     0.145 C 
ATOM     26  C   UNL     1      -0.089 -11.557   0.685  1.00  0.00     0.145 C 
ATOM     27  C   UNL     1       1.344 -13.697   1.945  1.00  0.00     0.181 C 
ATOM     28  C   UNL     1       0.896 -12.491  -0.025  1.00  0.00     0.181 C 
ATOM     29  O   UNL     1       0.876 -13.793   0.586  1.00  0.00    -0.378 OA
ENDBRANCH  12  24
ENDBRANCH   4   7
ENDBRANCH   2   3
ENDBRANCH   1   2
BRANCH   1  30
ATOM     30  C   UNL     1       5.801  -9.776   6.510  1.00  0.00     0.002 C 
BRANCH  30  31
ATOM     31  C   UNL     1       6.864  -8.963   5.770  1.00  0.00     0.002 C 
BRANCH  31  32
ATOM     32  C   UNL     1       6.992  -7.490   6.165  1.00  0.00     0.021 C 
BRANCH  32  33
ATOM     33  C   UNL     1       7.152  -7.215   7.655  1.00  0.00     0.116 C 
BRANCH  33  34
ATOM     34  N   UNL     1       8.336  -7.834   8.221  1.00  0.00    -0.352 N 
ATOM     35  C   UNL     1       9.308  -7.290   9.024  1.00  0.00     0.251 C 
ATOM     36  H   UNL     1       8.461  -8.784   7.996  1.00  0.00     0.163 HD
ATOM     37  O   UNL     1      10.317  -7.935   9.289  1.00  0.00    -0.269 OA
BRANCH  35  38
ATOM     38  C   UNL     1       9.157  -5.915   9.550  1.00  0.00     0.039 A 
ATOM     39  C   UNL     1      10.269  -5.069   9.533  1.00  0.00     0.014 A 
ATOM     40  C   UNL     1       7.943  -5.463  10.074  1.00  0.00     0.014 A 
ATOM     41  C   UNL     1      10.149  -3.757   9.994  1.00  0.00     0.010 A 
ATOM     42  C   UNL     1       7.804  -4.131  10.458  1.00  0.00     0.010 A 
ATOM     43  C   UNL     1       8.908  -3.267  10.433  1.00  0.00    -0.014 A 
BRANCH  43  44
ATOM     44  C   UNL     1       8.763  -1.854  10.866  1.00  0.00     0.031 A 
ATOM     45  C   UNL     1       8.404  -1.523  12.288  1.00  0.00     0.074 A 
ATOM     46  C   UNL     1       8.916  -0.866   9.964  1.00  0.00     0.049 A 
ATOM     47  N   UNL     1       8.244  -0.351  12.851  1.00  0.00    -0.248 NA
ATOM     48  C   UNL     1       8.163  -2.658  13.191  1.00  0.00     0.031 C 
ATOM     49  C   UNL     1       9.200  -1.060   8.542  1.00  0.00     0.029 A 
ATOM     50  N   UNL     1       8.854   0.498  10.108  1.00  0.00    -0.354 N 
ATOM     51  C   UNL     1       7.878  -0.609  14.165  1.00  0.00     0.074 A 
ATOM     52  C   UNL     1       7.774  -2.046  14.299  1.00  0.00     0.031 C 
ATOM     53  C   UNL     1       9.320   0.138   7.950  1.00  0.00     0.029 A 
ATOM     54  C   UNL     1       9.091   1.184   8.942  1.00  0.00     0.049 A 
ATOM     55  H   UNL     1       8.658   0.942  10.964  1.00  0.00     0.167 HD
ATOM     56  C   UNL     1       7.675   0.270  15.176  1.00  0.00     0.037 A 
ATOM     57  C   UNL     1       9.124   2.508   8.700  1.00  0.00     0.037 A 
ATOM     58  C   UNL     1       7.795   1.699  15.039  1.00  0.00     0.049 A 
ATOM     59  C   UNL     1       8.905   3.467   9.838  1.00  0.00     0.074 A 
ATOM     60  C   UNL     1       7.675   2.673  16.014  1.00  0.00     0.029 A 
ATOM     61  N   UNL     1       8.053   2.359  13.845  1.00  0.00    -0.354 N 
ATOM     62  N   UNL     1       8.649   3.211  11.098  1.00  0.00    -0.248 NA
ATOM     63  C   UNL     1       8.995   4.899   9.523  1.00  0.00     0.031 C 
ATOM     64  C   UNL     1       7.804   3.924  15.401  1.00  0.00     0.029 A 
ATOM     65  C   UNL     1       8.068   3.729  14.054  1.00  0.00     0.049 A 
ATOM     66  H   UNL     1       8.204   1.918  12.978  1.00  0.00     0.167 HD
ATOM     67  C   UNL     1       8.572   4.444  11.731  1.00  0.00     0.074 A 
ATOM     68  C   UNL     1       8.824   5.448  10.718  1.00  0.00     0.031 C 
ATOM     69  C   UNL     1       8.318   4.718  13.035  1.00  0.00     0.037 A 
BRANCH  56  70
ATOM     70  C   UNL     1       7.296  -0.294  16.517  1.00  0.00     0.064 A 
ATOM     71  C   UNL     1       8.193  -1.061  17.277  1.00  0.00     0.173 A 
ATOM     72  C   UNL     1       6.022  -0.055  17.056  1.00  0.00     0.173 A 
ATOM     73  F   UNL     1       9.421  -1.328  16.805  1.00  0.00    -0.203 F 
ATOM     74  C   UNL     1       7.815  -1.606  18.502  1.00  0.00     0.198 A 
ATOM     75  C   UNL     1       5.660  -0.571  18.299  1.00  0.00     0.198 A 
ATOM     76  F   UNL     1       5.127   0.678  16.379  1.00  0.00    -0.203 F 
ATOM     77  F   UNL     1       8.668  -2.391  19.175  1.00  0.00    -0.200 F 
ATOM     78  C   UNL     1       6.552  -1.355  19.014  1.00  0.00     0.200 A 
ATOM     79  F   UNL     1       4.444  -0.316  18.799  1.00  0.00    -0.200 F 
ATOM     80  F   UNL     1       6.189  -1.880  20.193  1.00  0.00    -0.200 F 
ENDBRANCH  56  70
BRANCH  57  81
ATOM     81  C   UNL     1       9.416   2.994   7.327  1.00  0.00     0.064 A 
ATOM     82  C   UNL     1      10.638   3.612   7.025  1.00  0.00     0.173 A 
ATOM     83  C   UNL     1       8.496   2.821   6.282  1.00  0.00     0.173 A 
ATOM     84  F   UNL     1      11.543   3.814   7.994  1.00  0.00    -0.203 F 
ATOM     85  C   UNL     1      10.924   4.048   5.733  1.00  0.00     0.198 A 
ATOM     86  C   UNL     1       8.794   3.232   4.985  1.00  0.00     0.198 A 
ATOM     87  F   UNL     1       7.317   2.228   6.518  1.00  0.00    -0.203 F 
ATOM     88  F   UNL     1      12.085   4.665   5.478  1.00  0.00    -0.200 F 
ATOM     89  C   UNL     1      10.006   3.850   4.713  1.00  0.00     0.200 A 
ATOM     90  F   UNL     1       7.912   3.022   3.999  1.00  0.00    -0.200 F 
ATOM     91  F   UNL     1      10.287   4.256   3.467  1.00  0.00    -0.200 F 
ENDBRANCH  57  81
BRANCH  69  92
ATOM     92  C   UNL     1       8.329   6.162  13.450  1.00  0.00     0.064 A 
ATOM     93  C   UNL     1       7.316   7.051  13.061  1.00  0.00     0.173 A 
ATOM     94  C   UNL     1       9.348   6.652  14.282  1.00  0.00     0.173 A 
ATOM     95  F   UNL     1       6.327   6.636  12.255  1.00  0.00    -0.203 F 
ATOM     96  C   UNL     1       7.338   8.382  13.468  1.00  0.00     0.198 A 
ATOM     97  C   UNL     1       9.348   7.975  14.714  1.00  0.00     0.198 A 
ATOM     98  F   UNL     1      10.337   5.842  14.689  1.00  0.00    -0.203 F 
ATOM     99  F   UNL     1       6.386   9.226  13.043  1.00  0.00    -0.200 F 
ATOM    100  C   UNL     1       8.348   8.841  14.300  1.00  0.00     0.200 A 
ATOM    101  F   UNL     1      10.317   8.412  15.530  1.00  0.00    -0.200 F 
ATOM    102  F   UNL     1       8.362  10.121  14.696  1.00  0.00    -0.200 F 
ENDBRANCH  69  92
ENDBRANCH  43  44
ENDBRANCH  35  38
ENDBRANCH  33  34
ENDBRANCH  32  33
ENDBRANCH  31  32
ENDBRANCH  30  31
ENDBRANCH   1  30
TORSDOF 18
