REMARK SMILES CCC(CC)([NH2+]Cc1ccc(I)cc1)C(=O)NCCCCCCNC(=O)c1ccc(-c2c3nc(c(-c4c(F)c(F)c(F)c(F)c4F)c4ccc([nH]4)c(-c4c(F)c(F)c(F)c(F)c4F)c4nc(c(-c5c(F)c(F)c(F)c(F)c5F)c5ccc2[nH]5)C=C4)C=C3)cc1
REMARK SMILES IDX 20 1 19 2 18 3 17 4 15 5 16 6 3 8 2 9 1 10 4 11 5 12 6 13
REMARK SMILES IDX 7 16 8 17 9 18 14 19 10 20 13 21 11 22 12 23 21 24 22 25
REMARK SMILES IDX 23 26 24 27 25 28 26 30 27 31 28 32 89 33 29 34 88 35 30 36
REMARK SMILES IDX 31 37 32 38 82 39 33 40 87 41 81 42 83 43 34 44 86 45 80 46
REMARK SMILES IDX 79 47 35 49 67 50 47 51 66 52 48 53 51 54 65 55 84 56 49 57
REMARK SMILES IDX 50 58 64 60 85 61 52 62 36 63 37 64 45 65 38 66 39 67 43 68
REMARK SMILES IDX 46 69 40 70 41 71 44 72 42 73 68 74 69 75 77 76 70 77 71 78
REMARK SMILES IDX 75 79 78 80 72 81 73 82 76 83 74 84 53 85 54 86 62 87 55 88
REMARK SMILES IDX 56 89 60 90 63 91 57 92 58 93 61 94 59 95
REMARK H PARENT 17 7 6 14 6 15 24 29 83 48 51 59
REMARK Flexibility Score: inf
ROOT
ATOM      1  C   UNL     1       5.132   5.667  -1.972  1.00  0.00     0.002 C 
ENDROOT
BRANCH   1   2
ATOM      2  C   UNL     1       3.686   5.264  -1.677  1.00  0.00     0.021 C 
BRANCH   2   3
ATOM      3  C   UNL     1       3.366   3.793  -1.989  1.00  0.00     0.116 C 
BRANCH   3   4
ATOM      4  N   UNL     1       3.417   3.007  -0.779  1.00  0.00    -0.351 N 
ATOM      5  C   UNL     1       2.480   2.482   0.052  1.00  0.00     0.281 C 
ATOM      6  O   UNL     1       2.965   2.127   1.138  1.00  0.00    -0.268 OA
ATOM      7  H   UNL     1       4.337   2.807  -0.491  1.00  0.00     0.163 HD
BRANCH   5   8
ATOM      8  C   UNL     1       0.956   2.208  -0.293  1.00  0.00     0.175 C 
BRANCH   8   9
ATOM      9  C   UNL     1       0.373   1.476   0.995  1.00  0.00     0.076 C 
ATOM     10  C   UNL     1       0.802   0.018   1.203  1.00  0.00     0.011 C 
ENDBRANCH   8   9
BRANCH   8  11
ATOM     11  C   UNL     1       0.804   1.242  -1.493  1.00  0.00     0.076 C 
ATOM     12  C   UNL     1      -0.649   0.960  -1.898  1.00  0.00     0.011 C 
ENDBRANCH   8  11
BRANCH   8  13
ATOM     13  N   UNL     1       0.093   3.417  -0.370  1.00  0.00    -0.330 N 
ATOM     14  H   UNL     1      -0.006   3.721   0.599  1.00  0.00     0.347 HD
ATOM     15  H   UNL     1      -0.651   3.027  -0.948  1.00  0.00     0.347 HD
BRANCH  13  16
ATOM     16  C   UNL     1       0.308   4.643  -1.111  1.00  0.00     0.298 C 
BRANCH  16  17
ATOM     17  C   UNL     1      -0.157   4.786  -2.560  1.00  0.00     0.006 A 
ATOM     18  C   UNL     1      -0.732   6.003  -2.972  1.00  0.00     0.010 A 
ATOM     19  C   UNL     1       0.069   3.846  -3.571  1.00  0.00     0.010 A 
ATOM     20  C   UNL     1      -1.076   6.245  -4.314  1.00  0.00     0.015 A 
ATOM     21  C   UNL     1      -0.274   4.066  -4.910  1.00  0.00     0.015 A 
ATOM     22  C   UNL     1      -0.845   5.271  -5.280  1.00  0.00     0.013 A 
ATOM     23  I   UNL     1      -1.315   5.619  -7.272  1.00  0.00    -0.044 I 
ENDBRANCH  16  17
ENDBRANCH  13  16
ENDBRANCH   8  13
ENDBRANCH   5   8
ENDBRANCH   3   4
ENDBRANCH   2   3
ENDBRANCH   1   2
BRANCH   1  24
ATOM     24  C   UNL     1       5.485   5.702  -3.462  1.00  0.00     0.002 C 
BRANCH  24  25
ATOM     25  C   UNL     1       4.616   6.624  -4.324  1.00  0.00     0.021 C 
BRANCH  25  26
ATOM     26  C   UNL     1       4.580   8.084  -3.878  1.00  0.00     0.116 C 
BRANCH  26  27
ATOM     27  N   UNL     1       5.904   8.688  -3.880  1.00  0.00    -0.352 N 
ATOM     28  C   UNL     1       6.404   9.720  -4.634  1.00  0.00     0.251 C 
ATOM     29  H   UNL     1       6.541   8.294  -3.240  1.00  0.00     0.163 HD
ATOM     30  O   UNL     1       7.609   9.941  -4.656  1.00  0.00    -0.269 OA
BRANCH  28  31
ATOM     31  C   UNL     1       5.491  10.564  -5.434  1.00  0.00     0.039 A 
ATOM     32  C   UNL     1       5.845  10.884  -6.747  1.00  0.00     0.014 A 
ATOM     33  C   UNL     1       4.307  11.060  -4.883  1.00  0.00     0.014 A 
ATOM     34  C   UNL     1       4.976  11.645  -7.532  1.00  0.00     0.010 A 
ATOM     35  C   UNL     1       3.413  11.766  -5.685  1.00  0.00     0.010 A 
ATOM     36  C   UNL     1       3.737  12.059  -7.018  1.00  0.00    -0.014 A 
BRANCH  36  37
ATOM     37  C   UNL     1       2.751  12.770  -7.869  1.00  0.00     0.031 A 
ATOM     38  C   UNL     1       2.362  14.187  -7.563  1.00  0.00     0.074 A 
ATOM     39  C   UNL     1       2.142  12.103  -8.868  1.00  0.00     0.049 A 
ATOM     40  N   UNL     1       1.456  14.939  -8.135  1.00  0.00    -0.248 NA
ATOM     41  C   UNL     1       3.067  14.836  -6.448  1.00  0.00     0.031 C 
ATOM     42  C   UNL     1       2.396  10.706  -9.225  1.00  0.00     0.029 A 
ATOM     43  N   UNL     1       1.169  12.502  -9.749  1.00  0.00    -0.354 N 
ATOM     44  C   UNL     1       1.476  16.144  -7.447  1.00  0.00     0.074 A 
ATOM     45  C   UNL     1       2.445  16.004  -6.380  1.00  0.00     0.031 C 
ATOM     46  C   UNL     1       1.602  10.365 -10.252  1.00  0.00     0.029 A 
ATOM     47  C   UNL     1       0.761  11.506 -10.601  1.00  0.00     0.049 A 
ATOM     48  H   UNL     1       0.800  13.414  -9.769  1.00  0.00     0.167 HD
ATOM     49  C   UNL     1       0.765  17.270  -7.696  1.00  0.00     0.037 A 
ATOM     50  C   UNL     1      -0.198  11.505 -11.547  1.00  0.00     0.037 A 
ATOM     51  C   UNL     1      -0.192  17.406  -8.764  1.00  0.00     0.049 A 
ATOM     52  C   UNL     1      -0.980  12.763 -11.801  1.00  0.00     0.074 A 
ATOM     53  C   UNL     1      -0.916  18.524  -9.139  1.00  0.00     0.029 A 
ATOM     54  N   UNL     1      -0.564  16.382  -9.623  1.00  0.00    -0.354 N 
ATOM     55  N   UNL     1      -0.901  13.921 -11.192  1.00  0.00    -0.248 NA
ATOM     56  C   UNL     1      -1.981  12.716 -12.875  1.00  0.00     0.031 C 
ATOM     57  C   UNL     1      -1.761  18.164 -10.195  1.00  0.00     0.029 A 
ATOM     58  C   UNL     1      -1.530  16.834 -10.509  1.00  0.00     0.049 A 
ATOM     59  H   UNL     1      -0.197  15.468  -9.606  1.00  0.00     0.167 HD
ATOM     60  C   UNL     1      -1.830  14.744 -11.814  1.00  0.00     0.074 A 
ATOM     61  C   UNL     1      -2.446  13.958 -12.863  1.00  0.00     0.031 C 
ATOM     62  C   UNL     1      -2.144  16.034 -11.539  1.00  0.00     0.037 A 
BRANCH  49  63
ATOM     63  C   UNL     1       0.999  18.446  -6.790  1.00  0.00     0.064 A 
ATOM     64  C   UNL     1       2.209  19.157  -6.806  1.00  0.00     0.173 A 
ATOM     65  C   UNL     1      -0.003  18.877  -5.907  1.00  0.00     0.173 A 
ATOM     66  F   UNL     1       3.202  18.780  -7.625  1.00  0.00    -0.203 F 
ATOM     67  C   UNL     1       2.422  20.231  -5.946  1.00  0.00     0.198 A 
ATOM     68  C   UNL     1       0.203  19.971  -5.070  1.00  0.00     0.198 A 
ATOM     69  F   UNL     1      -1.181  18.239  -5.855  1.00  0.00    -0.203 F 
ATOM     70  F   UNL     1       3.607  20.857  -5.940  1.00  0.00    -0.200 F 
ATOM     71  C   UNL     1       1.417  20.640  -5.082  1.00  0.00     0.200 A 
ATOM     72  F   UNL     1      -0.773  20.374  -4.244  1.00  0.00    -0.200 F 
ATOM     73  F   UNL     1       1.624  21.674  -4.255  1.00  0.00    -0.200 F 
ENDBRANCH  49  63
BRANCH  50  74
ATOM     74  C   UNL     1      -0.454  10.267 -12.326  1.00  0.00     0.064 A 
ATOM     75  C   UNL     1      -0.080  10.172 -13.672  1.00  0.00     0.173 A 
ATOM     76  C   UNL     1      -1.047   9.144 -11.730  1.00  0.00     0.173 A 
ATOM     77  F   UNL     1       0.473  11.226 -14.289  1.00  0.00    -0.203 F 
ATOM     78  C   UNL     1      -0.297   9.002 -14.397  1.00  0.00     0.198 A 
ATOM     79  C   UNL     1      -1.239   7.966 -12.448  1.00  0.00     0.198 A 
ATOM     80  F   UNL     1      -1.416   9.184 -10.441  1.00  0.00    -0.203 F 
ATOM     81  F   UNL     1       0.042   8.947 -15.693  1.00  0.00    -0.200 F 
ATOM     82  C   UNL     1      -0.869   7.898 -13.783  1.00  0.00     0.200 A 
ATOM     83  F   UNL     1      -1.778   6.897 -11.847  1.00  0.00    -0.200 F 
ATOM     84  F   UNL     1      -1.064   6.769 -14.478  1.00  0.00    -0.200 F 
ENDBRANCH  50  74
BRANCH  62  85
ATOM     85  C   UNL     1      -3.202  16.677 -12.387  1.00  0.00     0.064 A 
ATOM     86  C   UNL     1      -4.556  16.339 -12.249  1.00  0.00     0.173 A 
ATOM     87  C   UNL     1      -2.864  17.671 -13.318  1.00  0.00     0.173 A 
ATOM     88  F   UNL     1      -4.928  15.382 -11.385  1.00  0.00    -0.203 F 
ATOM     89  C   UNL     1      -5.531  16.958 -13.027  1.00  0.00     0.198 A 
ATOM     90  C   UNL     1      -3.844  18.308 -14.074  1.00  0.00     0.198 A 
ATOM     91  F   UNL     1      -1.583  18.033 -13.485  1.00  0.00    -0.203 F 
ATOM     92  F   UNL     1      -6.814  16.590 -12.908  1.00  0.00    -0.200 F 
ATOM     93  C   UNL     1      -5.176  17.947 -13.932  1.00  0.00     0.200 A 
ATOM     94  F   UNL     1      -3.500  19.271 -14.940  1.00  0.00    -0.200 F 
ATOM     95  F   UNL     1      -6.116  18.548 -14.673  1.00  0.00    -0.200 F 
ENDBRANCH  62  85
ENDBRANCH  36  37
ENDBRANCH  28  31
ENDBRANCH  26  27
ENDBRANCH  25  26
ENDBRANCH  24  25
ENDBRANCH   1  24
TORSDOF 18
