REMARK SMILES O=C(NCCCCCCNC(=O)c1cc(NC(=S)NC(=O)c2ccccc2Cl)c(Cl)cc1Cl)c1ccc(-c2c3nc(c(-c4c(F)c(F)c(F)c(F)c4F)c4ccc([nH]4)c(-c4c(F)c(F)c(F)c(F)c4F)c4nc(c(-c5c(F)c(F)c(F)c(F)c5F)c5ccc2[nH]5)C=C4)C=C3)cc1
REMARK SMILES IDX 7 1 6 2 5 3 4 4 3 5 1 6 2 7 34 9 35 10 96 11 36 12 95 13
REMARK SMILES IDX 37 14 38 15 39 16 89 17 40 18 94 19 88 20 90 21 41 22 93 23
REMARK SMILES IDX 87 24 86 25 42 27 74 28 54 29 73 30 55 31 58 32 72 33 91 34
REMARK SMILES IDX 56 35 57 36 71 38 92 39 59 40 43 41 44 42 52 43 45 44 46 45
REMARK SMILES IDX 50 46 53 47 47 48 48 49 51 50 49 51 75 52 76 53 84 54 77 55
REMARK SMILES IDX 78 56 82 57 85 58 79 59 80 60 83 61 81 62 60 63 61 64 69 65
REMARK SMILES IDX 62 66 63 67 67 68 70 69 64 70 65 71 68 72 66 73 8 74 9 75
REMARK SMILES IDX 10 76 11 77 12 79 13 80 14 81 32 82 15 83 31 84 33 85 29 86
REMARK SMILES IDX 30 87 16 88 17 90 18 91 19 92 20 93 21 95 22 96 23 97 27 98
REMARK SMILES IDX 24 99 26 100 28 101 25 102
REMARK H PARENT 3 8 90 26 58 37 10 78 16 89 19 94
REMARK Flexibility Score: inf
ROOT
ATOM      1  C   UNL     1       4.410   4.113   1.530  1.00  0.00     0.002 C 
ENDROOT
BRANCH   1   2
ATOM      2  C   UNL     1       3.910   3.761   0.120  1.00  0.00     0.002 C 
BRANCH   2   3
ATOM      3  C   UNL     1       4.580   2.536  -0.503  1.00  0.00     0.021 C 
BRANCH   3   4
ATOM      4  C   UNL     1       4.408   1.280   0.333  1.00  0.00     0.116 C 
BRANCH   4   5
ATOM      5  N   UNL     1       3.000   0.971   0.538  1.00  0.00    -0.352 N 
ATOM      6  O   UNL     1       1.073  -0.144   0.146  1.00  0.00    -0.269 OA
ATOM      7  C   UNL     1       2.298  -0.135   0.138  1.00  0.00     0.251 C 
ATOM      8  H   UNL     1       2.483   1.648   1.031  1.00  0.00     0.163 HD
BRANCH   7   9
ATOM      9  C   UNL     1       3.054  -1.321  -0.298  1.00  0.00     0.039 A 
ATOM     10  C   UNL     1       4.174  -1.724   0.433  1.00  0.00     0.014 A 
ATOM     11  C   UNL     1       2.656  -2.019  -1.438  1.00  0.00     0.014 A 
ATOM     12  C   UNL     1       4.979  -2.738  -0.053  1.00  0.00     0.010 A 
ATOM     13  C   UNL     1       3.401  -3.122  -1.857  1.00  0.00     0.010 A 
ATOM     14  C   UNL     1       4.572  -3.482  -1.171  1.00  0.00    -0.014 A 
BRANCH  14  15
ATOM     15  C   UNL     1       5.324  -4.712  -1.509  1.00  0.00     0.031 A 
ATOM     16  C   UNL     1       6.030  -4.867  -2.822  1.00  0.00     0.074 A 
ATOM     17  C   UNL     1       5.368  -5.691  -0.583  1.00  0.00     0.049 A 
ATOM     18  N   UNL     1       6.723  -5.886  -3.262  1.00  0.00    -0.248 NA
ATOM     19  C   UNL     1       5.948  -3.743  -3.767  1.00  0.00     0.031 C 
ATOM     20  C   UNL     1       4.705  -5.642   0.726  1.00  0.00     0.029 A 
ATOM     21  N   UNL     1       6.000  -6.906  -0.584  1.00  0.00    -0.354 N 
ATOM     22  C   UNL     1       7.144  -5.538  -4.537  1.00  0.00     0.074 A 
ATOM     23  C   UNL     1       6.611  -4.221  -4.813  1.00  0.00     0.031 C 
ATOM     24  C   UNL     1       5.002  -6.750   1.415  1.00  0.00     0.029 A 
ATOM     25  C   UNL     1       5.796  -7.628   0.567  1.00  0.00     0.049 A 
ATOM     26  H   UNL     1       6.547  -7.230  -1.335  1.00  0.00     0.167 HD
ATOM     27  C   UNL     1       7.907  -6.261  -5.391  1.00  0.00     0.037 A 
ATOM     28  C   UNL     1       6.169  -8.878   0.890  1.00  0.00     0.037 A 
ATOM     29  C   UNL     1       8.431  -7.572  -5.097  1.00  0.00     0.049 A 
ATOM     30  C   UNL     1       6.965  -9.668  -0.109  1.00  0.00     0.074 A 
ATOM     31  C   UNL     1       9.251  -8.365  -5.880  1.00  0.00     0.029 A 
ATOM     32  N   UNL     1       8.173  -8.289  -3.937  1.00  0.00    -0.354 N 
ATOM     33  N   UNL     1       7.407  -9.306  -1.288  1.00  0.00    -0.248 NA
ATOM     34  C   UNL     1       7.314 -11.043   0.268  1.00  0.00     0.031 C 
ATOM     35  C   UNL     1       9.423  -9.591  -5.233  1.00  0.00     0.029 A 
ATOM     36  C   UNL     1       8.784  -9.533  -4.005  1.00  0.00     0.049 A 
ATOM     37  H   UNL     1       7.637  -7.964  -3.178  1.00  0.00     0.167 HD
ATOM     38  C   UNL     1       8.110 -10.396  -1.781  1.00  0.00     0.074 A 
ATOM     39  C   UNL     1       8.060 -11.420  -0.759  1.00  0.00     0.031 C 
ATOM     40  C   UNL     1       8.734 -10.539  -2.976  1.00  0.00     0.037 A 
BRANCH  27  41
ATOM     41  C   UNL     1       8.211  -5.679  -6.742  1.00  0.00     0.064 A 
ATOM     42  C   UNL     1       9.082  -4.592  -6.902  1.00  0.00     0.173 A 
ATOM     43  C   UNL     1       7.698  -6.284  -7.901  1.00  0.00     0.173 A 
ATOM     44  F   UNL     1       9.595  -3.972  -5.829  1.00  0.00    -0.203 F 
ATOM     45  C   UNL     1       9.421  -4.127  -8.171  1.00  0.00     0.198 A 
ATOM     46  C   UNL     1       8.065  -5.838  -9.167  1.00  0.00     0.198 A 
ATOM     47  F   UNL     1       6.866  -7.332  -7.805  1.00  0.00    -0.203 F 
ATOM     48  F   UNL     1      10.235  -3.070  -8.300  1.00  0.00    -0.200 F 
ATOM     49  C   UNL     1       8.923  -4.758  -9.302  1.00  0.00     0.200 A 
ATOM     50  F   UNL     1       7.598  -6.463 -10.257  1.00  0.00    -0.200 F 
ATOM     51  F   UNL     1       9.272  -4.326 -10.521  1.00  0.00    -0.200 F 
ENDBRANCH  27  41
BRANCH  28  52
ATOM     52  C   UNL     1       5.758  -9.474   2.189  1.00  0.00     0.064 A 
ATOM     53  C   UNL     1       6.710  -9.865   3.140  1.00  0.00     0.173 A 
ATOM     54  C   UNL     1       4.406  -9.707   2.488  1.00  0.00     0.173 A 
ATOM     55  F   UNL     1       8.015  -9.674   2.899  1.00  0.00    -0.203 F 
ATOM     56  C   UNL     1       6.329 -10.511   4.314  1.00  0.00     0.198 A 
ATOM     57  C   UNL     1       4.024 -10.309   3.683  1.00  0.00     0.198 A 
ATOM     58  F   UNL     1       3.451  -9.341   1.619  1.00  0.00    -0.203 F 
ATOM     59  F   UNL     1       7.266 -10.948   5.167  1.00  0.00    -0.200 F 
ATOM     60  C   UNL     1       4.987 -10.729   4.586  1.00  0.00     0.200 A 
ATOM     61  F   UNL     1       2.725 -10.494   3.952  1.00  0.00    -0.200 F 
ATOM     62  F   UNL     1       4.623 -11.358   5.712  1.00  0.00    -0.200 F 
ENDBRANCH  28  52
BRANCH  40  63
ATOM     63  C   UNL     1       9.456 -11.834  -3.219  1.00  0.00     0.064 A 
ATOM     64  C   UNL     1       8.770 -13.049  -3.370  1.00  0.00     0.173 A 
ATOM     65  C   UNL     1      10.855 -11.855  -3.323  1.00  0.00     0.173 A 
ATOM     66  F   UNL     1       7.433 -13.089  -3.264  1.00  0.00    -0.203 F 
ATOM     67  C   UNL     1       9.461 -14.240  -3.576  1.00  0.00     0.198 A 
ATOM     68  C   UNL     1      11.539 -13.040  -3.574  1.00  0.00     0.198 A 
ATOM     69  F   UNL     1      11.561 -10.721  -3.193  1.00  0.00    -0.203 F 
ATOM     70  F   UNL     1       8.789 -15.398  -3.647  1.00  0.00    -0.200 F 
ATOM     71  C   UNL     1      10.843 -14.233  -3.687  1.00  0.00     0.200 A 
ATOM     72  F   UNL     1      12.873 -13.027  -3.701  1.00  0.00    -0.200 F 
ATOM     73  F   UNL     1      11.506 -15.380  -3.894  1.00  0.00    -0.200 F 
ENDBRANCH  40  63
ENDBRANCH  14  15
ENDBRANCH   7   9
ENDBRANCH   4   5
ENDBRANCH   3   4
ENDBRANCH   2   3
ENDBRANCH   1   2
BRANCH   1  74
ATOM     74  C   UNL     1       5.924   4.260   1.636  1.00  0.00     0.021 C 
BRANCH  74  75
ATOM     75  C   UNL     1       6.457   5.290   0.652  1.00  0.00     0.116 C 
BRANCH  75  76
ATOM     76  N   UNL     1       6.565   6.622   1.238  1.00  0.00    -0.352 N 
ATOM     77  C   UNL     1       7.555   7.560   1.487  1.00  0.00     0.252 C 
ATOM     78  H   UNL     1       5.687   6.946   1.542  1.00  0.00     0.163 HD
ATOM     79  O   UNL     1       7.096   8.680   1.722  1.00  0.00    -0.269 OA
BRANCH  77  80
ATOM     80  C   UNL     1       9.188   7.339   1.381  1.00  0.00     0.060 A 
ATOM     81  C   UNL     1      10.574   6.210   0.447  1.00  0.00     0.043 A 
ATOM     82  C   UNL     1      10.040   7.839   1.910  1.00  0.00     0.055 A 
ATOM     83  C   UNL     1      11.820   5.763  -0.040  1.00  0.00     0.060 A 
ATOM     84  C   UNL     1      11.897   7.137   1.556  1.00  0.00     0.044 A 
ATOM     85  Cl  UNL     1       9.293   9.337   3.155  1.00  0.00    -0.083 Cl
ATOM     86  C   UNL     1      12.676   6.249   0.775  1.00  0.00     0.066 A 
ATOM     87  Cl  UNL     1      14.335   5.964   0.828  1.00  0.00    -0.082 Cl
BRANCH  83  88
ATOM     88  N   UNL     1      11.935   5.088  -1.261  1.00  0.00    -0.331 N 
ATOM     89  H   UNL     1      12.814   4.675  -1.423  1.00  0.00     0.169 HD
BRANCH  88  90
ATOM     90  C   UNL     1      11.026   4.910  -2.266  1.00  0.00     0.177 C 
ATOM     91  S   UNL     1      11.530   4.069  -3.627  1.00  0.00    -0.040 S 
BRANCH  90  92
ATOM     92  N   UNL     1       9.711   5.370  -2.284  1.00  0.00    -0.299 N 
ATOM     93  C   UNL     1       8.701   6.068  -1.572  1.00  0.00     0.258 C 
ATOM     94  H   UNL     1       9.321   5.099  -3.146  1.00  0.00     0.172 HD
ATOM     95  O   UNL     1       7.572   6.169  -2.041  1.00  0.00    -0.269 OA
BRANCH  93  96
ATOM     96  C   UNL     1       8.974   6.641  -0.228  1.00  0.00     0.058 A 
ATOM     97  C   UNL     1       9.153   5.556   1.514  1.00  0.00     0.015 A 
ATOM     98  C   UNL     1      10.165   8.251  -0.136  1.00  0.00     0.053 A 
ATOM     99  C   UNL     1      10.298   6.266   2.978  1.00  0.00     0.001 A 
ATOM    100  C   UNL     1      11.259   9.001   1.351  1.00  0.00     0.021 A 
ATOM    101  Cl  UNL     1      10.369   9.087  -1.662  1.00  0.00    -0.083 Cl
ATOM    102  C   UNL     1      11.300   7.992   3.117  1.00  0.00     0.002 A 
ENDBRANCH  93  96
ENDBRANCH  90  92
ENDBRANCH  88  90
ENDBRANCH  83  88
ENDBRANCH  77  80
ENDBRANCH  75  76
ENDBRANCH  74  75
ENDBRANCH   1  74
TORSDOF 17
