REMARK SMILES CC(C)(C)c1nnc(CSc2csc(C(=O)NCCCCCCNC(=O)c3ccc(-c4c5nc(c(-c6c(F)c(F)c(F)c(F)c6F)c6ccc([nH]6)c(-c6c(F)c(F)c(F)c(F)c6F)c6nc(c(-c7c(F)c(F)c(F)c(F)c7F)c7ccc4[nH]7)C=C6)C=C5)cc3)c2)o1
REMARK SMILES IDX 19 1 18 2 17 3 15 4 16 5 14 7 11 8 12 9 90 10 13 11 10 12
REMARK SMILES IDX 9 13 8 14 5 15 6 16 91 17 7 18 2 19 1 20 3 21 4 22 20 23
REMARK SMILES IDX 21 24 22 25 23 26 24 27 25 28 26 30 27 31 28 32 89 33 29 34
REMARK SMILES IDX 88 35 30 36 31 37 32 38 82 39 33 40 87 41 81 42 83 43 34 44
REMARK SMILES IDX 86 45 80 46 79 47 35 49 67 50 47 51 66 52 48 53 51 54 65 55
REMARK SMILES IDX 84 56 49 57 50 58 64 60 85 61 52 62 36 63 37 64 45 65 38 66
REMARK SMILES IDX 39 67 43 68 46 69 40 70 41 71 44 72 42 73 68 74 69 75 77 76
REMARK SMILES IDX 70 77 71 78 75 79 78 80 72 81 73 82 76 83 74 84 53 85 54 86
REMARK SMILES IDX 62 87 55 88 56 89 60 90 63 91 57 92 58 93 61 94 59 95
REMARK H PARENT 17 6 24 29 83 48 51 59
REMARK Flexibility Score: inf
ROOT
ATOM      1  C   UNL     1       6.759   2.897   3.180  1.00  0.00     0.021 C 
ENDROOT
BRANCH   1   2
ATOM      2  C   UNL     1       5.750   2.161   2.295  1.00  0.00     0.116 C 
BRANCH   2   3
ATOM      3  N   UNL     1       6.420   1.154   1.496  1.00  0.00    -0.351 N 
ATOM      4  C   UNL     1       6.431  -0.219   1.536  1.00  0.00     0.261 C 
ATOM      5  O   UNL     1       7.108  -0.754   0.653  1.00  0.00    -0.268 OA
ATOM      6  H   UNL     1       6.979   1.530   0.778  1.00  0.00     0.163 HD
BRANCH   4   7
ATOM      7  C   UNL     1       5.665  -0.973   2.521  1.00  0.00     0.093 A 
ATOM      8  C   UNL     1       4.342  -1.682   4.309  1.00  0.00     0.019 A 
ATOM      9  C   UNL     1       4.370  -2.829   3.558  1.00  0.00     0.080 A 
ATOM     10  C   UNL     1       5.163  -0.653   3.770  1.00  0.00     0.040 A 
ATOM     11  S   UNL     1       5.297  -2.620   2.140  1.00  0.00    -0.137 S 
BRANCH   8  12
ATOM     12  S   UNL     1       3.400  -1.466   5.774  1.00  0.00    -0.115 SA
BRANCH  12  13
ATOM     13  C   UNL     1       1.736  -1.244   5.053  1.00  0.00     0.174 C 
BRANCH  13  14
ATOM     14  C   UNL     1       1.637  -0.080   4.137  1.00  0.00     0.226 A 
ATOM     15  C   UNL     1       1.113   0.950   2.345  1.00  0.00     0.221 A 
ATOM     16  N   UNL     1       1.686   1.835   3.136  1.00  0.00    -0.112 NA
ATOM     17  O   UNL     1       1.039  -0.294   2.920  1.00  0.00    -0.424 OA
ATOM     18  N   UNL     1       2.018   1.171   4.298  1.00  0.00    -0.112 NA
BRANCH  15  19
ATOM     19  C   UNL     1       0.539   1.120   0.968  1.00  0.00     0.040 C 
ATOM     20  C   UNL     1       1.029  -0.006   0.041  1.00  0.00     0.021 C 
ATOM     21  C   UNL     1       0.982   2.470   0.375  1.00  0.00     0.021 C 
ATOM     22  C   UNL     1      -0.997   1.090   1.041  1.00  0.00     0.021 C 
ENDBRANCH  15  19
ENDBRANCH  13  14
ENDBRANCH  12  13
ENDBRANCH   8  12
ENDBRANCH   4   7
ENDBRANCH   2   3
ENDBRANCH   1   2
BRANCH   1  23
ATOM     23  C   UNL     1       7.590   3.946   2.423  1.00  0.00     0.002 C 
BRANCH  23  24
ATOM     24  C   UNL     1       6.784   5.101   1.813  1.00  0.00     0.002 C 
BRANCH  24  25
ATOM     25  C   UNL     1       5.870   5.849   2.788  1.00  0.00     0.021 C 
BRANCH  25  26
ATOM     26  C   UNL     1       6.590   6.511   3.960  1.00  0.00     0.116 C 
BRANCH  26  27
ATOM     27  N   UNL     1       7.473   7.580   3.523  1.00  0.00    -0.352 N 
ATOM     28  C   UNL     1       7.545   8.884   3.944  1.00  0.00     0.251 C 
ATOM     29  H   UNL     1       8.116   7.331   2.821  1.00  0.00     0.163 HD
ATOM     30  O   UNL     1       8.225   9.693   3.320  1.00  0.00    -0.269 OA
BRANCH  28  31
ATOM     31  C   UNL     1       6.795   9.329   5.139  1.00  0.00     0.039 A 
ATOM     32  C   UNL     1       6.136  10.560   5.097  1.00  0.00     0.014 A 
ATOM     33  C   UNL     1       6.774   8.564   6.310  1.00  0.00     0.014 A 
ATOM     34  C   UNL     1       5.417  11.003   6.209  1.00  0.00     0.010 A 
ATOM     35  C   UNL     1       6.008   8.978   7.398  1.00  0.00     0.010 A 
ATOM     36  C   UNL     1       5.328  10.204   7.361  1.00  0.00    -0.014 A 
BRANCH  36  37
ATOM     37  C   UNL     1       4.529  10.645   8.532  1.00  0.00     0.031 A 
ATOM     38  C   UNL     1       5.205  10.977   9.832  1.00  0.00     0.074 A 
ATOM     39  C   UNL     1       3.187  10.698   8.437  1.00  0.00     0.049 A 
ATOM     40  N   UNL     1       4.675  11.347  10.971  1.00  0.00    -0.248 NA
ATOM     41  C   UNL     1       6.671  10.855   9.864  1.00  0.00     0.031 C 
ATOM     42  C   UNL     1       2.410  10.349   7.247  1.00  0.00     0.029 A 
ATOM     43  N   UNL     1       2.238  11.058   9.361  1.00  0.00    -0.354 N 
ATOM     44  C   UNL     1       5.737  11.488  11.855  1.00  0.00     0.074 A 
ATOM     45  C   UNL     1       6.937  11.119  11.136  1.00  0.00     0.031 C 
ATOM     46  C   UNL     1       1.105  10.532   7.505  1.00  0.00     0.029 A 
ATOM     47  C   UNL     1       0.952  10.985   8.885  1.00  0.00     0.049 A 
ATOM     48  H   UNL     1       2.458  11.342  10.277  1.00  0.00     0.167 HD
ATOM     49  C   UNL     1       5.715  11.907  13.143  1.00  0.00     0.037 A 
ATOM     50  C   UNL     1      -0.218  11.255   9.493  1.00  0.00     0.037 A 
ATOM     51  C   UNL     1       4.523  12.299  13.849  1.00  0.00     0.049 A 
ATOM     52  C   UNL     1      -0.213  11.738  10.917  1.00  0.00     0.074 A 
ATOM     53  C   UNL     1       4.404  12.796  15.136  1.00  0.00     0.029 A 
ATOM     54  N   UNL     1       3.240  12.238  13.325  1.00  0.00    -0.354 N 
ATOM     55  N   UNL     1       0.803  11.934  11.721  1.00  0.00    -0.248 NA
ATOM     56  C   UNL     1      -1.519  12.049  11.514  1.00  0.00     0.031 C 
ATOM     57  C   UNL     1       3.046  13.001  15.403  1.00  0.00     0.029 A 
ATOM     58  C   UNL     1       2.322  12.673  14.268  1.00  0.00     0.049 A 
ATOM     59  H   UNL     1       3.015  11.931  12.417  1.00  0.00     0.167 HD
ATOM     60  C   UNL     1       0.265  12.411  12.908  1.00  0.00     0.074 A 
ATOM     61  C   UNL     1      -1.168  12.493  12.712  1.00  0.00     0.031 C 
ATOM     62  C   UNL     1       0.899  12.750  14.056  1.00  0.00     0.037 A 
BRANCH  49  63
ATOM     63  C   UNL     1       7.025  11.970  13.873  1.00  0.00     0.064 A 
ATOM     64  C   UNL     1       7.990  12.941  13.566  1.00  0.00     0.173 A 
ATOM     65  C   UNL     1       7.305  11.072  14.913  1.00  0.00     0.173 A 
ATOM     66  F   UNL     1       7.775  13.815  12.572  1.00  0.00    -0.203 F 
ATOM     67  C   UNL     1       9.200  12.992  14.254  1.00  0.00     0.198 A 
ATOM     68  C   UNL     1       8.504  11.144  15.618  1.00  0.00     0.198 A 
ATOM     69  F   UNL     1       6.414  10.128  15.252  1.00  0.00    -0.203 F 
ATOM     70  F   UNL     1      10.126  13.898  13.912  1.00  0.00    -0.200 F 
ATOM     71  C   UNL     1       9.453  12.098  15.283  1.00  0.00     0.200 A 
ATOM     72  F   UNL     1       8.743  10.287  16.621  1.00  0.00    -0.200 F 
ATOM     73  F   UNL     1      10.615  12.152  15.949  1.00  0.00    -0.200 F 
ENDBRANCH  49  63
BRANCH  50  74
ATOM     74  C   UNL     1      -1.492  11.108   8.744  1.00  0.00     0.064 A 
ATOM     75  C   UNL     1      -2.227  12.236   8.352  1.00  0.00     0.173 A 
ATOM     76  C   UNL     1      -1.998   9.846   8.403  1.00  0.00     0.173 A 
ATOM     77  F   UNL     1      -1.792  13.463   8.674  1.00  0.00    -0.203 F 
ATOM     78  C   UNL     1      -3.431  12.106   7.665  1.00  0.00     0.198 A 
ATOM     79  C   UNL     1      -3.190   9.718   7.693  1.00  0.00     0.198 A 
ATOM     80  F   UNL     1      -1.329   8.738   8.752  1.00  0.00    -0.203 F 
ATOM     81  F   UNL     1      -4.136  13.198   7.339  1.00  0.00    -0.200 F 
ATOM     82  C   UNL     1      -3.909  10.847   7.331  1.00  0.00     0.200 A 
ATOM     83  F   UNL     1      -3.643   8.501   7.362  1.00  0.00    -0.200 F 
ATOM     84  F   UNL     1      -5.066  10.723   6.666  1.00  0.00    -0.200 F 
ENDBRANCH  50  74
BRANCH  62  85
ATOM     85  C   UNL     1       0.049  13.265  15.180  1.00  0.00     0.064 A 
ATOM     86  C   UNL     1      -0.792  12.416  15.914  1.00  0.00     0.173 A 
ATOM     87  C   UNL     1       0.092  14.621  15.540  1.00  0.00     0.173 A 
ATOM     88  F   UNL     1      -0.880  11.115  15.597  1.00  0.00    -0.203 F 
ATOM     89  C   UNL     1      -1.580  12.910  16.950  1.00  0.00     0.198 A 
ATOM     90  C   UNL     1      -0.676  15.106  16.594  1.00  0.00     0.198 A 
ATOM     91  F   UNL     1       0.884  15.473  14.873  1.00  0.00    -0.203 F 
ATOM     92  F   UNL     1      -2.413  12.090  17.605  1.00  0.00    -0.200 F 
ATOM     93  C   UNL     1      -1.517  14.253  17.292  1.00  0.00     0.200 A 
ATOM     94  F   UNL     1      -0.607  16.401  16.931  1.00  0.00    -0.200 F 
ATOM     95  F   UNL     1      -2.276  14.726  18.290  1.00  0.00    -0.200 F 
ENDBRANCH  62  85
ENDBRANCH  36  37
ENDBRANCH  28  31
ENDBRANCH  26  27
ENDBRANCH  25  26
ENDBRANCH  24  25
ENDBRANCH  23  24
ENDBRANCH   1  23
TORSDOF 17
