REMARK SMILES CC[C@@](C)([NH2+]CC(=O)N[C@@H](C)C(C)C)C(=O)NCCCCCCNC(=O)c1ccc(-c2c3nc(c(-c4c(F)c(F)c(F)c(F)c4F)c4ccc([nH]4)c(-c4c(F)c(F)c(F)c(F)c4F)c4nc(c(-c5c(F)c(F)c(F)c(F)c5F)c5ccc2[nH]5)C=C4)C=C3)cc1
REMARK SMILES IDX 19 1 18 2 17 3 15 4 16 5 3 7 4 8 2 9 1 10 5 11 6 14 7 15
REMARK SMILES IDX 8 16 9 17 10 19 11 20 12 21 13 22 14 23 20 24 21 25 22 26
REMARK SMILES IDX 23 27 24 28 25 29 26 31 27 32 28 33 89 34 29 35 88 36 30 37
REMARK SMILES IDX 31 38 32 39 82 40 33 41 87 42 81 43 83 44 34 45 86 46 80 47
REMARK SMILES IDX 79 48 35 50 67 51 47 52 66 53 48 54 51 55 65 56 84 57 49 58
REMARK SMILES IDX 50 59 64 61 85 62 52 63 36 64 37 65 45 66 38 67 39 68 43 69
REMARK SMILES IDX 46 70 40 71 41 72 44 73 42 74 68 75 69 76 77 77 70 78 71 79
REMARK SMILES IDX 75 80 78 81 72 82 73 83 76 84 74 85 53 86 54 87 62 88 55 89
REMARK SMILES IDX 56 90 60 91 63 92 57 93 58 94 61 95 59 96
REMARK H PARENT 17 6 5 12 5 13 9 18 24 30 83 49 51 60
REMARK Flexibility Score: inf
ROOT
ATOM      1  C   UNL     1       3.710  -5.656   1.773  1.00  0.00     0.021 C 
ENDROOT
BRANCH   1   2
ATOM      2  C   UNL     1       3.315  -4.180   1.864  1.00  0.00     0.116 C 
BRANCH   2   3
ATOM      3  N   UNL     1       2.999  -3.554   0.587  1.00  0.00    -0.351 N 
ATOM      4  C   UNL     1       2.268  -2.387   0.440  1.00  0.00     0.281 C 
ATOM      5  O   UNL     1       2.944  -1.387   0.176  1.00  0.00    -0.268 OA
ATOM      6  H   UNL     1       3.329  -3.993  -0.231  1.00  0.00     0.163 HD
BRANCH   4   7
ATOM      7  C   UNL     1       0.650  -2.378   0.362  1.00  0.00     0.172 C 
ATOM      8  C   UNL     1      -0.343  -1.520   1.170  1.00  0.00     0.090 C 
BRANCH   7   9
ATOM      9  C   UNL     1       0.425  -1.775  -1.092  1.00  0.00     0.075 C 
ATOM     10  C   UNL     1       0.576  -0.223  -1.132  1.00  0.00     0.011 C 
ENDBRANCH   7   9
BRANCH   7  11
ATOM     11  N   UNL     1       0.190  -3.747   0.560  1.00  0.00    -0.326 N 
ATOM     12  H   UNL     1       0.800  -4.346   0.003  1.00  0.00     0.347 HD
ATOM     13  H   UNL     1      -0.794  -3.703   0.297  1.00  0.00     0.347 HD
BRANCH  11  14
ATOM     14  C   UNL     1       0.150  -4.330   1.929  1.00  0.00     0.362 C 
BRANCH  14  15
ATOM     15  C   UNL     1       0.229  -3.626   3.343  1.00  0.00     0.275 C 
ATOM     16  O   UNL     1      -0.459  -4.177   4.231  1.00  0.00    -0.268 OA
ATOM     17  N   UNL     1       1.003  -2.635   3.881  1.00  0.00    -0.349 N 
ATOM     18  H   UNL     1       1.109  -2.779   4.849  1.00  0.00     0.163 HD
BRANCH  17  19
ATOM     19  C   UNL     1       1.733  -1.411   3.470  1.00  0.00     0.081 C 
ATOM     20  C   UNL     1       0.851  -0.172   3.751  1.00  0.00     0.031 C 
BRANCH  19  21
ATOM     21  C   UNL     1       3.111  -1.113   4.151  1.00  0.00     0.005 C 
ATOM     22  C   UNL     1       3.893  -2.288   4.713  1.00  0.00     0.009 C 
ATOM     23  C   UNL     1       4.023  -0.326   3.184  1.00  0.00     0.009 C 
ENDBRANCH  19  21
ENDBRANCH  17  19
ENDBRANCH  14  15
ENDBRANCH  11  14
ENDBRANCH   7  11
ENDBRANCH   4   7
ENDBRANCH   2   3
ENDBRANCH   1   2
BRANCH   1  24
ATOM     24  C   UNL     1       5.126  -5.936   2.296  1.00  0.00     0.002 C 
BRANCH  24  25
ATOM     25  C   UNL     1       5.401  -5.541   3.752  1.00  0.00     0.002 C 
BRANCH  25  26
ATOM     26  C   UNL     1       4.478  -6.155   4.803  1.00  0.00     0.021 C 
BRANCH  26  27
ATOM     27  C   UNL     1       4.515  -7.676   4.842  1.00  0.00     0.116 C 
BRANCH  27  28
ATOM     28  N   UNL     1       5.870  -8.180   5.011  1.00  0.00    -0.352 N 
ATOM     29  C   UNL     1       6.369  -9.074   5.921  1.00  0.00     0.251 C 
ATOM     30  H   UNL     1       6.529  -7.822   4.373  1.00  0.00     0.163 HD
ATOM     31  O   UNL     1       7.577  -9.202   6.061  1.00  0.00    -0.269 OA
BRANCH  29  32
ATOM     32  C   UNL     1       5.439  -9.888   6.728  1.00  0.00     0.039 A 
ATOM     33  C   UNL     1       5.752 -10.145   8.065  1.00  0.00     0.014 A 
ATOM     34  C   UNL     1       4.287 -10.431   6.154  1.00  0.00     0.014 A 
ATOM     35  C   UNL     1       4.890 -10.927   8.832  1.00  0.00     0.010 A 
ATOM     36  C   UNL     1       3.385 -11.130   6.942  1.00  0.00     0.010 A 
ATOM     37  C   UNL     1       3.693 -11.411   8.280  1.00  0.00    -0.014 A 
BRANCH  37  38
ATOM     38  C   UNL     1       2.777 -12.270   9.068  1.00  0.00     0.031 A 
ATOM     39  C   UNL     1       2.530 -13.688   8.629  1.00  0.00     0.074 A 
ATOM     40  C   UNL     1       2.145 -11.762  10.142  1.00  0.00     0.049 A 
ATOM     41  N   UNL     1       1.715 -14.580   9.131  1.00  0.00    -0.248 NA
ATOM     42  C   UNL     1       3.276 -14.157   7.449  1.00  0.00     0.031 C 
ATOM     43  C   UNL     1       2.274 -10.388  10.630  1.00  0.00     0.029 A 
ATOM     44  N   UNL     1       1.259 -12.343  11.013  1.00  0.00    -0.354 N 
ATOM     45  C   UNL     1       1.850 -15.706   8.329  1.00  0.00     0.074 A 
ATOM     46  C   UNL     1       2.763 -15.363   7.262  1.00  0.00     0.031 C 
ATOM     47  C   UNL     1       1.511 -10.238  11.725  1.00  0.00     0.029 A 
ATOM     48  C   UNL     1       0.811 -11.490  11.992  1.00  0.00     0.049 A 
ATOM     49  H   UNL     1       0.971 -13.282  10.943  1.00  0.00     0.167 HD
ATOM     50  C   UNL     1       1.293 -16.929   8.490  1.00  0.00     0.037 A 
ATOM     51  C   UNL     1      -0.073 -11.700  12.985  1.00  0.00     0.037 A 
ATOM     52  C   UNL     1       0.398 -17.267   9.564  1.00  0.00     0.049 A 
ATOM     53  C   UNL     1      -0.688 -13.067  13.131  1.00  0.00     0.074 A 
ATOM     54  C   UNL     1      -0.216 -18.478   9.829  1.00  0.00     0.029 A 
ATOM     55  N   UNL     1      -0.003 -16.387  10.559  1.00  0.00    -0.354 N 
ATOM     56  N   UNL     1      -0.516 -14.139  12.395  1.00  0.00    -0.248 NA
ATOM     57  C   UNL     1      -1.608 -13.260  14.260  1.00  0.00     0.031 C 
ATOM     58  C   UNL     1      -1.018 -18.321  10.963  1.00  0.00     0.029 A 
ATOM     59  C   UNL     1      -0.857 -17.030  11.439  1.00  0.00     0.049 A 
ATOM     60  H   UNL     1       0.278 -15.446  10.628  1.00  0.00     0.167 HD
ATOM     61  C   UNL     1      -1.268 -15.140  12.995  1.00  0.00     0.074 A 
ATOM     62  C   UNL     1      -1.885 -14.551  14.165  1.00  0.00     0.031 C 
ATOM     63  C   UNL     1      -1.435 -16.430  12.614  1.00  0.00     0.037 A 
BRANCH  50  64
ATOM     64  C   UNL     1       1.655 -17.995   7.497  1.00  0.00     0.064 A 
ATOM     65  C   UNL     1       2.949 -18.540   7.450  1.00  0.00     0.173 A 
ATOM     66  C   UNL     1       0.696 -18.511   6.614  1.00  0.00     0.173 A 
ATOM     67  F   UNL     1       3.909 -18.072   8.262  1.00  0.00    -0.203 F 
ATOM     68  C   UNL     1       3.272 -19.544   6.541  1.00  0.00     0.198 A 
ATOM     69  C   UNL     1       1.014 -19.539   5.729  1.00  0.00     0.198 A 
ATOM     70  F   UNL     1      -0.556 -18.029   6.616  1.00  0.00    -0.203 F 
ATOM     71  F   UNL     1       4.526 -20.015   6.484  1.00  0.00    -0.200 F 
ATOM     72  C   UNL     1       2.303 -20.050   5.689  1.00  0.00     0.200 A 
ATOM     73  F   UNL     1       0.073 -20.037   4.915  1.00  0.00    -0.200 F 
ATOM     74  F   UNL     1       2.612 -21.026   4.825  1.00  0.00    -0.200 F 
ENDBRANCH  50  64
BRANCH  51  75
ATOM     75  C   UNL     1      -0.422 -10.602  13.927  1.00  0.00     0.064 A 
ATOM     76  C   UNL     1      -0.080 -10.677  15.285  1.00  0.00     0.173 A 
ATOM     77  C   UNL     1      -1.141  -9.477  13.499  1.00  0.00     0.173 A 
ATOM     78  F   UNL     1       0.596 -11.739  15.748  1.00  0.00    -0.203 F 
ATOM     79  C   UNL     1      -0.483  -9.694  16.185  1.00  0.00     0.198 A 
ATOM     80  C   UNL     1      -1.512  -8.475  14.394  1.00  0.00     0.198 A 
ATOM     81  F   UNL     1      -1.484  -9.348  12.209  1.00  0.00    -0.203 F 
ATOM     82  F   UNL     1      -0.205  -9.828  17.489  1.00  0.00    -0.200 F 
ATOM     83  C   UNL     1      -1.197  -8.592  15.739  1.00  0.00     0.200 A 
ATOM     84  F   UNL     1      -2.186  -7.404  13.955  1.00  0.00    -0.200 F 
ATOM     85  F   UNL     1      -1.593  -7.651  16.607  1.00  0.00    -0.200 F 
ENDBRANCH  51  75
BRANCH  63  86
ATOM     86  C   UNL     1      -2.257 -17.310  13.511  1.00  0.00     0.064 A 
ATOM     87  C   UNL     1      -3.644 -17.150  13.642  1.00  0.00     0.173 A 
ATOM     88  C   UNL     1      -1.645 -18.349  14.230  1.00  0.00     0.173 A 
ATOM     89  F   UNL     1      -4.276 -16.165  12.986  1.00  0.00    -0.203 F 
ATOM     90  C   UNL     1      -4.381 -17.971  14.491  1.00  0.00     0.198 A 
ATOM     91  C   UNL     1      -2.391 -19.192  15.048  1.00  0.00     0.198 A 
ATOM     92  F   UNL     1      -0.323 -18.553  14.131  1.00  0.00    -0.203 F 
ATOM     93  F   UNL     1      -5.695 -17.759  14.650  1.00  0.00    -0.200 F 
ATOM     94  C   UNL     1      -3.756 -18.995  15.187  1.00  0.00     0.200 A 
ATOM     95  F   UNL     1      -1.787 -20.192  15.705  1.00  0.00    -0.200 F 
ATOM     96  F   UNL     1      -4.468 -19.787  16.000  1.00  0.00    -0.200 F 
ENDBRANCH  63  86
ENDBRANCH  37  38
ENDBRANCH  29  32
ENDBRANCH  27  28
ENDBRANCH  26  27
ENDBRANCH  25  26
ENDBRANCH  24  25
ENDBRANCH   1  24
TORSDOF 19
