REMARK SMILES COc1ccc(C(=O)Nc2cc(C(=O)NCCCCCCNC(=O)c3ccc(-c4c5nc(c(-c6c(F)c(F)c(F)c(F)c6F)c6ccc([nH]6)c(-c6c(F)c(F)c(F)c(F)c6F)c6nc(c(-c7c(F)c(F)c(F)c(F)c7F)c7ccc4[nH]7)C=C6)C=C5)cc3)c(Cl)cc2Cl)cc1Cl
REMARK SMILES IDX 18 1 17 2 16 3 15 4 13 5 14 6 12 8 10 9 11 10 91 11 90 12
REMARK SMILES IDX 92 13 88 14 89 15 9 16 7 17 8 18 6 20 3 21 4 22 94 23 5 24
REMARK SMILES IDX 93 25 95 26 2 27 1 28 19 29 20 30 21 31 22 32 23 33 24 35
REMARK SMILES IDX 25 36 26 37 87 38 27 39 86 40 28 41 29 42 30 43 80 44 31 45
REMARK SMILES IDX 85 46 79 47 81 48 32 49 84 50 78 51 77 52 33 54 65 55 45 56
REMARK SMILES IDX 64 57 46 58 49 59 63 60 82 61 47 62 48 63 62 65 83 66 50 67
REMARK SMILES IDX 34 68 35 69 43 70 36 71 37 72 41 73 44 74 38 75 39 76 42 77
REMARK SMILES IDX 40 78 66 79 67 80 75 81 68 82 69 83 73 84 76 85 70 86 71 87
REMARK SMILES IDX 74 88 72 89 51 90 52 91 60 92 53 93 54 94 58 95 61 96 55 97
REMARK SMILES IDX 56 98 59 99 57 100
REMARK H PARENT 15 7 9 19 22 34 81 53 49 64
REMARK Flexibility Score: inf
ROOT
ATOM      1  C   UNL     1       7.425   0.554  -1.023  1.00  0.00     0.002 C 
ENDROOT
BRANCH   1   2
ATOM      2  C   UNL     1       6.798  -0.472  -0.071  1.00  0.00     0.021 C 
BRANCH   2   3
ATOM      3  C   UNL     1       7.064  -0.296   1.424  1.00  0.00     0.116 C 
BRANCH   3   4
ATOM      4  N   UNL     1       6.536   0.924   2.003  1.00  0.00    -0.352 N 
ATOM      5  C   UNL     1       6.101   1.202   3.278  1.00  0.00     0.252 C 
ATOM      6  O   UNL     1       5.779   2.359   3.546  1.00  0.00    -0.269 OA
ATOM      7  H   UNL     1       6.480   1.682   1.378  1.00  0.00     0.163 HD
BRANCH   5   8
ATOM      8  C   UNL     1       5.880   0.163   4.321  1.00  0.00     0.060 A 
ATOM      9  C   UNL     1       4.264  -0.698   5.963  1.00  0.00     0.061 A 
ATOM     10  C   UNL     1       4.639   0.246   4.997  1.00  0.00     0.043 A 
ATOM     11  C   UNL     1       5.181  -1.700   6.309  1.00  0.00     0.066 A 
ATOM     12  C   UNL     1       6.430  -1.762   5.691  1.00  0.00     0.044 A 
ATOM     13  Cl  UNL     1       4.782  -2.918   7.470  1.00  0.00    -0.082 Cl
ATOM     14  C   UNL     1       6.796  -0.813   4.728  1.00  0.00     0.055 A 
ATOM     15  Cl  UNL     1       8.446  -0.856   4.225  1.00  0.00    -0.083 Cl
BRANCH   9  16
ATOM     16  N   UNL     1       3.010  -0.683   6.610  1.00  0.00    -0.321 N 
ATOM     17  C   UNL     1       1.763  -0.237   6.233  1.00  0.00     0.255 C 
ATOM     18  O   UNL     1       0.897  -0.101   7.098  1.00  0.00    -0.269 OA
ATOM     19  H   UNL     1       3.031  -1.069   7.515  1.00  0.00     0.170 HD
BRANCH  17  20
ATOM     20  C   UNL     1       1.384  -0.027   4.808  1.00  0.00     0.041 A 
ATOM     21  C   UNL     1       0.666   0.491   2.122  1.00  0.00     0.137 A 
ATOM     22  C   UNL     1      -0.065   1.037   3.190  1.00  0.00     0.049 A 
ATOM     23  C   UNL     1       1.742  -0.352   2.418  1.00  0.00     0.083 A 
ATOM     24  C   UNL     1       0.294   0.794   4.519  1.00  0.00     0.018 A 
ATOM     25  C   UNL     1       2.038  -0.664   3.751  1.00  0.00     0.038 A 
ATOM     26  Cl  UNL     1       2.856  -1.000   1.264  1.00  0.00    -0.080 Cl
BRANCH  21  27
ATOM     27  O   UNL     1       0.206   0.919   0.909  1.00  0.00    -0.495 OA
ATOM     28  C   UNL     1       0.492   0.145  -0.245  1.00  0.00     0.278 C 
ENDBRANCH  21  27
ENDBRANCH  17  20
ENDBRANCH   9  16
ENDBRANCH   5   8
ENDBRANCH   3   4
ENDBRANCH   2   3
ENDBRANCH   1   2
BRANCH   1  29
ATOM     29  C   UNL     1       8.919   0.852  -0.863  1.00  0.00     0.002 C 
BRANCH  29  30
ATOM     30  C   UNL     1       9.870  -0.347  -0.840  1.00  0.00     0.021 C 
BRANCH  30  31
ATOM     31  C   UNL     1       9.776  -1.310  -2.019  1.00  0.00     0.116 C 
BRANCH  31  32
ATOM     32  N   UNL     1      10.091  -0.686  -3.293  1.00  0.00    -0.352 N 
ATOM     33  C   UNL     1      10.996  -1.056  -4.255  1.00  0.00     0.251 C 
ATOM     34  H   UNL     1       9.575   0.127  -3.498  1.00  0.00     0.163 HD
ATOM     35  O   UNL     1      11.208  -0.309  -5.214  1.00  0.00    -0.269 OA
BRANCH  33  36
ATOM     36  C   UNL     1      11.745  -2.328  -4.149  1.00  0.00     0.039 A 
ATOM     37  C   UNL     1      13.110  -2.330  -4.451  1.00  0.00     0.014 A 
ATOM     38  C   UNL     1      11.114  -3.520  -3.783  1.00  0.00     0.014 A 
ATOM     39  C   UNL     1      13.853  -3.506  -4.322  1.00  0.00     0.010 A 
ATOM     40  C   UNL     1      11.869  -4.677  -3.587  1.00  0.00     0.010 A 
ATOM     41  C   UNL     1      13.247  -4.683  -3.853  1.00  0.00    -0.014 A 
BRANCH  41  42
ATOM     42  C   UNL     1      14.044  -5.917  -3.622  1.00  0.00     0.031 A 
ATOM     43  C   UNL     1      13.773  -7.163  -4.421  1.00  0.00     0.074 A 
ATOM     44  C   UNL     1      14.974  -5.934  -2.645  1.00  0.00     0.049 A 
ATOM     45  N   UNL     1      14.319  -8.349  -4.317  1.00  0.00    -0.248 NA
ATOM     46  C   UNL     1      12.734  -7.072  -5.459  1.00  0.00     0.031 C 
ATOM     47  C   UNL     1      15.296  -4.809  -1.766  1.00  0.00     0.029 A 
ATOM     48  N   UNL     1      15.809  -6.937  -2.216  1.00  0.00    -0.354 N 
ATOM     49  C   UNL     1      13.682  -9.145  -5.260  1.00  0.00     0.074 A 
ATOM     50  C   UNL     1      12.678  -8.322  -5.898  1.00  0.00     0.031 C 
ATOM     51  C   UNL     1      16.266  -5.178  -0.914  1.00  0.00     0.029 A 
ATOM     52  C   UNL     1      16.608  -6.576  -1.158  1.00  0.00     0.049 A 
ATOM     53  H   UNL     1      15.833  -7.831  -2.629  1.00  0.00     0.167 HD
ATOM     54  C   UNL     1      13.927 -10.439  -5.577  1.00  0.00     0.037 A 
ATOM     55  C   UNL     1      17.505  -7.293  -0.454  1.00  0.00     0.037 A 
ATOM     56  C   UNL     1      14.950 -11.246  -4.964  1.00  0.00     0.049 A 
ATOM     57  C   UNL     1      17.757  -8.728  -0.833  1.00  0.00     0.074 A 
ATOM     58  C   UNL     1      15.325 -12.542  -5.272  1.00  0.00     0.029 A 
ATOM     59  N   UNL     1      15.758 -10.835  -3.914  1.00  0.00    -0.354 N 
ATOM     60  N   UNL     1      17.206  -9.443  -1.783  1.00  0.00    -0.248 NA
ATOM     61  C   UNL     1      18.765  -9.455  -0.048  1.00  0.00     0.031 C 
ATOM     62  C   UNL     1      16.320 -12.936  -4.373  1.00  0.00     0.029 A 
ATOM     63  C   UNL     1      16.610 -11.864  -3.544  1.00  0.00     0.049 A 
ATOM     64  H   UNL     1      15.731  -9.945  -3.494  1.00  0.00     0.167 HD
ATOM     65  C   UNL     1      17.818 -10.688  -1.730  1.00  0.00     0.074 A 
ATOM     66  C   UNL     1      18.798 -10.626  -0.666  1.00  0.00     0.031 C 
ATOM     67  C   UNL     1      17.588 -11.785  -2.491  1.00  0.00     0.037 A 
BRANCH  54  68
ATOM     68  C   UNL     1      13.081 -11.077  -6.641  1.00  0.00     0.064 A 
ATOM     69  C   UNL     1      13.210 -10.728  -7.994  1.00  0.00     0.173 A 
ATOM     70  C   UNL     1      12.186 -12.107  -6.313  1.00  0.00     0.173 A 
ATOM     71  F   UNL     1      14.045  -9.744  -8.361  1.00  0.00    -0.203 F 
ATOM     72  C   UNL     1      12.464 -11.376  -8.976  1.00  0.00     0.198 A 
ATOM     73  C   UNL     1      11.464 -12.773  -7.300  1.00  0.00     0.198 A 
ATOM     74  F   UNL     1      12.029 -12.485  -5.035  1.00  0.00    -0.203 F 
ATOM     75  F   UNL     1      12.579 -11.002 -10.258  1.00  0.00    -0.200 F 
ATOM     76  C   UNL     1      11.600 -12.404  -8.629  1.00  0.00     0.200 A 
ATOM     77  F   UNL     1      10.641 -13.776  -6.965  1.00  0.00    -0.200 F 
ATOM     78  F   UNL     1      10.897 -13.038  -9.577  1.00  0.00    -0.200 F 
ENDBRANCH  54  68
BRANCH  55  79
ATOM     79  C   UNL     1      18.235  -6.671   0.683  1.00  0.00     0.064 A 
ATOM     80  C   UNL     1      19.619  -6.455   0.624  1.00  0.00     0.173 A 
ATOM     81  C   UNL     1      17.571  -6.312   1.866  1.00  0.00     0.173 A 
ATOM     82  F   UNL     1      20.304  -6.801  -0.476  1.00  0.00    -0.203 F 
ATOM     83  C   UNL     1      20.316  -5.937   1.714  1.00  0.00     0.198 A 
ATOM     84  C   UNL     1      18.263  -5.761   2.943  1.00  0.00     0.198 A 
ATOM     85  F   UNL     1      16.247  -6.492   1.974  1.00  0.00    -0.203 F 
ATOM     86  F   UNL     1      21.647  -5.801   1.652  1.00  0.00    -0.200 F 
ATOM     87  C   UNL     1      19.637  -5.586   2.871  1.00  0.00     0.200 A 
ATOM     88  F   UNL     1      17.600  -5.410   4.053  1.00  0.00    -0.200 F 
ATOM     89  F   UNL     1      20.307  -5.091   3.920  1.00  0.00    -0.200 F 
ENDBRANCH  55  79
BRANCH  67  90
ATOM     90  C   UNL     1      18.437 -12.997  -2.231  1.00  0.00     0.064 A 
ATOM     91  C   UNL     1      18.288 -13.766  -1.067  1.00  0.00     0.173 A 
ATOM     92  C   UNL     1      19.385 -13.415  -3.177  1.00  0.00     0.173 A 
ATOM     93  F   UNL     1      17.406 -13.401  -0.125  1.00  0.00    -0.203 F 
ATOM     94  C   UNL     1      19.078 -14.891  -0.848  1.00  0.00     0.198 A 
ATOM     95  C   UNL     1      20.149 -14.559  -2.970  1.00  0.00     0.198 A 
ATOM     96  F   UNL     1      19.562 -12.719  -4.311  1.00  0.00    -0.203 F 
ATOM     97  F   UNL     1      18.956 -15.581   0.295  1.00  0.00    -0.200 F 
ATOM     98  C   UNL     1      20.002 -15.292  -1.802  1.00  0.00     0.200 A 
ATOM     99  F   UNL     1      21.029 -14.954  -3.901  1.00  0.00    -0.200 F 
ATOM    100  F   UNL     1      20.755 -16.380  -1.593  1.00  0.00    -0.200 F 
ENDBRANCH  67  90
ENDBRANCH  41  42
ENDBRANCH  33  36
ENDBRANCH  31  32
ENDBRANCH  30  31
ENDBRANCH  29  30
ENDBRANCH   1  29
TORSDOF 16
