REMARK SMILES Cc1nn(CC(=O)NCCCCCCNC(=O)c2ccc(-c3c4nc(c(-c5c(F)c(F)c(F)c(F)c5F)c5ccc([nH]5)c(-c5c(F)c(F)c(F)c(F)c5F)c5nc(c(-c6c(F)c(F)c(F)c(F)c6F)c6ccc3[nH]6)C=C5)C=C4)cc2)c(C)c1NC(=O)C(=O)Nc1ccc(F)cc1
REMARK SMILES IDX 10 1 9 2 8 3 6 4 7 5 5 7 4 8 1 9 2 10 3 11 83 12 81 13 82 14
REMARK SMILES IDX 84 15 85 16 86 18 87 19 88 20 89 21 90 23 91 24 96 25 92 26
REMARK SMILES IDX 95 27 93 28 94 29 11 30 12 31 13 32 14 33 15 34 16 35 17 37
REMARK SMILES IDX 18 38 19 39 80 40 20 41 79 42 21 43 22 44 23 45 73 46 24 47
REMARK SMILES IDX 78 48 72 49 74 50 25 51 77 52 71 53 70 54 26 56 58 57 38 58
REMARK SMILES IDX 57 59 39 60 42 61 56 62 75 63 40 64 41 65 55 67 76 68 43 69
REMARK SMILES IDX 27 70 28 71 36 72 29 73 30 74 34 75 37 76 31 77 32 78 35 79
REMARK SMILES IDX 33 80 59 81 60 82 68 83 61 84 62 85 66 86 69 87 63 88 64 89
REMARK SMILES IDX 67 90 65 91 44 92 45 93 53 94 46 95 47 96 51 97 54 98 48 99
REMARK SMILES IDX 49 100 52 101 50 102
REMARK H PARENT 8 6 84 17 89 22 15 36 74 55 42 66
REMARK Flexibility Score: inf
ROOT
ATOM      1  C   UNL     1       3.243   2.354  -4.342  1.00  0.00     0.021 C 
ENDROOT
BRANCH   1   2
ATOM      2  C   UNL     1       2.169   3.331  -4.811  1.00  0.00     0.116 C 
BRANCH   2   3
ATOM      3  N   UNL     1       1.179   2.696  -5.653  1.00  0.00    -0.354 N 
ATOM      4  C   UNL     1      -0.122   2.357  -5.434  1.00  0.00     0.241 C 
ATOM      5  O   UNL     1      -0.696   1.788  -6.372  1.00  0.00    -0.273 OA
ATOM      6  H   UNL     1       1.507   2.465  -6.553  1.00  0.00     0.163 HD
BRANCH   4   7
ATOM      7  C   UNL     1      -0.918   2.781  -4.217  1.00  0.00     0.244 C 
BRANCH   7   8
ATOM      8  N   UNL     1      -0.267   2.589  -2.933  1.00  0.00    -0.258 N 
ATOM      9  C   UNL     1       0.823   0.258  -0.532  1.00  0.00     0.071 C 
ATOM     10  C   UNL     1       0.488   1.469  -1.316  1.00  0.00     0.083 A 
ATOM     11  N   UNL     1      -0.091   1.333  -2.505  1.00  0.00    -0.175 NA
ATOM     12  C   UNL     1       0.707   2.837  -0.967  1.00  0.00     0.086 A 
ATOM     13  C   UNL     1       0.194   3.548  -2.043  1.00  0.00     0.060 A 
ATOM     14  C   UNL     1       0.155   4.993  -2.405  1.00  0.00     0.069 C 
BRANCH  12  15
ATOM     15  N   UNL     1       1.345   3.195   0.211  1.00  0.00    -0.315 N 
ATOM     16  C   UNL     1       1.534   4.370   0.893  1.00  0.00     0.314 C 
ATOM     17  H   UNL     1       1.759   2.425   0.663  1.00  0.00     0.170 HD
ATOM     18  O   UNL     1       2.183   4.366   1.937  1.00  0.00    -0.263 OA
BRANCH  16  19
ATOM     19  C   UNL     1       0.850   5.639   0.435  1.00  0.00     0.314 C 
ATOM     20  O   UNL     1      -0.378   5.666   0.389  1.00  0.00    -0.263 OA
ATOM     21  N   UNL     1       1.579   6.750   0.043  1.00  0.00    -0.318 N 
ATOM     22  H   UNL     1       1.378   7.146  -0.836  1.00  0.00     0.170 HD
BRANCH  21  23
ATOM     23  C   UNL     1       2.588   7.350   0.818  1.00  0.00     0.041 A 
ATOM     24  C   UNL     1       2.335   8.671   1.216  1.00  0.00     0.029 A 
ATOM     25  C   UNL     1       3.743   6.704   1.256  1.00  0.00     0.029 A 
ATOM     26  C   UNL     1       3.164   9.298   2.141  1.00  0.00     0.041 A 
ATOM     27  C   UNL     1       4.587   7.344   2.169  1.00  0.00     0.041 A 
ATOM     28  C   UNL     1       4.275   8.622   2.624  1.00  0.00     0.123 A 
ATOM     29  F   UNL     1       5.050   9.206   3.546  1.00  0.00    -0.207 F 
ENDBRANCH  21  23
ENDBRANCH  16  19
ENDBRANCH  12  15
ENDBRANCH   7   8
ENDBRANCH   4   7
ENDBRANCH   2   3
ENDBRANCH   1   2
BRANCH   1  30
ATOM     30  C   UNL     1       4.224   1.951  -5.446  1.00  0.00     0.002 C 
BRANCH  30  31
ATOM     31  C   UNL     1       4.905   3.111  -6.193  1.00  0.00     0.002 C 
BRANCH  31  32
ATOM     32  C   UNL     1       5.620   4.169  -5.338  1.00  0.00     0.021 C 
BRANCH  32  33
ATOM     33  C   UNL     1       6.815   3.637  -4.564  1.00  0.00     0.116 C 
BRANCH  33  34
ATOM     34  N   UNL     1       7.893   3.143  -5.434  1.00  0.00    -0.352 N 
ATOM     35  C   UNL     1       9.066   2.476  -5.096  1.00  0.00     0.251 C 
ATOM     36  H   UNL     1       7.766   3.308  -6.396  1.00  0.00     0.163 HD
ATOM     37  O   UNL     1      10.022   2.450  -5.847  1.00  0.00    -0.269 OA
BRANCH  35  38
ATOM     38  C   UNL     1       9.114   1.776  -3.799  1.00  0.00     0.039 A 
ATOM     39  C   UNL     1      10.256   1.688  -2.997  1.00  0.00     0.014 A 
ATOM     40  C   UNL     1       7.916   1.237  -3.371  1.00  0.00     0.014 A 
ATOM     41  C   UNL     1      10.137   1.071  -1.750  1.00  0.00     0.010 A 
ATOM     42  C   UNL     1       7.735   1.015  -2.046  1.00  0.00     0.010 A 
ATOM     43  C   UNL     1       8.856   0.730  -1.295  1.00  0.00    -0.014 A 
BRANCH  43  44
ATOM     44  C   UNL     1       8.572   0.106  -0.015  1.00  0.00     0.031 A 
ATOM     45  C   UNL     1       8.959   0.934   1.147  1.00  0.00     0.074 A 
ATOM     46  C   UNL     1       7.749  -0.966   0.083  1.00  0.00     0.049 A 
ATOM     47  N   UNL     1       9.896   0.702   2.001  1.00  0.00    -0.248 NA
ATOM     48  C   UNL     1       8.335   2.261   1.284  1.00  0.00     0.031 C 
ATOM     49  C   UNL     1       7.006  -1.663  -0.982  1.00  0.00     0.029 A 
ATOM     50  N   UNL     1       7.313  -1.607   1.200  1.00  0.00    -0.354 N 
ATOM     51  C   UNL     1       9.832   1.747   2.916  1.00  0.00     0.074 A 
ATOM     52  C   UNL     1       9.028   2.771   2.304  1.00  0.00     0.031 C 
ATOM     53  C   UNL     1       6.065  -2.468  -0.439  1.00  0.00     0.029 A 
ATOM     54  C   UNL     1       6.244  -2.479   0.999  1.00  0.00     0.049 A 
ATOM     55  H   UNL     1       7.721  -1.465   2.084  1.00  0.00     0.167 HD
ATOM     56  C   UNL     1      10.197   1.554   4.212  1.00  0.00     0.037 A 
ATOM     57  C   UNL     1       5.554  -3.136   1.967  1.00  0.00     0.037 A 
ATOM     58  C   UNL     1      10.965   0.339   4.356  1.00  0.00     0.049 A 
ATOM     59  C   UNL     1       6.404  -3.119   3.186  1.00  0.00     0.074 A 
ATOM     60  C   UNL     1      12.148  -0.131   3.817  1.00  0.00     0.029 A 
ATOM     61  N   UNL     1      10.317  -0.772   4.841  1.00  0.00    -0.354 N 
ATOM     62  N   UNL     1       7.537  -3.759   3.283  1.00  0.00    -0.248 NA
ATOM     63  C   UNL     1       6.236  -1.997   4.098  1.00  0.00     0.031 C 
ATOM     64  C   UNL     1      11.914  -1.516   3.560  1.00  0.00     0.029 A 
ATOM     65  C   UNL     1      10.636  -1.829   4.026  1.00  0.00     0.049 A 
ATOM     66  H   UNL     1       9.731  -0.804   5.631  1.00  0.00     0.167 HD
ATOM     67  C   UNL     1       8.382  -2.881   3.946  1.00  0.00     0.074 A 
ATOM     68  C   UNL     1       7.506  -1.840   4.482  1.00  0.00     0.031 C 
ATOM     69  C   UNL     1       9.732  -2.918   3.741  1.00  0.00     0.037 A 
BRANCH  56  70
ATOM     70  C   UNL     1       9.526   2.219   5.391  1.00  0.00     0.064 A 
ATOM     71  C   UNL     1      10.078   2.033   6.674  1.00  0.00     0.173 A 
ATOM     72  C   UNL     1       8.222   2.762   5.365  1.00  0.00     0.173 A 
ATOM     73  F   UNL     1      11.307   1.515   6.819  1.00  0.00    -0.203 F 
ATOM     74  C   UNL     1       9.344   2.279   7.836  1.00  0.00     0.198 A 
ATOM     75  C   UNL     1       7.514   3.059   6.527  1.00  0.00     0.198 A 
ATOM     76  F   UNL     1       7.529   2.920   4.232  1.00  0.00    -0.203 F 
ATOM     77  F   UNL     1       9.861   1.955   9.029  1.00  0.00    -0.200 F 
ATOM     78  C   UNL     1       8.059   2.783   7.762  1.00  0.00     0.200 A 
ATOM     79  F   UNL     1       6.263   3.531   6.431  1.00  0.00    -0.200 F 
ATOM     80  F   UNL     1       7.327   2.954   8.870  1.00  0.00    -0.200 F 
ENDBRANCH  56  70
BRANCH  57  81
ATOM     81  C   UNL     1       4.116  -3.496   2.018  1.00  0.00     0.064 A 
ATOM     82  C   UNL     1       3.633  -4.445   2.937  1.00  0.00     0.173 A 
ATOM     83  C   UNL     1       3.147  -2.703   1.375  1.00  0.00     0.173 A 
ATOM     84  F   UNL     1       4.490  -5.210   3.627  1.00  0.00    -0.203 F 
ATOM     85  C   UNL     1       2.266  -4.571   3.218  1.00  0.00     0.198 A 
ATOM     86  C   UNL     1       1.785  -2.836   1.655  1.00  0.00     0.198 A 
ATOM     87  F   UNL     1       3.510  -1.713   0.546  1.00  0.00    -0.203 F 
ATOM     88  F   UNL     1       1.849  -5.439   4.150  1.00  0.00    -0.200 F 
ATOM     89  C   UNL     1       1.345  -3.756   2.585  1.00  0.00     0.200 A 
ATOM     90  F   UNL     1       0.902  -2.016   1.073  1.00  0.00    -0.200 F 
ATOM     91  F   UNL     1       0.044  -3.821   2.901  1.00  0.00    -0.200 F 
ENDBRANCH  57  81
BRANCH  69  92
ATOM     92  C   UNL     1      10.286  -4.080   2.962  1.00  0.00     0.064 A 
ATOM     93  C   UNL     1       9.995  -4.336   1.610  1.00  0.00     0.173 A 
ATOM     94  C   UNL     1      11.254  -4.888   3.571  1.00  0.00     0.173 A 
ATOM     95  F   UNL     1       9.156  -3.552   0.925  1.00  0.00    -0.203 F 
ATOM     96  C   UNL     1      10.612  -5.377   0.916  1.00  0.00     0.198 A 
ATOM     97  C   UNL     1      11.895  -5.905   2.868  1.00  0.00     0.198 A 
ATOM     98  F   UNL     1      11.615  -4.657   4.843  1.00  0.00    -0.203 F 
ATOM     99  F   UNL     1      10.306  -5.604  -0.370  1.00  0.00    -0.200 F 
ATOM    100  C   UNL     1      11.566  -6.157   1.546  1.00  0.00     0.200 A 
ATOM    101  F   UNL     1      12.852  -6.626   3.467  1.00  0.00    -0.200 F 
ATOM    102  F   UNL     1      12.188  -7.135   0.872  1.00  0.00    -0.200 F 
ENDBRANCH  69  92
ENDBRANCH  43  44
ENDBRANCH  35  38
ENDBRANCH  33  34
ENDBRANCH  32  33
ENDBRANCH  31  32
ENDBRANCH  30  31
ENDBRANCH   1  30
TORSDOF 17
