REMARK SMILES COC(=O)c1cc(F)cc(-c2ccc(C(=O)NCCCCCCNC(=O)c3ccc(-c4c5nc(c(-c6c(F)c(F)c(F)c(F)c6F)c6ccc([nH]6)c(-c6c(F)c(F)c(F)c(F)c6F)c6nc(c(-c7c(F)c(F)c(F)c(F)c7F)c7ccc4[nH]7)C=C6)C=C5)cc3)cc2C)c1
REMARK SMILES IDX 20 1 19 2 18 3 17 4 15 5 16 6 14 8 11 9 12 10 91 11 13 12
REMARK SMILES IDX 90 13 92 14 10 15 5 16 6 17 93 18 7 19 8 20 9 21 3 22 4 23
REMARK SMILES IDX 2 24 1 25 21 26 22 27 23 28 24 29 25 30 26 32 27 33 28 34
REMARK SMILES IDX 89 35 29 36 88 37 30 38 31 39 32 40 82 41 33 42 87 43 81 44
REMARK SMILES IDX 83 45 34 46 86 47 80 48 79 49 35 51 67 52 47 53 66 54 48 55
REMARK SMILES IDX 51 56 65 57 84 58 49 59 50 60 64 62 85 63 52 64 36 65 37 66
REMARK SMILES IDX 45 67 38 68 39 69 43 70 46 71 40 72 41 73 44 74 42 75 68 76
REMARK SMILES IDX 69 77 77 78 70 79 71 80 75 81 78 82 72 83 73 84 76 85 74 86
REMARK SMILES IDX 53 87 54 88 62 89 55 90 56 91 60 92 63 93 57 94 58 95 61 96
REMARK SMILES IDX 59 97
REMARK H PARENT 17 7 24 31 83 50 51 61
REMARK Flexibility Score: inf
ROOT
ATOM      1  C   UNL     1       7.143   1.077  11.834  1.00  0.00     0.002 C 
ENDROOT
BRANCH   1   2
ATOM      2  C   UNL     1       5.879   1.297  11.006  1.00  0.00     0.021 C 
BRANCH   2   3
ATOM      3  C   UNL     1       5.585   0.242   9.947  1.00  0.00     0.116 C 
BRANCH   3   4
ATOM      4  N   UNL     1       5.239  -1.054  10.497  1.00  0.00    -0.352 N 
ATOM      5  C   UNL     1       4.260  -1.960  10.161  1.00  0.00     0.251 C 
ATOM      6  O   UNL     1       4.154  -2.972  10.854  1.00  0.00    -0.269 OA
ATOM      7  H   UNL     1       5.809  -1.338  11.248  1.00  0.00     0.163 HD
BRANCH   5   8
ATOM      8  C   UNL     1       3.313  -1.757   9.026  1.00  0.00     0.040 A 
ATOM      9  C   UNL     1       1.381  -1.412   6.963  1.00  0.00    -0.015 A 
ATOM     10  C   UNL     1       2.629  -0.760   6.936  1.00  0.00     0.010 A 
ATOM     11  C   UNL     1       1.136  -2.317   8.014  1.00  0.00    -0.042 A 
ATOM     12  C   UNL     1       3.601  -0.983   7.909  1.00  0.00     0.014 A 
ATOM     13  C   UNL     1       2.087  -2.442   9.053  1.00  0.00     0.018 A 
ATOM     14  C   UNL     1      -0.065  -3.224   8.069  1.00  0.00     0.045 C 
BRANCH   9  15
ATOM     15  C   UNL     1       0.452  -1.141   5.852  1.00  0.00    -0.014 A 
ATOM     16  C   UNL     1       0.109  -0.913   3.438  1.00  0.00     0.063 A 
ATOM     17  C   UNL     1      -1.182  -0.435   3.654  1.00  0.00     0.055 A 
ATOM     18  C   UNL     1       0.904  -1.284   4.529  1.00  0.00     0.024 A 
ATOM     19  C   UNL     1      -1.648  -0.323   4.959  1.00  0.00     0.124 A 
ATOM     20  F   UNL     1      -2.888   0.136   5.173  1.00  0.00    -0.207 F 
ATOM     21  C   UNL     1      -0.847  -0.655   6.052  1.00  0.00     0.048 A 
BRANCH  16  22
ATOM     22  C   UNL     1       0.719  -1.025   2.092  1.00  0.00     0.337 C 
ATOM     23  O   UNL     1       1.649  -1.768   1.840  1.00  0.00    -0.246 OA
BRANCH  22  24
ATOM     24  O   UNL     1       0.158  -0.123   1.250  1.00  0.00    -0.465 OA
ATOM     25  C   UNL     1       0.794  -0.074  -0.028  1.00  0.00     0.282 C 
ENDBRANCH  22  24
ENDBRANCH  16  22
ENDBRANCH   9  15
ENDBRANCH   5   8
ENDBRANCH   3   4
ENDBRANCH   2   3
ENDBRANCH   1   2
BRANCH   1  26
ATOM     26  C   UNL     1       8.435   0.884  11.035  1.00  0.00     0.002 C 
BRANCH  26  27
ATOM     27  C   UNL     1       8.754   1.970   9.997  1.00  0.00     0.021 C 
BRANCH  27  28
ATOM     28  C   UNL     1       8.847   3.388  10.557  1.00  0.00     0.116 C 
BRANCH  28  29
ATOM     29  N   UNL     1       9.907   3.510  11.537  1.00  0.00    -0.352 N 
ATOM     30  C   UNL     1      10.648   4.588  11.934  1.00  0.00     0.251 C 
ATOM     31  H   UNL     1      10.133   2.669  11.998  1.00  0.00     0.163 HD
ATOM     32  O   UNL     1      11.625   4.385  12.654  1.00  0.00    -0.269 OA
BRANCH  30  33
ATOM     33  C   UNL     1      10.321   5.979  11.536  1.00  0.00     0.039 A 
ATOM     34  C   UNL     1      11.371   6.908  11.529  1.00  0.00     0.014 A 
ATOM     35  C   UNL     1       9.020   6.424  11.287  1.00  0.00     0.014 A 
ATOM     36  C   UNL     1      11.121   8.260  11.293  1.00  0.00     0.010 A 
ATOM     37  C   UNL     1       8.777   7.765  10.983  1.00  0.00     0.010 A 
ATOM     38  C   UNL     1       9.820   8.699  11.014  1.00  0.00    -0.014 A 
BRANCH  38  39
ATOM     39  C   UNL     1       9.538  10.136  10.780  1.00  0.00     0.031 A 
ATOM     40  C   UNL     1       8.694  10.912  11.752  1.00  0.00     0.074 A 
ATOM     41  C   UNL     1      10.023  10.730   9.674  1.00  0.00     0.049 A 
ATOM     42  N   UNL     1       8.304  12.160  11.695  1.00  0.00    -0.248 NA
ATOM     43  C   UNL     1       8.208  10.187  12.938  1.00  0.00     0.031 C 
ATOM     44  C   UNL     1      10.835  10.067   8.653  1.00  0.00     0.029 A 
ATOM     45  N   UNL     1       9.903  12.019   9.220  1.00  0.00    -0.354 N 
ATOM     46  C   UNL     1       7.527  12.367  12.828  1.00  0.00     0.074 A 
ATOM     47  C   UNL     1       7.455  11.104  13.529  1.00  0.00     0.031 C 
ATOM     48  C   UNL     1      11.162  10.959   7.706  1.00  0.00     0.029 A 
ATOM     49  C   UNL     1      10.545  12.242   8.028  1.00  0.00     0.049 A 
ATOM     50  H   UNL     1       9.404  12.716   9.704  1.00  0.00     0.167 HD
ATOM     51  C   UNL     1       6.949  13.515  13.252  1.00  0.00     0.037 A 
ATOM     52  C   UNL     1      10.619  13.355   7.273  1.00  0.00     0.037 A 
ATOM     53  C   UNL     1       7.047  14.771  12.556  1.00  0.00     0.049 A 
ATOM     54  C   UNL     1       9.937  14.607   7.749  1.00  0.00     0.074 A 
ATOM     55  C   UNL     1       6.541  16.004  12.930  1.00  0.00     0.029 A 
ATOM     56  N   UNL     1       7.691  14.954  11.341  1.00  0.00    -0.354 N 
ATOM     57  N   UNL     1       9.249  14.805   8.847  1.00  0.00    -0.248 NA
ATOM     58  C   UNL     1      10.042  15.791   6.885  1.00  0.00     0.031 C 
ATOM     59  C   UNL     1       6.826  16.918  11.913  1.00  0.00     0.029 A 
ATOM     60  C   UNL     1       7.566  16.273  10.935  1.00  0.00     0.049 A 
ATOM     61  H   UNL     1       8.167  14.252  10.841  1.00  0.00     0.167 HD
ATOM     62  C   UNL     1       8.856  16.136   8.818  1.00  0.00     0.074 A 
ATOM     63  C   UNL     1       9.397  16.703   7.600  1.00  0.00     0.031 C 
ATOM     64  C   UNL     1       8.112  16.823   9.719  1.00  0.00     0.037 A 
BRANCH  51  65
ATOM     65  C   UNL     1       6.163  13.483  14.533  1.00  0.00     0.064 A 
ATOM     66  C   UNL     1       4.775  13.695  14.522  1.00  0.00     0.173 A 
ATOM     67  C   UNL     1       6.792  13.332  15.778  1.00  0.00     0.173 A 
ATOM     68  F   UNL     1       4.123  13.851  13.360  1.00  0.00    -0.203 F 
ATOM     69  C   UNL     1       4.052  13.777  15.710  1.00  0.00     0.198 A 
ATOM     70  C   UNL     1       6.061  13.383  16.962  1.00  0.00     0.198 A 
ATOM     71  F   UNL     1       8.115  13.118  15.845  1.00  0.00    -0.203 F 
ATOM     72  F   UNL     1       2.735  14.020  15.675  1.00  0.00    -0.200 F 
ATOM     73  C   UNL     1       4.695  13.618  16.928  1.00  0.00     0.200 A 
ATOM     74  F   UNL     1       6.680  13.206  18.138  1.00  0.00    -0.200 F 
ATOM     75  F   UNL     1       3.997  13.690  18.070  1.00  0.00    -0.200 F 
ENDBRANCH  51  65
BRANCH  52  76
ATOM     76  C   UNL     1      11.393  13.326   6.005  1.00  0.00     0.064 A 
ATOM     77  C   UNL     1      10.967  12.564   4.906  1.00  0.00     0.173 A 
ATOM     78  C   UNL     1      12.603  14.022   5.885  1.00  0.00     0.173 A 
ATOM     79  F   UNL     1       9.819  11.873   4.972  1.00  0.00    -0.203 F 
ATOM     80  C   UNL     1      11.734  12.480   3.746  1.00  0.00     0.198 A 
ATOM     81  C   UNL     1      13.355  13.962   4.713  1.00  0.00     0.198 A 
ATOM     82  F   UNL     1      13.044  14.778   6.901  1.00  0.00    -0.203 F 
ATOM     83  F   UNL     1      11.325  11.710   2.729  1.00  0.00    -0.200 F 
ATOM     84  C   UNL     1      12.926  13.183   3.649  1.00  0.00     0.200 A 
ATOM     85  F   UNL     1      14.494  14.660   4.615  1.00  0.00    -0.200 F 
ATOM     86  F   UNL     1      13.660  13.109   2.531  1.00  0.00    -0.200 F 
ENDBRANCH  52  76
BRANCH  64  87
ATOM     87  C   UNL     1       7.840  18.272   9.439  1.00  0.00     0.064 A 
ATOM     88  C   UNL     1       8.406  19.271  10.247  1.00  0.00     0.173 A 
ATOM     89  C   UNL     1       6.947  18.668   8.433  1.00  0.00     0.173 A 
ATOM     90  F   UNL     1       9.259  18.944  11.229  1.00  0.00    -0.203 F 
ATOM     91  C   UNL     1       8.068  20.610  10.073  1.00  0.00     0.198 A 
ATOM     92  C   UNL     1       6.637  20.012   8.241  1.00  0.00     0.198 A 
ATOM     93  F   UNL     1       6.390  17.753   7.626  1.00  0.00    -0.203 F 
ATOM     94  F   UNL     1       8.585  21.541  10.887  1.00  0.00    -0.200 F 
ATOM     95  C   UNL     1       7.187  20.979   9.069  1.00  0.00     0.200 A 
ATOM     96  F   UNL     1       5.804  20.370   7.254  1.00  0.00    -0.200 F 
ATOM     97  F   UNL     1       6.867  22.269   8.898  1.00  0.00    -0.200 F 
ENDBRANCH  64  87
ENDBRANCH  38  39
ENDBRANCH  30  33
ENDBRANCH  28  29
ENDBRANCH  27  28
ENDBRANCH  26  27
ENDBRANCH   1  26
TORSDOF 16
