REMARK SMILES Cc1nc2cc(S(=O)(=O)N3CCC(C(=O)NCCCCCCNC(=O)c4ccc(-c5c6nc(c(-c7c(F)c(F)c(F)c(F)c7F)c7ccc([nH]7)c(-c7c(F)c(F)c(F)c(F)c7F)c7nc(c(-c8c(F)c(F)c(F)c(F)c8F)c8ccc5[nH]8)C=C7)C=C6)cc4)CC3)ccc2n1C1CCCC1
REMARK SMILES IDX 19 1 18 2 17 3 16 4 14 5 15 6 13 8 10 9 11 10 90 11 12 12
REMARK SMILES IDX 89 13 7 14 8 15 9 16 6 17 1 18 2 19 3 20 94 21 4 22 93 23
REMARK SMILES IDX 5 24 92 25 91 26 95 27 96 28 99 29 97 30 98 31 20 32 21 33
REMARK SMILES IDX 22 34 23 35 24 36 25 38 26 39 27 40 88 41 28 42 87 43 29 44
REMARK SMILES IDX 30 45 31 46 81 47 32 48 86 49 80 50 82 51 33 52 85 53 79 54
REMARK SMILES IDX 78 55 34 57 66 58 46 59 65 60 47 61 50 62 64 63 83 64 48 65
REMARK SMILES IDX 49 66 63 68 84 69 51 70 35 71 36 72 44 73 37 74 38 75 42 76
REMARK SMILES IDX 45 77 39 78 40 79 43 80 41 81 67 82 68 83 76 84 69 85 70 86
REMARK SMILES IDX 74 87 77 88 71 89 72 90 75 91 73 92 52 93 53 94 61 95 54 96
REMARK SMILES IDX 55 97 59 98 62 99 56 100 57 101 60 102 58 103
REMARK H PARENT 16 7 23 37 82 56 50 67
REMARK Flexibility Score: inf
ROOT
ATOM      1  C   UNL     1      -2.683  10.972  -9.834  1.00  0.00     0.002 C 
ENDROOT
BRANCH   1   2
ATOM      2  C   UNL     1      -2.647   9.699  -8.989  1.00  0.00     0.021 C 
BRANCH   2   3
ATOM      3  C   UNL     1      -1.235   9.195  -8.717  1.00  0.00     0.116 C 
BRANCH   3   4
ATOM      4  N   UNL     1      -0.562  10.026  -7.731  1.00  0.00    -0.356 N 
ATOM      5  C   UNL     1      -0.121   9.732  -6.477  1.00  0.00     0.223 C 
ATOM      6  O   UNL     1       0.379  10.632  -5.802  1.00  0.00    -0.275 OA
ATOM      7  H   UNL     1      -0.399  10.954  -8.017  1.00  0.00     0.163 HD
BRANCH   5   8
ATOM      8  C   UNL     1      -0.223   8.319  -5.926  1.00  0.00     0.081 C 
ATOM      9  N   UNL     1      -0.983   5.541  -6.251  1.00  0.00    -0.198 NA
ATOM     10  C   UNL     1      -1.875   6.428  -5.465  1.00  0.00     0.103 C 
ATOM     11  C   UNL     1       0.440   5.915  -6.429  1.00  0.00     0.103 C 
ATOM     12  C   UNL     1      -1.679   7.899  -5.760  1.00  0.00     0.030 C 
ATOM     13  C   UNL     1       0.640   7.375  -6.757  1.00  0.00     0.030 C 
BRANCH   9  14
ATOM     14  S   UNL     1      -1.247   3.857  -5.981  1.00  0.00     0.243 S 
ATOM     15  O   UNL     1      -0.422   3.140  -6.943  1.00  0.00    -0.207 OA
ATOM     16  O   UNL     1      -2.667   3.643  -5.897  1.00  0.00    -0.207 OA
BRANCH  14  17
ATOM     17  C   UNL     1      -0.570   3.495  -4.369  1.00  0.00     0.085 A 
ATOM     18  C   UNL     1       1.044  -0.155   0.083  1.00  0.00     0.088 C 
ATOM     19  C   UNL     1       0.695   0.878  -0.923  1.00  0.00     0.106 A 
ATOM     20  N   UNL     1       0.124   0.633  -2.087  1.00  0.00    -0.233 NA
ATOM     21  N   UNL     1       0.932   2.228  -0.762  1.00  0.00    -0.325 N 
ATOM     22  C   UNL     1      -0.013   1.845  -2.707  1.00  0.00     0.090 A 
ATOM     23  C   UNL     1       0.486   2.862  -1.901  1.00  0.00     0.068 A 
ATOM     24  C   UNL     1      -0.555   2.152  -3.965  1.00  0.00     0.052 A 
ATOM     25  C   UNL     1       0.474   4.199  -2.288  1.00  0.00     0.030 A 
ATOM     26  C   UNL     1      -0.058   4.492  -3.535  1.00  0.00     0.024 A 
BRANCH  21  27
ATOM     27  C   UNL     1       1.530   2.876   0.391  1.00  0.00     0.089 C 
ATOM     28  C   UNL     1       2.816   3.651   0.092  1.00  0.00     0.025 C 
ATOM     29  C   UNL     1       0.619   3.896   1.084  1.00  0.00     0.025 C 
ATOM     30  C   UNL     1       2.966   4.588   1.281  1.00  0.00     0.002 C 
ATOM     31  C   UNL     1       1.553   4.886   1.773  1.00  0.00     0.002 C 
ENDBRANCH  21  27
ENDBRANCH  14  17
ENDBRANCH   9  14
ENDBRANCH   5   8
ENDBRANCH   3   4
ENDBRANCH   2   3
ENDBRANCH   1   2
BRANCH   1  32
ATOM     32  C   UNL     1      -2.052  10.830 -11.222  1.00  0.00     0.002 C 
BRANCH  32  33
ATOM     33  C   UNL     1      -2.592   9.668 -12.064  1.00  0.00     0.021 C 
BRANCH  33  34
ATOM     34  C   UNL     1      -4.113   9.673 -12.239  1.00  0.00     0.116 C 
BRANCH  34  35
ATOM     35  N   UNL     1      -4.614  10.893 -12.834  1.00  0.00    -0.352 N 
ATOM     36  C   UNL     1      -4.749  11.353 -14.113  1.00  0.00     0.251 C 
ATOM     37  H   UNL     1      -4.931  11.540 -12.163  1.00  0.00     0.163 HD
ATOM     38  O   UNL     1      -5.301  12.449 -14.242  1.00  0.00    -0.269 OA
BRANCH  36  39
ATOM     39  C   UNL     1      -4.240  10.663 -15.331  1.00  0.00     0.039 A 
ATOM     40  C   UNL     1      -3.591   9.430 -15.352  1.00  0.00     0.014 A 
ATOM     41  C   UNL     1      -4.384  11.360 -16.546  1.00  0.00     0.014 A 
ATOM     42  C   UNL     1      -3.012   8.957 -16.522  1.00  0.00     0.010 A 
ATOM     43  C   UNL     1      -3.832  10.876 -17.730  1.00  0.00     0.010 A 
ATOM     44  C   UNL     1      -3.102   9.694 -17.705  1.00  0.00    -0.014 A 
BRANCH  44  45
ATOM     45  C   UNL     1      -2.430   9.142 -18.876  1.00  0.00     0.031 A 
ATOM     46  C   UNL     1      -2.828   7.759 -19.269  1.00  0.00     0.074 A 
ATOM     47  C   UNL     1      -1.506   9.801 -19.599  1.00  0.00     0.049 A 
ATOM     48  N   UNL     1      -2.092   6.694 -19.286  1.00  0.00    -0.248 NA
ATOM     49  C   UNL     1      -4.236   7.521 -19.612  1.00  0.00     0.031 C 
ATOM     50  C   UNL     1      -1.139  11.217 -19.557  1.00  0.00     0.029 A 
ATOM     51  N   UNL     1      -0.730   9.307 -20.605  1.00  0.00    -0.354 N 
ATOM     52  C   UNL     1      -2.902   5.664 -19.761  1.00  0.00     0.074 A 
ATOM     53  C   UNL     1      -4.231   6.211 -19.867  1.00  0.00     0.031 C 
ATOM     54  C   UNL     1      -0.370  11.507 -20.632  1.00  0.00     0.029 A 
ATOM     55  C   UNL     1      -0.078  10.276 -21.348  1.00  0.00     0.049 A 
ATOM     56  H   UNL     1      -0.640   8.344 -20.788  1.00  0.00     0.167 HD
ATOM     57  C   UNL     1      -2.388   4.469 -20.167  1.00  0.00     0.037 A 
ATOM     58  C   UNL     1       0.601  10.080 -22.503  1.00  0.00     0.037 A 
ATOM     59  C   UNL     1      -1.069   4.251 -19.637  1.00  0.00     0.049 A 
ATOM     60  C   UNL     1       1.005   8.653 -22.555  1.00  0.00     0.074 A 
ATOM     61  C   UNL     1      -0.546   4.133 -18.364  1.00  0.00     0.029 A 
ATOM     62  N   UNL     1       0.016   4.424 -20.459  1.00  0.00    -0.354 N 
ATOM     63  N   UNL     1       1.905   8.121 -21.774  1.00  0.00    -0.248 NA
ATOM     64  C   UNL     1       0.105   7.711 -23.203  1.00  0.00     0.031 C 
ATOM     65  C   UNL     1       0.737   4.751 -18.433  1.00  0.00     0.029 A 
ATOM     66  C   UNL     1       0.922   5.170 -19.751  1.00  0.00     0.049 A 
ATOM     67  H   UNL     1       0.123   4.080 -21.376  1.00  0.00     0.167 HD
ATOM     68  C   UNL     1       1.425   6.849 -21.500  1.00  0.00     0.074 A 
ATOM     69  C   UNL     1       0.369   6.619 -22.482  1.00  0.00     0.031 C 
ATOM     70  C   UNL     1       1.733   6.209 -20.335  1.00  0.00     0.037 A 
BRANCH  57  71
ATOM     71  C   UNL     1      -2.955   3.613 -21.272  1.00  0.00     0.064 A 
ATOM     72  C   UNL     1      -2.415   2.330 -21.504  1.00  0.00     0.173 A 
ATOM     73  C   UNL     1      -3.788   4.115 -22.293  1.00  0.00     0.173 A 
ATOM     74  F   UNL     1      -1.600   1.756 -20.607  1.00  0.00    -0.203 F 
ATOM     75  C   UNL     1      -2.623   1.646 -22.705  1.00  0.00     0.198 A 
ATOM     76  C   UNL     1      -4.035   3.407 -23.468  1.00  0.00     0.198 A 
ATOM     77  F   UNL     1      -4.303   5.350 -22.243  1.00  0.00    -0.203 F 
ATOM     78  F   UNL     1      -1.984   0.490 -22.932  1.00  0.00    -0.200 F 
ATOM     79  C   UNL     1      -3.426   2.190 -23.690  1.00  0.00     0.200 A 
ATOM     80  F   UNL     1      -4.804   3.956 -24.419  1.00  0.00    -0.200 F 
ATOM     81  F   UNL     1      -3.573   1.569 -24.868  1.00  0.00    -0.200 F 
ENDBRANCH  57  71
BRANCH  58  82
ATOM     82  C   UNL     1       0.647  10.976 -23.681  1.00  0.00     0.064 A 
ATOM     83  C   UNL     1       1.602  10.798 -24.694  1.00  0.00     0.173 A 
ATOM     84  C   UNL     1      -0.413  11.859 -23.968  1.00  0.00     0.173 A 
ATOM     85  F   UNL     1       2.615   9.936 -24.524  1.00  0.00    -0.203 F 
ATOM     86  C   UNL     1       1.492  11.451 -25.927  1.00  0.00     0.198 A 
ATOM     87  C   UNL     1      -0.516  12.518 -25.192  1.00  0.00     0.198 A 
ATOM     88  F   UNL     1      -1.423  12.029 -23.102  1.00  0.00    -0.203 F 
ATOM     89  F   UNL     1       2.388  11.210 -26.893  1.00  0.00    -0.200 F 
ATOM     90  C   UNL     1       0.429  12.304 -26.177  1.00  0.00     0.200 A 
ATOM     91  F   UNL     1      -1.570  13.311 -25.432  1.00  0.00    -0.200 F 
ATOM     92  F   UNL     1       0.292  12.886 -27.376  1.00  0.00    -0.200 F 
ENDBRANCH  58  82
BRANCH  70  93
ATOM     93  C   UNL     1       2.800   6.798 -19.458  1.00  0.00     0.064 A 
ATOM     94  C   UNL     1       2.694   8.061 -18.852  1.00  0.00     0.173 A 
ATOM     95  C   UNL     1       3.874   5.984 -19.072  1.00  0.00     0.173 A 
ATOM     96  F   UNL     1       1.641   8.853 -19.087  1.00  0.00    -0.203 F 
ATOM     97  C   UNL     1       3.642   8.501 -17.930  1.00  0.00     0.198 A 
ATOM     98  C   UNL     1       4.799   6.412 -18.123  1.00  0.00     0.198 A 
ATOM     99  F   UNL     1       3.993   4.744 -19.572  1.00  0.00    -0.203 F 
ATOM    100  F   UNL     1       3.518   9.711 -17.364  1.00  0.00    -0.200 F 
ATOM    101  C   UNL     1       4.687   7.672 -17.558  1.00  0.00     0.200 A 
ATOM    102  F   UNL     1       5.778   5.586 -17.727  1.00  0.00    -0.200 F 
ATOM    103  F   UNL     1       5.568   8.074 -16.631  1.00  0.00    -0.200 F 
ENDBRANCH  70  93
ENDBRANCH  44  45
ENDBRANCH  36  39
ENDBRANCH  34  35
ENDBRANCH  33  34
ENDBRANCH  32  33
ENDBRANCH   1  32
TORSDOF 16
