REMARK SMILES NC(=O)[C@@H]1CCCCN1c1cncc(C(=O)NCCCCCCNC(=O)c2ccc(-c3c4nc(c(-c5c(F)c(F)c(F)c(F)c5F)c5ccc([nH]5)c(-c5c(F)c(F)c(F)c(F)c5F)c5nc(c(-c6c(F)c(F)c(F)c(F)c6F)c6ccc3[nH]6)C=C5)C=C4)cc2)n1
REMARK SMILES IDX 20 1 19 2 18 3 17 4 15 5 16 6 14 8 10 9 11 10 90 11 12 12
REMARK SMILES IDX 13 13 9 14 4 15 5 16 6 17 8 18 7 19 2 20 1 21 3 24 21 25
REMARK SMILES IDX 22 26 23 27 24 28 25 29 26 31 27 32 28 33 89 34 29 35 88 36
REMARK SMILES IDX 30 37 31 38 32 39 82 40 33 41 87 42 81 43 83 44 34 45 86 46
REMARK SMILES IDX 80 47 79 48 35 50 67 51 47 52 66 53 48 54 51 55 65 56 84 57
REMARK SMILES IDX 49 58 50 59 64 61 85 62 52 63 36 64 37 65 45 66 38 67 39 68
REMARK SMILES IDX 43 69 46 70 40 71 41 72 44 73 42 74 68 75 69 76 77 77 70 78
REMARK SMILES IDX 71 79 75 80 78 81 72 82 73 83 76 84 74 85 53 86 54 87 62 88
REMARK SMILES IDX 55 89 56 90 60 91 63 92 57 93 58 94 61 95 59 96
REMARK H PARENT 17 7 1 22 1 23 24 30 83 49 51 60
REMARK Flexibility Score: inf
ROOT
ATOM      1  C   UNL     1       2.993   1.853   5.130  1.00  0.00     0.002 C 
ENDROOT
BRANCH   1   2
ATOM      2  C   UNL     1       2.530   2.527   3.835  1.00  0.00     0.021 C 
BRANCH   2   3
ATOM      3  C   UNL     1       1.366   1.820   3.147  1.00  0.00     0.116 C 
BRANCH   3   4
ATOM      4  N   UNL     1       0.118   2.027   3.853  1.00  0.00    -0.351 N 
ATOM      5  C   UNL     1      -1.031   2.695   3.493  1.00  0.00     0.271 C 
ATOM      6  O   UNL     1      -1.930   2.762   4.335  1.00  0.00    -0.267 OA
ATOM      7  H   UNL     1       0.086   1.618   4.748  1.00  0.00     0.163 HD
BRANCH   5   8
ATOM      8  C   UNL     1      -1.227   3.338   2.161  1.00  0.00     0.148 A 
ATOM      9  C   UNL     1      -0.525   3.767   0.001  1.00  0.00     0.148 A 
ATOM     10  C   UNL     1      -1.673   4.552  -0.164  1.00  0.00     0.157 A 
ATOM     11  N   UNL     1      -0.303   3.158   1.181  1.00  0.00    -0.222 NA
ATOM     12  N   UNL     1      -2.610   4.752   0.797  1.00  0.00    -0.258 NA
ATOM     13  C   UNL     1      -2.362   4.112   1.963  1.00  0.00     0.145 A 
BRANCH   9  14
ATOM     14  N   UNL     1       0.389   3.601  -1.019  1.00  0.00    -0.343 N 
ATOM     15  C   UNL     1       0.999   2.288  -1.323  1.00  0.00     0.172 C 
ATOM     16  C   UNL     1       2.487   2.305  -0.945  1.00  0.00     0.035 C 
ATOM     17  C   UNL     1       3.203   3.501  -1.573  1.00  0.00     0.004 C 
ATOM     18  C   UNL     1       1.031   4.787  -1.576  1.00  0.00     0.119 C 
ATOM     19  C   UNL     1       2.512   4.806  -1.187  1.00  0.00     0.022 C 
BRANCH  15  20
ATOM     20  C   UNL     1       0.196   1.064  -0.801  1.00  0.00     0.240 C 
ATOM     21  N   UNL     1       0.849   0.127  -0.049  1.00  0.00    -0.368 N 
ATOM     22  H   UNL     1       0.362  -0.657   0.293  1.00  0.00     0.159 HD
ATOM     23  H   UNL     1       1.807   0.237   0.151  1.00  0.00     0.159 HD
ATOM     24  O   UNL     1      -0.990   0.874  -1.072  1.00  0.00    -0.273 OA
ENDBRANCH  15  20
ENDBRANCH   9  14
ENDBRANCH   5   8
ENDBRANCH   3   4
ENDBRANCH   2   3
ENDBRANCH   1   2
BRANCH   1  25
ATOM     25  C   UNL     1       3.381   0.376   4.992  1.00  0.00     0.002 C 
BRANCH  25  26
ATOM     26  C   UNL     1       4.391   0.065   3.884  1.00  0.00     0.021 C 
BRANCH  26  27
ATOM     27  C   UNL     1       5.721   0.799   4.010  1.00  0.00     0.116 C 
BRANCH  27  28
ATOM     28  N   UNL     1       6.438   0.429   5.219  1.00  0.00    -0.352 N 
ATOM     29  C   UNL     1       7.718  -0.037   5.364  1.00  0.00     0.251 C 
ATOM     30  H   UNL     1       5.929   0.527   6.056  1.00  0.00     0.163 HD
ATOM     31  O   UNL     1       8.092  -0.485   6.450  1.00  0.00    -0.269 OA
BRANCH  29  32
ATOM     32  C   UNL     1       8.650  -0.023   4.219  1.00  0.00     0.039 A 
ATOM     33  C   UNL     1       9.450  -1.144   3.987  1.00  0.00     0.014 A 
ATOM     34  C   UNL     1       8.751   1.096   3.388  1.00  0.00     0.014 A 
ATOM     35  C   UNL     1      10.312  -1.165   2.889  1.00  0.00     0.010 A 
ATOM     36  C   UNL     1       9.558   1.047   2.254  1.00  0.00     0.010 A 
ATOM     37  C   UNL     1      10.350  -0.082   1.997  1.00  0.00    -0.014 A 
BRANCH  37  38
ATOM     38  C   UNL     1      11.212  -0.113   0.788  1.00  0.00     0.031 A 
ATOM     39  C   UNL     1      12.344   0.865   0.639  1.00  0.00     0.074 A 
ATOM     40  C   UNL     1      10.928  -0.974  -0.208  1.00  0.00     0.049 A 
ATOM     41  N   UNL     1      13.159   1.040  -0.370  1.00  0.00    -0.248 NA
ATOM     42  C   UNL     1      12.569   1.789   1.761  1.00  0.00     0.031 C 
ATOM     43  C   UNL     1       9.822  -1.932  -0.205  1.00  0.00     0.029 A 
ATOM     44  N   UNL     1      11.536  -1.171  -1.422  1.00  0.00    -0.354 N 
ATOM     45  C   UNL     1      13.978   2.104  -0.014  1.00  0.00     0.074 A 
ATOM     46  C   UNL     1      13.529   2.566   1.282  1.00  0.00     0.031 C 
ATOM     47  C   UNL     1       9.837  -2.623  -1.355  1.00  0.00     0.029 A 
ATOM     48  C   UNL     1      10.930  -2.134  -2.191  1.00  0.00     0.049 A 
ATOM     49  H   UNL     1      12.331  -0.669  -1.715  1.00  0.00     0.167 HD
ATOM     50  C   UNL     1      15.020   2.633  -0.698  1.00  0.00     0.037 A 
ATOM     51  C   UNL     1      11.217  -2.567  -3.433  1.00  0.00     0.037 A 
ATOM     52  C   UNL     1      15.481   2.148  -1.972  1.00  0.00     0.049 A 
ATOM     53  C   UNL     1      12.391  -1.977  -4.165  1.00  0.00     0.074 A 
ATOM     54  C   UNL     1      16.581   2.558  -2.706  1.00  0.00     0.029 A 
ATOM     55  N   UNL     1      14.863   1.146  -2.707  1.00  0.00    -0.354 N 
ATOM     56  N   UNL     1      13.211  -1.028  -3.782  1.00  0.00    -0.248 NA
ATOM     57  C   UNL     1      12.686  -2.525  -5.495  1.00  0.00     0.031 C 
ATOM     58  C   UNL     1      16.596   1.843  -3.908  1.00  0.00     0.029 A 
ATOM     59  C   UNL     1      15.540   0.947  -3.900  1.00  0.00     0.049 A 
ATOM     60  H   UNL     1      14.061   0.650  -2.423  1.00  0.00     0.167 HD
ATOM     61  C   UNL     1      14.131  -0.880  -4.811  1.00  0.00     0.074 A 
ATOM     62  C   UNL     1      13.777  -1.849  -5.828  1.00  0.00     0.031 C 
ATOM     63  C   UNL     1      15.174  -0.020  -4.904  1.00  0.00     0.037 A 
BRANCH  50  64
ATOM     64  C   UNL     1      15.732   3.804  -0.083  1.00  0.00     0.064 A 
ATOM     65  C   UNL     1      16.515   3.671   1.074  1.00  0.00     0.173 A 
ATOM     66  C   UNL     1      15.652   5.074  -0.676  1.00  0.00     0.173 A 
ATOM     67  F   UNL     1      16.617   2.482   1.687  1.00  0.00    -0.203 F 
ATOM     68  C   UNL     1      17.161   4.771   1.634  1.00  0.00     0.198 A 
ATOM     69  C   UNL     1      16.326   6.164  -0.133  1.00  0.00     0.198 A 
ATOM     70  F   UNL     1      14.923   5.257  -1.787  1.00  0.00    -0.203 F 
ATOM     71  F   UNL     1      17.857   4.629   2.770  1.00  0.00    -0.200 F 
ATOM     72  C   UNL     1      17.072   6.014   1.027  1.00  0.00     0.200 A 
ATOM     73  F   UNL     1      16.250   7.362  -0.728  1.00  0.00    -0.200 F 
ATOM     74  F   UNL     1      17.698   7.070   1.564  1.00  0.00    -0.200 F 
ENDBRANCH  50  64
BRANCH  51  75
ATOM     75  C   UNL     1      10.383  -3.630  -4.051  1.00  0.00     0.064 A 
ATOM     76  C   UNL     1      10.887  -4.923  -4.246  1.00  0.00     0.173 A 
ATOM     77  C   UNL     1       9.059  -3.379  -4.444  1.00  0.00     0.173 A 
ATOM     78  F   UNL     1      12.153  -5.205  -3.904  1.00  0.00    -0.203 F 
ATOM     79  C   UNL     1      10.106  -5.921  -4.824  1.00  0.00     0.198 A 
ATOM     80  C   UNL     1       8.270  -4.386  -4.996  1.00  0.00     0.198 A 
ATOM     81  F   UNL     1       8.526  -2.161  -4.271  1.00  0.00    -0.203 F 
ATOM     82  F   UNL     1      10.626  -7.138  -5.035  1.00  0.00    -0.200 F 
ATOM     83  C   UNL     1       8.796  -5.654  -5.192  1.00  0.00     0.200 A 
ATOM     84  F   UNL     1       6.999  -4.127  -5.333  1.00  0.00    -0.200 F 
ATOM     85  F   UNL     1       8.041  -6.616  -5.739  1.00  0.00    -0.200 F 
ENDBRANCH  51  75
BRANCH  63  86
ATOM     86  C   UNL     1      16.025  -0.101  -6.139  1.00  0.00     0.064 A 
ATOM     87  C   UNL     1      15.559   0.342  -7.385  1.00  0.00     0.173 A 
ATOM     88  C   UNL     1      17.339  -0.589  -6.065  1.00  0.00     0.173 A 
ATOM     89  F   UNL     1      14.305   0.803  -7.512  1.00  0.00    -0.203 F 
ATOM     90  C   UNL     1      16.368   0.277  -8.517  1.00  0.00     0.198 A 
ATOM     91  C   UNL     1      18.155  -0.624  -7.191  1.00  0.00     0.198 A 
ATOM     92  F   UNL     1      17.836  -1.019  -4.895  1.00  0.00    -0.203 F 
ATOM     93  F   UNL     1      15.885   0.661  -9.706  1.00  0.00    -0.200 F 
ATOM     94  C   UNL     1      17.667  -0.198  -8.417  1.00  0.00     0.200 A 
ATOM     95  F   UNL     1      19.415  -1.070  -7.091  1.00  0.00    -0.200 F 
ATOM     96  F   UNL     1      18.447  -0.252  -9.506  1.00  0.00    -0.200 F 
ENDBRANCH  63  86
ENDBRANCH  37  38
ENDBRANCH  29  32
ENDBRANCH  27  28
ENDBRANCH  26  27
ENDBRANCH  25  26
ENDBRANCH   1  25
TORSDOF 15
