REMARK SMILES Cc1c(CC(=O)NCCCCCCNC(=O)c2ccc(-c3c4nc(c(-c5c(F)c(F)c(F)c(F)c5F)c5ccc([nH]5)c(-c5c(F)c(F)c(F)c(F)c5F)c5nc(c(-c6c(F)c(F)c(F)c(F)c6F)c6ccc3[nH]6)C=C5)C=C4)cc2)cccc1-c1ccn(C(F)F)c(=O)c1
REMARK SMILES IDX 10 1 9 2 8 3 7 4 5 5 6 6 4 8 3 9 1 10 2 11 83 12 80 13 82 14
REMARK SMILES IDX 81 15 84 16 85 17 93 18 86 19 91 20 87 21 92 22 88 23 89 24
REMARK SMILES IDX 90 25 11 26 12 27 13 28 14 29 15 30 16 32 17 33 18 34 79 35
REMARK SMILES IDX 19 36 78 37 20 38 21 39 22 40 72 41 23 42 77 43 71 44 73 45
REMARK SMILES IDX 24 46 76 47 70 48 69 49 25 51 57 52 37 53 56 54 38 55 41 56
REMARK SMILES IDX 55 57 74 58 39 59 40 60 54 62 75 63 42 64 26 65 27 66 35 67
REMARK SMILES IDX 28 68 29 69 33 70 36 71 30 72 31 73 34 74 32 75 58 76 59 77
REMARK SMILES IDX 67 78 60 79 61 80 65 81 68 82 62 83 63 84 66 85 64 86 43 87
REMARK SMILES IDX 44 88 52 89 45 90 46 91 50 92 53 93 47 94 48 95 51 96 49 97
REMARK H PARENT 7 7 14 31 73 50 41 61
REMARK Flexibility Score: inf
ROOT
ATOM      1  C   UNL     1       0.382  -1.440   5.078  1.00  0.00     0.002 C 
ENDROOT
BRANCH   1   2
ATOM      2  C   UNL     1       0.627  -0.963   3.640  1.00  0.00     0.021 C 
BRANCH   2   3
ATOM      3  C   UNL     1       1.504  -1.887   2.793  1.00  0.00     0.116 C 
BRANCH   3   4
ATOM      4  N   UNL     1       0.788  -3.050   2.314  1.00  0.00    -0.356 N 
ATOM      5  C   UNL     1       0.479  -3.406   1.032  1.00  0.00     0.224 C 
ATOM      6  O   UNL     1      -0.130  -4.463   0.851  1.00  0.00    -0.275 OA
ATOM      7  H   UNL     1       0.479  -3.674   3.012  1.00  0.00     0.163 HD
BRANCH   5   8
ATOM      8  C   UNL     1       0.920  -2.542  -0.144  1.00  0.00     0.135 C 
BRANCH   8   9
ATOM      9  C   UNL     1       0.272  -1.168  -0.188  1.00  0.00    -0.035 A 
ATOM     10  C   UNL     1       2.518   0.008  -0.443  1.00  0.00     0.045 C 
ATOM     11  C   UNL     1       1.015   0.040  -0.263  1.00  0.00    -0.040 A 
ATOM     12  C   UNL     1       0.318   1.276  -0.213  1.00  0.00    -0.015 A 
ATOM     13  C   UNL     1      -1.134  -1.114  -0.143  1.00  0.00     0.004 A 
ATOM     14  C   UNL     1      -1.085   1.289  -0.154  1.00  0.00     0.009 A 
ATOM     15  C   UNL     1      -1.807   0.102  -0.131  1.00  0.00     0.001 A 
BRANCH  12  16
ATOM     16  C   UNL     1       1.023   2.576  -0.147  1.00  0.00    -0.011 A 
ATOM     17  C   UNL     1       1.784   3.136  -1.246  1.00  0.00     0.027 A 
ATOM     18  C   UNL     1       1.007   3.220   1.034  1.00  0.00     0.080 A 
ATOM     19  C   UNL     1       2.529   4.233  -1.062  1.00  0.00     0.095 A 
ATOM     20  C   UNL     1       1.791   4.467   1.238  1.00  0.00     0.255 A 
ATOM     21  N   UNL     1       2.556   4.881   0.160  1.00  0.00    -0.258 N 
ATOM     22  O   UNL     1       1.734   5.016   2.335  1.00  0.00    -0.269 OA
BRANCH  21  23
ATOM     23  C   UNL     1       3.392   6.037   0.358  1.00  0.00     0.451 C 
ATOM     24  F   UNL     1       2.648   7.133   0.641  1.00  0.00    -0.185 F 
ATOM     25  F   UNL     1       4.253   5.838   1.387  1.00  0.00    -0.185 F 
ENDBRANCH  21  23
ENDBRANCH  12  16
ENDBRANCH   8   9
ENDBRANCH   5   8
ENDBRANCH   3   4
ENDBRANCH   2   3
ENDBRANCH   1   2
BRANCH   1  26
ATOM     26  C   UNL     1       1.626  -1.819   5.899  1.00  0.00     0.002 C 
BRANCH  26  27
ATOM     27  C   UNL     1       2.802  -0.838   5.848  1.00  0.00     0.021 C 
BRANCH  27  28
ATOM     28  C   UNL     1       2.541   0.487   6.551  1.00  0.00     0.116 C 
BRANCH  28  29
ATOM     29  N   UNL     1       3.203   0.608   7.845  1.00  0.00    -0.352 N 
ATOM     30  C   UNL     1       3.090   1.607   8.796  1.00  0.00     0.251 C 
ATOM     31  H   UNL     1       3.817  -0.126   8.074  1.00  0.00     0.163 HD
ATOM     32  O   UNL     1       3.759   1.569   9.816  1.00  0.00    -0.269 OA
BRANCH  30  33
ATOM     33  C   UNL     1       2.050   2.650   8.625  1.00  0.00     0.039 A 
ATOM     34  C   UNL     1       1.191   2.893   9.702  1.00  0.00     0.014 A 
ATOM     35  C   UNL     1       1.799   3.221   7.380  1.00  0.00     0.014 A 
ATOM     36  C   UNL     1      -0.040   3.500   9.468  1.00  0.00     0.010 A 
ATOM     37  C   UNL     1       0.547   3.745   7.126  1.00  0.00     0.010 A 
ATOM     38  C   UNL     1      -0.395   3.817   8.155  1.00  0.00    -0.014 A 
BRANCH  38  39
ATOM     39  C   UNL     1      -1.769   4.104   7.764  1.00  0.00     0.031 A 
ATOM     40  C   UNL     1      -2.214   5.491   7.534  1.00  0.00     0.074 A 
ATOM     41  C   UNL     1      -2.627   3.077   7.580  1.00  0.00     0.049 A 
ATOM     42  N   UNL     1      -3.424   5.904   7.721  1.00  0.00    -0.248 NA
ATOM     43  C   UNL     1      -1.302   6.541   7.101  1.00  0.00     0.031 C 
ATOM     44  C   UNL     1      -3.962   3.131   6.991  1.00  0.00     0.029 A 
ATOM     45  N   UNL     1      -2.519   1.771   8.088  1.00  0.00    -0.354 N 
ATOM     46  C   UNL     1      -3.514   7.177   7.205  1.00  0.00     0.074 A 
ATOM     47  C   UNL     1      -2.153   7.550   6.887  1.00  0.00     0.031 C 
ATOM     48  C   UNL     1      -4.659   2.060   7.405  1.00  0.00     0.029 A 
ATOM     49  C   UNL     1      -3.839   1.365   8.383  1.00  0.00     0.049 A 
ATOM     50  H   UNL     1      -1.695   1.247   8.212  1.00  0.00     0.167 HD
ATOM     51  C   UNL     1      -4.742   7.725   6.970  1.00  0.00     0.037 A 
ATOM     52  C   UNL     1      -4.225   1.070   9.658  1.00  0.00     0.037 A 
ATOM     53  C   UNL     1      -5.814   6.813   7.359  1.00  0.00     0.049 A 
ATOM     54  C   UNL     1      -5.365   1.920  10.163  1.00  0.00     0.074 A 
ATOM     55  C   UNL     1      -6.556   5.900   6.627  1.00  0.00     0.029 A 
ATOM     56  N   UNL     1      -6.030   6.515   8.700  1.00  0.00    -0.354 N 
ATOM     57  N   UNL     1      -5.684   3.078   9.658  1.00  0.00    -0.248 NA
ATOM     58  C   UNL     1      -6.197   1.554  11.306  1.00  0.00     0.031 C 
ATOM     59  C   UNL     1      -7.184   5.016   7.534  1.00  0.00     0.029 A 
ATOM     60  C   UNL     1      -6.841   5.402   8.818  1.00  0.00     0.049 A 
ATOM     61  H   UNL     1      -5.659   7.024   9.456  1.00  0.00     0.167 HD
ATOM     62  C   UNL     1      -6.704   3.624  10.392  1.00  0.00     0.074 A 
ATOM     63  C   UNL     1      -7.005   2.625  11.399  1.00  0.00     0.031 C 
ATOM     64  C   UNL     1      -7.205   4.863  10.117  1.00  0.00     0.037 A 
BRANCH  51  65
ATOM     65  C   UNL     1      -4.955   8.935   6.085  1.00  0.00     0.064 A 
ATOM     66  C   UNL     1      -6.103   9.050   5.271  1.00  0.00     0.173 A 
ATOM     67  C   UNL     1      -4.030   9.986   5.949  1.00  0.00     0.173 A 
ATOM     68  F   UNL     1      -7.133   8.201   5.385  1.00  0.00    -0.203 F 
ATOM     69  C   UNL     1      -6.239  10.045   4.300  1.00  0.00     0.198 A 
ATOM     70  C   UNL     1      -4.137  10.950   4.940  1.00  0.00     0.198 A 
ATOM     71  F   UNL     1      -3.022  10.136   6.819  1.00  0.00    -0.203 F 
ATOM     72  F   UNL     1      -7.345  10.090   3.544  1.00  0.00    -0.200 F 
ATOM     73  C   UNL     1      -5.234  10.968   4.103  1.00  0.00     0.200 A 
ATOM     74  F   UNL     1      -3.165  11.861   4.784  1.00  0.00    -0.200 F 
ATOM     75  F   UNL     1      -5.336  11.886   3.132  1.00  0.00    -0.200 F 
ENDBRANCH  51  65
BRANCH  52  76
ATOM     76  C   UNL     1      -3.123   0.556  10.511  1.00  0.00     0.064 A 
ATOM     77  C   UNL     1      -2.506  -0.659  10.156  1.00  0.00     0.173 A 
ATOM     78  C   UNL     1      -2.451   1.381  11.421  1.00  0.00     0.173 A 
ATOM     79  F   UNL     1      -3.109  -1.487   9.287  1.00  0.00    -0.203 F 
ATOM     80  C   UNL     1      -1.227  -0.980  10.602  1.00  0.00     0.198 A 
ATOM     81  C   UNL     1      -1.174   1.049  11.877  1.00  0.00     0.198 A 
ATOM     82  F   UNL     1      -2.979   2.557  11.788  1.00  0.00    -0.203 F 
ATOM     83  F   UNL     1      -0.625  -2.094  10.161  1.00  0.00    -0.200 F 
ATOM     84  C   UNL     1      -0.551  -0.112  11.443  1.00  0.00     0.200 A 
ATOM     85  F   UNL     1      -0.510   1.900  12.673  1.00  0.00    -0.200 F 
ATOM     86  F   UNL     1       0.712  -0.376  11.805  1.00  0.00    -0.200 F 
ENDBRANCH  52  76
BRANCH  64  87
ATOM     87  C   UNL     1      -8.166   5.627  10.987  1.00  0.00     0.064 A 
ATOM     88  C   UNL     1      -8.182   5.538  12.388  1.00  0.00     0.173 A 
ATOM     89  C   UNL     1      -9.026   6.598  10.423  1.00  0.00     0.173 A 
ATOM     90  F   UNL     1      -7.330   4.738  13.044  1.00  0.00    -0.203 F 
ATOM     91  C   UNL     1      -9.044   6.315  13.166  1.00  0.00     0.198 A 
ATOM     92  C   UNL     1      -9.846   7.409  11.205  1.00  0.00     0.198 A 
ATOM     93  F   UNL     1      -9.078   6.800   9.098  1.00  0.00    -0.203 F 
ATOM     94  F   UNL     1      -9.054   6.164  14.498  1.00  0.00    -0.200 F 
ATOM     95  C   UNL     1      -9.868   7.256  12.576  1.00  0.00     0.200 A 
ATOM     96  F   UNL     1     -10.602   8.351  10.623  1.00  0.00    -0.200 F 
ATOM     97  F   UNL     1     -10.664   8.027  13.328  1.00  0.00    -0.200 F 
ENDBRANCH  64  87
ENDBRANCH  38  39
ENDBRANCH  30  33
ENDBRANCH  28  29
ENDBRANCH  27  28
ENDBRANCH  26  27
ENDBRANCH   1  26
TORSDOF 16
