REMARK SMILES C[C@H](Sc1ccccc1C(=O)NCCCCCCNC(=O)c1ccc(-c2c3nc(c(-c4c(F)c(F)c(F)c(F)c4F)c4ccc([nH]4)c(-c4c(F)c(F)c(F)c(F)c4F)c4nc(c(-c5c(F)c(F)c(F)c(F)c5F)c5ccc2[nH]5)C=C4)C=C3)cc1)C(=O)Nc1ccc(N2CCCCC2)cc1
REMARK SMILES IDX 14 1 13 2 12 3 10 4 11 5 9 7 4 8 5 9 6 10 8 11 7 12 3 13
REMARK SMILES IDX 2 14 1 15 85 16 86 17 87 18 88 20 89 21 99 22 90 23 98 24
REMARK SMILES IDX 91 25 92 26 93 27 97 28 94 29 96 30 95 31 15 32 16 33 17 34
REMARK SMILES IDX 18 35 19 36 20 37 21 39 22 40 23 41 84 42 24 43 83 44 25 45
REMARK SMILES IDX 26 46 27 47 77 48 28 49 82 50 76 51 78 52 29 53 81 54 75 55
REMARK SMILES IDX 74 56 30 58 62 59 42 60 61 61 43 62 46 63 60 64 79 65 44 66
REMARK SMILES IDX 45 67 59 69 80 70 47 71 31 72 32 73 40 74 33 75 34 76 38 77
REMARK SMILES IDX 41 78 35 79 36 80 39 81 37 82 63 83 64 84 72 85 65 86 66 87
REMARK SMILES IDX 70 88 73 89 67 90 68 91 71 92 69 93 48 94 49 95 57 96 50 97
REMARK SMILES IDX 51 98 55 99 58 100 52 101 53 102 56 103 54 104
REMARK H PARENT 12 6 87 19 19 38 78 57 46 68
REMARK Flexibility Score: inf
ROOT
ATOM      1  C   UNL     1       3.607   1.494  -0.920  1.00  0.00     0.021 C 
ENDROOT
BRANCH   1   2
ATOM      2  C   UNL     1       2.354   1.191  -1.744  1.00  0.00     0.116 C 
BRANCH   2   3
ATOM      3  N   UNL     1       2.580   0.062  -2.615  1.00  0.00    -0.352 N 
ATOM      4  C   UNL     1       2.437  -1.291  -2.611  1.00  0.00     0.252 C 
ATOM      5  O   UNL     1       2.923  -1.794  -3.638  1.00  0.00    -0.269 OA
ATOM      6  H   UNL     1       2.952   0.363  -3.476  1.00  0.00     0.163 HD
BRANCH   4   7
ATOM      7  C   UNL     1       1.784  -2.226  -1.619  1.00  0.00     0.053 A 
ATOM      8  C   UNL     1       1.372  -2.073  -0.276  1.00  0.00     0.021 A 
ATOM      9  C   UNL     1       0.847  -3.199   0.414  1.00  0.00     0.016 A 
ATOM     10  C   UNL     1       0.722  -4.455  -0.177  1.00  0.00     0.001 A 
ATOM     11  C   UNL     1       1.629  -3.528  -2.184  1.00  0.00     0.015 A 
ATOM     12  C   UNL     1       1.122  -4.623  -1.484  1.00  0.00     0.001 A 
BRANCH   8  13
ATOM     13  S   UNL     1       1.655  -0.672   0.798  1.00  0.00    -0.112 SA
BRANCH  13  14
ATOM     14  C   UNL     1      -0.020  -0.270   1.509  1.00  0.00     0.138 C 
ATOM     15  C   UNL     1       0.266   0.692   2.668  1.00  0.00     0.030 C 
BRANCH  14  16
ATOM     16  C   UNL     1      -0.928   0.290   0.386  1.00  0.00     0.237 C 
ATOM     17  O   UNL     1      -1.212  -0.393  -0.598  1.00  0.00    -0.273 OA
ATOM     18  N   UNL     1      -1.338   1.605   0.542  1.00  0.00    -0.325 N 
ATOM     19  H   UNL     1      -1.666   1.877   1.430  1.00  0.00     0.169 HD
BRANCH  18  20
ATOM     20  C   UNL     1      -1.320   2.586  -0.477  1.00  0.00     0.041 A 
ATOM     21  C   UNL     1      -1.534   3.914  -0.107  1.00  0.00     0.028 A 
ATOM     22  C   UNL     1      -0.915   2.320  -1.782  1.00  0.00     0.028 A 
ATOM     23  C   UNL     1      -1.184   4.952  -0.985  1.00  0.00     0.028 A 
ATOM     24  C   UNL     1      -0.555   3.366  -2.648  1.00  0.00     0.028 A 
ATOM     25  C   UNL     1      -0.606   4.701  -2.239  1.00  0.00     0.037 A 
BRANCH  25  26
ATOM     26  N   UNL     1      -0.069   5.744  -2.988  1.00  0.00    -0.372 N 
ATOM     27  C   UNL     1       1.067   6.462  -2.395  1.00  0.00     0.116 C 
ATOM     28  C   UNL     1      -0.011   5.674  -4.447  1.00  0.00     0.116 C 
ATOM     29  C   UNL     1       1.105   7.899  -2.876  1.00  0.00     0.021 C 
ATOM     30  C   UNL     1       0.083   7.094  -5.021  1.00  0.00     0.021 C 
ATOM     31  C   UNL     1       1.203   7.926  -4.391  1.00  0.00     0.004 C 
ENDBRANCH  25  26
ENDBRANCH  18  20
ENDBRANCH  14  16
ENDBRANCH  13  14
ENDBRANCH   8  13
ENDBRANCH   4   7
ENDBRANCH   2   3
ENDBRANCH   1   2
BRANCH   1  32
ATOM     32  C   UNL     1       4.050   2.955  -0.954  1.00  0.00     0.002 C 
BRANCH  32  33
ATOM     33  C   UNL     1       3.038   3.972  -0.432  1.00  0.00     0.002 C 
BRANCH  33  34
ATOM     34  C   UNL     1       2.407   3.600   0.912  1.00  0.00     0.021 C 
BRANCH  34  35
ATOM     35  C   UNL     1       2.074   4.808   1.782  1.00  0.00     0.116 C 
BRANCH  35  36
ATOM     36  N   UNL     1       1.290   5.799   1.085  1.00  0.00    -0.352 N 
ATOM     37  C   UNL     1       0.906   7.087   1.392  1.00  0.00     0.251 C 
ATOM     38  H   UNL     1       0.961   5.492   0.209  1.00  0.00     0.163 HD
ATOM     39  O   UNL     1       0.553   7.843   0.516  1.00  0.00    -0.269 OA
BRANCH  37  40
ATOM     40  C   UNL     1       0.713   7.494   2.803  1.00  0.00     0.039 A 
ATOM     41  C   UNL     1      -0.298   8.443   3.038  1.00  0.00     0.014 A 
ATOM     42  C   UNL     1       1.324   6.855   3.872  1.00  0.00     0.014 A 
ATOM     43  C   UNL     1      -0.788   8.634   4.323  1.00  0.00     0.010 A 
ATOM     44  C   UNL     1       0.770   6.962   5.132  1.00  0.00     0.010 A 
ATOM     45  C   UNL     1      -0.304   7.831   5.357  1.00  0.00    -0.014 A 
BRANCH  45  46
ATOM     46  C   UNL     1      -0.897   7.850   6.702  1.00  0.00     0.031 A 
ATOM     47  C   UNL     1      -0.038   8.271   7.850  1.00  0.00     0.074 A 
ATOM     48  C   UNL     1      -2.131   7.343   6.875  1.00  0.00     0.049 A 
ATOM     49  N   UNL     1      -0.258   8.161   9.131  1.00  0.00    -0.248 NA
ATOM     50  C   UNL     1       1.282   8.830   7.507  1.00  0.00     0.031 C 
ATOM     51  C   UNL     1      -3.000   6.839   5.807  1.00  0.00     0.029 A 
ATOM     52  N   UNL     1      -2.859   7.143   8.015  1.00  0.00    -0.354 N 
ATOM     53  C   UNL     1       0.908   8.595   9.743  1.00  0.00     0.074 A 
ATOM     54  C   UNL     1       1.854   8.914   8.697  1.00  0.00     0.031 C 
ATOM     55  C   UNL     1      -4.155   6.413   6.343  1.00  0.00     0.029 A 
ATOM     56  C   UNL     1      -4.090   6.579   7.789  1.00  0.00     0.049 A 
ATOM     57  H   UNL     1      -2.531   7.382   8.912  1.00  0.00     0.167 HD
ATOM     58  C   UNL     1       1.150   8.736  11.065  1.00  0.00     0.037 A 
ATOM     59  C   UNL     1      -5.050   6.239   8.667  1.00  0.00     0.037 A 
ATOM     60  C   UNL     1       0.166   8.461  12.075  1.00  0.00     0.049 A 
ATOM     61  C   UNL     1      -4.788   6.488  10.127  1.00  0.00     0.074 A 
ATOM     62  C   UNL     1       0.256   8.623  13.443  1.00  0.00     0.029 A 
ATOM     63  N   UNL     1      -1.110   7.979  11.807  1.00  0.00    -0.354 N 
ATOM     64  N   UNL     1      -3.701   6.946  10.703  1.00  0.00    -0.248 NA
ATOM     65  C   UNL     1      -5.882   6.184  11.056  1.00  0.00     0.031 C 
ATOM     66  C   UNL     1      -0.962   8.223  14.006  1.00  0.00     0.029 A 
ATOM     67  C   UNL     1      -1.820   7.840  12.985  1.00  0.00     0.049 A 
ATOM     68  H   UNL     1      -1.457   7.766  10.910  1.00  0.00     0.167 HD
ATOM     69  C   UNL     1      -3.983   7.004  12.058  1.00  0.00     0.074 A 
ATOM     70  C   UNL     1      -5.351   6.550  12.216  1.00  0.00     0.031 C 
ATOM     71  C   UNL     1      -3.186   7.391  13.085  1.00  0.00     0.037 A 
BRANCH  58  72
ATOM     72  C   UNL     1       2.514   9.212  11.464  1.00  0.00     0.064 A 
ATOM     73  C   UNL     1       2.949  10.517  11.184  1.00  0.00     0.173 A 
ATOM     74  C   UNL     1       3.415   8.345  12.100  1.00  0.00     0.173 A 
ATOM     75  F   UNL     1       2.135  11.378  10.554  1.00  0.00    -0.203 F 
ATOM     76  C   UNL     1       4.245  10.923  11.487  1.00  0.00     0.198 A 
ATOM     77  C   UNL     1       4.702   8.764  12.430  1.00  0.00     0.198 A 
ATOM     78  F   UNL     1       3.054   7.085  12.386  1.00  0.00    -0.203 F 
ATOM     79  F   UNL     1       4.658  12.151  11.142  1.00  0.00    -0.200 F 
ATOM     80  C   UNL     1       5.120  10.048  12.112  1.00  0.00     0.200 A 
ATOM     81  F   UNL     1       5.545   7.919  13.038  1.00  0.00    -0.200 F 
ATOM     82  F   UNL     1       6.371  10.437  12.394  1.00  0.00    -0.200 F 
ENDBRANCH  58  72
BRANCH  59  83
ATOM     83  C   UNL     1      -6.342   5.692   8.184  1.00  0.00     0.064 A 
ATOM     84  C   UNL     1      -7.506   6.472   8.227  1.00  0.00     0.173 A 
ATOM     85  C   UNL     1      -6.442   4.403   7.641  1.00  0.00     0.173 A 
ATOM     86  F   UNL     1      -7.463   7.708   8.745  1.00  0.00    -0.203 F 
ATOM     87  C   UNL     1      -8.725   5.978   7.764  1.00  0.00     0.198 A 
ATOM     88  C   UNL     1      -7.657   3.917   7.158  1.00  0.00     0.198 A 
ATOM     89  F   UNL     1      -5.356   3.621   7.562  1.00  0.00    -0.203 F 
ATOM     90  F   UNL     1      -9.827   6.735   7.848  1.00  0.00    -0.200 F 
ATOM     91  C   UNL     1      -8.798   4.703   7.225  1.00  0.00     0.200 A 
ATOM     92  F   UNL     1      -7.720   2.690   6.623  1.00  0.00    -0.200 F 
ATOM     93  F   UNL     1      -9.968   4.231   6.773  1.00  0.00    -0.200 F 
ENDBRANCH  59  83
BRANCH  71  94
ATOM     94  C   UNL     1      -3.790   7.355  14.453  1.00  0.00     0.064 A 
ATOM     95  C   UNL     1      -3.969   6.145  15.137  1.00  0.00     0.173 A 
ATOM     96  C   UNL     1      -4.142   8.547  15.102  1.00  0.00     0.173 A 
ATOM     97  F   UNL     1      -3.659   4.982  14.545  1.00  0.00    -0.203 F 
ATOM     98  C   UNL     1      -4.497   6.129  16.424  1.00  0.00     0.198 A 
ATOM     99  C   UNL     1      -4.648   8.527  16.398  1.00  0.00     0.198 A 
ATOM    100  F   UNL     1      -3.982   9.726  14.485  1.00  0.00    -0.203 F 
ATOM    101  F   UNL     1      -4.694   4.960  17.049  1.00  0.00    -0.200 F 
ATOM    102  C   UNL     1      -4.829   7.319  17.055  1.00  0.00     0.200 A 
ATOM    103  F   UNL     1      -4.958   9.678  17.011  1.00  0.00    -0.200 F 
ATOM    104  F   UNL     1      -5.329   7.301  18.298  1.00  0.00    -0.200 F 
ENDBRANCH  71  94
ENDBRANCH  45  46
ENDBRANCH  37  40
ENDBRANCH  35  36
ENDBRANCH  34  35
ENDBRANCH  33  34
ENDBRANCH  32  33
ENDBRANCH   1  32
TORSDOF 18
