REMARK SMILES O=C(NCCCCCCNC(=O)[C@H]1Cc2[nH]cnc2CN1C(=O)c1ccncc1Cl)c1ccc(-c2c3nc(c(-c4c(F)c(F)c(F)c(F)c4F)c4ccc([nH]4)c(-c4c(F)c(F)c(F)c(F)c4F)c4nc(c(-c5c(F)c(F)c(F)c(F)c5F)c5ccc2[nH]5)C=C4)C=C3)cc1
REMARK SMILES IDX 6 1 5 2 4 3 3 4 1 5 2 6 31 8 32 9 93 10 33 11 92 12 34 13
REMARK SMILES IDX 35 14 36 15 86 16 37 17 91 18 85 19 87 20 38 21 90 22 84 23
REMARK SMILES IDX 83 24 39 26 71 27 51 28 70 29 52 30 55 31 69 32 88 33 53 34
REMARK SMILES IDX 54 35 68 37 89 38 56 39 40 40 41 41 49 42 42 43 43 44 47 45
REMARK SMILES IDX 50 46 44 47 45 48 48 49 46 50 72 51 73 52 81 53 74 54 75 55
REMARK SMILES IDX 79 56 82 57 76 58 77 59 80 60 78 61 57 62 58 63 66 64 59 65
REMARK SMILES IDX 60 66 64 67 67 68 61 69 62 70 65 71 63 72 7 73 8 74 9 75
REMARK SMILES IDX 10 76 11 77 12 79 13 80 14 81 21 82 15 83 20 84 16 85 19 86
REMARK SMILES IDX 17 87 18 89 22 90 23 91 24 92 25 93 29 94 26 95 28 96 30 97
REMARK SMILES IDX 27 98
REMARK H PARENT 3 7 87 25 55 36 10 78 16 88
REMARK Flexibility Score: inf
ROOT
ATOM      1  C   UNL     1       4.057   2.875   1.861  1.00  0.00     0.002 C 
ENDROOT
BRANCH   1   2
ATOM      2  C   UNL     1       4.577   2.144   0.618  1.00  0.00     0.021 C 
BRANCH   2   3
ATOM      3  C   UNL     1       4.525   0.624   0.754  1.00  0.00     0.116 C 
BRANCH   3   4
ATOM      4  N   UNL     1       3.176   0.111   0.864  1.00  0.00    -0.352 N 
ATOM      5  O   UNL     1       1.108  -0.550   0.414  1.00  0.00    -0.269 OA
ATOM      6  C   UNL     1       2.166  -0.090  -0.032  1.00  0.00     0.251 C 
ATOM      7  H   UNL     1       2.935  -0.150   1.782  1.00  0.00     0.163 HD
BRANCH   6   8
ATOM      8  C   UNL     1       2.238   0.262  -1.473  1.00  0.00     0.039 A 
ATOM      9  C   UNL     1       3.414   0.417  -2.208  1.00  0.00     0.014 A 
ATOM     10  C   UNL     1       1.005   0.413  -2.132  1.00  0.00     0.014 A 
ATOM     11  C   UNL     1       3.367   0.795  -3.545  1.00  0.00     0.010 A 
ATOM     12  C   UNL     1       0.950   0.756  -3.477  1.00  0.00     0.010 A 
ATOM     13  C   UNL     1       2.134   0.972  -4.176  1.00  0.00    -0.014 A 
BRANCH  13  14
ATOM     14  C   UNL     1       2.133   1.175  -5.622  1.00  0.00     0.031 A 
ATOM     15  C   UNL     1       2.693   0.029  -6.406  1.00  0.00     0.074 A 
ATOM     16  C   UNL     1       1.528   2.219  -6.224  1.00  0.00     0.049 A 
ATOM     17  N   UNL     1       3.649   0.038  -7.279  1.00  0.00    -0.248 NA
ATOM     18  C   UNL     1       2.175  -1.318  -6.105  1.00  0.00     0.031 C 
ATOM     19  C   UNL     1       0.693   3.251  -5.609  1.00  0.00     0.029 A 
ATOM     20  N   UNL     1       1.449   2.514  -7.553  1.00  0.00    -0.354 N 
ATOM     21  C   UNL     1       3.748  -1.270  -7.756  1.00  0.00     0.074 A 
ATOM     22  C   UNL     1       2.907  -2.081  -6.916  1.00  0.00     0.031 C 
ATOM     23  C   UNL     1       0.017   3.913  -6.575  1.00  0.00     0.029 A 
ATOM     24  C   UNL     1       0.465   3.440  -7.874  1.00  0.00     0.049 A 
ATOM     25  H   UNL     1       2.039   2.105  -8.227  1.00  0.00     0.167 HD
ATOM     26  C   UNL     1       4.357  -1.562  -8.938  1.00  0.00     0.037 A 
ATOM     27  C   UNL     1       0.006   3.740  -9.115  1.00  0.00     0.037 A 
ATOM     28  C   UNL     1       5.263  -0.521  -9.339  1.00  0.00     0.049 A 
ATOM     29  C   UNL     1       1.016   3.274 -10.096  1.00  0.00     0.074 A 
ATOM     30  C   UNL     1       6.407   0.029  -8.796  1.00  0.00     0.029 A 
ATOM     31  N   UNL     1       4.857   0.362 -10.306  1.00  0.00    -0.354 N 
ATOM     32  N   UNL     1       2.196   3.806 -10.238  1.00  0.00    -0.248 NA
ATOM     33  C   UNL     1       0.867   1.927 -10.624  1.00  0.00     0.031 C 
ATOM     34  C   UNL     1       6.326   1.420  -9.099  1.00  0.00     0.029 A 
ATOM     35  C   UNL     1       5.172   1.618  -9.857  1.00  0.00     0.049 A 
ATOM     36  H   UNL     1       4.422   0.137 -11.160  1.00  0.00     0.167 HD
ATOM     37  C   UNL     1       3.039   2.730 -10.464  1.00  0.00     0.074 A 
ATOM     38  C   UNL     1       2.155   1.611 -10.780  1.00  0.00     0.031 C 
ATOM     39  C   UNL     1       4.353   2.779 -10.100  1.00  0.00     0.037 A 
BRANCH  26  40
ATOM     40  C   UNL     1       3.873  -2.626  -9.892  1.00  0.00     0.064 A 
ATOM     41  C   UNL     1       4.657  -2.967 -11.013  1.00  0.00     0.173 A 
ATOM     42  C   UNL     1       2.542  -3.096  -9.915  1.00  0.00     0.173 A 
ATOM     43  F   UNL     1       5.927  -2.549 -11.111  1.00  0.00    -0.203 F 
ATOM     44  C   UNL     1       4.124  -3.667 -12.100  1.00  0.00     0.198 A 
ATOM     45  C   UNL     1       2.030  -3.839 -10.977  1.00  0.00     0.198 A 
ATOM     46  F   UNL     1       1.655  -2.761  -8.970  1.00  0.00    -0.203 F 
ATOM     47  F   UNL     1       4.870  -3.862 -13.196  1.00  0.00    -0.200 F 
ATOM     48  C   UNL     1       2.810  -4.098 -12.083  1.00  0.00     0.200 A 
ATOM     49  F   UNL     1       0.747  -4.227 -10.950  1.00  0.00    -0.200 F 
ATOM     50  F   UNL     1       2.280  -4.714 -13.148  1.00  0.00    -0.200 F 
ENDBRANCH  26  40
BRANCH  27  51
ATOM     51  C   UNL     1      -1.372   4.103  -9.527  1.00  0.00     0.064 A 
ATOM     52  C   UNL     1      -1.627   4.688 -10.780  1.00  0.00     0.173 A 
ATOM     53  C   UNL     1      -2.492   3.621  -8.823  1.00  0.00     0.173 A 
ATOM     54  F   UNL     1      -0.613   5.127 -11.539  1.00  0.00    -0.203 F 
ATOM     55  C   UNL     1      -2.923   4.763 -11.304  1.00  0.00     0.198 A 
ATOM     56  C   UNL     1      -3.784   3.704  -9.344  1.00  0.00     0.198 A 
ATOM     57  F   UNL     1      -2.345   2.970  -7.661  1.00  0.00    -0.203 F 
ATOM     58  F   UNL     1      -3.120   5.269 -12.530  1.00  0.00    -0.200 F 
ATOM     59  C   UNL     1      -3.998   4.262 -10.590  1.00  0.00     0.200 A 
ATOM     60  F   UNL     1      -4.811   3.179  -8.660  1.00  0.00    -0.200 F 
ATOM     61  F   UNL     1      -5.230   4.276 -11.118  1.00  0.00    -0.200 F 
ENDBRANCH  27  51
BRANCH  39  62
ATOM     62  C   UNL     1       4.916   4.110  -9.689  1.00  0.00     0.064 A 
ATOM     63  C   UNL     1       4.467   4.847  -8.579  1.00  0.00     0.173 A 
ATOM     64  C   UNL     1       6.044   4.591 -10.366  1.00  0.00     0.173 A 
ATOM     65  F   UNL     1       3.462   4.402  -7.814  1.00  0.00    -0.203 F 
ATOM     66  C   UNL     1       5.091   6.034  -8.198  1.00  0.00     0.198 A 
ATOM     67  C   UNL     1       6.689   5.755  -9.960  1.00  0.00     0.198 A 
ATOM     68  F   UNL     1       6.554   3.899 -11.398  1.00  0.00    -0.203 F 
ATOM     69  F   UNL     1       4.635   6.724  -7.142  1.00  0.00    -0.200 F 
ATOM     70  C   UNL     1       6.206   6.483  -8.885  1.00  0.00     0.200 A 
ATOM     71  F   UNL     1       7.799   6.157 -10.595  1.00  0.00    -0.200 F 
ATOM     72  F   UNL     1       6.833   7.601  -8.493  1.00  0.00    -0.200 F 
ENDBRANCH  39  62
ENDBRANCH  13  14
ENDBRANCH   6   8
ENDBRANCH   3   4
ENDBRANCH   2   3
ENDBRANCH   1   2
BRANCH   1  73
ATOM     73  C   UNL     1       4.752   2.472   3.169  1.00  0.00     0.002 C 
BRANCH  73  74
ATOM     74  C   UNL     1       6.286   2.578   3.135  1.00  0.00     0.021 C 
BRANCH  74  75
ATOM     75  C   UNL     1       6.764   4.017   2.973  1.00  0.00     0.116 C 
BRANCH  75  76
ATOM     76  N   UNL     1       6.539   4.719   4.218  1.00  0.00    -0.354 N 
ATOM     77  C   UNL     1       7.422   5.187   5.134  1.00  0.00     0.243 C 
ATOM     78  H   UNL     1       5.593   4.882   4.435  1.00  0.00     0.163 HD
ATOM     79  O   UNL     1       6.978   5.438   6.258  1.00  0.00    -0.273 OA
BRANCH  77  80
ATOM     80  C   UNL     1       8.915   5.379   4.822  1.00  0.00     0.181 C 
ATOM     81  C   UNL     1       9.559   3.942   4.751  1.00  0.00     0.091 C 
ATOM     82  N   UNL     1       9.357   6.319   3.711  1.00  0.00    -0.320 N 
ATOM     83  C   UNL     1      10.874   3.989   4.082  1.00  0.00     0.042 A 
ATOM     84  C   UNL     1      10.829   6.453   3.560  1.00  0.00     0.178 C 
ATOM     85  N   UNL     1      11.723   2.960   3.793  1.00  0.00    -0.348 N 
ATOM     86  C   UNL     1      11.451   5.109   3.541  1.00  0.00     0.081 A 
ATOM     87  C   UNL     1      12.794   3.506   3.134  1.00  0.00     0.197 A 
ATOM     88  H   UNL     1      11.591   2.010   4.015  1.00  0.00     0.167 HD
ATOM     89  N   UNL     1      12.658   4.804   2.972  1.00  0.00    -0.240 NA
BRANCH  82  90
ATOM     90  C   UNL     1       8.662   7.403   3.148  1.00  0.00     0.256 C 
ATOM     91  O   UNL     1       9.199   8.262   2.449  1.00  0.00    -0.269 OA
BRANCH  90  92
ATOM     92  C   UNL     1       7.205   7.524   3.226  1.00  0.00     0.061 A 
ATOM     93  C   UNL     1       6.482   7.189   2.074  1.00  0.00     0.035 A 
ATOM     94  C   UNL     1       6.548   8.031   4.339  1.00  0.00     0.072 A 
ATOM     95  C   UNL     1       5.102   7.238   2.134  1.00  0.00     0.112 A 
ATOM     96  C   UNL     1       5.162   8.018   4.306  1.00  0.00     0.132 A 
ATOM     97  Cl  UNL     1       7.371   8.658   5.712  1.00  0.00    -0.082 Cl
ATOM     98  N   UNL     1       4.424   7.606   3.241  1.00  0.00    -0.263 NA
ENDBRANCH  90  92
ENDBRANCH  82  90
ENDBRANCH  77  80
ENDBRANCH  75  76
ENDBRANCH  74  75
ENDBRANCH  73  74
ENDBRANCH   1  73
TORSDOF 15
