REMARK SMILES O=C(NCCCCCCNC(=O)[C@H]1CC[C@H](CNS(=O)(=O)C[C@H]2CCCO2)O1)c1ccc(-c2c3nc(c(-c4c(F)c(F)c(F)c(F)c4F)c4ccc([nH]4)c(-c4c(F)c(F)c(F)c(F)c4F)c4nc(c(-c5c(F)c(F)c(F)c(F)c5F)c5ccc2[nH]5)C=C4)C=C3)cc1
REMARK SMILES IDX 8 1 7 2 6 3 5 4 4 5 3 6 1 7 2 8 29 10 30 11 91 12 31 13
REMARK SMILES IDX 90 14 32 15 33 16 34 17 84 18 35 19 89 20 83 21 85 22 36 23
REMARK SMILES IDX 88 24 82 25 81 26 37 28 69 29 49 30 68 31 50 32 53 33 67 34
REMARK SMILES IDX 86 35 51 36 52 37 66 39 87 40 54 41 38 42 39 43 47 44 40 45
REMARK SMILES IDX 41 46 45 47 48 48 42 49 43 50 46 51 44 52 70 53 71 54 79 55
REMARK SMILES IDX 72 56 73 57 77 58 80 59 74 60 75 61 78 62 76 63 55 64 56 65
REMARK SMILES IDX 64 66 57 67 58 68 62 69 65 70 59 71 60 72 63 73 61 74 9 75
REMARK SMILES IDX 10 76 11 77 12 79 13 80 14 81 28 82 15 83 16 84 17 85 18 86
REMARK SMILES IDX 19 88 20 89 21 90 22 91 23 92 24 93 27 94 25 95 26 96
REMARK H PARENT 3 9 85 27 53 38 10 78 18 87
REMARK Flexibility Score: inf
ROOT
ATOM      1  C   UNL     1       3.766  -4.119  -9.352  1.00  0.00     0.021 C 
ENDROOT
BRANCH   1   2
ATOM      2  C   UNL     1       2.364  -4.585  -9.756  1.00  0.00     0.002 C 
BRANCH   2   3
ATOM      3  C   UNL     1       2.172  -4.787 -11.264  1.00  0.00     0.002 C 
BRANCH   3   4
ATOM      4  C   UNL     1       3.193  -5.718 -11.915  1.00  0.00     0.021 C 
BRANCH   4   5
ATOM      5  C   UNL     1       3.175  -7.128 -11.346  1.00  0.00     0.116 C 
BRANCH   5   6
ATOM      6  N   UNL     1       1.915  -7.807 -11.621  1.00  0.00    -0.352 N 
ATOM      7  O   UNL     1       0.559  -9.282 -12.672  1.00  0.00    -0.269 OA
ATOM      8  C   UNL     1       1.693  -8.958 -12.337  1.00  0.00     0.251 C 
ATOM      9  H   UNL     1       1.112  -7.383 -11.240  1.00  0.00     0.163 HD
BRANCH   8  10
ATOM     10  C   UNL     1       2.848  -9.797 -12.708  1.00  0.00     0.039 A 
ATOM     11  C   UNL     1       3.853 -10.032 -11.770  1.00  0.00     0.014 A 
ATOM     12  C   UNL     1       2.945 -10.328 -13.997  1.00  0.00     0.014 A 
ATOM     13  C   UNL     1       5.031 -10.639 -12.169  1.00  0.00     0.010 A 
ATOM     14  C   UNL     1       4.081 -11.058 -14.358  1.00  0.00     0.010 A 
ATOM     15  C   UNL     1       5.146 -11.196 -13.454  1.00  0.00    -0.014 A 
BRANCH  15  16
ATOM     16  C   UNL     1       6.359 -11.995 -13.760  1.00  0.00     0.031 A 
ATOM     17  C   UNL     1       7.318 -11.597 -14.843  1.00  0.00     0.074 A 
ATOM     18  C   UNL     1       6.616 -13.063 -12.979  1.00  0.00     0.049 A 
ATOM     19  N   UNL     1       8.456 -12.155 -15.177  1.00  0.00    -0.248 NA
ATOM     20  C   UNL     1       6.960 -10.432 -15.666  1.00  0.00     0.031 C 
ATOM     21  C   UNL     1       5.737 -13.552 -11.912  1.00  0.00     0.029 A 
ATOM     22  N   UNL     1       7.695 -13.905 -12.927  1.00  0.00    -0.354 N 
ATOM     23  C   UNL     1       8.946 -11.416 -16.245  1.00  0.00     0.074 A 
ATOM     24  C   UNL     1       7.963 -10.393 -16.533  1.00  0.00     0.031 C 
ATOM     25  C   UNL     1       6.340 -14.559 -11.269  1.00  0.00     0.029 A 
ATOM     26  C   UNL     1       7.605 -14.846 -11.931  1.00  0.00     0.049 A 
ATOM     27  H   UNL     1       8.460 -13.842 -13.544  1.00  0.00     0.167 HD
ATOM     28  C   UNL     1      10.117 -11.574 -16.910  1.00  0.00     0.037 A 
ATOM     29  C   UNL     1       8.436 -15.849 -11.599  1.00  0.00     0.037 A 
ATOM     30  C   UNL     1      11.085 -12.602 -16.616  1.00  0.00     0.049 A 
ATOM     31  C   UNL     1       9.707 -16.015 -12.378  1.00  0.00     0.074 A 
ATOM     32  C   UNL     1      12.301 -12.845 -17.230  1.00  0.00     0.029 A 
ATOM     33  N   UNL     1      10.943 -13.563 -15.623  1.00  0.00    -0.354 N 
ATOM     34  N   UNL     1      10.171 -15.291 -13.368  1.00  0.00    -0.248 NA
ATOM     35  C   UNL     1      10.573 -17.135 -11.993  1.00  0.00     0.031 C 
ATOM     36  C   UNL     1      12.871 -13.981 -16.645  1.00  0.00     0.029 A 
ATOM     37  C   UNL     1      12.042 -14.410 -15.621  1.00  0.00     0.049 A 
ATOM     38  H   UNL     1      10.176 -13.632 -15.010  1.00  0.00     0.167 HD
ATOM     39  C   UNL     1      11.387 -15.860 -13.716  1.00  0.00     0.074 A 
ATOM     40  C   UNL     1      11.605 -16.963 -12.804  1.00  0.00     0.031 C 
ATOM     41  C   UNL     1      12.241 -15.508 -14.709  1.00  0.00     0.037 A 
BRANCH  28  42
ATOM     42  C   UNL     1      10.420 -10.619 -18.031  1.00  0.00     0.064 A 
ATOM     43  C   UNL     1      10.723  -9.270 -17.787  1.00  0.00     0.173 A 
ATOM     44  C   UNL     1      10.472 -11.069 -19.360  1.00  0.00     0.173 A 
ATOM     45  F   UNL     1      10.679  -8.783 -16.538  1.00  0.00    -0.203 F 
ATOM     46  C   UNL     1      11.047  -8.406 -18.831  1.00  0.00     0.198 A 
ATOM     47  C   UNL     1      10.826 -10.210 -20.398  1.00  0.00     0.198 A 
ATOM     48  F   UNL     1      10.198 -12.350 -19.651  1.00  0.00    -0.203 F 
ATOM     49  F   UNL     1      11.294  -7.114 -18.577  1.00  0.00    -0.200 F 
ATOM     50  C   UNL     1      11.108  -8.879 -20.133  1.00  0.00     0.200 A 
ATOM     51  F   UNL     1      10.900 -10.672 -21.653  1.00  0.00    -0.200 F 
ATOM     52  F   UNL     1      11.435  -8.049 -21.134  1.00  0.00    -0.200 F 
ENDBRANCH  28  42
BRANCH  29  53
ATOM     53  C   UNL     1       8.069 -16.786 -10.504  1.00  0.00     0.064 A 
ATOM     54  C   UNL     1       8.823 -16.866  -9.327  1.00  0.00     0.173 A 
ATOM     55  C   UNL     1       6.953 -17.630 -10.621  1.00  0.00     0.173 A 
ATOM     56  F   UNL     1       9.907 -16.090  -9.171  1.00  0.00    -0.203 F 
ATOM     57  C   UNL     1       8.496 -17.776  -8.324  1.00  0.00     0.198 A 
ATOM     58  C   UNL     1       6.602 -18.509  -9.601  1.00  0.00     0.198 A 
ATOM     59  F   UNL     1       6.189 -17.587 -11.723  1.00  0.00    -0.203 F 
ATOM     60  F   UNL     1       9.271 -17.876  -7.235  1.00  0.00    -0.200 F 
ATOM     61  C   UNL     1       7.383 -18.592  -8.459  1.00  0.00     0.200 A 
ATOM     62  F   UNL     1       5.511 -19.276  -9.726  1.00  0.00    -0.200 F 
ATOM     63  F   UNL     1       7.067 -19.464  -7.492  1.00  0.00    -0.200 F 
ENDBRANCH  29  53
BRANCH  41  64
ATOM     64  C   UNL     1      13.501 -16.316 -14.832  1.00  0.00     0.064 A 
ATOM     65  C   UNL     1      13.481 -17.657 -15.246  1.00  0.00     0.173 A 
ATOM     66  C   UNL     1      14.745 -15.744 -14.523  1.00  0.00     0.173 A 
ATOM     67  F   UNL     1      12.316 -18.257 -15.536  1.00  0.00    -0.203 F 
ATOM     68  C   UNL     1      14.653 -18.407 -15.301  1.00  0.00     0.198 A 
ATOM     69  C   UNL     1      15.918 -16.485 -14.617  1.00  0.00     0.198 A 
ATOM     70  F   UNL     1      14.822 -14.463 -14.130  1.00  0.00    -0.203 F 
ATOM     71  F   UNL     1      14.599 -19.706 -15.626  1.00  0.00    -0.200 F 
ATOM     72  C   UNL     1      15.870 -17.820 -14.992  1.00  0.00     0.200 A 
ATOM     73  F   UNL     1      17.096 -15.912 -14.334  1.00  0.00    -0.200 F 
ATOM     74  F   UNL     1      16.997 -18.544 -15.043  1.00  0.00    -0.200 F 
ENDBRANCH  41  64
ENDBRANCH  15  16
ENDBRANCH   8  10
ENDBRANCH   5   6
ENDBRANCH   4   5
ENDBRANCH   3   4
ENDBRANCH   2   3
ENDBRANCH   1   2
BRANCH   1  75
ATOM     75  C   UNL     1       4.136  -2.764  -9.954  1.00  0.00     0.116 C 
BRANCH  75  76
ATOM     76  N   UNL     1       3.628  -1.685  -9.141  1.00  0.00    -0.354 N 
ATOM     77  C   UNL     1       4.285  -0.868  -8.271  1.00  0.00     0.249 C 
ATOM     78  H   UNL     1       2.662  -1.514  -9.229  1.00  0.00     0.163 HD
ATOM     79  O   UNL     1       3.606  -0.064  -7.624  1.00  0.00    -0.272 OA
BRANCH  77  80
ATOM     80  C   UNL     1       5.815  -0.948  -8.077  1.00  0.00     0.207 C 
ATOM     81  C   UNL     1       6.301  -2.213  -7.391  1.00  0.00     0.045 C 
ATOM     82  O   UNL     1       6.551  -0.780  -9.291  1.00  0.00    -0.364 OA
ATOM     83  C   UNL     1       7.223  -2.882  -8.381  1.00  0.00     0.037 C 
ATOM     84  C   UNL     1       7.544  -1.805  -9.407  1.00  0.00     0.134 C 
BRANCH  84  85
ATOM     85  C   UNL     1       8.947  -1.214  -9.234  1.00  0.00     0.130 C 
BRANCH  85  86
ATOM     86  N   UNL     1       9.940  -2.223  -9.582  1.00  0.00    -0.213 NA
ATOM     87  H   UNL     1       9.857  -2.373 -10.587  1.00  0.00     0.141 HD
BRANCH  86  88
ATOM     88  S   UNL     1      11.547  -2.002  -9.278  1.00  0.00     0.214 S 
ATOM     89  O   UNL     1      11.655  -1.449  -7.949  1.00  0.00    -0.212 OA
ATOM     90  O   UNL     1      12.195  -3.258  -9.607  1.00  0.00    -0.212 OA
BRANCH  88  91
ATOM     91  C   UNL     1      12.093  -0.761 -10.431  1.00  0.00     0.185 C 
BRANCH  91  92
ATOM     92  C   UNL     1      11.651  -0.914 -11.885  1.00  0.00     0.134 C 
ATOM     93  C   UNL     1      12.752  -0.468 -12.845  1.00  0.00     0.035 C 
ATOM     94  O   UNL     1      11.363  -2.267 -12.261  1.00  0.00    -0.377 OA
ATOM     95  C   UNL     1      13.547  -1.741 -13.022  1.00  0.00     0.031 C 
ATOM     96  C   UNL     1      12.462  -2.795 -13.020  1.00  0.00     0.160 C 
ENDBRANCH  91  92
ENDBRANCH  88  91
ENDBRANCH  86  88
ENDBRANCH  85  86
ENDBRANCH  84  85
ENDBRANCH  77  80
ENDBRANCH  75  76
ENDBRANCH   1  75
TORSDOF 18
