REMARK SMILES CCN(C(=O)c1ccccc1C(=O)NCCCCCCNC(=O)c1ccc(-c2c3nc(c(-c4c(F)c(F)c(F)c(F)c4F)c4ccc([nH]4)c(-c4c(F)c(F)c(F)c(F)c4F)c4nc(c(-c5c(F)c(F)c(F)c(F)c5F)c5ccc2[nH]5)C=C4)C=C3)cc1)[C@H](CCO)c1ccccc1
REMARK SMILES IDX 15 1 14 2 12 3 13 4 11 6 6 7 7 8 8 9 10 10 9 11 4 12 5 13
REMARK SMILES IDX 3 14 2 15 1 16 87 17 91 18 92 19 96 20 93 21 95 22 94 23
REMARK SMILES IDX 88 24 89 25 90 26 16 28 17 29 18 30 19 31 20 32 21 33 22 34
REMARK SMILES IDX 23 36 24 37 25 38 86 39 26 40 85 41 27 42 28 43 29 44 79 45
REMARK SMILES IDX 30 46 84 47 78 48 80 49 31 50 83 51 77 52 76 53 32 55 64 56
REMARK SMILES IDX 44 57 63 58 45 59 48 60 62 61 81 62 46 63 47 64 61 66 82 67
REMARK SMILES IDX 49 68 33 69 34 70 42 71 35 72 36 73 40 74 43 75 37 76 38 77
REMARK SMILES IDX 41 78 39 79 65 80 66 81 74 82 67 83 68 84 72 85 75 86 69 87
REMARK SMILES IDX 70 88 73 89 71 90 50 91 51 92 59 93 52 94 53 95 57 96 60 97
REMARK SMILES IDX 54 98 55 99 58 100 56 101
REMARK H PARENT 14 5 90 27 21 35 80 54 48 65
REMARK Flexibility Score: inf
ROOT
ATOM      1  C   UNL     1       2.579  -0.615   5.236  1.00  0.00     0.116 C 
ENDROOT
BRANCH   1   2
ATOM      2  N   UNL     1       3.950  -1.008   5.462  1.00  0.00    -0.352 N 
ATOM      3  C   UNL     1       4.612  -2.171   5.165  1.00  0.00     0.252 C 
ATOM      4  O   UNL     1       5.817  -2.217   5.426  1.00  0.00    -0.269 OA
ATOM      5  H   UNL     1       4.504  -0.324   5.904  1.00  0.00     0.163 HD
BRANCH   3   6
ATOM      6  C   UNL     1       3.989  -3.395   4.588  1.00  0.00     0.052 A 
ATOM      7  C   UNL     1       3.143  -3.478   3.473  1.00  0.00     0.052 A 
ATOM      8  C   UNL     1       2.674  -4.735   3.034  1.00  0.00     0.014 A 
ATOM      9  C   UNL     1       3.090  -5.913   3.648  1.00  0.00     0.001 A 
ATOM     10  C   UNL     1       4.426  -4.605   5.171  1.00  0.00     0.014 A 
ATOM     11  C   UNL     1       3.981  -5.849   4.710  1.00  0.00     0.001 A 
BRANCH   7  12
ATOM     12  C   UNL     1       2.553  -2.343   2.747  1.00  0.00     0.255 C 
ATOM     13  O   UNL     1       1.345  -2.232   2.969  1.00  0.00    -0.269 OA
BRANCH  12  14
ATOM     14  N   UNL     1       3.295  -1.506   1.872  1.00  0.00    -0.332 N 
BRANCH  14  15
ATOM     15  C   UNL     1       4.772  -1.512   2.004  1.00  0.00     0.117 C 
ATOM     16  C   UNL     1       5.653  -1.343   0.781  1.00  0.00     0.027 C 
ENDBRANCH  14  15
BRANCH  14  17
ATOM     17  C   UNL     1       2.567  -0.296   1.318  1.00  0.00     0.118 C 
BRANCH  17  18
ATOM     18  C   UNL     1       3.285   0.478   0.225  1.00  0.00    -0.025 A 
ATOM     19  C   UNL     1       3.501  -0.061  -1.052  1.00  0.00     0.006 A 
ATOM     20  C   UNL     1       3.678   1.808   0.467  1.00  0.00     0.006 A 
ATOM     21  C   UNL     1       4.102   0.709  -2.050  1.00  0.00     0.000 A 
ATOM     22  C   UNL     1       4.256   2.582  -0.537  1.00  0.00     0.000 A 
ATOM     23  C   UNL     1       4.472   2.030  -1.795  1.00  0.00     0.000 A 
ENDBRANCH  17  18
BRANCH  17  24
ATOM     24  C   UNL     1       1.073  -0.541   0.910  1.00  0.00     0.058 C 
BRANCH  24  25
ATOM     25  C   UNL     1       0.336   0.585   0.179  1.00  0.00     0.158 C 
BRANCH  25  26
ATOM     26  O   UNL     1       0.222   0.309  -1.210  1.00  0.00    -0.396 OA
ATOM     27  H   UNL     1       1.107   0.230  -1.598  1.00  0.00     0.210 HD
ENDBRANCH  25  26
ENDBRANCH  24  25
ENDBRANCH  17  24
ENDBRANCH  14  17
ENDBRANCH  12  14
ENDBRANCH   7  12
ENDBRANCH   3   6
ENDBRANCH   1   2
BRANCH   1  28
ATOM     28  C   UNL     1       2.085   0.538   6.107  1.00  0.00     0.021 C 
BRANCH  28  29
ATOM     29  C   UNL     1       2.762   1.904   5.908  1.00  0.00     0.002 C 
BRANCH  29  30
ATOM     30  C   UNL     1       2.811   2.483   4.487  1.00  0.00     0.002 C 
BRANCH  30  31
ATOM     31  C   UNL     1       1.503   2.490   3.694  1.00  0.00     0.021 C 
BRANCH  31  32
ATOM     32  C   UNL     1       0.354   3.293   4.287  1.00  0.00     0.116 C 
BRANCH  32  33
ATOM     33  N   UNL     1       0.559   4.727   4.178  1.00  0.00    -0.352 N 
ATOM     34  C   UNL     1      -0.048   5.695   3.414  1.00  0.00     0.251 C 
ATOM     35  H   UNL     1       1.270   5.072   4.765  1.00  0.00     0.163 HD
ATOM     36  O   UNL     1       0.451   6.819   3.404  1.00  0.00    -0.269 OA
BRANCH  34  37
ATOM     37  C   UNL     1      -1.271   5.448   2.601  1.00  0.00     0.039 A 
ATOM     38  C   UNL     1      -1.480   6.243   1.463  1.00  0.00     0.014 A 
ATOM     39  C   UNL     1      -2.268   4.545   2.974  1.00  0.00     0.014 A 
ATOM     40  C   UNL     1      -2.656   6.124   0.711  1.00  0.00     0.010 A 
ATOM     41  C   UNL     1      -3.392   4.351   2.167  1.00  0.00     0.010 A 
ATOM     42  C   UNL     1      -3.622   5.168   1.050  1.00  0.00    -0.014 A 
BRANCH  42  43
ATOM     43  C   UNL     1      -4.917   5.069   0.320  1.00  0.00     0.031 A 
ATOM     44  C   UNL     1      -6.212   5.329   1.050  1.00  0.00     0.074 A 
ATOM     45  C   UNL     1      -4.949   4.705  -0.976  1.00  0.00     0.049 A 
ATOM     46  N   UNL     1      -7.448   5.204   0.631  1.00  0.00    -0.248 NA
ATOM     47  C   UNL     1      -6.102   5.753   2.455  1.00  0.00     0.031 C 
ATOM     48  C   UNL     1      -3.781   4.389  -1.796  1.00  0.00     0.029 A 
ATOM     49  N   UNL     1      -6.012   4.531  -1.829  1.00  0.00    -0.354 N 
ATOM     50  C   UNL     1      -8.252   5.490   1.728  1.00  0.00     0.074 A 
ATOM     51  C   UNL     1      -7.367   5.747   2.843  1.00  0.00     0.031 C 
ATOM     52  C   UNL     1      -4.187   4.086  -3.040  1.00  0.00     0.029 A 
ATOM     53  C   UNL     1      -5.645   4.152  -3.097  1.00  0.00     0.049 A 
ATOM     54  H   UNL     1      -6.949   4.665  -1.557  1.00  0.00     0.167 HD
ATOM     55  C   UNL     1      -9.604   5.557   1.799  1.00  0.00     0.037 A 
ATOM     56  C   UNL     1      -6.398   3.888  -4.181  1.00  0.00     0.037 A 
ATOM     57  C   UNL     1     -10.484   5.361   0.678  1.00  0.00     0.049 A 
ATOM     58  C   UNL     1      -7.896   4.003  -4.091  1.00  0.00     0.074 A 
ATOM     59  C   UNL     1     -11.863   5.479   0.630  1.00  0.00     0.029 A 
ATOM     60  N   UNL     1     -10.068   5.015  -0.599  1.00  0.00    -0.354 N 
ATOM     61  N   UNL     1      -8.642   4.322  -3.061  1.00  0.00    -0.248 NA
ATOM     62  C   UNL     1      -8.655   3.728  -5.319  1.00  0.00     0.031 C 
ATOM     63  C   UNL     1     -12.283   5.171  -0.669  1.00  0.00     0.029 A 
ATOM     64  C   UNL     1     -11.164   4.904  -1.440  1.00  0.00     0.049 A 
ATOM     65  H   UNL     1      -9.132   4.869  -0.868  1.00  0.00     0.167 HD
ATOM     66  C   UNL     1      -9.951   4.316  -3.522  1.00  0.00     0.074 A 
ATOM     67  C   UNL     1      -9.899   3.971  -4.927  1.00  0.00     0.031 C 
ATOM     68  C   UNL     1     -11.095   4.574  -2.840  1.00  0.00     0.037 A 
BRANCH  55  69
ATOM     69  C   UNL     1     -10.211   5.857   3.140  1.00  0.00     0.064 A 
ATOM     70  C   UNL     1     -10.082   7.118   3.745  1.00  0.00     0.173 A 
ATOM     71  C   UNL     1     -10.939   4.874   3.828  1.00  0.00     0.173 A 
ATOM     72  F   UNL     1      -9.387   8.090   3.136  1.00  0.00    -0.203 F 
ATOM     73  C   UNL     1     -10.620   7.368   5.005  1.00  0.00     0.198 A 
ATOM     74  C   UNL     1     -11.504   5.138   5.073  1.00  0.00     0.198 A 
ATOM     75  F   UNL     1     -11.102   3.655   3.293  1.00  0.00    -0.203 F 
ATOM     76  F   UNL     1     -10.427   8.558   5.590  1.00  0.00    -0.200 F 
ATOM     77  C   UNL     1     -11.335   6.380   5.665  1.00  0.00     0.200 A 
ATOM     78  F   UNL     1     -12.206   4.186   5.704  1.00  0.00    -0.200 F 
ATOM     79  F   UNL     1     -11.850   6.622   6.879  1.00  0.00    -0.200 F 
ENDBRANCH  55  69
BRANCH  56  80
ATOM     80  C   UNL     1      -5.740   3.535  -5.466  1.00  0.00     0.064 A 
ATOM     81  C   UNL     1      -5.716   4.449  -6.529  1.00  0.00     0.173 A 
ATOM     82  C   UNL     1      -5.116   2.295  -5.655  1.00  0.00     0.173 A 
ATOM     83  F   UNL     1      -6.323   5.639  -6.402  1.00  0.00    -0.203 F 
ATOM     84  C   UNL     1      -5.101   4.131  -7.737  1.00  0.00     0.198 A 
ATOM     85  C   UNL     1      -4.479   1.987  -6.856  1.00  0.00     0.198 A 
ATOM     86  F   UNL     1      -5.113   1.387  -4.669  1.00  0.00    -0.203 F 
ATOM     87  F   UNL     1      -5.124   5.009  -8.750  1.00  0.00    -0.200 F 
ATOM     88  C   UNL     1      -4.477   2.904  -7.898  1.00  0.00     0.200 A 
ATOM     89  F   UNL     1      -3.869   0.804  -7.006  1.00  0.00    -0.200 F 
ATOM     90  F   UNL     1      -3.879   2.601  -9.058  1.00  0.00    -0.200 F 
ENDBRANCH  56  80
BRANCH  68  91
ATOM     91  C   UNL     1     -12.380   4.538  -3.614  1.00  0.00     0.064 A 
ATOM     92  C   UNL     1     -12.947   3.331  -4.045  1.00  0.00     0.173 A 
ATOM     93  C   UNL     1     -13.070   5.728  -3.895  1.00  0.00     0.173 A 
ATOM     94  F   UNL     1     -12.319   2.169  -3.814  1.00  0.00    -0.203 F 
ATOM     95  C   UNL     1     -14.147   3.317  -4.753  1.00  0.00     0.198 A 
ATOM     96  C   UNL     1     -14.283   5.708  -4.578  1.00  0.00     0.198 A 
ATOM     97  F   UNL     1     -12.573   6.908  -3.497  1.00  0.00    -0.203 F 
ATOM     98  F   UNL     1     -14.649   2.156  -5.195  1.00  0.00    -0.200 F 
ATOM     99  C   UNL     1     -14.816   4.504  -5.013  1.00  0.00     0.200 A 
ATOM    100  F   UNL     1     -14.934   6.854  -4.818  1.00  0.00    -0.200 F 
ATOM    101  F   UNL     1     -15.973   4.488  -5.689  1.00  0.00    -0.200 F 
ENDBRANCH  68  91
ENDBRANCH  42  43
ENDBRANCH  34  37
ENDBRANCH  32  33
ENDBRANCH  31  32
ENDBRANCH  30  31
ENDBRANCH  29  30
ENDBRANCH  28  29
ENDBRANCH   1  28
TORSDOF 21
