REMARK SMILES CC[C@@H](C)Oc1cccc(C(=O)Nc2ccc(Cl)c(C(=O)NCCCCCCNC(=O)c3ccc(-c4c5nc(c(-c6c(F)c(F)c(F)c(F)c6F)c6ccc([nH]6)c(-c6c(F)c(F)c(F)c(F)c6F)c6nc(c(-c7c(F)c(F)c(F)c(F)c7F)c7ccc4[nH]7)C=C6)C=C5)cc3)c2)c1
REMARK SMILES IDX 24 1 23 2 22 3 20 4 21 5 19 7 14 8 15 9 95 10 16 11 17 12
REMARK SMILES IDX 18 13 13 14 11 15 12 16 10 18 6 19 7 20 96 21 8 22 9 23 5 24
REMARK SMILES IDX 3 25 4 26 2 27 1 28 25 29 26 30 27 31 28 32 29 33 30 34
REMARK SMILES IDX 31 36 32 37 33 38 94 39 34 40 93 41 35 42 36 43 37 44 87 45
REMARK SMILES IDX 38 46 92 47 86 48 88 49 39 50 91 51 85 52 84 53 40 55 72 56
REMARK SMILES IDX 52 57 71 58 53 59 56 60 70 61 89 62 54 63 55 64 69 66 90 67
REMARK SMILES IDX 57 68 41 69 42 70 50 71 43 72 44 73 48 74 51 75 45 76 46 77
REMARK SMILES IDX 49 78 47 79 73 80 74 81 82 82 75 83 76 84 80 85 83 86 77 87
REMARK SMILES IDX 78 88 81 89 79 90 58 91 59 92 67 93 60 94 61 95 65 96 68 97
REMARK SMILES IDX 62 98 63 99 66 100 64 101
REMARK H PARENT 22 6 13 17 29 35 88 54 56 65
REMARK Flexibility Score: inf
ROOT
ATOM      1  C   UNL     1      -0.563   1.677   6.067  1.00  0.00     0.021 C 
ENDROOT
BRANCH   1   2
ATOM      2  C   UNL     1      -0.055   1.994   4.662  1.00  0.00     0.116 C 
BRANCH   2   3
ATOM      3  N   UNL     1       1.050   1.120   4.340  1.00  0.00    -0.352 N 
ATOM      4  C   UNL     1       1.152  -0.136   3.800  1.00  0.00     0.252 C 
ATOM      5  O   UNL     1       2.232  -0.692   3.999  1.00  0.00    -0.269 OA
ATOM      6  H   UNL     1       1.926   1.515   4.557  1.00  0.00     0.163 HD
BRANCH   4   7
ATOM      7  C   UNL     1       0.090  -0.795   2.964  1.00  0.00     0.060 A 
ATOM      8  C   UNL     1      -2.199  -0.866   2.082  1.00  0.00     0.042 A 
ATOM      9  C   UNL     1      -1.842  -1.873   1.193  1.00  0.00     0.028 A 
ATOM     10  C   UNL     1      -1.265  -0.420   3.026  1.00  0.00     0.041 A 
ATOM     11  C   UNL     1      -0.528  -2.330   1.163  1.00  0.00     0.023 A 
ATOM     12  C   UNL     1       0.443  -1.780   2.015  1.00  0.00     0.053 A 
ATOM     13  Cl  UNL     1       2.051  -2.363   1.738  1.00  0.00    -0.083 Cl
BRANCH   8  14
ATOM     14  N   UNL     1      -3.493  -0.333   1.972  1.00  0.00    -0.322 N 
ATOM     15  C   UNL     1      -3.987   0.941   2.184  1.00  0.00     0.255 C 
ATOM     16  O   UNL     1      -5.205   1.082   2.313  1.00  0.00    -0.269 OA
ATOM     17  H   UNL     1      -4.174  -0.987   1.693  1.00  0.00     0.170 HD
BRANCH  15  18
ATOM     18  C   UNL     1      -3.130   2.167   2.163  1.00  0.00     0.043 A 
ATOM     19  C   UNL     1      -1.074   3.342   1.607  1.00  0.00     0.120 A 
ATOM     20  C   UNL     1      -1.540   4.457   2.312  1.00  0.00     0.046 A 
ATOM     21  C   UNL     1      -1.913   2.237   1.466  1.00  0.00     0.060 A 
ATOM     22  C   UNL     1      -2.810   4.458   2.889  1.00  0.00     0.005 A 
ATOM     23  C   UNL     1      -3.593   3.306   2.837  1.00  0.00     0.014 A 
BRANCH  19  24
ATOM     24  O   UNL     1       0.248   3.400   1.274  1.00  0.00    -0.491 OA
BRANCH  24  25
ATOM     25  C   UNL     1       0.806   2.795   0.098  1.00  0.00     0.170 C 
ATOM     26  C   UNL     1       0.125   3.304  -1.165  1.00  0.00     0.053 C 
BRANCH  25  27
ATOM     27  C   UNL     1       1.016   1.277   0.203  1.00  0.00     0.041 C 
ATOM     28  C   UNL     1       1.659   0.633  -1.015  1.00  0.00     0.008 C 
ENDBRANCH  25  27
ENDBRANCH  24  25
ENDBRANCH  19  24
ENDBRANCH  15  18
ENDBRANCH   8  14
ENDBRANCH   4   7
ENDBRANCH   2   3
ENDBRANCH   1   2
BRANCH   1  29
ATOM     29  C   UNL     1       0.182   2.481   7.136  1.00  0.00     0.002 C 
BRANCH  29  30
ATOM     30  C   UNL     1      -0.084   3.991   7.078  1.00  0.00     0.002 C 
BRANCH  30  31
ATOM     31  C   UNL     1      -1.563   4.383   7.140  1.00  0.00     0.021 C 
BRANCH  31  32
ATOM     32  C   UNL     1      -2.294   3.853   8.368  1.00  0.00     0.116 C 
BRANCH  32  33
ATOM     33  N   UNL     1      -1.710   4.362   9.599  1.00  0.00    -0.352 N 
ATOM     34  C   UNL     1      -2.316   5.032  10.626  1.00  0.00     0.251 C 
ATOM     35  H   UNL     1      -0.745   4.202   9.709  1.00  0.00     0.163 HD
ATOM     36  O   UNL     1      -1.640   5.601  11.485  1.00  0.00    -0.269 OA
BRANCH  34  37
ATOM     37  C   UNL     1      -3.788   5.081  10.696  1.00  0.00     0.039 A 
ATOM     38  C   UNL     1      -4.413   6.295  10.985  1.00  0.00     0.014 A 
ATOM     39  C   UNL     1      -4.546   3.925  10.484  1.00  0.00     0.014 A 
ATOM     40  C   UNL     1      -5.806   6.362  11.014  1.00  0.00     0.010 A 
ATOM     41  C   UNL     1      -5.933   4.009  10.441  1.00  0.00     0.010 A 
ATOM     42  C   UNL     1      -6.576   5.225  10.715  1.00  0.00    -0.014 A 
BRANCH  42  43
ATOM     43  C   UNL     1      -8.057   5.287  10.695  1.00  0.00     0.031 A 
ATOM     44  C   UNL     1      -8.857   4.493  11.688  1.00  0.00     0.074 A 
ATOM     45  C   UNL     1      -8.678   6.011   9.745  1.00  0.00     0.049 A 
ATOM     46  N   UNL     1     -10.156   4.364  11.792  1.00  0.00    -0.248 NA
ATOM     47  C   UNL     1      -8.096   3.718  12.680  1.00  0.00     0.031 C 
ATOM     48  C   UNL     1      -8.007   6.783   8.698  1.00  0.00     0.029 A 
ATOM     49  N   UNL     1     -10.013   6.206   9.498  1.00  0.00    -0.354 N 
ATOM     50  C   UNL     1     -10.364   3.490  12.850  1.00  0.00     0.074 A 
ATOM     51  C   UNL     1      -9.060   3.071  13.317  1.00  0.00     0.031 C 
ATOM     52  C   UNL     1      -8.932   7.382   7.932  1.00  0.00     0.029 A 
ATOM     53  C   UNL     1     -10.260   7.007   8.410  1.00  0.00     0.049 A 
ATOM     54  H   UNL     1     -10.727   5.808  10.047  1.00  0.00     0.167 HD
ATOM     55  C   UNL     1     -11.537   3.093  13.398  1.00  0.00     0.037 A 
ATOM     56  C   UNL     1     -11.426   7.387   7.856  1.00  0.00     0.037 A 
ATOM     57  C   UNL     1     -12.830   3.526  12.938  1.00  0.00     0.049 A 
ATOM     58  C   UNL     1     -12.716   6.925   8.478  1.00  0.00     0.074 A 
ATOM     59  C   UNL     1     -14.077   3.223  13.455  1.00  0.00     0.029 A 
ATOM     60  N   UNL     1     -13.041   4.355  11.845  1.00  0.00    -0.354 N 
ATOM     61  N   UNL     1     -12.902   6.152   9.521  1.00  0.00    -0.248 NA
ATOM     62  C   UNL     1     -13.959   7.395   7.851  1.00  0.00     0.031 C 
ATOM     63  C   UNL     1     -15.044   3.829  12.647  1.00  0.00     0.029 A 
ATOM     64  C   UNL     1     -14.399   4.556  11.659  1.00  0.00     0.049 A 
ATOM     65  H   UNL     1     -12.330   4.743  11.285  1.00  0.00     0.167 HD
ATOM     66  C   UNL     1     -14.277   6.065   9.692  1.00  0.00     0.074 A 
ATOM     67  C   UNL     1     -14.877   6.878   8.655  1.00  0.00     0.031 C 
ATOM     68  C   UNL     1     -14.979   5.374  10.623  1.00  0.00     0.037 A 
BRANCH  55  69
ATOM     69  C   UNL     1     -11.472   2.144  14.561  1.00  0.00     0.064 A 
ATOM     70  C   UNL     1     -10.973   2.544  15.810  1.00  0.00     0.173 A 
ATOM     71  C   UNL     1     -11.941   0.827  14.435  1.00  0.00     0.173 A 
ATOM     72  F   UNL     1     -10.501   3.788  15.982  1.00  0.00    -0.203 F 
ATOM     73  C   UNL     1     -10.914   1.653  16.879  1.00  0.00     0.198 A 
ATOM     74  C   UNL     1     -11.912  -0.051  15.515  1.00  0.00     0.198 A 
ATOM     75  F   UNL     1     -12.435   0.393  13.265  1.00  0.00    -0.203 F 
ATOM     76  F   UNL     1     -10.382   2.043  18.045  1.00  0.00    -0.200 F 
ATOM     77  C   UNL     1     -11.390   0.359  16.733  1.00  0.00     0.200 A 
ATOM     78  F   UNL     1     -12.385  -1.297  15.377  1.00  0.00    -0.200 F 
ATOM     79  F   UNL     1     -11.339  -0.495  17.764  1.00  0.00    -0.200 F 
ENDBRANCH  55  69
BRANCH  56  80
ATOM     80  C   UNL     1     -11.425   8.268   6.659  1.00  0.00     0.064 A 
ATOM     81  C   UNL     1     -11.871   9.595   6.741  1.00  0.00     0.173 A 
ATOM     82  C   UNL     1     -10.977   7.806   5.413  1.00  0.00     0.173 A 
ATOM     83  F   UNL     1     -12.326  10.078   7.906  1.00  0.00    -0.203 F 
ATOM     84  C   UNL     1     -11.889  10.419   5.617  1.00  0.00     0.198 A 
ATOM     85  C   UNL     1     -10.967   8.640   4.297  1.00  0.00     0.198 A 
ATOM     86  F   UNL     1     -10.533   6.547   5.284  1.00  0.00    -0.203 F 
ATOM     87  F   UNL     1     -12.363  11.668   5.713  1.00  0.00    -0.200 F 
ATOM     88  C   UNL     1     -11.431   9.943   4.398  1.00  0.00     0.200 A 
ATOM     89  F   UNL     1     -10.507   8.181   3.125  1.00  0.00    -0.200 F 
ATOM     90  F   UNL     1     -11.442  10.737   3.319  1.00  0.00    -0.200 F 
ENDBRANCH  56  80
BRANCH  68  91
ATOM     91  C   UNL     1     -16.475   5.494  10.585  1.00  0.00     0.064 A 
ATOM     92  C   UNL     1     -17.238   4.898   9.570  1.00  0.00     0.173 A 
ATOM     93  C   UNL     1     -17.157   6.182  11.601  1.00  0.00     0.173 A 
ATOM     94  F   UNL     1     -16.633   4.242   8.568  1.00  0.00    -0.203 F 
ATOM     95  C   UNL     1     -18.625   5.009   9.560  1.00  0.00     0.198 A 
ATOM     96  C   UNL     1     -18.546   6.263  11.605  1.00  0.00     0.198 A 
ATOM     97  F   UNL     1     -16.475   6.765  12.599  1.00  0.00    -0.203 F 
ATOM     98  F   UNL     1     -19.330   4.474   8.553  1.00  0.00    -0.200 F 
ATOM     99  C   UNL     1     -19.279   5.684  10.580  1.00  0.00     0.200 A 
ATOM    100  F   UNL     1     -19.176   6.903  12.600  1.00  0.00    -0.200 F 
ATOM    101  F   UNL     1     -20.615   5.782  10.572  1.00  0.00    -0.200 F 
ENDBRANCH  68  91
ENDBRANCH  42  43
ENDBRANCH  34  37
ENDBRANCH  32  33
ENDBRANCH  31  32
ENDBRANCH  30  31
ENDBRANCH  29  30
ENDBRANCH   1  29
TORSDOF 18
