REMARK SMILES Cc1cccc([C@H]2[C@@H](C(=O)NCCCCCCNC(=O)c3ccc(-c4c5nc(c(-c6c(F)c(F)c(F)c(F)c6F)c6ccc([nH]6)c(-c6c(F)c(F)c(F)c(F)c6F)c6nc(c(-c7c(F)c(F)c(F)c(F)c7F)c7ccc4[nH]7)C=C6)C=C5)cc3)CC(=O)N2C)c1
REMARK SMILES IDX 15 1 14 2 13 3 12 4 11 5 9 6 10 7 8 9 7 10 87 11 84 12 85 13
REMARK SMILES IDX 88 14 86 15 6 16 1 17 2 18 3 19 89 20 4 21 5 22 16 23 17 24
REMARK SMILES IDX 18 25 19 26 20 28 21 29 22 30 83 31 23 32 82 33 24 34 25 35
REMARK SMILES IDX 26 36 76 37 27 38 81 39 75 40 77 41 28 42 80 43 74 44 73 45
REMARK SMILES IDX 29 47 61 48 41 49 60 50 42 51 45 52 59 53 78 54 43 55 44 56
REMARK SMILES IDX 58 58 79 59 46 60 30 61 31 62 39 63 32 64 33 65 37 66 40 67
REMARK SMILES IDX 34 68 35 69 38 70 36 71 62 72 63 73 71 74 64 75 65 76 69 77
REMARK SMILES IDX 72 78 66 79 67 80 70 81 68 82 47 83 48 84 56 85 49 86 50 87
REMARK SMILES IDX 54 88 57 89 51 90 52 91 55 92 53 93
REMARK H PARENT 11 8 18 27 77 46 45 57
REMARK Flexibility Score: inf
ROOT
ATOM      1  C   UNL     1      -7.082   2.490  -3.031  1.00  0.00     0.002 C 
ENDROOT
BRANCH   1   2
ATOM      2  C   UNL     1      -6.427   3.823  -3.433  1.00  0.00     0.002 C 
BRANCH   2   3
ATOM      3  C   UNL     1      -5.535   4.520  -2.396  1.00  0.00     0.021 C 
BRANCH   3   4
ATOM      4  C   UNL     1      -4.508   3.637  -1.697  1.00  0.00     0.116 C 
BRANCH   4   5
ATOM      5  N   UNL     1      -3.467   3.141  -2.571  1.00  0.00    -0.356 N 
ATOM      6  C   UNL     1      -2.202   2.751  -2.265  1.00  0.00     0.226 C 
ATOM      7  O   UNL     1      -1.623   2.029  -3.083  1.00  0.00    -0.275 OA
ATOM      8  H   UNL     1      -3.711   3.076  -3.523  1.00  0.00     0.163 HD
BRANCH   6   9
ATOM      9  C   UNL     1      -1.474   3.176  -1.003  1.00  0.00     0.115 C 
ATOM     10  C   UNL     1      -1.794   2.483   0.333  1.00  0.00     0.128 C 
ATOM     11  N   UNL     1      -1.590   3.545   1.311  1.00  0.00    -0.338 N 
ATOM     12  C   UNL     1      -1.482   4.682  -0.744  1.00  0.00     0.116 C 
ATOM     13  C   UNL     1      -1.483   4.803   0.753  1.00  0.00     0.223 C 
ATOM     14  C   UNL     1      -1.314   3.282   2.710  1.00  0.00     0.147 C 
ATOM     15  O   UNL     1      -1.369   5.857   1.359  1.00  0.00    -0.275 OA
BRANCH  10  16
ATOM     16  C   UNL     1      -3.116   1.746   0.492  1.00  0.00    -0.024 A 
ATOM     17  C   UNL     1      -6.358   1.877   2.529  1.00  0.00     0.044 C 
ATOM     18  C   UNL     1      -5.312   1.434   1.547  1.00  0.00    -0.051 A 
ATOM     19  C   UNL     1      -5.503   0.270   0.800  1.00  0.00     0.003 A 
ATOM     20  C   UNL     1      -4.134   2.175   1.368  1.00  0.00     0.009 A 
ATOM     21  C   UNL     1      -4.519  -0.164  -0.086  1.00  0.00     0.001 A 
ATOM     22  C   UNL     1      -3.330   0.556  -0.225  1.00  0.00     0.006 A 
ENDBRANCH  10  16
ENDBRANCH   6   9
ENDBRANCH   4   5
ENDBRANCH   3   4
ENDBRANCH   2   3
ENDBRANCH   1   2
BRANCH   1  23
ATOM     23  C   UNL     1      -7.754   2.422  -1.658  1.00  0.00     0.021 C 
BRANCH  23  24
ATOM     24  C   UNL     1      -8.921   3.374  -1.458  1.00  0.00     0.116 C 
BRANCH  24  25
ATOM     25  N   UNL     1     -10.231   2.792  -1.708  1.00  0.00    -0.352 N 
ATOM     26  C   UNL     1     -11.478   3.405  -1.692  1.00  0.00     0.251 C 
ATOM     27  H   UNL     1     -10.235   1.830  -1.919  1.00  0.00     0.163 HD
ATOM     28  O   UNL     1     -12.488   2.761  -1.875  1.00  0.00    -0.269 OA
BRANCH  26  29
ATOM     29  C   UNL     1     -11.543   4.886  -1.581  1.00  0.00     0.039 A 
ATOM     30  C   UNL     1     -12.311   5.578  -2.525  1.00  0.00     0.014 A 
ATOM     31  C   UNL     1     -10.699   5.580  -0.719  1.00  0.00     0.014 A 
ATOM     32  C   UNL     1     -12.036   6.921  -2.774  1.00  0.00     0.010 A 
ATOM     33  C   UNL     1     -10.348   6.876  -1.036  1.00  0.00     0.010 A 
ATOM     34  C   UNL     1     -10.967   7.522  -2.110  1.00  0.00    -0.014 A 
BRANCH  34  35
ATOM     35  C   UNL     1     -10.334   8.754  -2.569  1.00  0.00     0.031 A 
ATOM     36  C   UNL     1     -10.480  10.014  -1.814  1.00  0.00     0.074 A 
ATOM     37  C   UNL     1      -9.507   8.704  -3.637  1.00  0.00     0.049 A 
ATOM     38  N   UNL     1     -10.331  11.186  -2.335  1.00  0.00    -0.248 NA
ATOM     39  C   UNL     1     -10.834  10.055  -0.401  1.00  0.00     0.031 C 
ATOM     40  C   UNL     1      -8.552   9.724  -4.065  1.00  0.00     0.029 A 
ATOM     41  N   UNL     1      -9.498   7.762  -4.680  1.00  0.00    -0.354 N 
ATOM     42  C   UNL     1     -10.289  12.099  -1.307  1.00  0.00     0.074 A 
ATOM     43  C   UNL     1     -10.667  11.354  -0.128  1.00  0.00     0.031 C 
ATOM     44  C   UNL     1      -8.270   9.538  -5.363  1.00  0.00     0.029 A 
ATOM     45  C   UNL     1      -9.147   8.485  -5.843  1.00  0.00     0.049 A 
ATOM     46  H   UNL     1      -9.696   6.799  -4.614  1.00  0.00     0.167 HD
ATOM     47  C   UNL     1      -9.805  13.354  -1.543  1.00  0.00     0.037 A 
ATOM     48  C   UNL     1     -10.000   8.604  -6.900  1.00  0.00     0.037 A 
ATOM     49  C   UNL     1      -9.437  13.529  -2.944  1.00  0.00     0.049 A 
ATOM     50  C   UNL     1     -10.341  10.030  -7.258  1.00  0.00     0.074 A 
ATOM     51  C   UNL     1      -8.222  13.447  -3.606  1.00  0.00     0.029 A 
ATOM     52  N   UNL     1     -10.422  13.518  -3.925  1.00  0.00    -0.354 N 
ATOM     53  N   UNL     1     -10.211  11.033  -6.437  1.00  0.00    -0.248 NA
ATOM     54  C   UNL     1     -10.886  10.432  -8.551  1.00  0.00     0.031 C 
ATOM     55  C   UNL     1      -8.480  13.363  -4.994  1.00  0.00     0.029 A 
ATOM     56  C   UNL     1      -9.851  13.401  -5.178  1.00  0.00     0.049 A 
ATOM     57  H   UNL     1     -11.389  13.583  -3.752  1.00  0.00     0.167 HD
ATOM     58  C   UNL     1     -10.656  12.181  -7.042  1.00  0.00     0.074 A 
ATOM     59  C   UNL     1     -11.050  11.755  -8.371  1.00  0.00     0.031 C 
ATOM     60  C   UNL     1     -10.667  13.377  -6.381  1.00  0.00     0.037 A 
BRANCH  47  61
ATOM     61  C   UNL     1      -9.385  14.303  -0.443  1.00  0.00     0.064 A 
ATOM     62  C   UNL     1      -8.282  15.170  -0.607  1.00  0.00     0.173 A 
ATOM     63  C   UNL     1     -10.001  14.366   0.819  1.00  0.00     0.173 A 
ATOM     64  F   UNL     1      -7.666  15.309  -1.787  1.00  0.00    -0.203 F 
ATOM     65  C   UNL     1      -7.762  15.931   0.443  1.00  0.00     0.198 A 
ATOM     66  C   UNL     1      -9.449  15.083   1.886  1.00  0.00     0.198 A 
ATOM     67  F   UNL     1     -11.180  13.769   1.043  1.00  0.00    -0.203 F 
ATOM     68  F   UNL     1      -6.703  16.724   0.228  1.00  0.00    -0.200 F 
ATOM     69  C   UNL     1      -8.319  15.854   1.701  1.00  0.00     0.200 A 
ATOM     70  F   UNL     1     -10.020  15.017   3.098  1.00  0.00    -0.200 F 
ATOM     71  F   UNL     1      -7.787  16.539   2.722  1.00  0.00    -0.200 F 
ENDBRANCH  47  61
BRANCH  48  72
ATOM     72  C   UNL     1     -10.925   7.450  -7.041  1.00  0.00     0.064 A 
ATOM     73  C   UNL     1     -10.374   6.183  -7.316  1.00  0.00     0.173 A 
ATOM     74  C   UNL     1     -12.231   7.494  -6.540  1.00  0.00     0.173 A 
ATOM     75  F   UNL     1      -9.122   6.087  -7.794  1.00  0.00    -0.203 F 
ATOM     76  C   UNL     1     -11.053   5.012  -6.991  1.00  0.00     0.198 A 
ATOM     77  C   UNL     1     -12.914   6.316  -6.228  1.00  0.00     0.198 A 
ATOM     78  F   UNL     1     -12.803   8.668  -6.240  1.00  0.00    -0.203 F 
ATOM     79  F   UNL     1     -10.454   3.824  -7.157  1.00  0.00    -0.200 F 
ATOM     80  C   UNL     1     -12.312   5.081  -6.420  1.00  0.00     0.200 A 
ATOM     81  F   UNL     1     -14.120   6.381  -5.647  1.00  0.00    -0.200 F 
ATOM     82  F   UNL     1     -12.928   3.961  -6.015  1.00  0.00    -0.200 F 
ENDBRANCH  48  72
BRANCH  60  83
ATOM     83  C   UNL     1     -11.339  14.656  -6.828  1.00  0.00     0.064 A 
ATOM     84  C   UNL     1     -12.439  14.708  -7.699  1.00  0.00     0.173 A 
ATOM     85  C   UNL     1     -10.966  15.898  -6.253  1.00  0.00     0.173 A 
ATOM     86  F   UNL     1     -12.974  13.595  -8.217  1.00  0.00    -0.203 F 
ATOM     87  C   UNL     1     -13.075  15.912  -8.020  1.00  0.00     0.198 A 
ATOM     88  C   UNL     1     -11.640  17.087  -6.529  1.00  0.00     0.198 A 
ATOM     89  F   UNL     1      -9.952  15.994  -5.381  1.00  0.00    -0.203 F 
ATOM     90  F   UNL     1     -14.095  15.910  -8.890  1.00  0.00    -0.200 F 
ATOM     91  C   UNL     1     -12.684  17.098  -7.427  1.00  0.00     0.200 A 
ATOM     92  F   UNL     1     -11.281  18.216  -5.902  1.00  0.00    -0.200 F 
ATOM     93  F   UNL     1     -13.329  18.239  -7.701  1.00  0.00    -0.200 F 
ENDBRANCH  60  83
ENDBRANCH  34  35
ENDBRANCH  26  29
ENDBRANCH  24  25
ENDBRANCH  23  24
ENDBRANCH   1  23
TORSDOF 14
