REMARK SMILES O=C(COc1nc(NCc2cccc(Cl)c2)nc2c1CCC2)NCCCCCCNC(=O)c1ccc(-c2c3nc(c(-c4c(F)c(F)c(F)c(F)c4F)c4ccc([nH]4)c(-c4c(F)c(F)c(F)c(F)c4F)c4nc(c(-c5c(F)c(F)c(F)c(F)c5F)c5ccc2[nH]5)C=C4)C=C3)cc1
REMARK SMILES IDX 25 1 24 2 23 3 1 4 2 5 3 7 4 8 5 9 6 10 19 11 7 12 18 13
REMARK SMILES IDX 20 14 17 15 22 16 21 17 8 18 9 20 10 21 11 22 16 23 12 24
REMARK SMILES IDX 14 25 13 26 15 27 26 28 27 29 28 30 29 31 30 32 31 33 32 35
REMARK SMILES IDX 33 36 34 37 95 38 35 39 94 40 36 41 37 42 38 43 88 44 39 45
REMARK SMILES IDX 93 46 87 47 89 48 40 49 92 50 86 51 85 52 41 54 73 55 53 56
REMARK SMILES IDX 72 57 54 58 57 59 71 60 90 61 55 62 56 63 70 65 91 66 58 67
REMARK SMILES IDX 42 68 43 69 51 70 44 71 45 72 49 73 52 74 46 75 47 76 50 77
REMARK SMILES IDX 48 78 74 79 75 80 83 81 76 82 77 83 81 84 84 85 78 86 79 87
REMARK SMILES IDX 82 88 80 89 59 90 60 91 68 92 61 93 62 94 66 95 69 96 63 97
REMARK SMILES IDX 64 98 67 99 65 100
REMARK H PARENT 23 6 8 19 30 34 89 53 57 64
REMARK Flexibility Score: inf
ROOT
ATOM      1  C   UNL     1       2.696  -3.265  -0.495  1.00  0.00     0.021 C 
ENDROOT
BRANCH   1   2
ATOM      2  C   UNL     1       2.122  -2.320   0.557  1.00  0.00     0.116 C 
BRANCH   2   3
ATOM      3  N   UNL     1       2.716  -1.004   0.491  1.00  0.00    -0.353 N 
ATOM      4  O   UNL     1       0.927   0.017  -0.526  1.00  0.00    -0.271 OA
ATOM      5  C   UNL     1       2.041   0.087  -0.010  1.00  0.00     0.258 C 
ATOM      6  H   UNL     1       3.637  -0.883   0.817  1.00  0.00     0.163 HD
BRANCH   5   7
ATOM      7  C   UNL     1       2.838   1.399   0.025  1.00  0.00     0.331 C 
BRANCH   7   8
ATOM      8  O   UNL     1       3.801   1.581   1.056  1.00  0.00    -0.467 OA
BRANCH   8   9
ATOM      9  C   UNL     1       3.198   1.906   2.248  1.00  0.00     0.222 A 
ATOM     10  N   UNL     1       2.226   1.100   2.705  1.00  0.00    -0.177 NA
ATOM     11  C   UNL     1       3.672   2.958   2.966  1.00  0.00     0.036 A 
ATOM     12  C   UNL     1       1.696   1.385   3.909  1.00  0.00     0.226 A 
ATOM     13  C   UNL     1       3.062   3.174   4.176  1.00  0.00     0.053 A 
ATOM     14  C   UNL     1       4.686   3.997   2.658  1.00  0.00     0.043 C 
ATOM     15  N   UNL     1       2.083   2.414   4.678  1.00  0.00    -0.218 NA
ATOM     16  C   UNL     1       3.594   4.415   4.832  1.00  0.00     0.057 C 
ATOM     17  C   UNL     1       4.899   4.621   4.048  1.00  0.00     0.011 C 
BRANCH  12  18
ATOM     18  N   UNL     1       0.705   0.546   4.324  1.00  0.00    -0.350 N 
ATOM     19  H   UNL     1       0.393  -0.151   3.702  1.00  0.00     0.164 HD
BRANCH  18  20
ATOM     20  C   UNL     1       0.094   0.626   5.618  1.00  0.00     0.152 C 
BRANCH  20  21
ATOM     21  C   UNL     1      -1.401   0.762   5.464  1.00  0.00    -0.027 A 
ATOM     22  C   UNL     1      -2.224  -0.372   5.382  1.00  0.00     0.005 A 
ATOM     23  C   UNL     1      -1.984   2.035   5.369  1.00  0.00     0.026 A 
ATOM     24  C   UNL     1      -3.606  -0.235   5.233  1.00  0.00     0.002 A 
ATOM     25  C   UNL     1      -3.364   2.165   5.224  1.00  0.00     0.041 A 
ATOM     26  C   UNL     1      -4.178   1.035   5.158  1.00  0.00     0.020 A 
ATOM     27  Cl  UNL     1      -4.070   3.732   5.129  1.00  0.00    -0.084 Cl
ENDBRANCH  20  21
ENDBRANCH  18  20
ENDBRANCH  12  18
ENDBRANCH   8   9
ENDBRANCH   7   8
ENDBRANCH   5   7
ENDBRANCH   2   3
ENDBRANCH   1   2
BRANCH   1  28
ATOM     28  C   UNL     1       4.202  -3.524  -0.365  1.00  0.00     0.002 C 
BRANCH  28  29
ATOM     29  C   UNL     1       4.661  -4.084   0.985  1.00  0.00     0.002 C 
BRANCH  29  30
ATOM     30  C   UNL     1       3.967  -5.373   1.429  1.00  0.00     0.021 C 
BRANCH  30  31
ATOM     31  C   UNL     1       4.086  -6.534   0.448  1.00  0.00     0.116 C 
BRANCH  31  32
ATOM     32  N   UNL     1       5.460  -6.983   0.281  1.00  0.00    -0.352 N 
ATOM     33  C   UNL     1       5.999  -8.229   0.481  1.00  0.00     0.251 C 
ATOM     34  H   UNL     1       6.095  -6.293  -0.018  1.00  0.00     0.163 HD
ATOM     35  O   UNL     1       7.216  -8.391   0.456  1.00  0.00    -0.269 OA
BRANCH  33  36
ATOM     36  C   UNL     1       5.113  -9.380   0.751  1.00  0.00     0.039 A 
ATOM     37  C   UNL     1       5.443 -10.260   1.785  1.00  0.00     0.014 A 
ATOM     38  C   UNL     1       3.963  -9.594  -0.015  1.00  0.00     0.014 A 
ATOM     39  C   UNL     1       4.588 -11.321   2.089  1.00  0.00     0.010 A 
ATOM     40  C   UNL     1       3.074 -10.604   0.339  1.00  0.00     0.010 A 
ATOM     41  C   UNL     1       3.383 -11.484   1.387  1.00  0.00    -0.014 A 
BRANCH  41  42
ATOM     42  C   UNL     1       2.447 -12.585   1.721  1.00  0.00     0.031 A 
ATOM     43  C   UNL     1       2.183 -13.676   0.723  1.00  0.00     0.074 A 
ATOM     44  C   UNL     1       1.804 -12.583   2.904  1.00  0.00     0.049 A 
ATOM     45  N   UNL     1       1.382 -14.708   0.816  1.00  0.00    -0.248 NA
ATOM     46  C   UNL     1       2.894 -13.583  -0.561  1.00  0.00     0.031 C 
ATOM     47  C   UNL     1       1.949 -11.559   3.938  1.00  0.00     0.029 A 
ATOM     48  N   UNL     1       0.901 -13.470   3.435  1.00  0.00    -0.354 N 
ATOM     49  C   UNL     1       1.493 -15.380  -0.394  1.00  0.00     0.074 A 
ATOM     50  C   UNL     1       2.382 -14.604  -1.230  1.00  0.00     0.031 C 
ATOM     51  C   UNL     1       1.190 -11.893   4.994  1.00  0.00     0.029 A 
ATOM     52  C   UNL     1       0.476 -13.132   4.697  1.00  0.00     0.049 A 
ATOM     53  H   UNL     1       0.588 -14.271   2.957  1.00  0.00     0.167 HD
ATOM     54  C   UNL     1       0.928 -16.554  -0.762  1.00  0.00     0.037 A 
ATOM     55  C   UNL     1      -0.389 -13.753   5.521  1.00  0.00     0.037 A 
ATOM     56  C   UNL     1       0.056 -17.329   0.081  1.00  0.00     0.049 A 
ATOM     57  C   UNL     1      -1.033 -15.039   5.080  1.00  0.00     0.074 A 
ATOM     58  C   UNL     1      -0.522 -18.558  -0.178  1.00  0.00     0.029 A 
ATOM     59  N   UNL     1      -0.369 -16.943   1.344  1.00  0.00    -0.354 N 
ATOM     60  N   UNL     1      -0.869 -15.702   3.961  1.00  0.00    -0.248 NA
ATOM     61  C   UNL     1      -1.980 -15.663   6.014  1.00  0.00     0.031 C 
ATOM     62  C   UNL     1      -1.344 -18.889   0.904  1.00  0.00     0.029 A 
ATOM     63  C   UNL     1      -1.233 -17.895   1.863  1.00  0.00     0.049 A 
ATOM     64  H   UNL     1      -0.098 -16.116   1.804  1.00  0.00     0.167 HD
ATOM     65  C   UNL     1      -1.677 -16.827   4.060  1.00  0.00     0.074 A 
ATOM     66  C   UNL     1      -2.317 -16.766   5.358  1.00  0.00     0.031 C 
ATOM     67  C   UNL     1      -1.872 -17.817   3.154  1.00  0.00     0.037 A 
BRANCH  54  68
ATOM     68  C   UNL     1       1.242 -17.072  -2.136  1.00  0.00     0.064 A 
ATOM     69  C   UNL     1       2.528 -17.521  -2.477  1.00  0.00     0.173 A 
ATOM     70  C   UNL     1       0.242 -17.146  -3.117  1.00  0.00     0.173 A 
ATOM     71  F   UNL     1       3.524 -17.462  -1.581  1.00  0.00    -0.203 F 
ATOM     72  C   UNL     1       2.808 -17.990  -3.758  1.00  0.00     0.198 A 
ATOM     73  C   UNL     1       0.518 -17.649  -4.386  1.00  0.00     0.198 A 
ATOM     74  F   UNL     1      -1.006 -16.737  -2.844  1.00  0.00    -0.203 F 
ATOM     75  F   UNL     1       4.057 -18.359  -4.076  1.00  0.00    -0.200 F 
ATOM     76  C   UNL     1       1.802 -18.061  -4.709  1.00  0.00     0.200 A 
ATOM     77  F   UNL     1      -0.460 -17.731  -5.300  1.00  0.00    -0.200 F 
ATOM     78  F   UNL     1       2.072 -18.520  -5.939  1.00  0.00    -0.200 F 
ENDBRANCH  54  68
BRANCH  55  79
ATOM     79  C   UNL     1      -0.652 -13.177   6.865  1.00  0.00     0.064 A 
ATOM     80  C   UNL     1      -0.150 -13.793   8.019  1.00  0.00     0.173 A 
ATOM     81  C   UNL     1      -1.353 -11.972   7.021  1.00  0.00     0.173 A 
ATOM     82  F   UNL     1       0.509 -14.957   7.923  1.00  0.00    -0.203 F 
ATOM     83  C   UNL     1      -0.335 -13.225   9.277  1.00  0.00     0.198 A 
ATOM     84  C   UNL     1      -1.515 -11.391   8.277  1.00  0.00     0.198 A 
ATOM     85  F   UNL     1      -1.850 -11.340   5.947  1.00  0.00    -0.203 F 
ATOM     86  F   UNL     1       0.140 -13.844  10.366  1.00  0.00    -0.200 F 
ATOM     87  C   UNL     1      -1.007 -12.018   9.404  1.00  0.00     0.200 A 
ATOM     88  F   UNL     1      -2.150 -10.216   8.393  1.00  0.00    -0.200 F 
ATOM     89  F   UNL     1      -1.162 -11.459  10.612  1.00  0.00    -0.200 F 
ENDBRANCH  55  79
BRANCH  67  90
ATOM     90  C   UNL     1      -2.819 -18.923   3.523  1.00  0.00     0.064 A 
ATOM     91  C   UNL     1      -4.205 -18.713   3.568  1.00  0.00     0.173 A 
ATOM     92  C   UNL     1      -2.344 -20.224   3.747  1.00  0.00     0.173 A 
ATOM     93  F   UNL     1      -4.709 -17.485   3.373  1.00  0.00    -0.203 F 
ATOM     94  C   UNL     1      -5.080 -19.763   3.835  1.00  0.00     0.198 A 
ATOM     95  C   UNL     1      -3.223 -21.278   3.983  1.00  0.00     0.198 A 
ATOM     96  F   UNL     1      -1.028 -20.481   3.707  1.00  0.00    -0.203 F 
ATOM     97  F   UNL     1      -6.398 -19.533   3.905  1.00  0.00    -0.200 F 
ATOM     98  C   UNL     1      -4.589 -21.046   4.030  1.00  0.00     0.200 A 
ATOM     99  F   UNL     1      -2.749 -22.520   4.152  1.00  0.00    -0.200 F 
ATOM    100  F   UNL     1      -5.434 -22.059   4.264  1.00  0.00    -0.200 F 
ENDBRANCH  67  90
ENDBRANCH  41  42
ENDBRANCH  33  36
ENDBRANCH  31  32
ENDBRANCH  30  31
ENDBRANCH  29  30
ENDBRANCH  28  29
ENDBRANCH   1  28
TORSDOF 18
