REMARK SMILES CCOc1cc(OCC)cc(-c2ccc([C@@H](C)C(=O)NCCCCCCNC(=O)c3ccc(-c4c5nc(c(-c6c(F)c(F)c(F)c(F)c6F)c6ccc([nH]6)c(-c6c(F)c(F)c(F)c(F)c6F)c6nc(c(-c7c(F)c(F)c(F)c(F)c7F)c7ccc4[nH]7)C=C6)C=C5)cc3)cc2)c1
REMARK SMILES IDX 22 1 21 2 20 3 18 4 19 5 16 7 17 8 15 9 12 10 13 11 94 12
REMARK SMILES IDX 14 13 93 14 11 15 4 16 5 17 95 18 6 19 10 20 3 21 2 22 1 23
REMARK SMILES IDX 7 24 8 25 9 26 23 27 24 28 25 29 26 30 27 31 28 32 29 34
REMARK SMILES IDX 30 35 31 36 92 37 32 38 91 39 33 40 34 41 35 42 85 43 36 44
REMARK SMILES IDX 90 45 84 46 86 47 37 48 89 49 83 50 82 51 38 53 70 54 50 55
REMARK SMILES IDX 69 56 51 57 54 58 68 59 87 60 52 61 53 62 67 64 88 65 55 66
REMARK SMILES IDX 39 67 40 68 48 69 41 70 42 71 46 72 49 73 43 74 44 75 47 76
REMARK SMILES IDX 45 77 71 78 72 79 80 80 73 81 74 82 78 83 81 84 75 85 76 86
REMARK SMILES IDX 79 87 77 88 56 89 57 90 65 91 58 92 59 93 63 94 66 95 60 96
REMARK SMILES IDX 61 97 64 98 62 99
REMARK H PARENT 20 6 27 33 86 52 54 63
REMARK Flexibility Score: inf
ROOT
ATOM      1  C   UNL     1       8.295  -1.812   1.179  1.00  0.00     0.021 C 
ENDROOT
BRANCH   1   2
ATOM      2  C   UNL     1       9.172  -2.387   0.063  1.00  0.00     0.116 C 
BRANCH   2   3
ATOM      3  N   UNL     1       8.467  -3.381  -0.718  1.00  0.00    -0.356 N 
ATOM      4  C   UNL     1       7.891  -3.331  -1.950  1.00  0.00     0.227 C 
ATOM      5  O   UNL     1       7.284  -4.347  -2.312  1.00  0.00    -0.274 OA
ATOM      6  H   UNL     1       8.391  -4.258  -0.276  1.00  0.00     0.163 HD
BRANCH   4   7
ATOM      7  C   UNL     1       7.965  -2.113  -2.885  1.00  0.00     0.105 C 
ATOM      8  C   UNL     1       9.385  -1.716  -3.287  1.00  0.00     0.023 C 
BRANCH   7   9
ATOM      9  C   UNL     1       7.060  -0.972  -2.454  1.00  0.00    -0.036 A 
ATOM     10  C   UNL     1       5.255   1.036  -1.540  1.00  0.00    -0.018 A 
ATOM     11  C   UNL     1       6.590   0.991  -1.110  1.00  0.00     0.009 A 
ATOM     12  C   UNL     1       4.850   0.069  -2.469  1.00  0.00     0.009 A 
ATOM     13  C   UNL     1       7.485   0.035  -1.589  1.00  0.00     0.005 A 
ATOM     14  C   UNL     1       5.731  -0.931  -2.902  1.00  0.00     0.005 A 
BRANCH  10  15
ATOM     15  C   UNL     1       4.335   2.054  -0.991  1.00  0.00    -0.011 A 
ATOM     16  C   UNL     1       2.171   2.714  -0.101  1.00  0.00     0.123 A 
ATOM     17  C   UNL     1       2.680   3.963   0.256  1.00  0.00     0.092 A 
ATOM     18  C   UNL     1       2.987   1.776  -0.733  1.00  0.00     0.055 A 
ATOM     19  C   UNL     1       4.010   4.281  -0.020  1.00  0.00     0.123 A 
ATOM     20  C   UNL     1       4.811   3.335  -0.658  1.00  0.00     0.055 A 
BRANCH  16  21
ATOM     21  O   UNL     1       0.833   2.485   0.073  1.00  0.00    -0.494 OA
BRANCH  21  22
ATOM     22  C   UNL     1       0.532   1.452   1.020  1.00  0.00     0.226 C 
ATOM     23  C   UNL     1       0.415   0.082   0.368  1.00  0.00     0.049 C 
ENDBRANCH  21  22
ENDBRANCH  16  21
BRANCH  19  24
ATOM     24  O   UNL     1       4.434   5.514   0.398  1.00  0.00    -0.494 OA
BRANCH  24  25
ATOM     25  C   UNL     1       5.702   5.985  -0.073  1.00  0.00     0.226 C 
ATOM     26  C   UNL     1       6.848   5.523   0.816  1.00  0.00     0.049 C 
ENDBRANCH  24  25
ENDBRANCH  19  24
ENDBRANCH  10  15
ENDBRANCH   7   9
ENDBRANCH   4   7
ENDBRANCH   2   3
ENDBRANCH   1   2
BRANCH   1  27
ATOM     27  C   UNL     1       8.364  -2.602   2.490  1.00  0.00     0.002 C 
BRANCH  27  28
ATOM     28  C   UNL     1       9.743  -2.627   3.164  1.00  0.00     0.002 C 
BRANCH  28  29
ATOM     29  C   UNL     1      10.360  -1.256   3.454  1.00  0.00     0.021 C 
BRANCH  29  30
ATOM     30  C   UNL     1       9.537  -0.372   4.388  1.00  0.00     0.116 C 
BRANCH  30  31
ATOM     31  N   UNL     1       9.399  -0.964   5.710  1.00  0.00    -0.352 N 
ATOM     32  C   UNL     1       9.817  -0.497   6.931  1.00  0.00     0.251 C 
ATOM     33  H   UNL     1       8.935  -1.832   5.732  1.00  0.00     0.163 HD
ATOM     34  O   UNL     1       9.824  -1.241   7.905  1.00  0.00    -0.269 OA
BRANCH  32  35
ATOM     35  C   UNL     1      10.267   0.903   7.075  1.00  0.00     0.039 A 
ATOM     36  C   UNL     1      11.404   1.173   7.842  1.00  0.00     0.014 A 
ATOM     37  C   UNL     1       9.550   1.951   6.491  1.00  0.00     0.014 A 
ATOM     38  C   UNL     1      11.852   2.489   7.979  1.00  0.00     0.010 A 
ATOM     39  C   UNL     1      10.035   3.253   6.571  1.00  0.00     0.010 A 
ATOM     40  C   UNL     1      11.187   3.536   7.321  1.00  0.00    -0.014 A 
BRANCH  40  41
ATOM     41  C   UNL     1      11.676   4.935   7.412  1.00  0.00     0.031 A 
ATOM     42  C   UNL     1      10.838   5.986   8.084  1.00  0.00     0.074 A 
ATOM     43  C   UNL     1      12.844   5.270   6.832  1.00  0.00     0.049 A 
ATOM     44  N   UNL     1      11.057   7.272   8.200  1.00  0.00    -0.248 NA
ATOM     45  C   UNL     1       9.570   5.538   8.681  1.00  0.00     0.031 C 
ATOM     46  C   UNL     1      13.725   4.348   6.114  1.00  0.00     0.029 A 
ATOM     47  N   UNL     1      13.487   6.479   6.746  1.00  0.00    -0.354 N 
ATOM     48  C   UNL     1       9.954   7.785   8.869  1.00  0.00     0.074 A 
ATOM     49  C   UNL     1       9.041   6.683   9.085  1.00  0.00     0.031 C 
ATOM     50  C   UNL     1      14.803   5.020   5.678  1.00  0.00     0.029 A 
ATOM     51  C   UNL     1      14.671   6.425   6.053  1.00  0.00     0.049 A 
ATOM     52  H   UNL     1      13.132   7.308   7.143  1.00  0.00     0.167 HD
ATOM     53  C   UNL     1       9.732   9.055   9.285  1.00  0.00     0.037 A 
ATOM     54  C   UNL     1      15.547   7.401   5.748  1.00  0.00     0.037 A 
ATOM     55  C   UNL     1      10.655  10.142   9.089  1.00  0.00     0.049 A 
ATOM     56  C   UNL     1      15.274   8.805   6.214  1.00  0.00     0.074 A 
ATOM     57  C   UNL     1      10.551  11.452   9.525  1.00  0.00     0.029 A 
ATOM     58  N   UNL     1      11.852  10.046   8.394  1.00  0.00    -0.354 N 
ATOM     59  N   UNL     1      14.259   9.265   6.904  1.00  0.00    -0.248 NA
ATOM     60  C   UNL     1      16.273   9.825   5.864  1.00  0.00     0.031 C 
ATOM     61  C   UNL     1      11.663  12.159   9.054  1.00  0.00     0.029 A 
ATOM     62  C   UNL     1      12.485  11.278   8.369  1.00  0.00     0.049 A 
ATOM     63  H   UNL     1      12.200   9.223   7.980  1.00  0.00     0.167 HD
ATOM     64  C   UNL     1      14.508  10.618   7.094  1.00  0.00     0.074 A 
ATOM     65  C   UNL     1      15.778  10.901   6.459  1.00  0.00     0.031 C 
ATOM     66  C   UNL     1      13.752  11.542   7.736  1.00  0.00     0.037 A 
BRANCH  53  67
ATOM     67  C   UNL     1       8.441   9.336   9.998  1.00  0.00     0.064 A 
ATOM     68  C   UNL     1       8.187   8.838  11.285  1.00  0.00     0.173 A 
ATOM     69  C   UNL     1       7.457  10.139   9.401  1.00  0.00     0.173 A 
ATOM     70  F   UNL     1       9.089   8.056  11.897  1.00  0.00    -0.203 F 
ATOM     71  C   UNL     1       6.984   9.106  11.934  1.00  0.00     0.198 A 
ATOM     72  C   UNL     1       6.268  10.430  10.065  1.00  0.00     0.198 A 
ATOM     73  F   UNL     1       7.651  10.646   8.174  1.00  0.00    -0.203 F 
ATOM     74  F   UNL     1       6.743   8.575  13.141  1.00  0.00    -0.200 F 
ATOM     75  C   UNL     1       6.029   9.907  11.327  1.00  0.00     0.200 A 
ATOM     76  F   UNL     1       5.352  11.216   9.483  1.00  0.00    -0.200 F 
ATOM     77  F   UNL     1       4.874  10.169  11.955  1.00  0.00    -0.200 F 
ENDBRANCH  53  67
BRANCH  54  78
ATOM     78  C   UNL     1      16.779   7.078   4.982  1.00  0.00     0.064 A 
ATOM     79  C   UNL     1      18.039   7.127   5.595  1.00  0.00     0.173 A 
ATOM     80  C   UNL     1      16.725   6.714   3.629  1.00  0.00     0.173 A 
ATOM     81  F   UNL     1      18.143   7.489   6.882  1.00  0.00    -0.203 F 
ATOM     82  C   UNL     1      19.200   6.843   4.879  1.00  0.00     0.198 A 
ATOM     83  C   UNL     1      17.884   6.403   2.921  1.00  0.00     0.198 A 
ATOM     84  F   UNL     1      15.544   6.647   2.998  1.00  0.00    -0.203 F 
ATOM     85  F   UNL     1      20.395   6.940   5.478  1.00  0.00    -0.200 F 
ATOM     86  C   UNL     1      19.121   6.476   3.544  1.00  0.00     0.200 A 
ATOM     87  F   UNL     1      17.802   6.034   1.635  1.00  0.00    -0.200 F 
ATOM     88  F   UNL     1      20.237   6.198   2.856  1.00  0.00    -0.200 F 
ENDBRANCH  54  78
BRANCH  66  89
ATOM     89  C   UNL     1      14.294  12.940   7.812  1.00  0.00     0.064 A 
ATOM     90  C   UNL     1      14.337  13.775   6.686  1.00  0.00     0.173 A 
ATOM     91  C   UNL     1      14.739  13.463   9.036  1.00  0.00     0.173 A 
ATOM     92  F   UNL     1      13.938  13.316   5.490  1.00  0.00    -0.203 F 
ATOM     93  C   UNL     1      14.828  15.074   6.778  1.00  0.00     0.198 A 
ATOM     94  C   UNL     1      15.201  14.772   9.131  1.00  0.00     0.198 A 
ATOM     95  F   UNL     1      14.713  12.707  10.144  1.00  0.00    -0.203 F 
ATOM     96  F   UNL     1      14.904  15.839   5.680  1.00  0.00    -0.200 F 
ATOM     97  C   UNL     1      15.252  15.574   8.001  1.00  0.00     0.200 A 
ATOM     98  F   UNL     1      15.597  15.258  10.315  1.00  0.00    -0.200 F 
ATOM     99  F   UNL     1      15.717  16.828   8.088  1.00  0.00    -0.200 F 
ENDBRANCH  66  89
ENDBRANCH  40  41
ENDBRANCH  32  35
ENDBRANCH  30  31
ENDBRANCH  29  30
ENDBRANCH  28  29
ENDBRANCH  27  28
ENDBRANCH   1  27
TORSDOF 19
