REMARK SMILES CC[C@](C)([NH3+])C(=O)Nc1ccc(C(F)(F)F)cc1C(=O)NCCCCCCNC(=O)c1ccc(-c2c3nc(c(-c4c(F)c(F)c(F)c(F)c4F)c4ccc([nH]4)c(-c4c(F)c(F)c(F)c(F)c4F)c4nc(c(-c5c(F)c(F)c(F)c(F)c5F)c5ccc2[nH]5)C=C4)C=C3)cc1
REMARK SMILES IDX 24 1 23 2 22 3 21 4 19 5 20 6 18 8 9 9 10 10 11 11 17 12
REMARK SMILES IDX 12 13 8 14 6 15 7 16 3 18 4 19 2 20 1 21 5 22 13 26 14 27
REMARK SMILES IDX 15 28 16 29 25 30 26 31 27 32 28 33 29 34 30 36 31 37 32 38
REMARK SMILES IDX 93 39 33 40 92 41 34 42 35 43 36 44 86 45 37 46 91 47 85 48
REMARK SMILES IDX 87 49 38 50 90 51 84 52 83 53 39 55 71 56 51 57 70 58 52 59
REMARK SMILES IDX 55 60 69 61 88 62 53 63 54 64 68 66 89 67 56 68 40 69 41 70
REMARK SMILES IDX 49 71 42 72 43 73 47 74 50 75 44 76 45 77 48 78 46 79 72 80
REMARK SMILES IDX 73 81 81 82 74 83 75 84 79 85 82 86 76 87 77 88 80 89 78 90
REMARK SMILES IDX 57 91 58 92 66 93 59 94 60 95 64 96 67 97 61 98 62 99 65 100
REMARK SMILES IDX 63 101
REMARK H PARENT 21 7 8 17 5 23 5 24 5 25 28 35 87 54 55 65
REMARK Flexibility Score: inf
ROOT
ATOM      1  C   UNL     1       3.992   1.474  -3.691  1.00  0.00     0.002 C 
ENDROOT
BRANCH   1   2
ATOM      2  C   UNL     1       4.485   0.077  -4.098  1.00  0.00     0.021 C 
BRANCH   2   3
ATOM      3  C   UNL     1       3.536  -1.069  -3.769  1.00  0.00     0.116 C 
BRANCH   3   4
ATOM      4  N   UNL     1       2.443  -1.249  -4.691  1.00  0.00    -0.352 N 
ATOM      5  C   UNL     1       1.588  -2.313  -4.878  1.00  0.00     0.253 C 
ATOM      6  O   UNL     1       0.721  -2.163  -5.747  1.00  0.00    -0.269 OA
ATOM      7  H   UNL     1       2.279  -0.483  -5.287  1.00  0.00     0.163 HD
BRANCH   5   8
ATOM      8  C   UNL     1       1.688  -3.657  -4.190  1.00  0.00     0.063 A 
ATOM      9  C   UNL     1       2.297  -3.989  -2.968  1.00  0.00     0.054 A 
ATOM     10  C   UNL     1       2.580  -5.340  -2.686  1.00  0.00     0.027 A 
ATOM     11  C   UNL     1       2.009  -6.366  -3.433  1.00  0.00     0.015 A 
ATOM     12  C   UNL     1       1.070  -4.716  -4.904  1.00  0.00     0.029 A 
ATOM     13  C   UNL     1       1.156  -6.057  -4.490  1.00  0.00     0.056 A 
BRANCH   9  14
ATOM     14  N   UNL     1       2.632  -3.141  -1.903  1.00  0.00    -0.320 N 
ATOM     15  C   UNL     1       1.950  -2.169  -1.224  1.00  0.00     0.285 C 
ATOM     16  O   UNL     1       2.635  -1.554  -0.390  1.00  0.00    -0.267 OA
ATOM     17  H   UNL     1       3.552  -3.271  -1.577  1.00  0.00     0.170 HD
BRANCH  15  18
ATOM     18  C   UNL     1       0.405  -1.935  -1.284  1.00  0.00     0.171 C 
ATOM     19  C   UNL     1       0.123  -0.467  -0.923  1.00  0.00     0.090 C 
BRANCH  18  20
ATOM     20  C   UNL     1      -0.277  -2.945  -0.333  1.00  0.00     0.075 C 
ATOM     21  C   UNL     1      -0.074  -2.677   1.153  1.00  0.00     0.011 C 
ENDBRANCH  18  20
BRANCH  18  22
ATOM     22  N   UNL     1      -0.158  -2.144  -2.623  1.00  0.00    -0.345 N 
ATOM     23  H   UNL     1       0.271  -1.491  -3.278  1.00  0.00     0.345 HD
ATOM     24  H   UNL     1      -1.166  -1.986  -2.597  1.00  0.00     0.345 HD
ATOM     25  H   UNL     1       0.028  -3.100  -2.925  1.00  0.00     0.345 HD
ENDBRANCH  18  22
ENDBRANCH  15  18
ENDBRANCH   9  14
BRANCH  13  26
ATOM     26  C   UNL     1       0.337  -7.147  -5.137  1.00  0.00     0.416 C 
ATOM     27  F   UNL     1       1.075  -7.966  -5.931  1.00  0.00    -0.166 F 
ATOM     28  F   UNL     1      -0.248  -7.958  -4.207  1.00  0.00    -0.166 F 
ATOM     29  F   UNL     1      -0.683  -6.680  -5.906  1.00  0.00    -0.166 F 
ENDBRANCH  13  26
ENDBRANCH   5   8
ENDBRANCH   3   4
ENDBRANCH   2   3
ENDBRANCH   1   2
BRANCH   1  30
ATOM     30  C   UNL     1       3.614   1.685  -2.217  1.00  0.00     0.002 C 
BRANCH  30  31
ATOM     31  C   UNL     1       4.636   1.250  -1.165  1.00  0.00     0.021 C 
BRANCH  31  32
ATOM     32  C   UNL     1       6.041   1.813  -1.334  1.00  0.00     0.116 C 
BRANCH  32  33
ATOM     33  N   UNL     1       6.070   3.262  -1.425  1.00  0.00    -0.352 N 
ATOM     34  C   UNL     1       6.904   4.168  -0.821  1.00  0.00     0.251 C 
ATOM     35  H   UNL     1       5.384   3.655  -2.012  1.00  0.00     0.163 HD
ATOM     36  O   UNL     1       6.690   5.369  -0.934  1.00  0.00    -0.269 OA
BRANCH  34  37
ATOM     37  C   UNL     1       8.050   3.702  -0.008  1.00  0.00     0.039 A 
ATOM     38  C   UNL     1       8.319   4.356   1.196  1.00  0.00     0.014 A 
ATOM     39  C   UNL     1       8.863   2.646  -0.428  1.00  0.00     0.014 A 
ATOM     40  C   UNL     1       9.370   3.918   2.004  1.00  0.00     0.010 A 
ATOM     41  C   UNL     1       9.857   2.157   0.417  1.00  0.00     0.010 A 
ATOM     42  C   UNL     1      10.125   2.792   1.638  1.00  0.00    -0.014 A 
BRANCH  42  43
ATOM     43  C   UNL     1      11.197   2.275   2.525  1.00  0.00     0.031 A 
ATOM     44  C   UNL     1      12.629   2.273   2.066  1.00  0.00     0.074 A 
ATOM     45  C   UNL     1      10.872   1.767   3.730  1.00  0.00     0.049 A 
ATOM     46  N   UNL     1      13.698   1.841   2.688  1.00  0.00    -0.248 NA
ATOM     47  C   UNL     1      12.896   2.803   0.719  1.00  0.00     0.031 C 
ATOM     48  C   UNL     1       9.512   1.666   4.263  1.00  0.00     0.029 A 
ATOM     49  N   UNL     1      11.657   1.238   4.723  1.00  0.00    -0.354 N 
ATOM     50  C   UNL     1      14.754   2.039   1.808  1.00  0.00     0.074 A 
ATOM     51  C   UNL     1      14.193   2.572   0.587  1.00  0.00     0.031 C 
ATOM     52  C   UNL     1       9.561   1.139   5.497  1.00  0.00     0.029 A 
ATOM     53  C   UNL     1      10.948   0.828   5.826  1.00  0.00     0.049 A 
ATOM     54  H   UNL     1      12.636   1.161   4.652  1.00  0.00     0.167 HD
ATOM     55  C   UNL     1      16.075   1.820   2.012  1.00  0.00     0.037 A 
ATOM     56  C   UNL     1      11.370   0.258   6.971  1.00  0.00     0.037 A 
ATOM     57  C   UNL     1      16.628   1.306   3.238  1.00  0.00     0.049 A 
ATOM     58  C   UNL     1      12.843   0.017   7.166  1.00  0.00     0.074 A 
ATOM     59  C   UNL     1      17.957   1.103   3.567  1.00  0.00     0.029 A 
ATOM     60  N   UNL     1      15.880   0.908   4.337  1.00  0.00    -0.354 N 
ATOM     61  N   UNL     1      13.841   0.280   6.357  1.00  0.00    -0.248 NA
ATOM     62  C   UNL     1      13.249  -0.593   8.439  1.00  0.00     0.031 C 
ATOM     63  C   UNL     1      18.010   0.527   4.840  1.00  0.00     0.029 A 
ATOM     64  C   UNL     1      16.718   0.433   5.333  1.00  0.00     0.049 A 
ATOM     65  H   UNL     1      14.899   0.957   4.400  1.00  0.00     0.167 HD
ATOM     66  C   UNL     1      14.992  -0.103   7.032  1.00  0.00     0.074 A 
ATOM     67  C   UNL     1      14.569  -0.596   8.326  1.00  0.00     0.031 C 
ATOM     68  C   UNL     1      16.282  -0.052   6.618  1.00  0.00     0.037 A 
BRANCH  55  69
ATOM     69  C   UNL     1      17.017   2.136   0.885  1.00  0.00     0.064 A 
ATOM     70  C   UNL     1      17.258   3.456   0.471  1.00  0.00     0.173 A 
ATOM     71  C   UNL     1      17.724   1.110   0.239  1.00  0.00     0.173 A 
ATOM     72  F   UNL     1      16.602   4.474   1.047  1.00  0.00    -0.203 F 
ATOM     73  C   UNL     1      18.147   3.733  -0.564  1.00  0.00     0.198 A 
ATOM     74  C   UNL     1      18.638   1.394  -0.773  1.00  0.00     0.198 A 
ATOM     75  F   UNL     1      17.538  -0.169   0.597  1.00  0.00    -0.203 F 
ATOM     76  F   UNL     1      18.322   4.997  -0.975  1.00  0.00    -0.200 F 
ATOM     77  C   UNL     1      18.843   2.704  -1.179  1.00  0.00     0.200 A 
ATOM     78  F   UNL     1      19.322   0.399  -1.355  1.00  0.00    -0.200 F 
ATOM     79  F   UNL     1      19.708   2.973  -2.167  1.00  0.00    -0.200 F 
ENDBRANCH  55  69
BRANCH  56  80
ATOM     80  C   UNL     1      10.390  -0.106   8.028  1.00  0.00     0.064 A 
ATOM     81  C   UNL     1      10.379   0.557   9.264  1.00  0.00     0.173 A 
ATOM     82  C   UNL     1       9.456  -1.135   7.835  1.00  0.00     0.173 A 
ATOM     83  F   UNL     1      11.264   1.535   9.506  1.00  0.00    -0.203 F 
ATOM     84  C   UNL     1       9.492   0.187  10.273  1.00  0.00     0.198 A 
ATOM     85  C   UNL     1       8.547  -1.481   8.832  1.00  0.00     0.198 A 
ATOM     86  F   UNL     1       9.419  -1.799   6.670  1.00  0.00    -0.203 F 
ATOM     87  F   UNL     1       9.543   0.800  11.464  1.00  0.00    -0.200 F 
ATOM     88  C   UNL     1       8.574  -0.828  10.055  1.00  0.00     0.200 A 
ATOM     89  F   UNL     1       7.651  -2.452   8.611  1.00  0.00    -0.200 F 
ATOM     90  F   UNL     1       7.721  -1.183  11.026  1.00  0.00    -0.200 F 
ENDBRANCH  56  80
BRANCH  68  91
ATOM     91  C   UNL     1      17.333  -0.509   7.590  1.00  0.00     0.064 A 
ATOM     92  C   UNL     1      17.471  -1.858   7.951  1.00  0.00     0.173 A 
ATOM     93  C   UNL     1      18.233   0.413   8.146  1.00  0.00     0.173 A 
ATOM     94  F   UNL     1      16.628  -2.778   7.458  1.00  0.00    -0.203 F 
ATOM     95  C   UNL     1      18.445  -2.260   8.860  1.00  0.00     0.198 A 
ATOM     96  C   UNL     1      19.230   0.002   9.025  1.00  0.00     0.198 A 
ATOM     97  F   UNL     1      18.153   1.714   7.828  1.00  0.00    -0.203 F 
ATOM     98  F   UNL     1      18.518  -3.544   9.236  1.00  0.00    -0.200 F 
ATOM     99  C   UNL     1      19.329  -1.332   9.390  1.00  0.00     0.200 A 
ATOM    100  F   UNL     1      20.094   0.897   9.523  1.00  0.00    -0.200 F 
ATOM    101  F   UNL     1      20.270  -1.722  10.261  1.00  0.00    -0.200 F 
ENDBRANCH  68  91
ENDBRANCH  42  43
ENDBRANCH  34  37
ENDBRANCH  32  33
ENDBRANCH  31  32
ENDBRANCH  30  31
ENDBRANCH   1  30
TORSDOF 18
