REMARK SMILES CCOc1ccc([C@H](C)[C@](O)(C(=O)NCCCCCCNC(=O)c2ccc(-c3c4nc(c(-c5c(F)c(F)c(F)c(F)c5F)c5ccc([nH]5)c(-c5c(F)c(F)c(F)c(F)c5F)c5nc(c(-c6c(F)c(F)c(F)c(F)c6F)c6ccc3[nH]6)C=C5)C=C4)cc2)C(C)C)cc1
REMARK SMILES IDX 16 1 15 2 14 3 12 4 13 5 10 7 8 8 9 9 7 10 4 11 5 12 91 13
REMARK SMILES IDX 6 14 90 15 3 16 2 17 1 18 87 19 88 20 89 21 11 22 17 24
REMARK SMILES IDX 18 25 19 26 20 27 21 28 22 29 23 31 24 32 25 33 86 34 26 35
REMARK SMILES IDX 85 36 27 37 28 38 29 39 79 40 30 41 84 42 78 43 80 44 31 45
REMARK SMILES IDX 83 46 77 47 76 48 32 50 64 51 44 52 63 53 45 54 48 55 62 56
REMARK SMILES IDX 81 57 46 58 47 59 61 61 82 62 49 63 33 64 34 65 42 66 35 67
REMARK SMILES IDX 36 68 40 69 43 70 37 71 38 72 41 73 39 74 65 75 66 76 74 77
REMARK SMILES IDX 67 78 68 79 72 80 75 81 69 82 70 83 73 84 71 85 50 86 51 87
REMARK SMILES IDX 59 88 52 89 53 90 57 91 60 92 54 93 55 94 58 95 56 96
REMARK H PARENT 14 6 11 23 21 30 80 49 48 60
REMARK Flexibility Score: inf
ROOT
ATOM      1  C   UNL     1       9.422   0.361   2.100  1.00  0.00     0.021 C 
ENDROOT
BRANCH   1   2
ATOM      2  C   UNL     1       8.857  -0.925   1.510  1.00  0.00     0.116 C 
BRANCH   2   3
ATOM      3  N   UNL     1       9.279  -2.106   2.249  1.00  0.00    -0.354 N 
ATOM      4  C   UNL     1       8.535  -3.117   2.798  1.00  0.00     0.252 C 
ATOM      5  O   UNL     1       9.152  -4.045   3.325  1.00  0.00    -0.272 OA
ATOM      6  H   UNL     1      10.252  -2.191   2.374  1.00  0.00     0.163 HD
BRANCH   4   7
ATOM      7  C   UNL     1       6.969  -3.075   2.728  1.00  0.00     0.151 C 
BRANCH   7   8
ATOM      8  C   UNL     1       6.597  -3.288   1.190  1.00  0.00     0.058 C 
ATOM      9  C   UNL     1       6.968  -4.733   0.765  1.00  0.00     0.016 C 
BRANCH   8  10
ATOM     10  C   UNL     1       5.208  -2.854   0.688  1.00  0.00    -0.041 A 
ATOM     11  C   UNL     1       2.649  -2.095  -0.252  1.00  0.00     0.119 A 
ATOM     12  C   UNL     1       3.272  -1.349   0.736  1.00  0.00     0.047 A 
ATOM     13  C   UNL     1       3.326  -3.147  -0.848  1.00  0.00     0.047 A 
ATOM     14  C   UNL     1       4.546  -1.717   1.184  1.00  0.00     0.008 A 
ATOM     15  C   UNL     1       4.582  -3.530  -0.375  1.00  0.00     0.008 A 
BRANCH  11  16
ATOM     16  O   UNL     1       1.413  -1.711  -0.686  1.00  0.00    -0.494 OA
BRANCH  16  17
ATOM     17  C   UNL     1       0.392  -2.649  -0.316  1.00  0.00     0.226 C 
ATOM     18  C   UNL     1       0.182  -3.704  -1.391  1.00  0.00     0.049 C 
ENDBRANCH  16  17
ENDBRANCH  11  16
ENDBRANCH   8  10
ENDBRANCH   7   8
BRANCH   7  19
ATOM     19  C   UNL     1       6.328  -4.141   3.689  1.00  0.00     0.025 C 
ATOM     20  C   UNL     1       6.628  -3.873   5.177  1.00  0.00     0.011 C 
ATOM     21  C   UNL     1       4.801  -4.242   3.556  1.00  0.00     0.011 C 
ENDBRANCH   7  19
BRANCH   7  22
ATOM     22  O   UNL     1       6.612  -1.769   3.217  1.00  0.00    -0.379 OA
ATOM     23  H   UNL     1       6.859  -1.696   4.152  1.00  0.00     0.212 HD
ENDBRANCH   7  22
ENDBRANCH   4   7
ENDBRANCH   2   3
ENDBRANCH   1   2
BRANCH   1  24
ATOM     24  C   UNL     1      10.947   0.473   2.036  1.00  0.00     0.002 C 
BRANCH  24  25
ATOM     25  C   UNL     1      11.558   0.311   0.641  1.00  0.00     0.002 C 
BRANCH  25  26
ATOM     26  C   UNL     1      11.001   1.250  -0.432  1.00  0.00     0.021 C 
BRANCH  26  27
ATOM     27  C   UNL     1      11.087   2.735  -0.095  1.00  0.00     0.116 C 
BRANCH  27  28
ATOM     28  N   UNL     1      12.459   3.181   0.096  1.00  0.00    -0.352 N 
ATOM     29  C   UNL     1      13.146   4.189  -0.531  1.00  0.00     0.251 C 
ATOM     30  H   UNL     1      12.970   2.686   0.777  1.00  0.00     0.163 HD
ATOM     31  O   UNL     1      14.357   4.309  -0.367  1.00  0.00    -0.269 OA
BRANCH  29  32
ATOM     32  C   UNL     1      12.431   5.115  -1.433  1.00  0.00     0.039 A 
ATOM     33  C   UNL     1      12.984   5.396  -2.685  1.00  0.00     0.014 A 
ATOM     34  C   UNL     1      11.215   5.689  -1.055  1.00  0.00     0.014 A 
ATOM     35  C   UNL     1      12.273   6.184  -3.592  1.00  0.00     0.010 A 
ATOM     36  C   UNL     1      10.475   6.415  -1.984  1.00  0.00     0.010 A 
ATOM     37  C   UNL     1      10.991   6.656  -3.267  1.00  0.00    -0.014 A 
BRANCH  37  38
ATOM     38  C   UNL     1      10.152   7.355  -4.273  1.00  0.00     0.031 A 
ATOM     39  C   UNL     1       9.738   8.783  -4.064  1.00  0.00     0.074 A 
ATOM     40  C   UNL     1       9.696   6.670  -5.340  1.00  0.00     0.049 A 
ATOM     41  N   UNL     1       8.936   9.527  -4.784  1.00  0.00    -0.248 NA
ATOM     42  C   UNL     1      10.278   9.458  -2.874  1.00  0.00     0.031 C 
ATOM     43  C   UNL     1       9.991   5.266  -5.629  1.00  0.00     0.029 A 
ATOM     44  N   UNL     1       8.872   7.054  -6.369  1.00  0.00    -0.354 N 
ATOM     45  C   UNL     1       8.875  10.753  -4.137  1.00  0.00     0.074 A 
ATOM     46  C   UNL     1       9.674  10.635  -2.935  1.00  0.00     0.031 C 
ATOM     47  C   UNL     1       9.368   4.909  -6.762  1.00  0.00     0.029 A 
ATOM     48  C   UNL     1       8.591   6.042  -7.255  1.00  0.00     0.049 A 
ATOM     49  H   UNL     1       8.516   7.967  -6.462  1.00  0.00     0.167 HD
ATOM     50  C   UNL     1       8.230  11.880  -4.523  1.00  0.00     0.037 A 
ATOM     51  C   UNL     1       7.781   6.021  -8.330  1.00  0.00     0.037 A 
ATOM     52  C   UNL     1       7.435  11.989  -5.719  1.00  0.00     0.049 A 
ATOM     53  C   UNL     1       7.038   7.272  -8.713  1.00  0.00     0.074 A 
ATOM     54  C   UNL     1       6.780  13.099  -6.222  1.00  0.00     0.029 A 
ATOM     55  N   UNL     1       7.175  10.943  -6.594  1.00  0.00    -0.354 N 
ATOM     56  N   UNL     1       7.045   8.448  -8.134  1.00  0.00    -0.248 NA
ATOM     57  C   UNL     1       6.177   7.194  -9.901  1.00  0.00     0.031 C 
ATOM     58  C   UNL     1       6.077  12.712  -7.368  1.00  0.00     0.029 A 
ATOM     59  C   UNL     1       6.341  11.375  -7.615  1.00  0.00     0.049 A 
ATOM     60  H   UNL     1       7.530  10.029  -6.503  1.00  0.00     0.167 HD
ATOM     61  C   UNL     1       6.207   9.253  -8.893  1.00  0.00     0.074 A 
ATOM     62  C   UNL     1       5.727   8.438  -9.989  1.00  0.00     0.031 C 
ATOM     63  C   UNL     1       5.865  10.550  -8.697  1.00  0.00     0.037 A 
BRANCH  50  64
ATOM     64  C   UNL     1       8.354  13.087  -3.637  1.00  0.00     0.064 A 
ATOM     65  C   UNL     1       9.571  13.772  -3.494  1.00  0.00     0.173 A 
ATOM     66  C   UNL     1       7.238  13.586  -2.948  1.00  0.00     0.173 A 
ATOM     67  F   UNL     1      10.671  13.333  -4.123  1.00  0.00    -0.203 F 
ATOM     68  C   UNL     1       9.674  14.889  -2.667  1.00  0.00     0.198 A 
ATOM     69  C   UNL     1       7.337  14.723  -2.150  1.00  0.00     0.198 A 
ATOM     70  F   UNL     1       6.048  12.977  -3.055  1.00  0.00    -0.203 F 
ATOM     71  F   UNL     1      10.860  15.492  -2.504  1.00  0.00    -0.200 F 
ATOM     72  C   UNL     1       8.556  15.367  -2.002  1.00  0.00     0.200 A 
ATOM     73  F   UNL     1       6.252  15.194  -1.520  1.00  0.00    -0.200 F 
ATOM     74  F   UNL     1       8.655  16.445  -1.212  1.00  0.00    -0.200 F 
ENDBRANCH  50  64
BRANCH  51  75
ATOM     75  C   UNL     1       7.629   4.768  -9.115  1.00  0.00     0.064 A 
ATOM     76  C   UNL     1       8.128   4.668 -10.421  1.00  0.00     0.173 A 
ATOM     77  C   UNL     1       6.988   3.643  -8.574  1.00  0.00     0.173 A 
ATOM     78  F   UNL     1       8.730   5.722 -10.990  1.00  0.00    -0.203 F 
ATOM     79  C   UNL     1       7.977   3.497 -11.162  1.00  0.00     0.198 A 
ATOM     80  C   UNL     1       6.866   2.463  -9.304  1.00  0.00     0.198 A 
ATOM     81  F   UNL     1       6.498   3.684  -7.327  1.00  0.00    -0.203 F 
ATOM     82  F   UNL     1       8.424   3.443 -12.424  1.00  0.00    -0.200 F 
ATOM     83  C   UNL     1       7.353   2.393 -10.600  1.00  0.00     0.200 A 
ATOM     84  F   UNL     1       6.279   1.393  -8.750  1.00  0.00    -0.200 F 
ATOM     85  F   UNL     1       7.216   1.265 -11.310  1.00  0.00    -0.200 F 
ENDBRANCH  51  75
BRANCH  63  86
ATOM     86  C   UNL     1       4.937  11.177  -9.698  1.00  0.00     0.064 A 
ATOM     87  C   UNL     1       3.580  10.826  -9.762  1.00  0.00     0.173 A 
ATOM     88  C   UNL     1       5.399  12.174 -10.571  1.00  0.00     0.173 A 
ATOM     89  F   UNL     1       3.092   9.867  -8.961  1.00  0.00    -0.203 F 
ATOM     90  C   UNL     1       2.725  11.435 -10.678  1.00  0.00     0.198 A 
ATOM     91  C   UNL     1       4.534  12.804 -11.463  1.00  0.00     0.198 A 
ATOM     92  F   UNL     1       6.686  12.550 -10.548  1.00  0.00    -0.203 F 
ATOM     93  F   UNL     1       1.444  11.051 -10.753  1.00  0.00    -0.200 F 
ATOM     94  C   UNL     1       3.201  12.429 -11.520  1.00  0.00     0.200 A 
ATOM     95  F   UNL     1       4.992  13.775 -12.265  1.00  0.00    -0.200 F 
ATOM     96  F   UNL     1       2.374  13.023 -12.392  1.00  0.00    -0.200 F 
ENDBRANCH  63  86
ENDBRANCH  37  38
ENDBRANCH  29  32
ENDBRANCH  27  28
ENDBRANCH  26  27
ENDBRANCH  25  26
ENDBRANCH  24  25
ENDBRANCH   1  24
TORSDOF 19
