REMARK SMILES C#CC[NH2+]CC(=O)N1CC[C@](CCC)(C(=O)NCCCCCCNC(=O)c2ccc(-c3c4nc(c(-c5c(F)c(F)c(F)c(F)c5F)c5ccc([nH]5)c(-c5c(F)c(F)c(F)c(F)c5F)c5nc(c(-c6c(F)c(F)c(F)c(F)c6F)c6ccc3[nH]6)C=C5)C=C4)cc2)C1
REMARK SMILES IDX 19 1 18 2 17 3 15 4 16 5 11 7 8 8 9 9 90 10 10 11 6 12 7 13
REMARK SMILES IDX 5 14 4 15 3 18 2 19 1 20 12 21 13 22 14 23 20 24 21 25 22 26
REMARK SMILES IDX 23 27 24 28 25 29 26 31 27 32 28 33 89 34 29 35 88 36 30 37
REMARK SMILES IDX 31 38 32 39 82 40 33 41 87 42 81 43 83 44 34 45 86 46 80 47
REMARK SMILES IDX 79 48 35 50 67 51 47 52 66 53 48 54 51 55 65 56 84 57 49 58
REMARK SMILES IDX 50 59 64 61 85 62 52 63 36 64 37 65 45 66 38 67 39 68 43 69
REMARK SMILES IDX 46 70 40 71 41 72 44 73 42 74 68 75 69 76 77 77 70 78 71 79
REMARK SMILES IDX 75 80 78 81 72 82 73 83 76 84 74 85 53 86 54 87 62 88 55 89
REMARK SMILES IDX 56 90 60 91 63 92 57 93 58 94 61 95 59 96
REMARK H PARENT 17 6 4 16 4 17 24 30 83 49 51 60
REMARK Flexibility Score: inf
ROOT
ATOM      1  C   UNL     1      -5.197   5.171   0.204  1.00  0.00     0.021 C 
ENDROOT
BRANCH   1   2
ATOM      2  C   UNL     1      -5.131   3.852  -0.570  1.00  0.00     0.116 C 
BRANCH   2   3
ATOM      3  N   UNL     1      -5.706   4.027  -1.897  1.00  0.00    -0.356 N 
ATOM      4  C   UNL     1      -5.556   3.444  -3.109  1.00  0.00     0.228 C 
ATOM      5  O   UNL     1      -6.324   3.880  -3.974  1.00  0.00    -0.274 OA
ATOM      6  H   UNL     1      -6.372   4.751  -1.916  1.00  0.00     0.163 HD
BRANCH   4   7
ATOM      7  C   UNL     1      -4.617   2.269  -3.406  1.00  0.00     0.068 C 
ATOM      8  N   UNL     1      -3.941   0.539  -1.873  1.00  0.00    -0.337 N 
ATOM      9  C   UNL     1      -2.777   1.036  -2.615  1.00  0.00     0.121 C 
ATOM     10  C   UNL     1      -5.115   1.069  -2.550  1.00  0.00     0.136 C 
ATOM     11  C   UNL     1      -3.165   2.455  -2.943  1.00  0.00     0.040 C 
BRANCH   8  12
ATOM     12  C   UNL     1      -4.032  -0.764  -1.354  1.00  0.00     0.277 C 
ATOM     13  O   UNL     1      -4.136  -1.756  -2.071  1.00  0.00    -0.268 OA
BRANCH  12  14
ATOM     14  C   UNL     1      -3.930  -0.867   0.210  1.00  0.00     0.362 C 
BRANCH  14  15
ATOM     15  N   UNL     1      -2.525  -1.011   0.728  1.00  0.00    -0.328 N 
ATOM     16  H   UNL     1      -2.490  -0.802   1.725  1.00  0.00     0.347 HD
ATOM     17  H   UNL     1      -2.174  -1.961   0.611  1.00  0.00     0.347 HD
BRANCH  15  18
ATOM     18  C   UNL     1      -1.742  -0.055  -0.016  1.00  0.00     0.352 C 
BRANCH  18  19
ATOM     19  C   UNL     1      -0.222  -0.055  -0.016  1.00  0.00    -0.047 C 
ATOM     20  C   UNL     1       1.082  -0.055  -0.016  1.00  0.00     0.010 C 
ENDBRANCH  18  19
ENDBRANCH  15  18
ENDBRANCH  14  15
ENDBRANCH  12  14
ENDBRANCH   8  12
BRANCH   7  21
ATOM     21  C   UNL     1      -4.508   2.037  -4.965  1.00  0.00     0.018 C 
BRANCH  21  22
ATOM     22  C   UNL     1      -4.645   0.621  -5.524  1.00  0.00    -0.002 C 
ATOM     23  C   UNL     1      -6.088   0.285  -5.849  1.00  0.00     0.004 C 
ENDBRANCH  21  22
ENDBRANCH   7  21
ENDBRANCH   4   7
ENDBRANCH   2   3
ENDBRANCH   1   2
BRANCH   1  24
ATOM     24  C   UNL     1      -6.616   5.568   0.630  1.00  0.00     0.002 C 
BRANCH  24  25
ATOM     25  C   UNL     1      -7.274   4.605   1.622  1.00  0.00     0.002 C 
BRANCH  25  26
ATOM     26  C   UNL     1      -6.499   4.397   2.925  1.00  0.00     0.021 C 
BRANCH  26  27
ATOM     27  C   UNL     1      -6.165   5.682   3.678  1.00  0.00     0.116 C 
BRANCH  27  28
ATOM     28  N   UNL     1      -7.357   6.436   4.032  1.00  0.00    -0.352 N 
ATOM     29  C   UNL     1      -7.744   6.930   5.247  1.00  0.00     0.251 C 
ATOM     30  H   UNL     1      -7.976   6.618   3.288  1.00  0.00     0.163 HD
ATOM     31  O   UNL     1      -8.884   7.380   5.394  1.00  0.00    -0.269 OA
BRANCH  29  32
ATOM     32  C   UNL     1      -6.813   6.913   6.391  1.00  0.00     0.039 A 
ATOM     33  C   UNL     1      -7.299   6.544   7.647  1.00  0.00     0.014 A 
ATOM     34  C   UNL     1      -5.473   7.282   6.237  1.00  0.00     0.014 A 
ATOM     35  C   UNL     1      -6.432   6.506   8.740  1.00  0.00     0.010 A 
ATOM     36  C   UNL     1      -4.593   7.169   7.310  1.00  0.00     0.010 A 
ATOM     37  C   UNL     1      -5.067   6.794   8.576  1.00  0.00    -0.014 A 
BRANCH  37  38
ATOM     38  C   UNL     1      -4.136   6.718   9.729  1.00  0.00     0.031 A 
ATOM     39  C   UNL     1      -3.451   7.957  10.237  1.00  0.00     0.074 A 
ATOM     40  C   UNL     1      -3.886   5.525  10.302  1.00  0.00     0.049 A 
ATOM     41  N   UNL     1      -2.613   8.090  11.235  1.00  0.00    -0.248 NA
ATOM     42  C   UNL     1      -3.721   9.209   9.513  1.00  0.00     0.031 C 
ATOM     43  C   UNL     1      -4.445   4.245   9.864  1.00  0.00     0.029 A 
ATOM     44  N   UNL     1      -3.100   5.195  11.377  1.00  0.00    -0.354 N 
ATOM     45  C   UNL     1      -2.256   9.432  11.253  1.00  0.00     0.074 A 
ATOM     46  C   UNL     1      -2.915  10.060  10.130  1.00  0.00     0.031 C 
ATOM     47  C   UNL     1      -4.013   3.274  10.683  1.00  0.00     0.029 A 
ATOM     48  C   UNL     1      -3.122   3.856  11.683  1.00  0.00     0.049 A 
ATOM     49  H   UNL     1      -2.571   5.854  11.881  1.00  0.00     0.167 HD
ATOM     50  C   UNL     1      -1.472  10.087  12.143  1.00  0.00     0.037 A 
ATOM     51  C   UNL     1      -2.498   3.177  12.663  1.00  0.00     0.037 A 
ATOM     52  C   UNL     1      -0.831   9.461  13.271  1.00  0.00     0.049 A 
ATOM     53  C   UNL     1      -1.635   3.930  13.640  1.00  0.00     0.074 A 
ATOM     54  C   UNL     1      -0.060  10.045  14.261  1.00  0.00     0.029 A 
ATOM     55  N   UNL     1      -0.884   8.104  13.556  1.00  0.00    -0.354 N 
ATOM     56  N   UNL     1      -1.367   5.212  13.694  1.00  0.00    -0.248 NA
ATOM     57  C   UNL     1      -1.000   3.139  14.702  1.00  0.00     0.031 C 
ATOM     58  C   UNL     1       0.394   9.035  15.116  1.00  0.00     0.029 A 
ATOM     59  C   UNL     1      -0.141   7.829  14.694  1.00  0.00     0.049 A 
ATOM     60  H   UNL     1      -1.377   7.435  13.028  1.00  0.00     0.167 HD
ATOM     61  C   UNL     1      -0.556   5.386  14.807  1.00  0.00     0.074 A 
ATOM     62  C   UNL     1      -0.398   4.080  15.414  1.00  0.00     0.031 C 
ATOM     63  C   UNL     1       0.009   6.523  15.284  1.00  0.00     0.037 A 
BRANCH  50  64
ATOM     64  C   UNL     1      -1.266  11.560  11.933  1.00  0.00     0.064 A 
ATOM     65  C   UNL     1      -2.310  12.482  12.109  1.00  0.00     0.173 A 
ATOM     66  C   UNL     1      -0.004  12.062  11.580  1.00  0.00     0.173 A 
ATOM     67  F   UNL     1      -3.540  12.056  12.434  1.00  0.00    -0.203 F 
ATOM     68  C   UNL     1      -2.107  13.845  11.909  1.00  0.00     0.198 A 
ATOM     69  C   UNL     1       0.204  13.429  11.413  1.00  0.00     0.198 A 
ATOM     70  F   UNL     1       1.031  11.227  11.403  1.00  0.00    -0.203 F 
ATOM     71  F   UNL     1      -3.132  14.699  12.030  1.00  0.00    -0.200 F 
ATOM     72  C   UNL     1      -0.849  14.318  11.569  1.00  0.00     0.200 A 
ATOM     73  F   UNL     1       1.424  13.886  11.097  1.00  0.00    -0.200 F 
ATOM     74  F   UNL     1      -0.652  15.631  11.383  1.00  0.00    -0.200 F 
ENDBRANCH  50  64
BRANCH  51  75
ATOM     75  C   UNL     1      -2.692   1.709  12.791  1.00  0.00     0.064 A 
ATOM     76  C   UNL     1      -3.394   1.167  13.877  1.00  0.00     0.173 A 
ATOM     77  C   UNL     1      -2.171   0.818  11.842  1.00  0.00     0.173 A 
ATOM     78  F   UNL     1      -3.894   1.977  14.822  1.00  0.00    -0.203 F 
ATOM     79  C   UNL     1      -3.545  -0.210  14.022  1.00  0.00     0.198 A 
ATOM     80  C   UNL     1      -2.349  -0.557  11.972  1.00  0.00     0.198 A 
ATOM     81  F   UNL     1      -1.496   1.286  10.781  1.00  0.00    -0.203 F 
ATOM     82  F   UNL     1      -4.175  -0.703  15.098  1.00  0.00    -0.200 F 
ATOM     83  C   UNL     1      -3.027  -1.071  13.067  1.00  0.00     0.200 A 
ATOM     84  F   UNL     1      -1.861  -1.385  11.038  1.00  0.00    -0.200 F 
ATOM     85  F   UNL     1      -3.174  -2.396  13.206  1.00  0.00    -0.200 F 
ENDBRANCH  51  75
BRANCH  63  86
ATOM     86  C   UNL     1       0.825   6.404  16.540  1.00  0.00     0.064 A 
ATOM     87  C   UNL     1       2.060   5.739  16.558  1.00  0.00     0.173 A 
ATOM     88  C   UNL     1       0.369   6.971  17.740  1.00  0.00     0.173 A 
ATOM     89  F   UNL     1       2.536   5.167  15.441  1.00  0.00    -0.203 F 
ATOM     90  C   UNL     1       2.786   5.607  17.739  1.00  0.00     0.198 A 
ATOM     91  C   UNL     1       1.115   6.869  18.911  1.00  0.00     0.198 A 
ATOM     92  F   UNL     1      -0.801   7.627  17.777  1.00  0.00    -0.203 F 
ATOM     93  F   UNL     1       3.930   4.909  17.745  1.00  0.00    -0.200 F 
ATOM     94  C   UNL     1       2.316   6.177  18.913  1.00  0.00     0.200 A 
ATOM     95  F   UNL     1       0.666   7.433  20.041  1.00  0.00    -0.200 F 
ATOM     96  F   UNL     1       3.015   6.048  20.049  1.00  0.00    -0.200 F 
ENDBRANCH  63  86
ENDBRANCH  37  38
ENDBRANCH  29  32
ENDBRANCH  27  28
ENDBRANCH  26  27
ENDBRANCH  25  26
ENDBRANCH  24  25
ENDBRANCH   1  24
TORSDOF 20
