REMARK SMILES O=C(NCCCCCCNC(=O)[C@@]1([NH2+]C2CC2)CCC[C@@H](Sc2ncn[nH]2)C1)c1ccc(-c2c3nc(c(-c4c(F)c(F)c(F)c(F)c4F)c4ccc([nH]4)c(-c4c(F)c(F)c(F)c(F)c4F)c4nc(c(-c5c(F)c(F)c(F)c(F)c5F)c5ccc2[nH]5)C=C4)C=C3)cc1
REMARK SMILES IDX 6 1 5 2 4 3 3 4 1 5 2 6 29 8 30 9 91 10 31 11 90 12 32 13
REMARK SMILES IDX 33 14 34 15 84 16 35 17 89 18 83 19 85 20 36 21 88 22 82 23
REMARK SMILES IDX 81 24 37 26 69 27 49 28 68 29 50 30 53 31 67 32 86 33 51 34
REMARK SMILES IDX 52 35 66 37 87 38 54 39 38 40 39 41 47 42 40 43 41 44 45 45
REMARK SMILES IDX 48 46 42 47 43 48 46 49 44 50 70 51 71 52 79 53 72 54 73 55
REMARK SMILES IDX 77 56 80 57 74 58 75 59 78 60 76 61 55 62 56 63 64 64 57 65
REMARK SMILES IDX 58 66 62 67 65 68 59 69 60 70 63 71 61 72 7 73 8 74 9 75
REMARK SMILES IDX 10 76 11 77 12 79 13 80 18 81 28 82 19 83 21 84 20 85 14 86
REMARK SMILES IDX 15 89 16 90 17 91 22 92 23 93 24 94 27 95 25 96 26 97
REMARK H PARENT 3 7 85 25 53 36 10 78 14 87 14 88 27 98
REMARK Flexibility Score: inf
ROOT
ATOM      1  C   UNL     1       3.696   2.461  -3.146  1.00  0.00     0.002 C 
ENDROOT
BRANCH   1   2
ATOM      2  C   UNL     1       4.157   1.105  -2.611  1.00  0.00     0.021 C 
BRANCH   2   3
ATOM      3  C   UNL     1       4.113   0.993  -1.096  1.00  0.00     0.116 C 
BRANCH   3   4
ATOM      4  N   UNL     1       2.750   0.956  -0.595  1.00  0.00    -0.352 N 
ATOM      5  O   UNL     1       0.936  -0.006   0.348  1.00  0.00    -0.269 OA
ATOM      6  C   UNL     1       2.144  -0.008   0.178  1.00  0.00     0.251 C 
ATOM      7  H   UNL     1       2.183   1.722  -0.842  1.00  0.00     0.163 HD
BRANCH   6   8
ATOM      8  C   UNL     1       2.983  -1.058   0.798  1.00  0.00     0.039 A 
ATOM      9  C   UNL     1       4.186  -0.717   1.419  1.00  0.00     0.014 A 
ATOM     10  C   UNL     1       2.558  -2.389   0.762  1.00  0.00     0.014 A 
ATOM     11  C   UNL     1       5.026  -1.717   1.885  1.00  0.00     0.010 A 
ATOM     12  C   UNL     1       3.361  -3.386   1.325  1.00  0.00     0.010 A 
ATOM     13  C   UNL     1       4.608  -3.059   1.876  1.00  0.00    -0.014 A 
BRANCH  13  14
ATOM     14  C   UNL     1       5.460  -4.066   2.556  1.00  0.00     0.031 A 
ATOM     15  C   UNL     1       6.120  -5.182   1.801  1.00  0.00     0.074 A 
ATOM     16  C   UNL     1       5.671  -3.917   3.879  1.00  0.00     0.049 A 
ATOM     17  N   UNL     1       6.939  -6.102   2.246  1.00  0.00    -0.248 NA
ATOM     18  C   UNL     1       5.821  -5.291   0.365  1.00  0.00     0.031 C 
ATOM     19  C   UNL     1       5.056  -2.881   4.714  1.00  0.00     0.029 A 
ATOM     20  N   UNL     1       6.478  -4.604   4.747  1.00  0.00    -0.354 N 
ATOM     21  C   UNL     1       7.248  -6.900   1.153  1.00  0.00     0.074 A 
ATOM     22  C   UNL     1       6.504  -6.377   0.027  1.00  0.00     0.031 C 
ATOM     23  C   UNL     1       5.553  -2.961   5.955  1.00  0.00     0.029 A 
ATOM     24  C   UNL     1       6.468  -4.094   6.022  1.00  0.00     0.049 A 
ATOM     25  H   UNL     1       7.013  -5.387   4.482  1.00  0.00     0.167 HD
ATOM     26  C   UNL     1       8.085  -7.965   1.100  1.00  0.00     0.037 A 
ATOM     27  C   UNL     1       7.111  -4.501   7.130  1.00  0.00     0.037 A 
ATOM     28  C   UNL     1       8.825  -8.474   2.229  1.00  0.00     0.049 A 
ATOM     29  C   UNL     1       8.026  -5.687   7.036  1.00  0.00     0.074 A 
ATOM     30  C   UNL     1       9.704  -9.542   2.276  1.00  0.00     0.029 A 
ATOM     31  N   UNL     1       8.770  -7.948   3.513  1.00  0.00    -0.354 N 
ATOM     32  N   UNL     1       8.327  -6.418   5.990  1.00  0.00    -0.248 NA
ATOM     33  C   UNL     1       8.689  -6.107   8.276  1.00  0.00     0.031 C 
ATOM     34  C   UNL     1      10.152  -9.686   3.594  1.00  0.00     0.029 A 
ATOM     35  C   UNL     1       9.589  -8.679   4.360  1.00  0.00     0.049 A 
ATOM     36  H   UNL     1       8.229  -7.170   3.782  1.00  0.00     0.167 HD
ATOM     37  C   UNL     1       9.215  -7.380   6.442  1.00  0.00     0.074 A 
ATOM     38  C   UNL     1       9.437  -7.114   7.849  1.00  0.00     0.031 C 
ATOM     39  C   UNL     1       9.787  -8.402   5.760  1.00  0.00     0.037 A 
BRANCH  26  40
ATOM     40  C   UNL     1       8.250  -8.663  -0.219  1.00  0.00     0.064 A 
ATOM     41  C   UNL     1       8.972  -8.080  -1.272  1.00  0.00     0.173 A 
ATOM     42  C   UNL     1       7.746  -9.959  -0.409  1.00  0.00     0.173 A 
ATOM     43  F   UNL     1       9.467  -6.839  -1.145  1.00  0.00    -0.203 F 
ATOM     44  C   UNL     1       9.172  -8.763  -2.469  1.00  0.00     0.198 A 
ATOM     45  C   UNL     1       7.970 -10.649  -1.598  1.00  0.00     0.198 A 
ATOM     46  F   UNL     1       7.054 -10.565   0.567  1.00  0.00    -0.203 F 
ATOM     47  F   UNL     1       9.840  -8.175  -3.471  1.00  0.00    -0.200 F 
ATOM     48  C   UNL     1       8.679 -10.050  -2.628  1.00  0.00     0.200 A 
ATOM     49  F   UNL     1       7.505 -11.898  -1.745  1.00  0.00    -0.200 F 
ATOM     50  F   UNL     1       8.887 -10.712  -3.774  1.00  0.00    -0.200 F 
ENDBRANCH  26  40
BRANCH  27  51
ATOM     51  C   UNL     1       6.895  -3.791   8.416  1.00  0.00     0.064 A 
ATOM     52  C   UNL     1       7.927  -3.068   9.030  1.00  0.00     0.173 A 
ATOM     53  C   UNL     1       5.648  -3.822   9.059  1.00  0.00     0.173 A 
ATOM     54  F   UNL     1       9.142  -3.022   8.464  1.00  0.00    -0.203 F 
ATOM     55  C   UNL     1       7.726  -2.423  10.249  1.00  0.00     0.198 A 
ATOM     56  C   UNL     1       5.439  -3.148  10.259  1.00  0.00     0.198 A 
ATOM     57  F   UNL     1       4.625  -4.494   8.510  1.00  0.00    -0.203 F 
ATOM     58  F   UNL     1       8.743  -1.783  10.840  1.00  0.00    -0.200 F 
ATOM     59  C   UNL     1       6.481  -2.458  10.859  1.00  0.00     0.200 A 
ATOM     60  F   UNL     1       4.228  -3.168  10.833  1.00  0.00    -0.200 F 
ATOM     61  F   UNL     1       6.287  -1.834  12.028  1.00  0.00    -0.200 F 
ENDBRANCH  27  51
BRANCH  39  62
ATOM     62  C   UNL     1      10.712  -9.293   6.536  1.00  0.00     0.064 A 
ATOM     63  C   UNL     1      10.227 -10.182   7.508  1.00  0.00     0.173 A 
ATOM     64  C   UNL     1      12.095  -9.254   6.310  1.00  0.00     0.173 A 
ATOM     65  F   UNL     1       8.914 -10.242   7.773  1.00  0.00    -0.203 F 
ATOM     66  C   UNL     1      11.099 -10.970   8.253  1.00  0.00     0.198 A 
ATOM     67  C   UNL     1      12.961 -10.067   7.035  1.00  0.00     0.198 A 
ATOM     68  F   UNL     1      12.607  -8.425   5.388  1.00  0.00    -0.203 F 
ATOM     69  F   UNL     1      10.620 -11.764   9.221  1.00  0.00    -0.200 F 
ATOM     70  C   UNL     1      12.464 -10.916   8.013  1.00  0.00     0.200 A 
ATOM     71  F   UNL     1      14.279 -10.021   6.795  1.00  0.00    -0.200 F 
ATOM     72  F   UNL     1      13.303 -11.671   8.735  1.00  0.00    -0.200 F 
ENDBRANCH  39  62
ENDBRANCH  13  14
ENDBRANCH   6   8
ENDBRANCH   3   4
ENDBRANCH   2   3
ENDBRANCH   1   2
BRANCH   1  73
ATOM     73  C   UNL     1       4.508   3.665  -2.648  1.00  0.00     0.002 C 
BRANCH  73  74
ATOM     74  C   UNL     1       6.033   3.499  -2.726  1.00  0.00     0.021 C 
BRANCH  74  75
ATOM     75  C   UNL     1       6.538   3.170  -4.133  1.00  0.00     0.116 C 
BRANCH  75  76
ATOM     76  N   UNL     1       6.566   4.367  -4.953  1.00  0.00    -0.351 N 
ATOM     77  C   UNL     1       7.441   5.394  -5.117  1.00  0.00     0.281 C 
ATOM     78  H   UNL     1       5.767   4.455  -5.522  1.00  0.00     0.163 HD
ATOM     79  O   UNL     1       6.874   6.436  -5.479  1.00  0.00    -0.268 OA
BRANCH  77  80
ATOM     80  C   UNL     1       9.012   5.337  -4.911  1.00  0.00     0.176 C 
ATOM     81  C   UNL     1       9.443   6.375  -3.845  1.00  0.00     0.079 C 
ATOM     82  C   UNL     1       9.493   3.965  -4.389  1.00  0.00     0.094 C 
ATOM     83  C   UNL     1      10.943   6.340  -3.526  1.00  0.00     0.008 C 
ATOM     84  C   UNL     1      10.967   3.854  -3.989  1.00  0.00     0.061 C 
ATOM     85  C   UNL     1      11.389   4.968  -3.029  1.00  0.00     0.015 C 
BRANCH  80  86
ATOM     86  N   UNL     1       9.698   5.561  -6.213  1.00  0.00    -0.331 N 
ATOM     87  H   UNL     1       9.567   4.704  -6.751  1.00  0.00     0.347 HD
ATOM     88  H   UNL     1      10.632   5.832  -5.907  1.00  0.00     0.347 HD
BRANCH  86  89
ATOM     89  C   UNL     1       9.352   6.665  -7.119  1.00  0.00     0.183 C 
ATOM     90  C   UNL     1       8.755   8.004  -6.797  1.00  0.00     0.071 C 
ATOM     91  C   UNL     1      10.220   7.907  -7.053  1.00  0.00     0.071 C 
ENDBRANCH  86  89
ENDBRANCH  80  86
BRANCH  84  92
ATOM     92  S   UNL     1      11.372   2.197  -3.290  1.00  0.00    -0.083 SA
BRANCH  92  93
ATOM     93  C   UNL     1      10.435   2.120  -1.846  1.00  0.00     0.183 A 
ATOM     94  N   UNL     1       9.149   2.318  -1.687  1.00  0.00    -0.210 NA
ATOM     95  N   UNL     1      11.002   1.800  -0.651  1.00  0.00    -0.254 N 
ATOM     96  C   UNL     1       8.981   2.139  -0.343  1.00  0.00     0.247 A 
ATOM     97  N   UNL     1      10.087   1.826   0.337  1.00  0.00    -0.162 NA
ATOM     98  H   UNL     1      11.953   1.580  -0.526  1.00  0.00     0.192 HD
ENDBRANCH  92  93
ENDBRANCH  84  92
ENDBRANCH  77  80
ENDBRANCH  75  76
ENDBRANCH  74  75
ENDBRANCH  73  74
ENDBRANCH   1  73
TORSDOF 17
