REMARK SMILES CC[C@@H](C)[C@@H](NC(=O)CCn1ccc2ccc(Br)cc21)C(=O)NCCCCCCNC(=O)c1ccc(-c2c3nc(c(-c4c(F)c(F)c(F)c(F)c4F)c4ccc([nH]4)c(-c4c(F)c(F)c(F)c(F)c4F)c4nc(c(-c5c(F)c(F)c(F)c(F)c5F)c5ccc2[nH]5)C=C4)C=C3)cc1
REMARK SMILES IDX 25 1 24 2 23 3 21 4 22 5 5 7 3 8 4 9 2 10 1 11 6 12 7 13
REMARK SMILES IDX 8 15 9 16 10 17 11 18 12 19 20 20 13 21 14 22 19 23 15 24
REMARK SMILES IDX 17 25 16 26 18 27 26 28 27 29 28 30 29 31 30 32 31 33 32 35
REMARK SMILES IDX 33 36 34 37 95 38 35 39 94 40 36 41 37 42 38 43 88 44 39 45
REMARK SMILES IDX 93 46 87 47 89 48 40 49 92 50 86 51 85 52 41 54 73 55 53 56
REMARK SMILES IDX 72 57 54 58 57 59 71 60 90 61 55 62 56 63 70 65 91 66 58 67
REMARK SMILES IDX 42 68 43 69 51 70 44 71 45 72 49 73 52 74 46 75 47 76 50 77
REMARK SMILES IDX 48 78 74 79 75 80 83 81 76 82 77 83 81 84 84 85 78 86 79 87
REMARK SMILES IDX 82 88 80 89 59 90 60 91 68 92 61 93 62 94 66 95 69 96 63 97
REMARK SMILES IDX 64 98 67 99 65 100
REMARK H PARENT 23 6 6 14 30 34 89 53 57 64
REMARK Flexibility Score: inf
ROOT
ATOM      1  C   UNL     1       4.630   0.845  -5.593  1.00  0.00     0.021 C 
ENDROOT
BRANCH   1   2
ATOM      2  C   UNL     1       3.825   2.131  -5.160  1.00  0.00     0.116 C 
BRANCH   2   3
ATOM      3  N   UNL     1       2.306   2.904  -5.288  1.00  0.00    -0.354 N 
ATOM      4  C   UNL     1       1.106   3.578  -4.383  1.00  0.00     0.242 C 
ATOM      5  O   UNL     1       0.543   4.482  -5.043  1.00  0.00    -0.273 OA
ATOM      6  H   UNL     1       2.061   2.969  -6.240  1.00  0.00     0.163 HD
BRANCH   4   7
ATOM      7  C   UNL     1       0.515   3.315  -2.490  1.00  0.00     0.174 C 
BRANCH   7   8
ATOM      8  C   UNL     1       0.818   1.995  -1.190  1.00  0.00     0.018 C 
ATOM      9  C   UNL     1       0.768   0.415  -1.347  1.00  0.00     0.010 C 
BRANCH   8  10
ATOM     10  C   UNL     1       0.235   2.209   0.237  1.00  0.00     0.002 C 
ATOM     11  C   UNL     1       0.778   1.141   1.246  1.00  0.00     0.004 C 
ENDBRANCH   8  10
ENDBRANCH   7   8
BRANCH   7  12
ATOM     12  N   UNL     1       0.748   4.532  -1.743  1.00  0.00    -0.344 N 
ATOM     13  C   UNL     1       2.001   4.976  -1.742  1.00  0.00     0.222 C 
ATOM     14  H   UNL     1       0.026   5.002  -1.267  1.00  0.00     0.164 HD
ATOM     15  O   UNL     1       2.389   5.944  -1.048  1.00  0.00    -0.275 OA
BRANCH  13  16
ATOM     16  C   UNL     1       2.800   4.272  -2.768  1.00  0.00     0.122 C 
BRANCH  16  17
ATOM     17  C   UNL     1       2.569   2.496  -2.835  1.00  0.00     0.132 C 
BRANCH  17  18
ATOM     18  N   UNL     1       1.435   1.408  -3.737  1.00  0.00    -0.347 N 
ATOM     19  C   UNL     1       1.738   0.154  -4.309  1.00  0.00     0.087 A 
ATOM     20  C   UNL     1      -0.125   1.385  -3.983  1.00  0.00     0.049 A 
ATOM     21  C   UNL     1       0.608  -0.632  -4.489  1.00  0.00     0.028 A 
ATOM     22  C   UNL     1      -0.503   0.040  -3.963  1.00  0.00    -0.000 A 
ATOM     23  C   UNL     1      -1.252   2.288  -4.133  1.00  0.00     0.042 A 
ATOM     24  C   UNL     1      -1.793  -0.312  -3.478  1.00  0.00     0.011 A 
ATOM     25  C   UNL     1      -2.454   1.966  -3.483  1.00  0.00     0.020 A 
ATOM     26  C   UNL     1      -2.691   0.680  -3.070  1.00  0.00     0.016 A 
ATOM     27  Br  UNL     1      -3.655   3.359  -2.993  1.00  0.00    -0.051 Br
ENDBRANCH  17  18
ENDBRANCH  16  17
ENDBRANCH  13  16
ENDBRANCH   7  12
ENDBRANCH   4   7
ENDBRANCH   2   3
ENDBRANCH   1   2
BRANCH   1  28
ATOM     28  C   UNL     1       5.935   1.067  -6.325  1.00  0.00     0.002 C 
BRANCH  28  29
ATOM     29  C   UNL     1       6.792   2.246  -5.843  1.00  0.00     0.002 C 
BRANCH  29  30
ATOM     30  C   UNL     1       7.297   2.283  -4.384  1.00  0.00     0.021 C 
BRANCH  30  31
ATOM     31  C   UNL     1       8.004   1.032  -3.865  1.00  0.00     0.116 C 
BRANCH  31  32
ATOM     32  N   UNL     1       8.860   0.407  -4.845  1.00  0.00    -0.352 N 
ATOM     33  C   UNL     1      10.098   0.642  -5.356  1.00  0.00     0.251 C 
ATOM     34  H   UNL     1       8.442  -0.390  -5.245  1.00  0.00     0.163 HD
ATOM     35  O   UNL     1      10.422  -0.058  -6.319  1.00  0.00    -0.269 OA
BRANCH  33  36
ATOM     36  C   UNL     1      11.032   1.696  -4.897  1.00  0.00     0.039 A 
ATOM     37  C   UNL     1      10.863   2.514  -3.780  1.00  0.00     0.014 A 
ATOM     38  C   UNL     1      12.171   1.874  -5.705  1.00  0.00     0.014 A 
ATOM     39  C   UNL     1      11.702   3.604  -3.593  1.00  0.00     0.010 A 
ATOM     40  C   UNL     1      13.050   2.914  -5.480  1.00  0.00     0.010 A 
ATOM     41  C   UNL     1      12.754   3.833  -4.487  1.00  0.00    -0.014 A 
BRANCH  41  42
ATOM     42  C   UNL     1      13.617   4.985  -4.281  1.00  0.00     0.031 A 
ATOM     43  C   UNL     1      14.242   5.005  -2.931  1.00  0.00     0.074 A 
ATOM     44  C   UNL     1      13.879   5.884  -5.254  1.00  0.00     0.049 A 
ATOM     45  N   UNL     1      14.038   5.864  -1.988  1.00  0.00    -0.248 NA
ATOM     46  C   UNL     1      15.032   3.834  -2.510  1.00  0.00     0.031 C 
ATOM     47  C   UNL     1      13.477   5.858  -6.664  1.00  0.00     0.029 A 
ATOM     48  N   UNL     1      14.639   7.014  -5.187  1.00  0.00    -0.354 N 
ATOM     49  C   UNL     1      14.827   5.453  -0.919  1.00  0.00     0.074 A 
ATOM     50  C   UNL     1      15.285   4.125  -1.232  1.00  0.00     0.031 C 
ATOM     51  C   UNL     1      14.188   6.777  -7.360  1.00  0.00     0.029 A 
ATOM     52  C   UNL     1      14.974   7.560  -6.428  1.00  0.00     0.049 A 
ATOM     53  H   UNL     1      14.927   7.413  -4.334  1.00  0.00     0.167 HD
ATOM     54  C   UNL     1      15.235   6.344   0.025  1.00  0.00     0.037 A 
ATOM     55  C   UNL     1      15.875   8.557  -6.642  1.00  0.00     0.037 A 
ATOM     56  C   UNL     1      14.406   7.520   0.021  1.00  0.00     0.049 A 
ATOM     57  C   UNL     1      16.009   9.291  -5.355  1.00  0.00     0.074 A 
ATOM     58  C   UNL     1      13.076   7.769   0.294  1.00  0.00     0.029 A 
ATOM     59  N   UNL     1      14.851   8.605  -0.693  1.00  0.00    -0.354 N 
ATOM     60  N   UNL     1      15.037   9.985  -4.828  1.00  0.00    -0.248 NA
ATOM     61  C   UNL     1      17.025   8.816  -4.427  1.00  0.00     0.031 C 
ATOM     62  C   UNL     1      12.675   8.735  -0.676  1.00  0.00     0.029 A 
ATOM     63  C   UNL     1      13.796   9.084  -1.427  1.00  0.00     0.049 A 
ATOM     64  H   UNL     1      15.764   8.974  -0.680  1.00  0.00     0.167 HD
ATOM     65  C   UNL     1      15.076   9.668  -3.479  1.00  0.00     0.074 A 
ATOM     66  C   UNL     1      16.345   8.965  -3.287  1.00  0.00     0.031 C 
ATOM     67  C   UNL     1      13.953   9.732  -2.707  1.00  0.00     0.037 A 
BRANCH  54  68
ATOM     68  C   UNL     1      16.606   6.328   0.648  1.00  0.00     0.064 A 
ATOM     69  C   UNL     1      16.892   7.207   1.710  1.00  0.00     0.173 A 
ATOM     70  C   UNL     1      17.727   5.721   0.039  1.00  0.00     0.173 A 
ATOM     71  F   UNL     1      15.903   7.859   2.341  1.00  0.00    -0.203 F 
ATOM     72  C   UNL     1      18.204   7.507   2.085  1.00  0.00     0.198 A 
ATOM     73  C   UNL     1      19.031   5.985   0.447  1.00  0.00     0.198 A 
ATOM     74  F   UNL     1      17.616   4.946  -1.046  1.00  0.00    -0.203 F 
ATOM     75  F   UNL     1      18.433   8.441   3.017  1.00  0.00    -0.200 F 
ATOM     76  C   UNL     1      19.273   6.900   1.449  1.00  0.00     0.200 A 
ATOM     77  F   UNL     1      20.053   5.407  -0.200  1.00  0.00    -0.200 F 
ATOM     78  F   UNL     1      20.531   7.231   1.764  1.00  0.00    -0.200 F 
ENDBRANCH  54  68
BRANCH  55  79
ATOM     79  C   UNL     1      16.934   8.617  -7.687  1.00  0.00     0.064 A 
ATOM     80  C   UNL     1      17.667   9.796  -7.912  1.00  0.00     0.173 A 
ATOM     81  C   UNL     1      17.457   7.443  -8.263  1.00  0.00     0.173 A 
ATOM     82  F   UNL     1      17.269  10.952  -7.359  1.00  0.00    -0.203 F 
ATOM     83  C   UNL     1      18.865   9.794  -8.640  1.00  0.00     0.198 A 
ATOM     84  C   UNL     1      18.652   7.442  -8.989  1.00  0.00     0.198 A 
ATOM     85  F   UNL     1      16.875   6.255  -8.049  1.00  0.00    -0.203 F 
ATOM     86  F   UNL     1      19.568  10.928  -8.778  1.00  0.00    -0.200 F 
ATOM     87  C   UNL     1      19.363   8.614  -9.166  1.00  0.00     0.200 A 
ATOM     88  F   UNL     1      19.143   6.286  -9.457  1.00  0.00    -0.200 F 
ATOM     89  F   UNL     1      20.542   8.597  -9.802  1.00  0.00    -0.200 F 
ENDBRANCH  55  79
BRANCH  67  90
ATOM     90  C   UNL     1      12.720  10.352  -3.305  1.00  0.00     0.064 A 
ATOM     91  C   UNL     1      11.998   9.799  -4.378  1.00  0.00     0.173 A 
ATOM     92  C   UNL     1      12.158  11.455  -2.652  1.00  0.00     0.173 A 
ATOM     93  F   UNL     1      12.423   8.690  -4.996  1.00  0.00    -0.203 F 
ATOM     94  C   UNL     1      10.782  10.346  -4.790  1.00  0.00     0.198 A 
ATOM     95  C   UNL     1      10.929  11.979  -3.043  1.00  0.00     0.198 A 
ATOM     96  F   UNL     1      12.777  11.990  -1.589  1.00  0.00    -0.203 F 
ATOM     97  F   UNL     1      10.107   9.799  -5.813  1.00  0.00    -0.200 F 
ATOM     98  C   UNL     1      10.244  11.430  -4.115  1.00  0.00     0.200 A 
ATOM     99  F   UNL     1      10.391  12.994  -2.354  1.00  0.00    -0.200 F 
ATOM    100  F   UNL     1       9.053  11.927  -4.477  1.00  0.00    -0.200 F 
ENDBRANCH  67  90
ENDBRANCH  41  42
ENDBRANCH  33  36
ENDBRANCH  31  32
ENDBRANCH  30  31
ENDBRANCH  29  30
ENDBRANCH  28  29
ENDBRANCH   1  28
TORSDOF 19
