REMARK SMILES Nc1ccc(C(=O)N2Cc3nc[nH]c3C[C@H]2C(=O)NCCCCCCNC(=O)c2ccc(-c3c4nc(c(-c5c(F)c(F)c(F)c(F)c5F)c5ccc([nH]5)c(-c5c(F)c(F)c(F)c(F)c5F)c5nc(c(-c6c(F)c(F)c(F)c(F)c6F)c6ccc3[nH]6)C=C5)C=C4)cc2)cc1
REMARK SMILES IDX 22 1 21 2 20 3 19 4 17 5 18 6 16 8 8 9 9 10 10 11 15 12
REMARK SMILES IDX 11 13 14 14 12 15 13 16 6 18 7 19 5 20 2 21 3 22 93 23 4 24
REMARK SMILES IDX 92 25 1 26 23 29 24 30 25 31 26 32 27 33 28 35 29 36 30 37
REMARK SMILES IDX 91 38 31 39 90 40 32 41 33 42 34 43 84 44 35 45 89 46 83 47
REMARK SMILES IDX 85 48 36 49 88 50 82 51 81 52 37 54 69 55 49 56 68 57 50 58
REMARK SMILES IDX 53 59 67 60 86 61 51 62 52 63 66 65 87 66 54 67 38 68 39 69
REMARK SMILES IDX 47 70 40 71 41 72 45 73 48 74 42 75 43 76 46 77 44 78 70 79
REMARK SMILES IDX 71 80 79 81 72 82 73 83 77 84 80 85 74 86 75 87 78 88 76 89
REMARK SMILES IDX 55 90 56 91 64 92 57 93 58 94 62 95 65 96 59 97 60 98 63 99
REMARK SMILES IDX 61 100
REMARK H PARENT 19 7 13 17 1 27 1 28 26 34 85 53 53 64
REMARK Flexibility Score: inf
ROOT
ATOM      1  C   UNL     1      -4.324   6.136   2.491  1.00  0.00     0.002 C 
ENDROOT
BRANCH   1   2
ATOM      2  C   UNL     1      -4.508   4.716   1.957  1.00  0.00     0.021 C 
BRANCH   2   3
ATOM      3  C   UNL     1      -4.521   4.624   0.440  1.00  0.00     0.116 C 
BRANCH   3   4
ATOM      4  N   UNL     1      -3.258   4.302  -0.168  1.00  0.00    -0.354 N 
ATOM      5  C   UNL     1      -2.968   3.328  -1.076  1.00  0.00     0.243 C 
ATOM      6  O   UNL     1      -2.001   3.561  -1.814  1.00  0.00    -0.273 OA
ATOM      7  H   UNL     1      -2.498   4.862   0.111  1.00  0.00     0.163 HD
BRANCH   5   8
ATOM      8  C   UNL     1      -3.797   2.022  -1.291  1.00  0.00     0.181 C 
ATOM      9  N   UNL     1      -4.095   1.129  -0.113  1.00  0.00    -0.320 N 
ATOM     10  C   UNL     1      -5.379   1.225   0.618  1.00  0.00     0.178 C 
ATOM     11  C   UNL     1      -6.423   1.948  -0.153  1.00  0.00     0.081 A 
ATOM     12  C   UNL     1      -5.018   2.277  -2.231  1.00  0.00     0.091 C 
ATOM     13  N   UNL     1      -7.551   2.492   0.412  1.00  0.00    -0.240 NA
ATOM     14  C   UNL     1      -6.253   2.430  -1.430  1.00  0.00     0.042 A 
ATOM     15  C   UNL     1      -8.073   3.256  -0.524  1.00  0.00     0.197 A 
ATOM     16  N   UNL     1      -7.337   3.222  -1.680  1.00  0.00    -0.348 N 
ATOM     17  H   UNL     1      -7.548   3.679  -2.526  1.00  0.00     0.167 HD
BRANCH   9  18
ATOM     18  C   UNL     1      -3.286   0.054   0.284  1.00  0.00     0.254 C 
ATOM     19  O   UNL     1      -3.748  -0.916   0.888  1.00  0.00    -0.269 OA
BRANCH  18  20
ATOM     20  C   UNL     1      -1.815   0.050   0.066  1.00  0.00     0.040 A 
ATOM     21  C   UNL     1       1.005  -0.077  -0.034  1.00  0.00     0.031 A 
ATOM     22  C   UNL     1       0.237  -1.236  -0.159  1.00  0.00     0.026 A 
ATOM     23  C   UNL     1       0.351   1.133   0.197  1.00  0.00     0.026 A 
ATOM     24  C   UNL     1      -1.163  -1.174  -0.127  1.00  0.00     0.016 A 
ATOM     25  C   UNL     1      -1.044   1.193   0.273  1.00  0.00     0.016 A 
BRANCH  21  26
ATOM     26  N   UNL     1       2.387  -0.145   0.023  1.00  0.00    -0.399 N 
ATOM     27  H   UNL     1       2.845  -1.001  -0.140  1.00  0.00     0.156 HD
ATOM     28  H   UNL     1       2.912   0.663   0.228  1.00  0.00     0.156 HD
ENDBRANCH  21  26
ENDBRANCH  18  20
ENDBRANCH   9  18
ENDBRANCH   5   8
ENDBRANCH   3   4
ENDBRANCH   2   3
ENDBRANCH   1   2
BRANCH   1  29
ATOM     29  C   UNL     1      -5.291   7.197   1.935  1.00  0.00     0.002 C 
BRANCH  29  30
ATOM     30  C   UNL     1      -6.793   6.883   2.022  1.00  0.00     0.021 C 
BRANCH  30  31
ATOM     31  C   UNL     1      -7.314   6.791   3.447  1.00  0.00     0.116 C 
BRANCH  31  32
ATOM     32  N   UNL     1      -7.137   8.045   4.180  1.00  0.00    -0.352 N 
ATOM     33  C   UNL     1      -7.449   8.340   5.493  1.00  0.00     0.251 C 
ATOM     34  H   UNL     1      -6.740   8.784   3.664  1.00  0.00     0.163 HD
ATOM     35  O   UNL     1      -7.558   9.493   5.872  1.00  0.00    -0.269 OA
BRANCH  33  36
ATOM     36  C   UNL     1      -7.636   7.227   6.438  1.00  0.00     0.039 A 
ATOM     37  C   UNL     1      -8.624   7.268   7.427  1.00  0.00     0.014 A 
ATOM     38  C   UNL     1      -6.802   6.122   6.309  1.00  0.00     0.014 A 
ATOM     39  C   UNL     1      -8.802   6.152   8.239  1.00  0.00     0.010 A 
ATOM     40  C   UNL     1      -7.099   4.966   6.974  1.00  0.00     0.010 A 
ATOM     41  C   UNL     1      -8.040   5.000   7.994  1.00  0.00    -0.014 A 
BRANCH  41  42
ATOM     42  C   UNL     1      -8.293   3.755   8.704  1.00  0.00     0.031 A 
ATOM     43  C   UNL     1      -9.685   3.252   8.546  1.00  0.00     0.074 A 
ATOM     44  C   UNL     1      -7.288   3.010   9.218  1.00  0.00     0.049 A 
ATOM     45  N   UNL     1     -10.573   3.082   9.468  1.00  0.00    -0.248 NA
ATOM     46  C   UNL     1     -10.207   3.058   7.180  1.00  0.00     0.031 C 
ATOM     47  C   UNL     1      -5.842   3.252   9.134  1.00  0.00     0.029 A 
ATOM     48  N   UNL     1      -7.341   1.792   9.822  1.00  0.00    -0.354 N 
ATOM     49  C   UNL     1     -11.691   2.553   8.828  1.00  0.00     0.074 A 
ATOM     50  C   UNL     1     -11.484   2.756   7.420  1.00  0.00     0.031 C 
ATOM     51  C   UNL     1      -5.171   2.116   9.428  1.00  0.00     0.029 A 
ATOM     52  C   UNL     1      -6.121   1.119   9.878  1.00  0.00     0.049 A 
ATOM     53  H   UNL     1      -8.174   1.417  10.189  1.00  0.00     0.167 HD
ATOM     54  C   UNL     1     -12.552   1.740   9.502  1.00  0.00     0.037 A 
ATOM     55  C   UNL     1      -5.944  -0.185  10.215  1.00  0.00     0.037 A 
ATOM     56  C   UNL     1     -12.398   1.902  10.929  1.00  0.00     0.049 A 
ATOM     57  C   UNL     1      -7.176  -0.619  10.928  1.00  0.00     0.074 A 
ATOM     58  C   UNL     1     -12.475   2.981  11.791  1.00  0.00     0.029 A 
ATOM     59  N   UNL     1     -11.714   0.932  11.622  1.00  0.00    -0.354 N 
ATOM     60  N   UNL     1      -7.525  -0.173  12.104  1.00  0.00    -0.248 NA
ATOM     61  C   UNL     1      -8.256  -1.155  10.112  1.00  0.00     0.031 C 
ATOM     62  C   UNL     1     -11.397   2.794  12.708  1.00  0.00     0.029 A 
ATOM     63  C   UNL     1     -10.796   1.571  12.415  1.00  0.00     0.049 A 
ATOM     64  H   UNL     1     -11.857  -0.040  11.560  1.00  0.00     0.167 HD
ATOM     65  C   UNL     1      -8.891   0.043  12.002  1.00  0.00     0.074 A 
ATOM     66  C   UNL     1      -9.295  -0.631  10.768  1.00  0.00     0.031 C 
ATOM     67  C   UNL     1      -9.514   1.001  12.749  1.00  0.00     0.037 A 
BRANCH  54  68
ATOM     68  C   UNL     1     -13.216   0.521   8.897  1.00  0.00     0.064 A 
ATOM     69  C   UNL     1     -14.131  -0.210   9.681  1.00  0.00     0.173 A 
ATOM     70  C   UNL     1     -12.770  -0.132   7.726  1.00  0.00     0.173 A 
ATOM     71  F   UNL     1     -14.617   0.303  10.821  1.00  0.00    -0.203 F 
ATOM     72  C   UNL     1     -14.486  -1.526   9.371  1.00  0.00     0.198 A 
ATOM     73  C   UNL     1     -13.170  -1.425   7.391  1.00  0.00     0.198 A 
ATOM     74  F   UNL     1     -11.848   0.394   6.913  1.00  0.00    -0.203 F 
ATOM     75  F   UNL     1     -15.245  -2.227  10.224  1.00  0.00    -0.200 F 
ATOM     76  C   UNL     1     -13.997  -2.136   8.232  1.00  0.00     0.200 A 
ATOM     77  F   UNL     1     -12.671  -2.002   6.288  1.00  0.00    -0.200 F 
ATOM     78  F   UNL     1     -14.280  -3.417   7.968  1.00  0.00    -0.200 F 
ENDBRANCH  54  68
BRANCH  55  79
ATOM     79  C   UNL     1      -4.974  -1.170   9.669  1.00  0.00     0.064 A 
ATOM     80  C   UNL     1      -4.800  -2.422  10.288  1.00  0.00     0.173 A 
ATOM     81  C   UNL     1      -4.429  -1.036   8.378  1.00  0.00     0.173 A 
ATOM     82  F   UNL     1      -5.316  -2.650  11.505  1.00  0.00    -0.203 F 
ATOM     83  C   UNL     1      -4.165  -3.485   9.636  1.00  0.00     0.198 A 
ATOM     84  C   UNL     1      -3.789  -2.096   7.731  1.00  0.00     0.198 A 
ATOM     85  F   UNL     1      -4.591   0.094   7.675  1.00  0.00    -0.203 F 
ATOM     86  F   UNL     1      -4.086  -4.684  10.232  1.00  0.00    -0.200 F 
ATOM     87  C   UNL     1      -3.674  -3.326   8.352  1.00  0.00     0.200 A 
ATOM     88  F   UNL     1      -3.344  -1.937   6.477  1.00  0.00    -0.200 F 
ATOM     89  F   UNL     1      -3.128  -4.363   7.701  1.00  0.00    -0.200 F 
ENDBRANCH  55  79
BRANCH  67  90
ATOM     90  C   UNL     1      -8.742   1.652  13.864  1.00  0.00     0.064 A 
ATOM     91  C   UNL     1      -7.546   2.374  13.693  1.00  0.00     0.173 A 
ATOM     92  C   UNL     1      -9.312   1.653  15.144  1.00  0.00     0.173 A 
ATOM     93  F   UNL     1      -6.991   2.518  12.484  1.00  0.00    -0.203 F 
ATOM     94  C   UNL     1      -6.929   3.017  14.767  1.00  0.00     0.198 A 
ATOM     95  C   UNL     1      -8.716   2.328  16.204  1.00  0.00     0.198 A 
ATOM     96  F   UNL     1     -10.481   1.028  15.358  1.00  0.00    -0.203 F 
ATOM     97  F   UNL     1      -5.779   3.682  14.581  1.00  0.00    -0.200 F 
ATOM     98  C   UNL     1      -7.518   2.997  16.019  1.00  0.00     0.200 A 
ATOM     99  F   UNL     1      -9.318   2.349  17.401  1.00  0.00    -0.200 F 
ATOM    100  F   UNL     1      -6.944   3.644  17.044  1.00  0.00    -0.200 F 
ENDBRANCH  67  90
ENDBRANCH  41  42
ENDBRANCH  33  36
ENDBRANCH  31  32
ENDBRANCH  30  31
ENDBRANCH  29  30
ENDBRANCH   1  29
TORSDOF 16
