REMARK SMILES O=C(NCCCCCCNC(=O)c1cc(Cl)cc(Cl)c1NC(=S)NC(=O)c1cccc2ccccc12)c1ccc(-c2c3nc(c(-c4c(F)c(F)c(F)c(F)c4F)c4ccc([nH]4)c(-c4c(F)c(F)c(F)c(F)c4F)c4nc(c(-c5c(F)c(F)c(F)c(F)c5F)c5ccc2[nH]5)C=C4)C=C3)cc1
REMARK SMILES IDX 7 1 6 2 5 3 4 4 3 5 1 6 2 7 37 9 38 10 99 11 39 12 98 13
REMARK SMILES IDX 40 14 41 15 42 16 92 17 43 18 97 19 91 20 93 21 44 22 96 23
REMARK SMILES IDX 90 24 89 25 45 27 77 28 57 29 76 30 58 31 61 32 75 33 94 34
REMARK SMILES IDX 59 35 60 36 74 38 95 39 62 40 46 41 47 42 55 43 48 44 49 45
REMARK SMILES IDX 53 46 56 47 50 48 51 49 54 50 52 51 78 52 79 53 87 54 80 55
REMARK SMILES IDX 81 56 85 57 88 58 82 59 83 60 86 61 84 62 63 63 64 64 72 65
REMARK SMILES IDX 65 66 66 67 70 68 73 69 67 70 68 71 71 72 69 73 8 74 9 75
REMARK SMILES IDX 10 76 11 77 12 79 13 80 14 81 20 82 15 83 18 84 16 85 17 86
REMARK SMILES IDX 19 87 21 88 22 90 23 91 24 92 25 93 26 95 27 96 28 97 36 98
REMARK SMILES IDX 29 99 31 100 35 101 30 102 32 103 34 104 33 105
REMARK H PARENT 3 8 93 26 61 37 10 78 21 89 24 94
REMARK Flexibility Score: inf
ROOT
ATOM      1  C   UNL     1       4.607  -3.264  -2.977  1.00  0.00     0.002 C 
ENDROOT
BRANCH   1   2
ATOM      2  C   UNL     1       3.974  -3.718  -1.657  1.00  0.00     0.002 C 
BRANCH   2   3
ATOM      3  C   UNL     1       4.400  -2.980  -0.382  1.00  0.00     0.021 C 
BRANCH   3   4
ATOM      4  C   UNL     1       4.298  -1.457  -0.404  1.00  0.00     0.116 C 
BRANCH   4   5
ATOM      5  N   UNL     1       2.940  -0.965  -0.549  1.00  0.00    -0.352 N 
ATOM      6  O   UNL     1       1.143   0.335  -0.162  1.00  0.00    -0.269 OA
ATOM      7  C   UNL     1       2.337   0.126   0.034  1.00  0.00     0.251 C 
ATOM      8  H   UNL     1       2.366  -1.490  -1.153  1.00  0.00     0.163 HD
BRANCH   7   9
ATOM      9  C   UNL     1       3.096   1.032   0.933  1.00  0.00     0.039 A 
ATOM     10  C   UNL     1       4.388   1.474   0.629  1.00  0.00     0.014 A 
ATOM     11  C   UNL     1       2.470   1.478   2.105  1.00  0.00     0.014 A 
ATOM     12  C   UNL     1       5.091   2.258   1.546  1.00  0.00     0.010 A 
ATOM     13  C   UNL     1       3.158   2.301   3.004  1.00  0.00     0.010 A 
ATOM     14  C   UNL     1       4.487   2.665   2.748  1.00  0.00    -0.014 A 
BRANCH  14  15
ATOM     15  C   UNL     1       5.268   3.463   3.726  1.00  0.00     0.031 A 
ATOM     16  C   UNL     1       5.787   2.831   4.987  1.00  0.00     0.074 A 
ATOM     17  C   UNL     1       5.549   4.752   3.461  1.00  0.00     0.049 A 
ATOM     18  N   UNL     1       6.567   3.344   5.906  1.00  0.00    -0.248 NA
ATOM     19  C   UNL     1       5.377   1.444   5.253  1.00  0.00     0.031 C 
ATOM     20  C   UNL     1       5.085   5.493   2.289  1.00  0.00     0.029 A 
ATOM     21  N   UNL     1       6.315   5.657   4.151  1.00  0.00    -0.354 N 
ATOM     22  C   UNL     1       6.723   2.356   6.866  1.00  0.00     0.074 A 
ATOM     23  C   UNL     1       5.955   1.210   6.423  1.00  0.00     0.031 C 
ATOM     24  C   UNL     1       5.612   6.728   2.317  1.00  0.00     0.029 A 
ATOM     25  C   UNL     1       6.444   6.863   3.511  1.00  0.00     0.049 A 
ATOM     26  H   UNL     1       6.732   5.460   5.021  1.00  0.00     0.167 HD
ATOM     27  C   UNL     1       7.442   2.395   8.013  1.00  0.00     0.037 A 
ATOM     28  C   UNL     1       7.171   7.947   3.836  1.00  0.00     0.037 A 
ATOM     29  C   UNL     1       8.234   3.511   8.451  1.00  0.00     0.049 A 
ATOM     30  C   UNL     1       8.012   7.944   5.078  1.00  0.00     0.074 A 
ATOM     31  C   UNL     1       9.017   3.624   9.588  1.00  0.00     0.029 A 
ATOM     32  N   UNL     1       8.348   4.710   7.767  1.00  0.00    -0.354 N 
ATOM     33  N   UNL     1       8.175   6.990   5.960  1.00  0.00    -0.248 NA
ATOM     34  C   UNL     1       8.773   9.168   5.366  1.00  0.00     0.031 C 
ATOM     35  C   UNL     1       9.604   4.895   9.592  1.00  0.00     0.029 A 
ATOM     36  C   UNL     1       9.190   5.568   8.455  1.00  0.00     0.049 A 
ATOM     37  H   UNL     1       7.898   4.920   6.917  1.00  0.00     0.167 HD
ATOM     38  C   UNL     1       9.057   7.494   6.904  1.00  0.00     0.074 A 
ATOM     39  C   UNL     1       9.405   8.835   6.484  1.00  0.00     0.031 C 
ATOM     40  C   UNL     1       9.532   6.895   8.021  1.00  0.00     0.037 A 
BRANCH  27  41
ATOM     41  C   UNL     1       7.403   1.181   8.884  1.00  0.00     0.064 A 
ATOM     42  C   UNL     1       8.255   0.092   8.647  1.00  0.00     0.173 A 
ATOM     43  C   UNL     1       6.531   1.122   9.982  1.00  0.00     0.173 A 
ATOM     44  F   UNL     1       9.093   0.104   7.598  1.00  0.00    -0.203 F 
ATOM     45  C   UNL     1       8.231  -1.022   9.481  1.00  0.00     0.198 A 
ATOM     46  C   UNL     1       6.514   0.009  10.818  1.00  0.00     0.198 A 
ATOM     47  F   UNL     1       5.696   2.141  10.241  1.00  0.00    -0.203 F 
ATOM     48  F   UNL     1       9.040  -2.062   9.229  1.00  0.00    -0.200 F 
ATOM     49  C   UNL     1       7.364  -1.061  10.566  1.00  0.00     0.200 A 
ATOM     50  F   UNL     1       5.675  -0.030  11.863  1.00  0.00    -0.200 F 
ATOM     51  F   UNL     1       7.340  -2.136  11.366  1.00  0.00    -0.200 F 
ENDBRANCH  27  41
BRANCH  28  52
ATOM     52  C   UNL     1       7.176   9.116   2.927  1.00  0.00     0.064 A 
ATOM     53  C   UNL     1       8.210   9.283   1.994  1.00  0.00     0.173 A 
ATOM     54  C   UNL     1       6.144  10.065   2.961  1.00  0.00     0.173 A 
ATOM     55  F   UNL     1       9.221   8.402   1.945  1.00  0.00    -0.203 F 
ATOM     56  C   UNL     1       8.211  10.366   1.121  1.00  0.00     0.198 A 
ATOM     57  C   UNL     1       6.144  11.145   2.082  1.00  0.00     0.198 A 
ATOM     58  F   UNL     1       5.141   9.939   3.843  1.00  0.00    -0.203 F 
ATOM     59  F   UNL     1       9.215  10.514   0.243  1.00  0.00    -0.200 F 
ATOM     60  C   UNL     1       7.177  11.294   1.164  1.00  0.00     0.200 A 
ATOM     61  F   UNL     1       5.146  12.040   2.125  1.00  0.00    -0.200 F 
ATOM     62  F   UNL     1       7.179  12.337   0.322  1.00  0.00    -0.200 F 
ENDBRANCH  28  52
BRANCH  40  63
ATOM     63  C   UNL     1      10.482   7.683   8.865  1.00  0.00     0.064 A 
ATOM     64  C   UNL     1      10.009   8.588   9.826  1.00  0.00     0.173 A 
ATOM     65  C   UNL     1      11.867   7.504   8.737  1.00  0.00     0.173 A 
ATOM     66  F   UNL     1       8.691   8.796   9.970  1.00  0.00    -0.203 F 
ATOM     67  C   UNL     1      10.896   9.296  10.633  1.00  0.00     0.198 A 
ATOM     68  C   UNL     1      12.751   8.209   9.549  1.00  0.00     0.198 A 
ATOM     69  F   UNL     1      12.360   6.651   7.826  1.00  0.00    -0.203 F 
ATOM     70  F   UNL     1      10.427  10.168  11.536  1.00  0.00    -0.200 F 
ATOM     71  C   UNL     1      12.264   9.103  10.495  1.00  0.00     0.200 A 
ATOM     72  F   UNL     1      14.072   8.027   9.414  1.00  0.00    -0.200 F 
ATOM     73  F   UNL     1      13.117   9.787  11.271  1.00  0.00    -0.200 F 
ENDBRANCH  40  63
ENDBRANCH  14  15
ENDBRANCH   7   9
ENDBRANCH   4   5
ENDBRANCH   3   4
ENDBRANCH   2   3
ENDBRANCH   1   2
BRANCH   1  74
ATOM     74  C   UNL     1       6.134  -3.127  -3.012  1.00  0.00     0.021 C 
BRANCH  74  75
ATOM     75  C   UNL     1       6.936  -4.322  -2.506  1.00  0.00     0.116 C 
BRANCH  75  76
ATOM     76  N   UNL     1       6.767  -5.513  -3.311  1.00  0.00    -0.352 N 
ATOM     77  C   UNL     1       7.642  -6.447  -3.830  1.00  0.00     0.253 C 
ATOM     78  H   UNL     1       5.827  -5.696  -3.537  1.00  0.00     0.163 HD
ATOM     79  O   UNL     1       7.123  -7.372  -4.467  1.00  0.00    -0.269 OA
BRANCH  77  80
ATOM     80  C   UNL     1       9.412  -6.252  -3.811  1.00  0.00     0.066 A 
ATOM     81  C   UNL     1      10.795  -7.117  -2.564  1.00  0.00     0.036 A 
ATOM     82  C   UNL     1       9.323  -5.585  -4.916  1.00  0.00     0.072 A 
ATOM     83  C   UNL     1      12.029  -7.418  -2.340  1.00  0.00     0.043 A 
ATOM     84  C   UNL     1      10.159  -5.410  -3.952  1.00  0.00     0.066 A 
ATOM     85  Cl  UNL     1      12.835  -7.863  -0.928  1.00  0.00    -0.084 Cl
ATOM     86  C   UNL     1      11.486  -6.308  -2.680  1.00  0.00     0.043 A 
ATOM     87  Cl  UNL     1       9.838  -3.325  -4.266  1.00  0.00    -0.082 Cl
BRANCH  82  88
ATOM     88  N   UNL     1       9.277  -6.187  -6.189  1.00  0.00    -0.330 N 
ATOM     89  H   UNL     1       8.362  -6.453  -6.436  1.00  0.00     0.169 HD
BRANCH  88  90
ATOM     90  C   UNL     1      10.169  -6.494  -7.157  1.00  0.00     0.177 C 
ATOM     91  S   UNL     1       9.557  -6.894  -8.666  1.00  0.00    -0.040 S 
BRANCH  90  92
ATOM     92  N   UNL     1      11.523  -6.496  -7.017  1.00  0.00    -0.299 N 
ATOM     93  C   UNL     1      12.380  -6.364  -5.948  1.00  0.00     0.258 C 
ATOM     94  H   UNL     1      11.995  -6.620  -7.872  1.00  0.00     0.172 HD
ATOM     95  O   UNL     1      13.581  -6.168  -6.048  1.00  0.00    -0.269 OA
BRANCH  93  96
ATOM     96  C   UNL     1      11.735  -6.418  -4.652  1.00  0.00     0.048 A 
ATOM     97  C   UNL     1      10.472  -7.888  -4.342  1.00  0.00     0.014 A 
ATOM     98  C   UNL     1      11.878  -4.749  -3.582  1.00  0.00    -0.006 A 
ATOM     99  C   UNL     1       9.148  -7.866  -2.881  1.00  0.00     0.001 A 
ATOM    100  C   UNL     1      10.528  -4.708  -2.111  1.00  0.00    -0.018 A 
ATOM    101  C   UNL     1      12.784  -3.672  -3.612  1.00  0.00     0.009 A 
ATOM    102  C   UNL     1       9.251  -6.180  -1.817  1.00  0.00     0.009 A 
ATOM    103  C   UNL     1      10.682  -3.601  -1.275  1.00  0.00     0.009 A 
ATOM    104  C   UNL     1      12.686  -2.693  -2.601  1.00  0.00     0.001 A 
ATOM    105  C   UNL     1      11.719  -2.663  -1.527  1.00  0.00     0.001 A 
ENDBRANCH  93  96
ENDBRANCH  90  92
ENDBRANCH  88  90
ENDBRANCH  82  88
ENDBRANCH  77  80
ENDBRANCH  75  76
ENDBRANCH  74  75
ENDBRANCH   1  74
TORSDOF 17
