REMARK SMILES CN(CC(=O)NCCCCCCNC(=O)c1ccc(-c2c3nc(c(-c4c(F)c(F)c(F)c(F)c4F)c4ccc([nH]4)c(-c4c(F)c(F)c(F)c(F)c4F)c4nc(c(-c5c(F)c(F)c(F)c(F)c5F)c5ccc2[nH]5)C=C4)C=C3)cc1)c1ncc(-c2nnnn2-c2ccccc2)c(-c2ccc(Cl)cc2)n1
REMARK SMILES IDX 8 1 7 2 6 3 4 4 5 5 3 7 2 8 1 9 79 10 80 11 102 12 81 13
REMARK SMILES IDX 94 14 82 15 95 16 96 17 101 18 97 19 100 20 98 21 99 22
REMARK SMILES IDX 83 23 84 24 87 25 85 26 86 27 88 28 89 29 93 30 90 31 92 32
REMARK SMILES IDX 91 33 9 34 10 35 11 36 12 37 13 38 14 39 15 41 16 42 17 43
REMARK SMILES IDX 78 44 18 45 77 46 19 47 20 48 21 49 71 50 22 51 76 52 70 53
REMARK SMILES IDX 72 54 23 55 75 56 69 57 68 58 24 60 56 61 36 62 55 63 37 64
REMARK SMILES IDX 40 65 54 66 73 67 38 68 39 69 53 71 74 72 41 73 25 74 26 75
REMARK SMILES IDX 34 76 27 77 28 78 32 79 35 80 29 81 30 82 33 83 31 84 57 85
REMARK SMILES IDX 58 86 66 87 59 88 60 89 64 90 67 91 61 92 62 93 65 94 63 95
REMARK SMILES IDX 42 96 43 97 51 98 44 99 45 100 49 101 52 102 46 103 47 104
REMARK SMILES IDX 50 105 48 106
REMARK H PARENT 6 6 13 40 72 59 40 70
REMARK Flexibility Score: inf
ROOT
ATOM      1  C   UNL     1      -2.017  -1.649   0.555  1.00  0.00     0.021 C 
ENDROOT
BRANCH   1   2
ATOM      2  C   UNL     1      -2.058  -0.189   0.108  1.00  0.00     0.116 C 
BRANCH   2   3
ATOM      3  N   UNL     1      -2.343   0.695   1.216  1.00  0.00    -0.355 N 
ATOM      4  C   UNL     1      -1.486   1.518   1.893  1.00  0.00     0.239 C 
ATOM      5  O   UNL     1      -1.943   2.181   2.829  1.00  0.00    -0.273 OA
ATOM      6  H   UNL     1      -3.278   0.706   1.524  1.00  0.00     0.163 HD
BRANCH   4   7
ATOM      7  C   UNL     1      -0.046   1.711   1.397  1.00  0.00     0.219 C 
BRANCH   7   8
ATOM      8  N   UNL     1       0.765   0.493   1.324  1.00  0.00    -0.335 N 
ATOM      9  C   UNL     1       1.590   0.234   0.166  1.00  0.00     0.147 C 
BRANCH   8  10
ATOM     10  C   UNL     1       1.123  -0.107   2.510  1.00  0.00     0.226 A 
ATOM     11  N   UNL     1       0.181  -0.265   3.441  1.00  0.00    -0.221 NA
ATOM     12  N   UNL     1       2.376  -0.566   2.669  1.00  0.00    -0.212 NA
ATOM     13  C   UNL     1       0.500  -0.982   4.530  1.00  0.00     0.129 A 
ATOM     14  C   UNL     1       2.697  -1.233   3.809  1.00  0.00     0.087 A 
ATOM     15  C   UNL     1       1.743  -1.537   4.761  1.00  0.00     0.066 A 
BRANCH  14  16
ATOM     16  C   UNL     1       4.130  -1.565   3.924  1.00  0.00     0.001 A 
ATOM     17  C   UNL     1       5.087  -0.532   3.912  1.00  0.00     0.012 A 
ATOM     18  C   UNL     1       4.598  -2.885   4.042  1.00  0.00     0.012 A 
ATOM     19  C   UNL     1       6.454  -0.804   4.026  1.00  0.00     0.021 A 
ATOM     20  C   UNL     1       5.966  -3.162   4.153  1.00  0.00     0.021 A 
ATOM     21  C   UNL     1       6.888  -2.120   4.146  1.00  0.00     0.041 A 
ATOM     22  Cl  UNL     1       8.567  -2.464   4.279  1.00  0.00    -0.084 Cl
ENDBRANCH  14  16
BRANCH  15  23
ATOM     23  C   UNL     1       1.943  -2.379   5.924  1.00  0.00     0.190 A 
ATOM     24  N   UNL     1       2.629  -2.081   7.008  1.00  0.00    -0.108 NA
ATOM     25  N   UNL     1       1.243  -3.555   6.170  1.00  0.00    -0.193 N 
ATOM     26  N   UNL     1       2.266  -3.001   7.957  1.00  0.00    -0.023 NA
ATOM     27  N   UNL     1       1.365  -3.849   7.482  1.00  0.00    -0.040 NA
BRANCH  25  28
ATOM     28  C   UNL     1       0.481  -4.354   5.286  1.00  0.00     0.069 A 
ATOM     29  C   UNL     1      -0.679  -4.981   5.751  1.00  0.00     0.028 A 
ATOM     30  C   UNL     1       0.881  -4.527   3.953  1.00  0.00     0.028 A 
ATOM     31  C   UNL     1      -1.457  -5.736   4.870  1.00  0.00     0.002 A 
ATOM     32  C   UNL     1       0.126  -5.326   3.094  1.00  0.00     0.002 A 
ATOM     33  C   UNL     1      -1.050  -5.916   3.548  1.00  0.00     0.000 A 
ENDBRANCH  25  28
ENDBRANCH  15  23
ENDBRANCH   8  10
ENDBRANCH   7   8
ENDBRANCH   4   7
ENDBRANCH   2   3
ENDBRANCH   1   2
BRANCH   1  34
ATOM     34  C   UNL     1      -3.378  -2.199   1.004  1.00  0.00     0.002 C 
BRANCH  34  35
ATOM     35  C   UNL     1      -4.490  -2.117  -0.049  1.00  0.00     0.002 C 
BRANCH  35  36
ATOM     36  C   UNL     1      -4.165  -2.788  -1.384  1.00  0.00     0.021 C 
BRANCH  36  37
ATOM     37  C   UNL     1      -3.861  -4.278  -1.281  1.00  0.00     0.116 C 
BRANCH  37  38
ATOM     38  N   UNL     1      -5.014  -5.043  -0.829  1.00  0.00    -0.352 N 
ATOM     39  C   UNL     1      -5.662  -6.085  -1.442  1.00  0.00     0.251 C 
ATOM     40  H   UNL     1      -5.381  -4.773   0.044  1.00  0.00     0.163 HD
ATOM     41  O   UNL     1      -6.742  -6.485  -1.016  1.00  0.00    -0.269 OA
BRANCH  39  42
ATOM     42  C   UNL     1      -5.065  -6.712  -2.638  1.00  0.00     0.039 A 
ATOM     43  C   UNL     1      -5.868  -6.946  -3.757  1.00  0.00     0.014 A 
ATOM     44  C   UNL     1      -3.709  -7.049  -2.659  1.00  0.00     0.014 A 
ATOM     45  C   UNL     1      -5.291  -7.443  -4.927  1.00  0.00     0.010 A 
ATOM     46  C   UNL     1      -3.122  -7.472  -3.847  1.00  0.00     0.010 A 
ATOM     47  C   UNL     1      -3.906  -7.665  -4.995  1.00  0.00    -0.014 A 
BRANCH  47  48
ATOM     48  C   UNL     1      -3.248  -8.068  -6.263  1.00  0.00     0.031 A 
ATOM     49  C   UNL     1      -2.548  -9.393  -6.367  1.00  0.00     0.074 A 
ATOM     50  C   UNL     1      -3.212  -7.203  -7.295  1.00  0.00     0.049 A 
ATOM     51  N   UNL     1      -1.849  -9.886  -7.358  1.00  0.00    -0.248 NA
ATOM     52  C   UNL     1      -2.621 -10.268  -5.188  1.00  0.00     0.031 C 
ATOM     53  C   UNL     1      -3.826  -5.875  -7.305  1.00  0.00     0.029 A 
ATOM     54  N   UNL     1      -2.627  -7.307  -8.532  1.00  0.00    -0.354 N 
ATOM     55  C   UNL     1      -1.392 -11.121  -6.919  1.00  0.00     0.074 A 
ATOM     56  C   UNL     1      -1.842 -11.275  -5.552  1.00  0.00     0.031 C 
ATOM     57  C   UNL     1      -3.614  -5.301  -8.499  1.00  0.00     0.029 A 
ATOM     58  C   UNL     1      -2.807  -6.198  -9.321  1.00  0.00     0.049 A 
ATOM     59  H   UNL     1      -2.125  -8.102  -8.825  1.00  0.00     0.167 HD
ATOM     60  C   UNL     1      -0.680 -12.050  -7.601  1.00  0.00     0.037 A 
ATOM     61  C   UNL     1      -2.363  -5.931 -10.564  1.00  0.00     0.037 A 
ATOM     62  C   UNL     1      -0.241 -11.891  -8.964  1.00  0.00     0.049 A 
ATOM     63  C   UNL     1      -1.524  -6.955 -11.279  1.00  0.00     0.074 A 
ATOM     64  C   UNL     1       0.434 -12.795  -9.764  1.00  0.00     0.029 A 
ATOM     65  N   UNL     1      -0.422 -10.744  -9.724  1.00  0.00    -0.354 N 
ATOM     66  N   UNL     1      -1.159  -8.150 -10.883  1.00  0.00    -0.248 NA
ATOM     67  C   UNL     1      -1.033  -6.589 -12.615  1.00  0.00     0.031 C 
ATOM     68  C   UNL     1       0.721 -12.172 -10.983  1.00  0.00     0.029 A 
ATOM     69  C   UNL     1       0.166 -10.902 -10.969  1.00  0.00     0.049 A 
ATOM     70  H   UNL     1      -0.898  -9.936  -9.422  1.00  0.00     0.167 HD
ATOM     71  C   UNL     1      -0.426  -8.692 -11.931  1.00  0.00     0.074 A 
ATOM     72  C   UNL     1      -0.407  -7.698 -12.984  1.00  0.00     0.031 C 
ATOM     73  C   UNL     1       0.175  -9.905 -12.012  1.00  0.00     0.037 A 
BRANCH  60  74
ATOM     74  C   UNL     1      -0.317 -13.314  -6.872  1.00  0.00     0.064 A 
ATOM     75  C   UNL     1      -1.290 -14.246  -6.475  1.00  0.00     0.173 A 
ATOM     76  C   UNL     1       1.023 -13.602  -6.571  1.00  0.00     0.173 A 
ATOM     77  F   UNL     1      -2.587 -14.018  -6.729  1.00  0.00    -0.203 F 
ATOM     78  C   UNL     1      -0.940 -15.390  -5.763  1.00  0.00     0.198 A 
ATOM     79  C   UNL     1       1.373 -14.767  -5.892  1.00  0.00     0.198 A 
ATOM     80  F   UNL     1       1.996 -12.753  -6.933  1.00  0.00    -0.203 F 
ATOM     81  F   UNL     1      -1.894 -16.227  -5.333  1.00  0.00    -0.200 F 
ATOM     82  C   UNL     1       0.391 -15.653  -5.477  1.00  0.00     0.200 A 
ATOM     83  F   UNL     1       2.662 -15.026  -5.631  1.00  0.00    -0.200 F 
ATOM     84  F   UNL     1       0.726 -16.753  -4.790  1.00  0.00    -0.200 F 
ENDBRANCH  60  74
BRANCH  61  85
ATOM     85  C   UNL     1      -2.730  -4.651 -11.224  1.00  0.00     0.064 A 
ATOM     86  C   UNL     1      -3.598  -4.640 -12.325  1.00  0.00     0.173 A 
ATOM     87  C   UNL     1      -2.232  -3.420 -10.774  1.00  0.00     0.173 A 
ATOM     88  F   UNL     1      -4.083  -5.794 -12.805  1.00  0.00    -0.203 F 
ATOM     89  C   UNL     1      -3.940  -3.448 -12.961  1.00  0.00     0.198 A 
ATOM     90  C   UNL     1      -2.599  -2.226 -11.392  1.00  0.00     0.198 A 
ATOM     91  F   UNL     1      -1.401  -3.374  -9.722  1.00  0.00    -0.203 F 
ATOM     92  F   UNL     1      -4.738  -3.471 -14.037  1.00  0.00    -0.200 F 
ATOM     93  C   UNL     1      -3.447  -2.241 -12.489  1.00  0.00     0.200 A 
ATOM     94  F   UNL     1      -2.132  -1.060 -10.923  1.00  0.00    -0.200 F 
ATOM     95  F   UNL     1      -3.783  -1.095 -13.095  1.00  0.00    -0.200 F 
ENDBRANCH  61  85
BRANCH  73  96
ATOM     96  C   UNL     1       0.877 -10.244 -13.297  1.00  0.00     0.064 A 
ATOM     97  C   UNL     1       2.076  -9.620 -13.671  1.00  0.00     0.173 A 
ATOM     98  C   UNL     1       0.365 -11.241 -14.142  1.00  0.00     0.173 A 
ATOM     99  F   UNL     1       2.598  -8.648 -12.907  1.00  0.00    -0.203 F 
ATOM    100  C   UNL     1       2.724  -9.964 -14.854  1.00  0.00     0.198 A 
ATOM    101  C   UNL     1       1.034 -11.607 -15.307  1.00  0.00     0.198 A 
ATOM    102  F   UNL     1      -0.776 -11.873 -13.830  1.00  0.00    -0.203 F 
ATOM    103  F   UNL     1       3.842  -9.320 -15.216  1.00  0.00    -0.200 F 
ATOM    104  C   UNL     1       2.208 -10.964 -15.666  1.00  0.00     0.200 A 
ATOM    105  F   UNL     1       0.542 -12.584 -16.081  1.00  0.00    -0.200 F 
ATOM    106  F   UNL     1       2.840 -11.304 -16.798  1.00  0.00    -0.200 F 
ENDBRANCH  73  96
ENDBRANCH  47  48
ENDBRANCH  39  42
ENDBRANCH  37  38
ENDBRANCH  36  37
ENDBRANCH  35  36
ENDBRANCH  34  35
ENDBRANCH   1  34
TORSDOF 18
