REMARK SMILES O=C(NCCCCCCNC(=O)c1cc(NC(=O)c2ccccc2Cl)ccc1N1CCC[C@H](C[NH+]2CCCC2)C1)c1ccc(-c2c3nc(c(-c4c(F)c(F)c(F)c(F)c4F)c4ccc([nH]4)c(-c4c(F)c(F)c(F)c(F)c4F)c4nc(c(-c5c(F)c(F)c(F)c(F)c5F)c5ccc2[nH]5)C=C4)C=C3)cc1
REMARK SMILES IDX 7 1 6 2 5 3 4 4 3 5 1 6 2 7 41 9 42 10 103 11 43 12 102 13
REMARK SMILES IDX 44 14 45 15 46 16 96 17 47 18 101 19 95 20 97 21 48 22
REMARK SMILES IDX 100 23 94 24 93 25 49 27 81 28 61 29 80 30 62 31 65 32 79 33
REMARK SMILES IDX 98 34 63 35 64 36 78 38 99 39 66 40 50 41 51 42 59 43 52 44
REMARK SMILES IDX 53 45 57 46 60 47 54 48 55 49 58 50 56 51 82 52 83 53 91 54
REMARK SMILES IDX 84 55 85 56 89 57 92 58 86 59 87 60 90 61 88 62 67 63 68 64
REMARK SMILES IDX 76 65 69 66 70 67 74 68 77 69 71 70 72 71 75 72 73 73 8 74
REMARK SMILES IDX 9 75 10 76 11 77 12 79 13 80 14 81 28 82 15 83 27 84 26 85
REMARK SMILES IDX 29 86 30 87 40 88 31 89 33 90 32 91 34 92 35 93 36 94 39 95
REMARK SMILES IDX 37 97 38 98 16 99 17 100 18 102 19 103 20 104 24 105 21 106
REMARK SMILES IDX 23 107 25 108 22 109
REMARK H PARENT 3 8 97 26 65 37 10 78 35 96 16 101
REMARK Flexibility Score: inf
ROOT
ATOM      1  C   UNL     1       4.595   0.355  -4.435  1.00  0.00     0.002 C 
ENDROOT
BRANCH   1   2
ATOM      2  C   UNL     1       4.279  -0.996  -3.784  1.00  0.00     0.002 C 
BRANCH   2   3
ATOM      3  C   UNL     1       4.833  -1.226  -2.378  1.00  0.00     0.021 C 
BRANCH   3   4
ATOM      4  C   UNL     1       4.515  -0.145  -1.353  1.00  0.00     0.116 C 
BRANCH   4   5
ATOM      5  N   UNL     1       3.092   0.035  -1.127  1.00  0.00    -0.352 N 
ATOM      6  O   UNL     1       1.172   0.157   0.047  1.00  0.00    -0.269 OA
ATOM      7  C   UNL     1       2.393   0.106   0.056  1.00  0.00     0.251 C 
ATOM      8  H   UNL     1       2.546   0.118  -1.942  1.00  0.00     0.163 HD
BRANCH   7   9
ATOM      9  C   UNL     1       3.119   0.090   1.348  1.00  0.00     0.039 A 
ATOM     10  C   UNL     1       4.268   0.858   1.541  1.00  0.00     0.014 A 
ATOM     11  C   UNL     1       2.622  -0.698   2.391  1.00  0.00     0.014 A 
ATOM     12  C   UNL     1       4.994   0.736   2.723  1.00  0.00     0.010 A 
ATOM     13  C   UNL     1       3.306  -0.756   3.609  1.00  0.00     0.010 A 
ATOM     14  C   UNL     1       4.513  -0.060   3.775  1.00  0.00    -0.014 A 
BRANCH  14  15
ATOM     15  C   UNL     1       5.252  -0.089   5.063  1.00  0.00     0.031 A 
ATOM     16  C   UNL     1       5.897  -1.350   5.564  1.00  0.00     0.074 A 
ATOM     17  C   UNL     1       5.351   1.050   5.774  1.00  0.00     0.049 A 
ATOM     18  N   UNL     1       6.589  -1.543   6.660  1.00  0.00    -0.248 NA
ATOM     19  C   UNL     1       5.743  -2.554   4.734  1.00  0.00     0.031 C 
ATOM     20  C   UNL     1       4.750   2.331   5.394  1.00  0.00     0.029 A 
ATOM     21  N   UNL     1       5.997   1.323   6.952  1.00  0.00    -0.354 N 
ATOM     22  C   UNL     1       6.939  -2.887   6.660  1.00  0.00     0.074 A 
ATOM     23  C   UNL     1       6.361  -3.471   5.467  1.00  0.00     0.031 C 
ATOM     24  C   UNL     1       5.089   3.261   6.298  1.00  0.00     0.029 A 
ATOM     25  C   UNL     1       5.877   2.631   7.351  1.00  0.00     0.049 A 
ATOM     26  H   UNL     1       6.498   0.646   7.463  1.00  0.00     0.167 HD
ATOM     27  C   UNL     1       7.681  -3.565   7.569  1.00  0.00     0.037 A 
ATOM     28  C   UNL     1       6.333   3.254   8.454  1.00  0.00     0.037 A 
ATOM     29  C   UNL     1       8.260  -2.974   8.749  1.00  0.00     0.049 A 
ATOM     30  C   UNL     1       7.129   2.469   9.456  1.00  0.00     0.074 A 
ATOM     31  C   UNL     1       9.060  -3.569   9.710  1.00  0.00     0.029 A 
ATOM     32  N   UNL     1       8.094  -1.651   9.134  1.00  0.00    -0.354 N 
ATOM     33  N   UNL     1       7.489   1.210   9.422  1.00  0.00    -0.248 NA
ATOM     34  C   UNL     1       7.581   3.193  10.652  1.00  0.00     0.031 C 
ATOM     35  C   UNL     1       9.336  -2.621  10.700  1.00  0.00     0.029 A 
ATOM     36  C   UNL     1       8.755  -1.419  10.331  1.00  0.00     0.049 A 
ATOM     37  H   UNL     1       7.583  -0.976   8.631  1.00  0.00     0.167 HD
ATOM     38  C   UNL     1       8.222   0.992  10.579  1.00  0.00     0.074 A 
ATOM     39  C   UNL     1       8.275   2.257  11.284  1.00  0.00     0.031 C 
ATOM     40  C   UNL     1       8.797  -0.154  11.020  1.00  0.00     0.037 A 
BRANCH  27  41
ATOM     41  C   UNL     1       7.900  -5.034   7.338  1.00  0.00     0.064 A 
ATOM     42  C   UNL     1       8.739  -5.503   6.316  1.00  0.00     0.173 A 
ATOM     43  C   UNL     1       7.305  -5.983   8.184  1.00  0.00     0.173 A 
ATOM     44  F   UNL     1       9.325  -4.640   5.473  1.00  0.00    -0.203 F 
ATOM     45  C   UNL     1       8.956  -6.868   6.137  1.00  0.00     0.198 A 
ATOM     46  C   UNL     1       7.546  -7.344   8.019  1.00  0.00     0.198 A 
ATOM     47  F   UNL     1       6.499  -5.588   9.181  1.00  0.00    -0.203 F 
ATOM     48  F   UNL     1       9.729  -7.295   5.129  1.00  0.00    -0.200 F 
ATOM     49  C   UNL     1       8.367  -7.786   6.993  1.00  0.00     0.200 A 
ATOM     50  F   UNL     1       6.986  -8.229   8.855  1.00  0.00    -0.200 F 
ATOM     51  F   UNL     1       8.584  -9.098   6.824  1.00  0.00    -0.200 F 
ENDBRANCH  27  41
BRANCH  28  52
ATOM     52  C   UNL     1       6.040   4.695   8.659  1.00  0.00     0.064 A 
ATOM     53  C   UNL     1       7.058   5.655   8.596  1.00  0.00     0.173 A 
ATOM     54  C   UNL     1       4.734   5.143   8.905  1.00  0.00     0.173 A 
ATOM     55  F   UNL     1       8.326   5.274   8.381  1.00  0.00    -0.203 F 
ATOM     56  C   UNL     1       6.783   7.008   8.785  1.00  0.00     0.198 A 
ATOM     57  C   UNL     1       4.455   6.498   9.063  1.00  0.00     0.198 A 
ATOM     58  F   UNL     1       3.723   4.263   8.969  1.00  0.00    -0.203 F 
ATOM     59  F   UNL     1       7.780   7.902   8.759  1.00  0.00    -0.200 F 
ATOM     60  C   UNL     1       5.481   7.429   9.011  1.00  0.00     0.200 A 
ATOM     61  F   UNL     1       3.192   6.901   9.262  1.00  0.00    -0.200 F 
ATOM     62  F   UNL     1       5.215   8.731   9.182  1.00  0.00    -0.200 F 
ENDBRANCH  28  52
BRANCH  40  63
ATOM     63  C   UNL     1       9.555  -0.082  12.313  1.00  0.00     0.064 A 
ATOM     64  C   UNL     1       8.898   0.057  13.545  1.00  0.00     0.173 A 
ATOM     65  C   UNL     1      10.955  -0.177  12.321  1.00  0.00     0.173 A 
ATOM     66  F   UNL     1       7.562   0.170  13.588  1.00  0.00    -0.203 F 
ATOM     67  C   UNL     1       9.617   0.126  14.735  1.00  0.00     0.198 A 
ATOM     68  C   UNL     1      11.668  -0.138  13.516  1.00  0.00     0.198 A 
ATOM     69  F   UNL     1      11.630  -0.315  11.171  1.00  0.00    -0.203 F 
ATOM     70  F   UNL     1       8.972   0.310  15.895  1.00  0.00    -0.200 F 
ATOM     71  C   UNL     1      11.000   0.021  14.720  1.00  0.00     0.200 A 
ATOM     72  F   UNL     1      13.004  -0.251  13.501  1.00  0.00    -0.200 F 
ATOM     73  F   UNL     1      11.690   0.084  15.867  1.00  0.00    -0.200 F 
ENDBRANCH  40  63
ENDBRANCH  14  15
ENDBRANCH   7   9
ENDBRANCH   4   5
ENDBRANCH   3   4
ENDBRANCH   2   3
ENDBRANCH   1   2
BRANCH   1  74
ATOM     74  C   UNL     1       6.071   0.763  -4.514  1.00  0.00     0.021 C 
BRANCH  74  75
ATOM     75  C   UNL     1       7.014  -0.276  -5.109  1.00  0.00     0.116 C 
BRANCH  75  76
ATOM     76  N   UNL     1       6.709  -0.658  -6.469  1.00  0.00    -0.352 N 
ATOM     77  C   UNL     1       7.542  -1.266  -7.380  1.00  0.00     0.253 C 
ATOM     78  H   UNL     1       5.797  -0.460  -6.780  1.00  0.00     0.163 HD
ATOM     79  O   UNL     1       7.084  -1.628  -8.462  1.00  0.00    -0.269 OA
BRANCH  77  80
ATOM     80  C   UNL     1       9.003  -1.390  -7.125  1.00  0.00     0.065 A 
ATOM     81  C   UNL     1       9.789  -0.726  -8.083  1.00  0.00     0.042 A 
ATOM     82  C   UNL     1       9.601  -2.067  -6.044  1.00  0.00     0.050 A 
ATOM     83  C   UNL     1      11.162  -0.578  -7.928  1.00  0.00     0.042 A 
ATOM     84  C   UNL     1      11.002  -1.960  -5.941  1.00  0.00     0.029 A 
ATOM     85  C   UNL     1      11.770  -1.228  -6.858  1.00  0.00     0.028 A 
BRANCH  82  86
ATOM     86  N   UNL     1       8.934  -2.894  -5.150  1.00  0.00    -0.370 N 
ATOM     87  C   UNL     1       9.117  -2.743  -3.704  1.00  0.00     0.116 C 
ATOM     88  C   UNL     1       7.852  -3.748  -5.644  1.00  0.00     0.126 C 
ATOM     89  C   UNL     1       9.066  -4.089  -2.989  1.00  0.00     0.022 C 
ATOM     90  C   UNL     1       7.941  -5.140  -5.005  1.00  0.00     0.064 C 
ATOM     91  C   UNL     1       7.907  -4.954  -3.481  1.00  0.00     0.013 C 
BRANCH  90  92
ATOM     92  C   UNL     1       9.179  -5.887  -5.571  1.00  0.00     0.267 C 
BRANCH  92  93
ATOM     93  N   UNL     1       9.305  -7.335  -5.383  1.00  0.00    -0.335 N 
ATOM     94  C   UNL     1       8.196  -8.124  -5.912  1.00  0.00     0.262 C 
ATOM     95  C   UNL     1       9.575  -7.795  -4.025  1.00  0.00     0.262 C 
ATOM     96  H   UNL     1      10.142  -7.501  -5.941  1.00  0.00     0.348 HD
ATOM     97  C   UNL     1       7.352  -8.481  -4.705  1.00  0.00     0.067 C 
ATOM     98  C   UNL     1       8.359  -8.598  -3.576  1.00  0.00     0.067 C 
ENDBRANCH  92  93
ENDBRANCH  90  92
ENDBRANCH  82  86
BRANCH  83  99
ATOM     99  N   UNL     1      11.981   0.195  -8.775  1.00  0.00    -0.322 N 
ATOM    100  C   UNL     1      11.681   1.176  -9.699  1.00  0.00     0.257 C 
ATOM    101  H   UNL     1      12.942  -0.001  -8.694  1.00  0.00     0.170 HD
ATOM    102  O   UNL     1      12.560   1.634 -10.427  1.00  0.00    -0.269 OA
BRANCH 100 103
ATOM    103  C   UNL     1      10.314   1.706  -9.838  1.00  0.00     0.058 A 
ATOM    104  C   UNL     1       9.644   1.429 -11.038  1.00  0.00     0.015 A 
ATOM    105  C   UNL     1       9.656   2.381  -8.801  1.00  0.00     0.053 A 
ATOM    106  C   UNL     1       8.293   1.747 -11.166  1.00  0.00     0.001 A 
ATOM    107  C   UNL     1       8.299   2.685  -8.934  1.00  0.00     0.021 A 
ATOM    108  Cl  UNL     1      10.440   2.823  -7.326  1.00  0.00    -0.083 Cl
ATOM    109  C   UNL     1       7.616   2.354 -10.108  1.00  0.00     0.002 A 
ENDBRANCH 100 103
ENDBRANCH  83  99
ENDBRANCH  77  80
ENDBRANCH  75  76
ENDBRANCH  74  75
ENDBRANCH   1  74
TORSDOF 18
