REMARK SMILES COc1ccc([C@H](C(=O)NCCCCCCNC(=O)c2ccc(-c3c4nc(c(-c5c(F)c(F)c(F)c(F)c5F)c5ccc([nH]5)c(-c5c(F)c(F)c(F)c(F)c5F)c5nc(c(-c6c(F)c(F)c(F)c(F)c6F)c6ccc3[nH]6)C=C5)C=C4)cc2)[NH+]2CCOCC2)c(OC)n1
REMARK SMILES IDX 13 1 12 2 11 3 10 4 8 5 9 6 7 8 6 9 3 10 4 11 92 12 5 13
REMARK SMILES IDX 89 14 2 15 1 16 90 17 91 18 83 19 84 20 88 21 85 23 87 24
REMARK SMILES IDX 86 25 14 26 15 27 16 28 17 29 18 30 19 32 20 33 21 34 82 35
REMARK SMILES IDX 22 36 81 37 23 38 24 39 25 40 75 41 26 42 80 43 74 44 76 45
REMARK SMILES IDX 27 46 79 47 73 48 72 49 28 51 60 52 40 53 59 54 41 55 44 56
REMARK SMILES IDX 58 57 77 58 42 59 43 60 57 62 78 63 45 64 29 65 30 66 38 67
REMARK SMILES IDX 31 68 32 69 36 70 39 71 33 72 34 73 37 74 35 75 61 76 62 77
REMARK SMILES IDX 70 78 63 79 64 80 68 81 71 82 65 83 66 84 69 85 67 86 46 87
REMARK SMILES IDX 47 88 55 89 48 90 49 91 53 92 56 93 50 94 51 95 54 96 52 97
REMARK H PARENT 10 7 83 22 17 31 76 50 44 61
REMARK Flexibility Score: inf
ROOT
ATOM      1  C   UNL     1      -2.303   7.694  -0.175  1.00  0.00     0.002 C 
ENDROOT
BRANCH   1   2
ATOM      2  C   UNL     1      -0.778   7.861  -0.011  1.00  0.00     0.021 C 
BRANCH   2   3
ATOM      3  C   UNL     1      -0.004   6.571   0.642  1.00  0.00     0.116 C 
BRANCH   3   4
ATOM      4  N   UNL     1       1.024   5.060  -0.166  1.00  0.00    -0.351 N 
ATOM      5  C   UNL     1       2.020   4.782  -1.177  1.00  0.00     0.283 C 
ATOM      6  O   UNL     1       2.572   3.694  -1.252  1.00  0.00    -0.268 OA
ATOM      7  H   UNL     1       0.765   4.219   0.275  1.00  0.00     0.163 HD
BRANCH   5   8
ATOM      8  C   UNL     1       2.327   6.040  -1.942  1.00  0.00     0.311 C 
BRANCH   8   9
ATOM      9  C   UNL     1       2.018   6.377  -3.398  1.00  0.00     0.081 A 
ATOM     10  C   UNL     1       1.033   7.654  -5.649  1.00  0.00     0.216 A 
ATOM     11  C   UNL     1       1.736   8.418  -4.757  1.00  0.00     0.069 A 
ATOM     12  N   UNL     1       0.871   6.329  -5.511  1.00  0.00    -0.177 NA
ATOM     13  C   UNL     1       2.262   7.763  -3.657  1.00  0.00     0.022 A 
ATOM     14  C   UNL     1       1.346   5.684  -4.410  1.00  0.00     0.226 A 
BRANCH  10  15
ATOM     15  O   UNL     1       0.323   8.215  -6.675  1.00  0.00    -0.481 OA
ATOM     16  C   UNL     1       1.168   8.930  -7.566  1.00  0.00     0.280 C 
ENDBRANCH  10  15
BRANCH  14  17
ATOM     17  O   UNL     1       0.874   4.423  -4.477  1.00  0.00    -0.481 OA
ATOM     18  C   UNL     1       1.385   3.338  -3.747  1.00  0.00     0.280 C 
ENDBRANCH  14  17
ENDBRANCH   8   9
BRANCH   8  19
ATOM     19  N   UNL     1       1.439   6.893  -1.092  1.00  0.00    -0.317 N 
ATOM     20  C   UNL     1       2.229   6.533   0.563  1.00  0.00     0.292 C 
ATOM     21  C   UNL     1      -0.162   5.965  -1.491  1.00  0.00     0.292 C 
ATOM     22  H   UNL     1       1.302   7.900  -1.177  1.00  0.00     0.349 HD
ATOM     23  C   UNL     1       1.425   5.283   1.819  1.00  0.00     0.221 C 
ATOM     24  C   UNL     1      -0.977   4.746  -0.236  1.00  0.00     0.221 C 
ATOM     25  O   UNL     1      -0.111   4.411   1.343  1.00  0.00    -0.370 OA
ENDBRANCH   8  19
ENDBRANCH   5   8
ENDBRANCH   3   4
ENDBRANCH   2   3
ENDBRANCH   1   2
BRANCH   1  26
ATOM     26  C   UNL     1      -3.046   7.451   1.141  1.00  0.00     0.002 C 
BRANCH  26  27
ATOM     27  C   UNL     1      -2.906   8.602   2.132  1.00  0.00     0.021 C 
BRANCH  27  28
ATOM     28  C   UNL     1      -3.348   9.930   1.537  1.00  0.00     0.116 C 
BRANCH  28  29
ATOM     29  N   UNL     1      -4.725   9.842   1.065  1.00  0.00    -0.352 N 
ATOM     30  C   UNL     1      -5.759  10.670   1.393  1.00  0.00     0.251 C 
ATOM     31  H   UNL     1      -4.931   9.107   0.443  1.00  0.00     0.163 HD
ATOM     32  O   UNL     1      -6.931  10.347   1.231  1.00  0.00    -0.269 OA
BRANCH  30  33
ATOM     33  C   UNL     1      -5.399  11.982   1.936  1.00  0.00     0.039 A 
ATOM     34  C   UNL     1      -5.915  12.387   3.163  1.00  0.00     0.014 A 
ATOM     35  C   UNL     1      -4.452  12.747   1.244  1.00  0.00     0.014 A 
ATOM     36  C   UNL     1      -5.458  13.577   3.715  1.00  0.00     0.010 A 
ATOM     37  C   UNL     1      -3.936  13.883   1.838  1.00  0.00     0.010 A 
ATOM     38  C   UNL     1      -4.456  14.320   3.064  1.00  0.00    -0.014 A 
BRANCH  38  39
ATOM     39  C   UNL     1      -3.962  15.585   3.642  1.00  0.00     0.031 A 
ATOM     40  C   UNL     1      -4.208  16.873   2.913  1.00  0.00     0.074 A 
ATOM     41  C   UNL     1      -3.267  15.555   4.793  1.00  0.00     0.049 A 
ATOM     42  N   UNL     1      -3.860  18.089   3.247  1.00  0.00    -0.248 NA
ATOM     43  C   UNL     1      -4.910  16.785   1.621  1.00  0.00     0.031 C 
ATOM     44  C   UNL     1      -2.919  14.343   5.538  1.00  0.00     0.029 A 
ATOM     45  N   UNL     1      -2.728  16.571   5.536  1.00  0.00    -0.354 N 
ATOM     46  C   UNL     1      -4.292  18.900   2.207  1.00  0.00     0.074 A 
ATOM     47  C   UNL     1      -4.864  18.038   1.198  1.00  0.00     0.031 C 
ATOM     48  C   UNL     1      -2.256  14.690   6.652  1.00  0.00     0.029 A 
ATOM     49  C   UNL     1      -2.102  16.141   6.679  1.00  0.00     0.049 A 
ATOM     50  H   UNL     1      -2.784  17.518   5.275  1.00  0.00     0.167 HD
ATOM     51  C   UNL     1      -4.241  20.249   2.120  1.00  0.00     0.037 A 
ATOM     52  C   UNL     1      -1.475  16.847   7.638  1.00  0.00     0.037 A 
ATOM     53  C   UNL     1      -3.689  21.091   3.146  1.00  0.00     0.049 A 
ATOM     54  C   UNL     1      -1.441  18.347   7.519  1.00  0.00     0.074 A 
ATOM     55  C   UNL     1      -3.648  22.472   3.199  1.00  0.00     0.029 A 
ATOM     56  N   UNL     1      -3.075  20.625   4.300  1.00  0.00    -0.354 N 
ATOM     57  N   UNL     1      -1.935  19.115   6.578  1.00  0.00    -0.248 NA
ATOM     58  C   UNL     1      -0.773  19.079   8.602  1.00  0.00     0.031 C 
ATOM     59  C   UNL     1      -2.954  22.841   4.355  1.00  0.00     0.029 A 
ATOM     60  C   UNL     1      -2.621  21.693   5.057  1.00  0.00     0.049 A 
ATOM     61  H   UNL     1      -2.976  19.677   4.545  1.00  0.00     0.167 HD
ATOM     62  C   UNL     1      -1.660  20.419   6.964  1.00  0.00     0.074 A 
ATOM     63  C   UNL     1      -0.977  20.337   8.239  1.00  0.00     0.031 C 
ATOM     64  C   UNL     1      -1.941  21.581   6.323  1.00  0.00     0.037 A 
BRANCH  51  65
ATOM     65  C   UNL     1      -4.793  20.890   0.880  1.00  0.00     0.064 A 
ATOM     66  C   UNL     1      -6.166  20.876   0.587  1.00  0.00     0.173 A 
ATOM     67  C   UNL     1      -3.941  21.557  -0.013  1.00  0.00     0.173 A 
ATOM     68  F   UNL     1      -7.024  20.238   1.399  1.00  0.00    -0.203 F 
ATOM     69  C   UNL     1      -6.661  21.482  -0.565  1.00  0.00     0.198 A 
ATOM     70  C   UNL     1      -4.444  22.191  -1.146  1.00  0.00     0.198 A 
ATOM     71  F   UNL     1      -2.620  21.601   0.217  1.00  0.00    -0.203 F 
ATOM     72  F   UNL     1      -7.969  21.410  -0.849  1.00  0.00    -0.200 F 
ATOM     73  C   UNL     1      -5.801  22.147  -1.425  1.00  0.00     0.200 A 
ATOM     74  F   UNL     1      -3.612  22.844  -1.970  1.00  0.00    -0.200 F 
ATOM     75  F   UNL     1      -6.280  22.740  -2.528  1.00  0.00    -0.200 F 
ENDBRANCH  51  65
BRANCH  52  76
ATOM     76  C   UNL     1      -0.856  16.148   8.794  1.00  0.00     0.064 A 
ATOM     77  C   UNL     1      -1.371  16.294  10.090  1.00  0.00     0.173 A 
ATOM     78  C   UNL     1       0.265  15.321   8.629  1.00  0.00     0.173 A 
ATOM     79  F   UNL     1      -2.434  17.084  10.303  1.00  0.00    -0.203 F 
ATOM     80  C   UNL     1      -0.771  15.665  11.179  1.00  0.00     0.198 A 
ATOM     81  C   UNL     1       0.844  14.666   9.714  1.00  0.00     0.198 A 
ATOM     82  F   UNL     1       0.791  15.137   7.409  1.00  0.00    -0.203 F 
ATOM     83  F   UNL     1      -1.252  15.865  12.414  1.00  0.00    -0.200 F 
ATOM     84  C   UNL     1       0.333  14.847  10.989  1.00  0.00     0.200 A 
ATOM     85  F   UNL     1       1.898  13.861   9.522  1.00  0.00    -0.200 F 
ATOM     86  F   UNL     1       0.907  14.239  12.036  1.00  0.00    -0.200 F 
ENDBRANCH  52  76
BRANCH  64  87
ATOM     87  C   UNL     1      -1.532  22.854   7.006  1.00  0.00     0.064 A 
ATOM     88  C   UNL     1      -0.184  23.220   7.134  1.00  0.00     0.173 A 
ATOM     89  C   UNL     1      -2.503  23.734   7.506  1.00  0.00     0.173 A 
ATOM     90  F   UNL     1       0.783  22.406   6.684  1.00  0.00    -0.203 F 
ATOM     91  C   UNL     1       0.177  24.404   7.770  1.00  0.00     0.198 A 
ATOM     92  C   UNL     1      -2.140  24.935   8.107  1.00  0.00     0.198 A 
ATOM     93  F   UNL     1      -3.807  23.436   7.400  1.00  0.00    -0.203 F 
ATOM     94  F   UNL     1       1.473  24.705   7.934  1.00  0.00    -0.200 F 
ATOM     95  C   UNL     1      -0.800  25.264   8.248  1.00  0.00     0.200 A 
ATOM     96  F   UNL     1      -3.086  25.773   8.552  1.00  0.00    -0.200 F 
ATOM     97  F   UNL     1      -0.451  26.407   8.853  1.00  0.00    -0.200 F 
ENDBRANCH  64  87
ENDBRANCH  38  39
ENDBRANCH  30  33
ENDBRANCH  28  29
ENDBRANCH  27  28
ENDBRANCH  26  27
ENDBRANCH   1  26
TORSDOF 17
