REMARK SMILES COc1ccc(-c2ccc(C(=O)NCc3ccc(C(=O)NCCCCCCNC(=O)c4ccc(-c5c6nc(c(-c7c(F)c(F)c(F)c(F)c7F)c7ccc([nH]7)c(-c7c(F)c(F)c(F)c(F)c7F)c7nc(c(-c8c(F)c(F)c(F)c(F)c8F)c8ccc5[nH]8)C=C7)C=C6)cc4)cc3)o2)c([N+](=O)[O-])c1
REMARK SMILES IDX 23 1 22 2 21 3 19 4 20 5 18 7 15 8 16 9 95 10 17 11 94 12
REMARK SMILES IDX 14 13 13 14 11 15 12 16 10 18 7 19 8 20 96 21 9 22 6 23 3 24
REMARK SMILES IDX 4 25 101 26 5 27 97 28 2 29 1 30 98 31 99 32 100 33 24 34
REMARK SMILES IDX 25 35 26 36 27 37 28 38 29 39 30 41 31 42 32 43 93 44 33 45
REMARK SMILES IDX 92 46 34 47 35 48 36 49 86 50 37 51 91 52 85 53 87 54 38 55
REMARK SMILES IDX 90 56 84 57 83 58 39 60 71 61 51 62 70 63 52 64 55 65 69 66
REMARK SMILES IDX 88 67 53 68 54 69 68 71 89 72 56 73 40 74 41 75 49 76 42 77
REMARK SMILES IDX 43 78 47 79 50 80 44 81 45 82 48 83 46 84 72 85 73 86 81 87
REMARK SMILES IDX 74 88 75 89 79 90 82 91 76 92 77 93 80 94 78 95 57 96 58 97
REMARK SMILES IDX 66 98 59 99 60 100 64 101 67 102 61 103 62 104 65 105 63 106
REMARK H PARENT 21 6 13 17 28 40 87 59 55 70
REMARK Flexibility Score: inf
ROOT
ATOM      1  C   UNL     1       1.506   9.008 -11.599  1.00  0.00     0.021 C 
ENDROOT
BRANCH   1   2
ATOM      2  C   UNL     1       2.986   9.254 -11.298  1.00  0.00     0.116 C 
BRANCH   2   3
ATOM      3  N   UNL     1       3.234  10.678 -11.191  1.00  0.00    -0.352 N 
ATOM      4  C   UNL     1       3.470  11.502 -10.123  1.00  0.00     0.251 C 
ATOM      5  O   UNL     1       3.627  12.702 -10.350  1.00  0.00    -0.269 OA
ATOM      6  H   UNL     1       3.233  11.145 -12.057  1.00  0.00     0.163 HD
BRANCH   4   7
ATOM      7  C   UNL     1       3.617  11.006  -8.729  1.00  0.00     0.039 A 
ATOM      8  C   UNL     1       4.117  10.144  -6.082  1.00  0.00    -0.029 A 
ATOM      9  C   UNL     1       4.749  11.284  -6.591  1.00  0.00     0.006 A 
ATOM     10  C   UNL     1       3.186   9.482  -6.895  1.00  0.00     0.006 A 
ATOM     11  C   UNL     1       4.500  11.710  -7.899  1.00  0.00     0.014 A 
ATOM     12  C   UNL     1       2.920   9.923  -8.197  1.00  0.00     0.014 A 
BRANCH   8  13
ATOM     13  C   UNL     1       4.445   9.652  -4.694  1.00  0.00     0.152 C 
BRANCH  13  14
ATOM     14  N   UNL     1       3.272   9.615  -3.855  1.00  0.00    -0.345 N 
ATOM     15  C   UNL     1       2.504   8.584  -3.380  1.00  0.00     0.287 C 
ATOM     16  O   UNL     1       1.603   8.916  -2.602  1.00  0.00    -0.266 OA
ATOM     17  H   UNL     1       2.962  10.505  -3.567  1.00  0.00     0.164 HD
BRANCH  15  18
ATOM     18  C   UNL     1       2.726   7.202  -3.770  1.00  0.00     0.192 A 
ATOM     19  C   UNL     1       2.404   5.026  -3.506  1.00  0.00     0.142 A 
ATOM     20  C   UNL     1       3.235   5.156  -4.593  1.00  0.00     0.052 A 
ATOM     21  O   UNL     1       2.060   6.248  -3.030  1.00  0.00    -0.451 OA
ATOM     22  C   UNL     1       3.447   6.546  -4.757  1.00  0.00     0.057 A 
BRANCH  19  23
ATOM     23  C   UNL     1       1.877   3.888  -2.781  1.00  0.00     0.095 A 
ATOM     24  C   UNL     1       0.801   1.564  -1.581  1.00  0.00     0.125 A 
ATOM     25  C   UNL     1      -0.016   2.437  -2.302  1.00  0.00     0.047 A 
ATOM     26  C   UNL     1       2.157   1.849  -1.444  1.00  0.00     0.132 A 
ATOM     27  C   UNL     1       0.511   3.595  -2.885  1.00  0.00     0.023 A 
ATOM     28  C   UNL     1       2.683   3.010  -2.039  1.00  0.00     0.284 A 
BRANCH  24  29
ATOM     29  O   UNL     1       0.179   0.446  -1.102  1.00  0.00    -0.497 OA
ATOM     30  C   UNL     1       0.754  -0.138   0.062  1.00  0.00     0.278 C 
ENDBRANCH  24  29
BRANCH  28  31
ATOM     31  N   UNL     1       4.112   3.258  -1.865  1.00  0.00     0.063 N 
ATOM     32  O   UNL     1       4.483   4.410  -1.609  1.00  0.00    -0.258 OA
ATOM     33  O   UNL     1       4.866   2.278  -1.956  1.00  0.00    -0.258 OA
ENDBRANCH  28  31
ENDBRANCH  19  23
ENDBRANCH  15  18
ENDBRANCH  13  14
ENDBRANCH   8  13
ENDBRANCH   4   7
ENDBRANCH   2   3
ENDBRANCH   1   2
BRANCH   1  34
ATOM     34  C   UNL     1       1.124   9.332 -13.051  1.00  0.00     0.002 C 
BRANCH  34  35
ATOM     35  C   UNL     1       1.832   8.473 -14.107  1.00  0.00     0.002 C 
BRANCH  35  36
ATOM     36  C   UNL     1       1.664   6.963 -13.922  1.00  0.00     0.021 C 
BRANCH  36  37
ATOM     37  C   UNL     1       0.218   6.485 -13.981  1.00  0.00     0.116 C 
BRANCH  37  38
ATOM     38  N   UNL     1      -0.364   6.706 -15.294  1.00  0.00    -0.352 N 
ATOM     39  C   UNL     1      -0.964   5.812 -16.142  1.00  0.00     0.251 C 
ATOM     40  H   UNL     1      -0.322   7.634 -15.623  1.00  0.00     0.163 HD
ATOM     41  O   UNL     1      -1.180   6.120 -17.309  1.00  0.00    -0.269 OA
BRANCH  39  42
ATOM     42  C   UNL     1      -1.352   4.472 -15.652  1.00  0.00     0.039 A 
ATOM     43  C   UNL     1      -1.169   3.370 -16.491  1.00  0.00     0.014 A 
ATOM     44  C   UNL     1      -1.943   4.308 -14.396  1.00  0.00     0.014 A 
ATOM     45  C   UNL     1      -1.562   2.101 -16.062  1.00  0.00     0.010 A 
ATOM     46  C   UNL     1      -2.261   3.034 -13.938  1.00  0.00     0.010 A 
ATOM     47  C   UNL     1      -2.101   1.921 -14.777  1.00  0.00    -0.014 A 
BRANCH  47  48
ATOM     48  C   UNL     1      -2.561   0.586 -14.323  1.00  0.00     0.031 A 
ATOM     49  C   UNL     1      -4.021   0.351 -14.044  1.00  0.00     0.074 A 
ATOM     50  C   UNL     1      -1.666  -0.402 -14.130  1.00  0.00     0.049 A 
ATOM     51  N   UNL     1      -4.619  -0.729 -13.608  1.00  0.00    -0.248 NA
ATOM     52  C   UNL     1      -4.926   1.492 -14.255  1.00  0.00     0.031 C 
ATOM     53  C   UNL     1      -0.221  -0.282 -14.325  1.00  0.00     0.029 A 
ATOM     54  N   UNL     1      -1.841  -1.700 -13.723  1.00  0.00    -0.354 N 
ATOM     55  C   UNL     1      -5.961  -0.392 -13.481  1.00  0.00     0.074 A 
ATOM     56  C   UNL     1      -6.081   1.008 -13.824  1.00  0.00     0.031 C 
ATOM     57  C   UNL     1       0.356  -1.466 -14.064  1.00  0.00     0.029 A 
ATOM     58  C   UNL     1      -0.672  -2.417 -13.651  1.00  0.00     0.049 A 
ATOM     59  H   UNL     1      -2.722  -2.081 -13.502  1.00  0.00     0.167 HD
ATOM     60  C   UNL     1      -7.003  -1.185 -13.137  1.00  0.00     0.037 A 
ATOM     61  C   UNL     1      -0.458  -3.696 -13.291  1.00  0.00     0.037 A 
ATOM     62  C   UNL     1      -6.882  -2.584 -12.825  1.00  0.00     0.049 A 
ATOM     63  C   UNL     1      -1.635  -4.558 -12.917  1.00  0.00     0.074 A 
ATOM     64  C   UNL     1      -7.881  -3.490 -12.516  1.00  0.00     0.029 A 
ATOM     65  N   UNL     1      -5.683  -3.281 -12.785  1.00  0.00    -0.354 N 
ATOM     66  N   UNL     1      -2.907  -4.247 -12.865  1.00  0.00    -0.248 NA
ATOM     67  C   UNL     1      -1.345  -5.955 -12.565  1.00  0.00     0.031 C 
ATOM     68  C   UNL     1      -7.282  -4.724 -12.241  1.00  0.00     0.029 A 
ATOM     69  C   UNL     1      -5.916  -4.602 -12.437  1.00  0.00     0.049 A 
ATOM     70  H   UNL     1      -4.798  -2.894 -12.975  1.00  0.00     0.167 HD
ATOM     71  C   UNL     1      -3.572  -5.414 -12.512  1.00  0.00     0.074 A 
ATOM     72  C   UNL     1      -2.562  -6.442 -12.374  1.00  0.00     0.031 C 
ATOM     73  C   UNL     1      -4.899  -5.616 -12.321  1.00  0.00     0.037 A 
BRANCH  60  74
ATOM     74  C   UNL     1      -8.367  -0.556 -13.084  1.00  0.00     0.064 A 
ATOM     75  C   UNL     1      -9.024  -0.120 -14.246  1.00  0.00     0.173 A 
ATOM     76  C   UNL     1      -9.038  -0.412 -11.861  1.00  0.00     0.173 A 
ATOM     77  F   UNL     1      -8.423  -0.223 -15.441  1.00  0.00    -0.203 F 
ATOM     78  C   UNL     1     -10.286   0.466 -14.180  1.00  0.00     0.198 A 
ATOM     79  C   UNL     1     -10.314   0.144 -11.803  1.00  0.00     0.198 A 
ATOM     80  F   UNL     1      -8.460  -0.816 -10.720  1.00  0.00    -0.203 F 
ATOM     81  F   UNL     1     -10.868   0.926 -15.296  1.00  0.00    -0.200 F 
ATOM     82  C   UNL     1     -10.932   0.591 -12.960  1.00  0.00     0.200 A 
ATOM     83  F   UNL     1     -10.943   0.251 -10.624  1.00  0.00    -0.200 F 
ATOM     84  F   UNL     1     -12.149   1.149 -12.899  1.00  0.00    -0.200 F 
ENDBRANCH  60  74
BRANCH  61  85
ATOM     85  C   UNL     1       0.921  -4.251 -13.302  1.00  0.00     0.064 A 
ATOM     86  C   UNL     1       1.300  -5.223 -14.238  1.00  0.00     0.173 A 
ATOM     87  C   UNL     1       1.885  -3.829 -12.374  1.00  0.00     0.173 A 
ATOM     88  F   UNL     1       0.409  -5.672 -15.135  1.00  0.00    -0.203 F 
ATOM     89  C   UNL     1       2.581  -5.771 -14.230  1.00  0.00     0.198 A 
ATOM     90  C   UNL     1       3.175  -4.355 -12.386  1.00  0.00     0.198 A 
ATOM     91  F   UNL     1       1.576  -2.895 -11.462  1.00  0.00    -0.203 F 
ATOM     92  F   UNL     1       2.900  -6.736 -15.104  1.00  0.00    -0.200 F 
ATOM     93  C   UNL     1       3.519  -5.333 -13.307  1.00  0.00     0.200 A 
ATOM     94  F   UNL     1       4.083  -3.917 -11.504  1.00  0.00    -0.200 F 
ATOM     95  F   UNL     1       4.752  -5.858 -13.301  1.00  0.00    -0.200 F 
ENDBRANCH  61  85
BRANCH  73  96
ATOM     96  C   UNL     1      -5.343  -7.013 -11.994  1.00  0.00     0.064 A 
ATOM     97  C   UNL     1      -5.070  -7.606 -10.752  1.00  0.00     0.173 A 
ATOM     98  C   UNL     1      -6.086  -7.754 -12.926  1.00  0.00     0.173 A 
ATOM     99  F   UNL     1      -4.352  -6.945  -9.832  1.00  0.00    -0.203 F 
ATOM    100  C   UNL     1      -5.497  -8.901 -10.469  1.00  0.00     0.198 A 
ATOM    101  C   UNL     1      -6.540  -9.035 -12.626  1.00  0.00     0.198 A 
ATOM    102  F   UNL     1      -6.382  -7.230 -14.125  1.00  0.00    -0.203 F 
ATOM    103  F   UNL     1      -5.178  -9.467  -9.297  1.00  0.00    -0.200 F 
ATOM    104  C   UNL     1      -6.238  -9.611 -11.402  1.00  0.00     0.200 A 
ATOM    105  F   UNL     1      -7.270  -9.712 -13.523  1.00  0.00    -0.200 F 
ATOM    106  F   UNL     1      -6.654 -10.854 -11.124  1.00  0.00    -0.200 F 
ENDBRANCH  73  96
ENDBRANCH  47  48
ENDBRANCH  39  42
ENDBRANCH  37  38
ENDBRANCH  36  37
ENDBRANCH  35  36
ENDBRANCH  34  35
ENDBRANCH   1  34
TORSDOF 19
