REMARK SMILES COc1ccccc1S(=O)(=O)[C@@H](C)[C@H](C)C(=O)NCCCCCCNC(=O)c1ccc(-c2c3nc(c(-c4c(F)c(F)c(F)c(F)c4F)c4ccc([nH]4)c(-c4c(F)c(F)c(F)c(F)c4F)c4nc(c(-c5c(F)c(F)c(F)c(F)c5F)c5ccc2[nH]5)C=C4)C=C3)cc1
REMARK SMILES IDX 20 1 19 2 18 3 16 4 17 5 14 7 15 8 12 9 13 10 9 11 10 12
REMARK SMILES IDX 11 13 8 14 3 15 4 16 5 17 7 18 6 19 2 20 1 21 21 22 22 23
REMARK SMILES IDX 23 24 24 25 25 26 26 27 27 29 28 30 29 31 90 32 30 33 89 34
REMARK SMILES IDX 31 35 32 36 33 37 83 38 34 39 88 40 82 41 84 42 35 43 87 44
REMARK SMILES IDX 81 45 80 46 36 48 68 49 48 50 67 51 49 52 52 53 66 54 85 55
REMARK SMILES IDX 50 56 51 57 65 59 86 60 53 61 37 62 38 63 46 64 39 65 40 66
REMARK SMILES IDX 44 67 47 68 41 69 42 70 45 71 43 72 69 73 70 74 78 75 71 76
REMARK SMILES IDX 72 77 76 78 79 79 73 80 74 81 77 82 75 83 54 84 55 85 63 86
REMARK SMILES IDX 56 87 57 88 61 89 64 90 58 91 59 92 62 93 60 94
REMARK H PARENT 18 6 25 28 84 47 52 58
REMARK Flexibility Score: inf
ROOT
ATOM      1  C   UNL     1       3.079   1.165  -3.907  1.00  0.00     0.021 C 
ENDROOT
BRANCH   1   2
ATOM      2  C   UNL     1       3.068   2.146  -2.738  1.00  0.00     0.116 C 
BRANCH   2   3
ATOM      3  N   UNL     1       1.717   2.515  -2.364  1.00  0.00    -0.356 N 
ATOM      4  C   UNL     1       1.002   2.248  -1.234  1.00  0.00     0.224 C 
ATOM      5  O   UNL     1      -0.176   2.603  -1.201  1.00  0.00    -0.275 OA
ATOM      6  H   UNL     1       1.236   3.047  -3.038  1.00  0.00     0.163 HD
BRANCH   4   7
ATOM      7  C   UNL     1       1.639   1.505  -0.058  1.00  0.00     0.093 C 
ATOM      8  C   UNL     1       1.908   0.060  -0.498  1.00  0.00     0.019 C 
BRANCH   7   9
ATOM      9  C   UNL     1       2.785   2.368   0.541  1.00  0.00     0.122 C 
ATOM     10  C   UNL     1       4.207   1.808   0.636  1.00  0.00     0.026 C 
BRANCH   9  11
ATOM     11  S   UNL     1       2.312   3.263   2.016  1.00  0.00     0.185 S 
ATOM     12  O   UNL     1       1.072   3.950   1.715  1.00  0.00    -0.223 OA
ATOM     13  O   UNL     1       3.474   4.050   2.415  1.00  0.00    -0.223 OA
BRANCH  11  14
ATOM     14  C   UNL     1       1.958   2.229   3.415  1.00  0.00     0.109 A 
ATOM     15  C   UNL     1       2.153   0.852   3.481  1.00  0.00     0.137 A 
ATOM     16  C   UNL     1       1.740   0.154   4.625  1.00  0.00     0.048 A 
ATOM     17  C   UNL     1       1.225   0.831   5.730  1.00  0.00     0.004 A 
ATOM     18  C   UNL     1       1.451   2.909   4.539  1.00  0.00     0.024 A 
ATOM     19  C   UNL     1       1.100   2.214   5.695  1.00  0.00     0.002 A 
BRANCH  15  20
ATOM     20  O   UNL     1       2.689   0.175   2.431  1.00  0.00    -0.495 OA
ATOM     21  C   UNL     1       3.770  -0.690   2.791  1.00  0.00     0.278 C 
ENDBRANCH  15  20
ENDBRANCH  11  14
ENDBRANCH   9  11
ENDBRANCH   7   9
ENDBRANCH   4   7
ENDBRANCH   2   3
ENDBRANCH   1   2
BRANCH   1  22
ATOM     22  C   UNL     1       2.650   1.788  -5.238  1.00  0.00     0.002 C 
BRANCH  22  23
ATOM     23  C   UNL     1       3.447   3.028  -5.654  1.00  0.00     0.002 C 
BRANCH  23  24
ATOM     24  C   UNL     1       4.967   2.842  -5.685  1.00  0.00     0.021 C 
BRANCH  24  25
ATOM     25  C   UNL     1       5.450   1.716  -6.591  1.00  0.00     0.116 C 
BRANCH  25  26
ATOM     26  N   UNL     1       5.063   1.926  -7.976  1.00  0.00    -0.352 N 
ATOM     27  C   UNL     1       5.840   1.924  -9.105  1.00  0.00     0.251 C 
ATOM     28  H   UNL     1       4.105   2.094  -8.125  1.00  0.00     0.163 HD
ATOM     29  O   UNL     1       5.382   2.312 -10.175  1.00  0.00    -0.269 OA
BRANCH  27  30
ATOM     30  C   UNL     1       7.242   1.466  -9.029  1.00  0.00     0.039 A 
ATOM     31  C   UNL     1       8.234   2.222  -9.658  1.00  0.00     0.014 A 
ATOM     32  C   UNL     1       7.574   0.286  -8.355  1.00  0.00     0.014 A 
ATOM     33  C   UNL     1       9.568   1.822  -9.569  1.00  0.00     0.010 A 
ATOM     34  C   UNL     1       8.910  -0.077  -8.214  1.00  0.00     0.010 A 
ATOM     35  C   UNL     1       9.919   0.684  -8.825  1.00  0.00    -0.014 A 
BRANCH  35  36
ATOM     36  C   UNL     1      11.336   0.270  -8.681  1.00  0.00     0.031 A 
ATOM     37  C   UNL     1      11.805  -1.030  -9.272  1.00  0.00     0.074 A 
ATOM     38  C   UNL     1      12.181   1.033  -7.960  1.00  0.00     0.049 A 
ATOM     39  N   UNL     1      12.981  -1.599  -9.191  1.00  0.00    -0.248 NA
ATOM     40  C   UNL     1      10.814  -1.808 -10.034  1.00  0.00     0.031 C 
ATOM     41  C   UNL     1      11.831   2.289  -7.296  1.00  0.00     0.029 A 
ATOM     42  N   UNL     1      13.507   0.854  -7.652  1.00  0.00    -0.354 N 
ATOM     43  C   UNL     1      12.863  -2.808  -9.866  1.00  0.00     0.074 A 
ATOM     44  C   UNL     1      11.493  -2.909 -10.319  1.00  0.00     0.031 C 
ATOM     45  C   UNL     1      12.916   2.776  -6.673  1.00  0.00     0.029 A 
ATOM     46  C   UNL     1      14.029   1.850  -6.863  1.00  0.00     0.049 A 
ATOM     47  H   UNL     1      14.034   0.085  -7.967  1.00  0.00     0.167 HD
ATOM     48  C   UNL     1      13.818  -3.738 -10.100  1.00  0.00     0.037 A 
ATOM     49  C   UNL     1      15.263   1.994  -6.345  1.00  0.00     0.037 A 
ATOM     50  C   UNL     1      15.192  -3.608  -9.691  1.00  0.00     0.049 A 
ATOM     51  C   UNL     1      16.308   0.950  -6.639  1.00  0.00     0.074 A 
ATOM     52  C   UNL     1      16.255  -4.450  -9.965  1.00  0.00     0.029 A 
ATOM     53  N   UNL     1      15.691  -2.568  -8.922  1.00  0.00    -0.354 N 
ATOM     54  N   UNL     1      16.207  -0.144  -7.354  1.00  0.00    -0.248 NA
ATOM     55  C   UNL     1      17.641   1.165  -6.059  1.00  0.00     0.031 C 
ATOM     56  C   UNL     1      17.390  -3.944  -9.323  1.00  0.00     0.029 A 
ATOM     57  C   UNL     1      17.043  -2.762  -8.688  1.00  0.00     0.049 A 
ATOM     58  H   UNL     1      15.164  -1.806  -8.591  1.00  0.00     0.167 HD
ATOM     59  C   UNL     1      17.467  -0.727  -7.339  1.00  0.00     0.074 A 
ATOM     60  C   UNL     1      18.320   0.141  -6.555  1.00  0.00     0.031 C 
ATOM     61  C   UNL     1      17.881  -1.878  -7.921  1.00  0.00     0.037 A 
BRANCH  48  62
ATOM     62  C   UNL     1      13.423  -4.983 -10.837  1.00  0.00     0.064 A 
ATOM     63  C   UNL     1      13.140  -4.968 -12.210  1.00  0.00     0.173 A 
ATOM     64  C   UNL     1      13.401  -6.220 -10.175  1.00  0.00     0.173 A 
ATOM     65  F   UNL     1      13.138  -3.809 -12.887  1.00  0.00    -0.203 F 
ATOM     66  C   UNL     1      12.833  -6.143 -12.891  1.00  0.00     0.198 A 
ATOM     67  C   UNL     1      13.120  -7.396 -10.863  1.00  0.00     0.198 A 
ATOM     68  F   UNL     1      13.669  -6.289  -8.862  1.00  0.00    -0.203 F 
ATOM     69  F   UNL     1      12.534  -6.101 -14.196  1.00  0.00    -0.200 F 
ATOM     70  C   UNL     1      12.833  -7.357 -12.219  1.00  0.00     0.200 A 
ATOM     71  F   UNL     1      13.133  -8.570 -10.216  1.00  0.00    -0.200 F 
ATOM     72  F   UNL     1      12.555  -8.490 -12.880  1.00  0.00    -0.200 F 
ENDBRANCH  48  62
BRANCH  49  73
ATOM     73  C   UNL     1      15.593   3.175  -5.505  1.00  0.00     0.064 A 
ATOM     74  C   UNL     1      16.489   4.153  -5.959  1.00  0.00     0.173 A 
ATOM     75  C   UNL     1      15.050   3.333  -4.221  1.00  0.00     0.173 A 
ATOM     76  F   UNL     1      17.050   4.035  -7.171  1.00  0.00    -0.203 F 
ATOM     77  C   UNL     1      16.855   5.226  -5.149  1.00  0.00     0.198 A 
ATOM     78  C   UNL     1      15.394   4.423  -3.424  1.00  0.00     0.198 A 
ATOM     79  F   UNL     1      14.184   2.428  -3.741  1.00  0.00    -0.203 F 
ATOM     80  F   UNL     1      17.759   6.113  -5.586  1.00  0.00    -0.200 F 
ATOM     81  C   UNL     1      16.305   5.362  -3.884  1.00  0.00     0.200 A 
ATOM     82  F   UNL     1      14.851   4.557  -2.207  1.00  0.00    -0.200 F 
ATOM     83  F   UNL     1      16.662   6.390  -3.103  1.00  0.00    -0.200 F 
ENDBRANCH  49  73
BRANCH  61  84
ATOM     84  C   UNL     1      19.327  -2.244  -7.771  1.00  0.00     0.064 A 
ATOM     85  C   UNL     1      19.848  -2.699  -6.551  1.00  0.00     0.173 A 
ATOM     86  C   UNL     1      20.193  -2.177  -8.873  1.00  0.00     0.173 A 
ATOM     87  F   UNL     1      19.063  -2.766  -5.465  1.00  0.00    -0.203 F 
ATOM     88  C   UNL     1      21.190  -3.050  -6.434  1.00  0.00     0.198 A 
ATOM     89  C   UNL     1      21.527  -2.557  -8.759  1.00  0.00     0.198 A 
ATOM     90  F   UNL     1      19.742  -1.755 -10.063  1.00  0.00    -0.203 F 
ATOM     91  F   UNL     1      21.677  -3.437  -5.247  1.00  0.00    -0.200 F 
ATOM     92  C   UNL     1      22.026  -2.986  -7.539  1.00  0.00     0.200 A 
ATOM     93  F   UNL     1      22.330  -2.508  -9.831  1.00  0.00    -0.200 F 
ATOM     94  F   UNL     1      23.316  -3.332  -7.425  1.00  0.00    -0.200 F 
ENDBRANCH  61  84
ENDBRANCH  35  36
ENDBRANCH  27  30
ENDBRANCH  25  26
ENDBRANCH  24  25
ENDBRANCH  23  24
ENDBRANCH  22  23
ENDBRANCH   1  22
TORSDOF 17
