REMARK SMILES Cc1ccc(NC(=O)C[C@@H](C(=O)NCCCCCCNC(=O)c2ccc(-c3c4nc(c(-c5c(F)c(F)c(F)c(F)c5F)c5ccc([nH]5)c(-c5c(F)c(F)c(F)c(F)c5F)c5nc(c(-c6c(F)c(F)c(F)c(F)c6F)c6ccc3[nH]6)C=C5)C=C4)cc2)[C@@H](C)c2ccccc2)cc1Br
REMARK SMILES IDX 16 1 15 2 14 3 13 4 11 5 12 6 10 8 9 9 7 10 6 11 8 13 5 14
REMARK SMILES IDX 1 15 2 16 3 17 95 18 4 19 94 20 96 21 86 22 87 23 88 24
REMARK SMILES IDX 89 25 93 26 90 27 92 28 91 29 17 30 18 31 19 32 20 33 21 34
REMARK SMILES IDX 22 36 23 37 24 38 85 39 25 40 84 41 26 42 27 43 28 44 78 45
REMARK SMILES IDX 29 46 83 47 77 48 79 49 30 50 82 51 76 52 75 53 31 55 63 56
REMARK SMILES IDX 43 57 62 58 44 59 47 60 61 61 80 62 45 63 46 64 60 66 81 67
REMARK SMILES IDX 48 68 32 69 33 70 41 71 34 72 35 73 39 74 42 75 36 76 37 77
REMARK SMILES IDX 40 78 38 79 64 80 65 81 73 82 66 83 67 84 71 85 74 86 68 87
REMARK SMILES IDX 69 88 72 89 70 90 49 91 50 92 58 93 51 94 52 95 56 96 59 97
REMARK SMILES IDX 53 98 54 99 57 100 55 101
REMARK H PARENT 13 7 6 12 20 35 79 54 47 65
REMARK Flexibility Score: inf
ROOT
ATOM      1  C   UNL     1       5.148   1.447  -0.888  1.00  0.00     0.002 C 
ENDROOT
BRANCH   1   2
ATOM      2  C   UNL     1       4.483   2.828  -0.764  1.00  0.00     0.021 C 
BRANCH   2   3
ATOM      3  C   UNL     1       3.434   3.173  -1.829  1.00  0.00     0.116 C 
BRANCH   3   4
ATOM      4  N   UNL     1       2.432   2.135  -1.922  1.00  0.00    -0.356 N 
ATOM      5  C   UNL     1       1.110   2.070  -1.646  1.00  0.00     0.224 C 
ATOM      6  O   UNL     1       0.657   0.926  -1.676  1.00  0.00    -0.275 OA
ATOM      7  H   UNL     1       2.794   1.285  -2.263  1.00  0.00     0.163 HD
BRANCH   5   8
ATOM      8  C   UNL     1       0.249   3.302  -1.354  1.00  0.00     0.095 C 
BRANCH   8   9
ATOM      9  C   UNL     1       0.432   3.934   0.053  1.00  0.00     0.114 C 
BRANCH   9  10
ATOM     10  C   UNL     1       1.655   3.744   0.915  1.00  0.00     0.225 C 
ATOM     11  N   UNL     1       1.966   2.581   1.551  1.00  0.00    -0.326 N 
ATOM     12  H   UNL     1       2.688   2.661   2.216  1.00  0.00     0.169 HD
ATOM     13  O   UNL     1       2.433   4.695   1.069  1.00  0.00    -0.275 OA
BRANCH  11  14
ATOM     14  C   UNL     1       1.437   1.292   1.423  1.00  0.00     0.042 A 
ATOM     15  C   UNL     1       0.201  -2.650   0.215  1.00  0.00     0.045 C 
ATOM     16  C   UNL     1       0.597  -1.306   0.756  1.00  0.00    -0.037 A 
ATOM     17  C   UNL     1       1.956  -1.024   0.944  1.00  0.00     0.007 A 
ATOM     18  C   UNL     1      -0.338  -0.294   1.026  1.00  0.00     0.022 A 
ATOM     19  C   UNL     1       2.367   0.255   1.313  1.00  0.00     0.026 A 
ATOM     20  C   UNL     1       0.080   1.005   1.345  1.00  0.00     0.042 A 
ATOM     21  Br  UNL     1      -2.210  -0.615   0.940  1.00  0.00    -0.050 Br
ENDBRANCH  11  14
ENDBRANCH   9  10
ENDBRANCH   8   9
BRANCH   8  22
ATOM     22  C   UNL     1      -1.312   3.062  -1.554  1.00  0.00     0.029 C 
ATOM     23  C   UNL     1      -2.093   4.391  -1.377  1.00  0.00     0.013 C 
BRANCH  22  24
ATOM     24  C   UNL     1      -1.796   2.340  -2.816  1.00  0.00    -0.044 A 
ATOM     25  C   UNL     1      -2.277   3.004  -3.954  1.00  0.00     0.004 A 
ATOM     26  C   UNL     1      -1.881   0.936  -2.811  1.00  0.00     0.004 A 
ATOM     27  C   UNL     1      -2.813   2.288  -5.033  1.00  0.00     0.000 A 
ATOM     28  C   UNL     1      -2.368   0.217  -3.903  1.00  0.00     0.000 A 
ATOM     29  C   UNL     1      -2.844   0.896  -5.014  1.00  0.00     0.000 A 
ENDBRANCH  22  24
ENDBRANCH   8  22
ENDBRANCH   5   8
ENDBRANCH   3   4
ENDBRANCH   2   3
ENDBRANCH   1   2
BRANCH   1  30
ATOM     30  C   UNL     1       6.192   1.328  -1.993  1.00  0.00     0.002 C 
BRANCH  30  31
ATOM     31  C   UNL     1       7.277   2.402  -1.951  1.00  0.00     0.021 C 
BRANCH  31  32
ATOM     32  C   UNL     1       7.911   2.611  -0.580  1.00  0.00     0.116 C 
BRANCH  32  33
ATOM     33  N   UNL     1       8.698   1.465  -0.155  1.00  0.00    -0.352 N 
ATOM     34  C   UNL     1      10.044   1.412   0.105  1.00  0.00     0.251 C 
ATOM     35  H   UNL     1       8.203   0.622  -0.038  1.00  0.00     0.163 HD
ATOM     36  O   UNL     1      10.618   0.341   0.272  1.00  0.00    -0.269 OA
BRANCH  34  37
ATOM     37  C   UNL     1      10.801   2.677   0.153  1.00  0.00     0.039 A 
ATOM     38  C   UNL     1      11.932   2.823  -0.649  1.00  0.00     0.014 A 
ATOM     39  C   UNL     1      10.342   3.736   0.942  1.00  0.00     0.014 A 
ATOM     40  C   UNL     1      12.575   4.060  -0.705  1.00  0.00     0.010 A 
ATOM     41  C   UNL     1      10.931   4.989   0.818  1.00  0.00     0.010 A 
ATOM     42  C   UNL     1      12.060   5.161   0.002  1.00  0.00    -0.014 A 
BRANCH  42  43
ATOM     43  C   UNL     1      12.700   6.497  -0.090  1.00  0.00     0.031 A 
ATOM     44  C   UNL     1      13.303   7.123   1.137  1.00  0.00     0.074 A 
ATOM     45  C   UNL     1      12.695   7.164  -1.260  1.00  0.00     0.049 A 
ATOM     46  N   UNL     1      13.870   8.295   1.276  1.00  0.00    -0.248 NA
ATOM     47  C   UNL     1      13.232   6.341   2.381  1.00  0.00     0.031 C 
ATOM     48  C   UNL     1      12.097   6.682  -2.506  1.00  0.00     0.029 A 
ATOM     49  N   UNL     1      13.205   8.395  -1.591  1.00  0.00    -0.354 N 
ATOM     50  C   UNL     1      14.212   8.391   2.618  1.00  0.00     0.074 A 
ATOM     51  C   UNL     1      13.731   7.191   3.266  1.00  0.00     0.031 C 
ATOM     52  C   UNL     1      12.300   7.593  -3.472  1.00  0.00     0.029 A 
ATOM     53  C   UNL     1      13.005   8.739  -2.906  1.00  0.00     0.049 A 
ATOM     54  H   UNL     1      13.670   8.976  -0.947  1.00  0.00     0.167 HD
ATOM     55  C   UNL     1      14.891   9.378   3.248  1.00  0.00     0.037 A 
ATOM     56  C   UNL     1      13.347   9.856  -3.576  1.00  0.00     0.037 A 
ATOM     57  C   UNL     1      15.384  10.561   2.594  1.00  0.00     0.049 A 
ATOM     58  C   UNL     1      14.088  10.946  -2.848  1.00  0.00     0.074 A 
ATOM     59  C   UNL     1      16.134  11.593   3.128  1.00  0.00     0.029 A 
ATOM     60  N   UNL     1      15.168  10.872   1.259  1.00  0.00    -0.354 N 
ATOM     61  N   UNL     1      14.475  10.992  -1.596  1.00  0.00    -0.248 NA
ATOM     62  C   UNL     1      14.445  12.138  -3.629  1.00  0.00     0.031 C 
ATOM     63  C   UNL     1      16.323  12.556   2.132  1.00  0.00     0.029 A 
ATOM     64  C   UNL     1      15.745  12.095   0.959  1.00  0.00     0.049 A 
ATOM     65  H   UNL     1      14.677  10.307   0.619  1.00  0.00     0.167 HD
ATOM     66  C   UNL     1      15.145  12.199  -1.447  1.00  0.00     0.074 A 
ATOM     67  C   UNL     1      15.127  12.848  -2.741  1.00  0.00     0.031 C 
ATOM     68  C   UNL     1      15.722  12.724  -0.338  1.00  0.00     0.037 A 
BRANCH  55  69
ATOM     69  C   UNL     1      15.141   9.218   4.721  1.00  0.00     0.064 A 
ATOM     70  C   UNL     1      16.006   8.231   5.221  1.00  0.00     0.173 A 
ATOM     71  C   UNL     1      14.530  10.080   5.644  1.00  0.00     0.173 A 
ATOM     72  F   UNL     1      16.607   7.372   4.383  1.00  0.00    -0.203 F 
ATOM     73  C   UNL     1      16.222   8.092   6.589  1.00  0.00     0.198 A 
ATOM     74  C   UNL     1      14.776   9.961   7.010  1.00  0.00     0.198 A 
ATOM     75  F   UNL     1      13.698  11.044   5.223  1.00  0.00    -0.203 F 
ATOM     76  F   UNL     1      17.006   7.106   7.045  1.00  0.00    -0.200 F 
ATOM     77  C   UNL     1      15.613   8.961   7.482  1.00  0.00     0.200 A 
ATOM     78  F   UNL     1      14.199  10.811   7.870  1.00  0.00    -0.200 F 
ATOM     79  F   UNL     1      15.828   8.831   8.798  1.00  0.00    -0.200 F 
ENDBRANCH  55  69
BRANCH  56  80
ATOM     80  C   UNL     1      13.014   9.991  -5.019  1.00  0.00     0.064 A 
ATOM     81  C   UNL     1      14.022  10.004  -5.994  1.00  0.00     0.173 A 
ATOM     82  C   UNL     1      11.687  10.120  -5.454  1.00  0.00     0.173 A 
ATOM     83  F   UNL     1      15.309   9.904  -5.628  1.00  0.00    -0.203 F 
ATOM     84  C   UNL     1      13.718  10.165  -7.344  1.00  0.00     0.198 A 
ATOM     85  C   UNL     1      11.381  10.248  -6.808  1.00  0.00     0.198 A 
ATOM     86  F   UNL     1      10.684  10.108  -4.564  1.00  0.00    -0.203 F 
ATOM     87  F   UNL     1      14.704  10.225  -8.249  1.00  0.00    -0.200 F 
ATOM     88  C   UNL     1      12.397  10.280  -7.751  1.00  0.00     0.200 A 
ATOM     89  F   UNL     1      10.103  10.342  -7.197  1.00  0.00    -0.200 F 
ATOM     90  F   UNL     1      12.104  10.431  -9.049  1.00  0.00    -0.200 F 
ENDBRANCH  56  80
BRANCH  68  91
ATOM     91  C   UNL     1      16.414  14.050  -0.482  1.00  0.00     0.064 A 
ATOM     92  C   UNL     1      15.698  15.238  -0.688  1.00  0.00     0.173 A 
ATOM     93  C   UNL     1      17.811  14.136  -0.372  1.00  0.00     0.173 A 
ATOM     94  F   UNL     1      14.363  15.209  -0.815  1.00  0.00    -0.203 F 
ATOM     95  C   UNL     1      16.357  16.459  -0.808  1.00  0.00     0.198 A 
ATOM     96  C   UNL     1      18.463  15.362  -0.457  1.00  0.00     0.198 A 
ATOM     97  F   UNL     1      18.543  13.031  -0.167  1.00  0.00    -0.203 F 
ATOM     98  F   UNL     1      15.656  17.574  -1.058  1.00  0.00    -0.200 F 
ATOM     99  C   UNL     1      17.737  16.521  -0.683  1.00  0.00     0.200 A 
ATOM    100  F   UNL     1      19.794  15.422  -0.319  1.00  0.00    -0.200 F 
ATOM    101  F   UNL     1      18.368  17.699  -0.789  1.00  0.00    -0.200 F 
ENDBRANCH  68  91
ENDBRANCH  42  43
ENDBRANCH  34  37
ENDBRANCH  32  33
ENDBRANCH  31  32
ENDBRANCH  30  31
ENDBRANCH   1  30
TORSDOF 18
