REMARK SMILES C[NH2+][C@@]1(C(=O)NCCCCCCNC(=O)c2ccc(-c3c4nc(c(-c5c(F)c(F)c(F)c(F)c5F)c5ccc([nH]5)c(-c5c(F)c(F)c(F)c(F)c5F)c5nc(c(-c6c(F)c(F)c(F)c(F)c6F)c6ccc3[nH]6)C=C5)C=C4)cc2)CC[C@H](Sc2ccc(C)c(C)c2)C1
REMARK SMILES IDX 9 1 8 2 7 3 6 4 4 5 5 6 3 8 79 9 91 10 80 11 81 12 2 13 1 14
REMARK SMILES IDX 82 17 83 18 84 19 90 20 85 21 88 22 86 23 89 24 87 25 10 26
REMARK SMILES IDX 11 27 12 28 13 29 14 30 15 32 16 33 17 34 78 35 18 36 77 37
REMARK SMILES IDX 19 38 20 39 21 40 71 41 22 42 76 43 70 44 72 45 23 46 75 47
REMARK SMILES IDX 69 48 68 49 24 51 56 52 36 53 55 54 37 55 40 56 54 57 73 58
REMARK SMILES IDX 38 59 39 60 53 62 74 63 41 64 25 65 26 66 34 67 27 68 28 69
REMARK SMILES IDX 32 70 35 71 29 72 30 73 33 74 31 75 57 76 58 77 66 78 59 79
REMARK SMILES IDX 60 80 64 81 67 82 61 83 62 84 65 85 63 86 42 87 43 88 51 89
REMARK SMILES IDX 44 90 45 91 49 92 52 93 46 94 47 95 50 96 48 97
REMARK H PARENT 6 7 2 15 2 16 13 31 72 50 40 61
REMARK Flexibility Score: inf
ROOT
ATOM      1  C   UNL     1      -5.296   0.131   3.989  1.00  0.00     0.002 C 
ENDROOT
BRANCH   1   2
ATOM      2  C   UNL     1      -4.663  -0.121   2.619  1.00  0.00     0.021 C 
BRANCH   2   3
ATOM      3  C   UNL     1      -3.806   1.010   2.052  1.00  0.00     0.116 C 
BRANCH   3   4
ATOM      4  N   UNL     1      -2.463   1.056   2.598  1.00  0.00    -0.351 N 
ATOM      5  C   UNL     1      -1.239   1.185   2.011  1.00  0.00     0.281 C 
ATOM      6  O   UNL     1      -0.286   1.317   2.795  1.00  0.00    -0.268 OA
ATOM      7  H   UNL     1      -2.429   0.979   3.579  1.00  0.00     0.163 HD
BRANCH   5   8
ATOM      8  C   UNL     1      -0.990   1.230   0.450  1.00  0.00     0.176 C 
ATOM      9  C   UNL     1      -1.553   2.538  -0.154  1.00  0.00     0.080 C 
ATOM     10  C   UNL     1      -1.669   0.085  -0.329  1.00  0.00     0.094 C 
ATOM     11  C   UNL     1      -2.758   2.157  -1.004  1.00  0.00     0.022 C 
ATOM     12  C   UNL     1      -2.450   0.744  -1.474  1.00  0.00     0.058 C 
BRANCH   8  13
ATOM     13  N   UNL     1       0.489   1.340   0.228  1.00  0.00    -0.336 N 
ATOM     14  C   UNL     1       1.230   0.086   0.244  1.00  0.00     0.331 C 
ATOM     15  H   UNL     1       0.637   1.778  -0.681  1.00  0.00     0.346 HD
ATOM     16  H   UNL     1       0.847   1.882   1.014  1.00  0.00     0.346 HD
ENDBRANCH   8  13
BRANCH  12  17
ATOM     17  S   UNL     1      -3.783  -0.388  -2.046  1.00  0.00    -0.122 SA
BRANCH  17  18
ATOM     18  C   UNL     1      -5.343   0.392  -1.684  1.00  0.00     0.008 A 
ATOM     19  C   UNL     1      -5.673   1.674  -2.113  1.00  0.00     0.015 A 
ATOM     20  C   UNL     1      -6.348  -0.395  -1.111  1.00  0.00     0.018 A 
ATOM     21  C   UNL     1      -6.961   2.184  -1.921  1.00  0.00     0.005 A 
ATOM     22  C   UNL     1      -7.661   0.087  -0.955  1.00  0.00    -0.047 A 
ATOM     23  C   UNL     1      -7.971   1.403  -1.345  1.00  0.00    -0.048 A 
ATOM     24  C   UNL     1      -8.710  -0.877  -0.493  1.00  0.00     0.044 C 
ATOM     25  C   UNL     1      -9.366   1.968  -1.282  1.00  0.00     0.044 C 
ENDBRANCH  17  18
ENDBRANCH  12  17
ENDBRANCH   5   8
ENDBRANCH   3   4
ENDBRANCH   2   3
ENDBRANCH   1   2
BRANCH   1  26
ATOM     26  C   UNL     1      -6.206   1.359   4.115  1.00  0.00     0.002 C 
BRANCH  26  27
ATOM     27  C   UNL     1      -7.296   1.541   3.050  1.00  0.00     0.021 C 
BRANCH  27  28
ATOM     28  C   UNL     1      -8.331   0.420   2.915  1.00  0.00     0.116 C 
BRANCH  28  29
ATOM     29  N   UNL     1      -9.165   0.252   4.095  1.00  0.00    -0.352 N 
ATOM     30  C   UNL     1     -10.527   0.093   4.194  1.00  0.00     0.251 C 
ATOM     31  H   UNL     1      -8.680   0.252   4.952  1.00  0.00     0.163 HD
ATOM     32  O   UNL     1     -11.061   0.060   5.303  1.00  0.00    -0.269 OA
BRANCH  30  33
ATOM     33  C   UNL     1     -11.378  -0.015   2.987  1.00  0.00     0.039 A 
ATOM     34  C   UNL     1     -12.481   0.832   2.852  1.00  0.00     0.014 A 
ATOM     35  C   UNL     1     -11.136  -0.978   2.008  1.00  0.00     0.014 A 
ATOM     36  C   UNL     1     -13.285   0.770   1.703  1.00  0.00     0.010 A 
ATOM     37  C   UNL     1     -11.908  -0.997   0.835  1.00  0.00     0.010 A 
ATOM     38  C   UNL     1     -12.981  -0.109   0.648  1.00  0.00    -0.014 A 
BRANCH  38  39
ATOM     39  C   UNL     1     -13.748  -0.075  -0.643  1.00  0.00     0.031 A 
ATOM     40  C   UNL     1     -14.418  -1.309  -1.203  1.00  0.00     0.074 A 
ATOM     41  C   UNL     1     -13.803   1.062  -1.373  1.00  0.00     0.049 A 
ATOM     42  N   UNL     1     -15.078  -1.458  -2.329  1.00  0.00    -0.248 NA
ATOM     43  C   UNL     1     -14.305  -2.546  -0.417  1.00  0.00     0.031 C 
ATOM     44  C   UNL     1     -13.152   2.326  -1.031  1.00  0.00     0.029 A 
ATOM     45  N   UNL     1     -14.441   1.337  -2.564  1.00  0.00    -0.354 N 
ATOM     46  C   UNL     1     -15.423  -2.802  -2.400  1.00  0.00     0.074 A 
ATOM     47  C   UNL     1     -14.858  -3.437  -1.228  1.00  0.00     0.031 C 
ATOM     48  C   UNL     1     -13.457   3.248  -1.957  1.00  0.00     0.029 A 
ATOM     49  C   UNL     1     -14.299   2.639  -2.983  1.00  0.00     0.049 A 
ATOM     50  H   UNL     1     -14.952   0.663  -3.068  1.00  0.00     0.167 HD
ATOM     51  C   UNL     1     -16.166  -3.451  -3.332  1.00  0.00     0.037 A 
ATOM     52  C   UNL     1     -14.789   3.282  -4.062  1.00  0.00     0.037 A 
ATOM     53  C   UNL     1     -16.803  -2.832  -4.465  1.00  0.00     0.049 A 
ATOM     54  C   UNL     1     -15.659   2.554  -5.052  1.00  0.00     0.074 A 
ATOM     55  C   UNL     1     -17.659  -3.406  -5.393  1.00  0.00     0.029 A 
ATOM     56  N   UNL     1     -16.666  -1.502  -4.824  1.00  0.00    -0.354 N 
ATOM     57  N   UNL     1     -16.044   1.304  -5.052  1.00  0.00    -0.248 NA
ATOM     58  C   UNL     1     -16.168   3.336  -6.191  1.00  0.00     0.031 C 
ATOM     59  C   UNL     1     -18.014  -2.431  -6.331  1.00  0.00     0.029 A 
ATOM     60  C   UNL     1     -17.411  -1.240  -5.965  1.00  0.00     0.049 A 
ATOM     61  H   UNL     1     -16.121  -0.839  -4.342  1.00  0.00     0.167 HD
ATOM     62  C   UNL     1     -16.863   1.157  -6.165  1.00  0.00     0.074 A 
ATOM     63  C   UNL     1     -16.929   2.448  -6.814  1.00  0.00     0.031 C 
ATOM     64  C   UNL     1     -17.500   0.046  -6.605  1.00  0.00     0.037 A 
BRANCH  51  65
ATOM     65  C   UNL     1     -16.365  -4.930  -3.154  1.00  0.00     0.064 A 
ATOM     66  C   UNL     1     -17.184  -5.443  -2.138  1.00  0.00     0.173 A 
ATOM     67  C   UNL     1     -15.778  -5.841  -4.047  1.00  0.00     0.173 A 
ATOM     68  F   UNL     1     -17.766  -4.614  -1.258  1.00  0.00    -0.203 F 
ATOM     69  C   UNL     1     -17.381  -6.814  -1.999  1.00  0.00     0.198 A 
ATOM     70  C   UNL     1     -16.003  -7.210  -3.924  1.00  0.00     0.198 A 
ATOM     71  F   UNL     1     -14.999  -5.402  -5.047  1.00  0.00    -0.203 F 
ATOM     72  F   UNL     1     -18.129  -7.283  -0.991  1.00  0.00    -0.200 F 
ATOM     73  C   UNL     1     -16.796  -7.696  -2.896  1.00  0.00     0.200 A 
ATOM     74  F   UNL     1     -15.451  -8.059  -4.802  1.00  0.00    -0.200 F 
ATOM     75  F   UNL     1     -16.994  -9.015  -2.766  1.00  0.00    -0.200 F 
ENDBRANCH  51  65
BRANCH  52  76
ATOM     76  C   UNL     1     -14.506   4.729  -4.254  1.00  0.00     0.064 A 
ATOM     77  C   UNL     1     -15.518   5.684  -4.080  1.00  0.00     0.173 A 
ATOM     78  C   UNL     1     -13.237   5.182  -4.639  1.00  0.00     0.173 A 
ATOM     79  F   UNL     1     -16.754   5.293  -3.737  1.00  0.00    -0.203 F 
ATOM     80  C   UNL     1     -15.277   7.037  -4.305  1.00  0.00     0.198 A 
ATOM     81  C   UNL     1     -12.990   6.538  -4.839  1.00  0.00     0.198 A 
ATOM     82  F   UNL     1     -12.236   4.307  -4.814  1.00  0.00    -0.203 F 
ATOM     83  F   UNL     1     -16.274   7.923  -4.179  1.00  0.00    -0.200 F 
ATOM     84  C   UNL     1     -14.012   7.463  -4.681  1.00  0.00     0.200 A 
ATOM     85  F   UNL     1     -11.764   6.949  -5.192  1.00  0.00    -0.200 F 
ATOM     86  F   UNL     1     -13.780   8.765  -4.900  1.00  0.00    -0.200 F 
ENDBRANCH  52  76
BRANCH  64  87
ATOM     87  C   UNL     1     -18.367   0.173  -7.824  1.00  0.00     0.064 A 
ATOM     88  C   UNL     1     -17.819   0.323  -9.107  1.00  0.00     0.173 A 
ATOM     89  C   UNL     1     -19.764   0.104  -7.712  1.00  0.00     0.173 A 
ATOM     90  F   UNL     1     -16.490   0.411  -9.267  1.00  0.00    -0.203 F 
ATOM     91  C   UNL     1     -18.639   0.419 -10.229  1.00  0.00     0.198 A 
ATOM     92  C   UNL     1     -20.579   0.175  -8.839  1.00  0.00     0.198 A 
ATOM     93  F   UNL     1     -20.339  -0.042  -6.509  1.00  0.00    -0.203 F 
ATOM     94  F   UNL     1     -18.095   0.602 -11.440  1.00  0.00    -0.200 F 
ATOM     95  C   UNL     1     -20.017   0.338 -10.095  1.00  0.00     0.200 A 
ATOM     96  F   UNL     1     -21.910   0.086  -8.708  1.00  0.00    -0.200 F 
ATOM     97  F   UNL     1     -20.803   0.423 -11.178  1.00  0.00    -0.200 F 
ENDBRANCH  64  87
ENDBRANCH  38  39
ENDBRANCH  30  33
ENDBRANCH  28  29
ENDBRANCH  27  28
ENDBRANCH  26  27
ENDBRANCH   1  26
TORSDOF 16
