REMARK SMILES Cc1cc(Br)cc([N+](=O)[O-])c1OCCC[C@@](C)([NH3+])C(=O)NCCCCCCNC(=O)c1ccc(-c2c3nc(c(-c4c(F)c(F)c(F)c(F)c4F)c4ccc([nH]4)c(-c4c(F)c(F)c(F)c(F)c4F)c4nc(c(-c5c(F)c(F)c(F)c(F)c5F)c5ccc2[nH]5)C=C4)C=C3)cc1
REMARK SMILES IDX 22 1 21 2 19 3 20 4 16 6 17 7 15 8 14 9 13 10 12 11 11 12
REMARK SMILES IDX 1 13 2 14 3 15 4 16 7 17 5 18 6 19 8 20 9 21 10 22 18 23
REMARK SMILES IDX 23 27 24 28 25 29 26 30 27 31 28 32 29 33 30 35 31 36 32 37
REMARK SMILES IDX 93 38 33 39 92 40 34 41 35 42 36 43 86 44 37 45 91 46 85 47
REMARK SMILES IDX 87 48 38 49 90 50 84 51 83 52 39 54 71 55 51 56 70 57 52 58
REMARK SMILES IDX 55 59 69 60 88 61 53 62 54 63 68 65 89 66 56 67 40 68 41 69
REMARK SMILES IDX 49 70 42 71 43 72 47 73 50 74 44 75 45 76 48 77 46 78 72 79
REMARK SMILES IDX 73 80 81 81 74 82 75 83 79 84 82 85 76 86 77 87 80 88 78 89
REMARK SMILES IDX 57 90 58 91 66 92 59 93 60 94 64 95 67 96 61 97 62 98 65 99
REMARK SMILES IDX 63 100
REMARK H PARENT 21 5 18 24 18 25 18 26 28 34 87 53 55 64
REMARK Flexibility Score: inf
ROOT
ATOM      1  C   UNL     1      -3.084  -4.128   2.736  1.00  0.00     0.116 C 
ENDROOT
BRANCH   1   2
ATOM      2  N   UNL     1      -3.865  -2.953   2.404  1.00  0.00    -0.351 N 
ATOM      3  C   UNL     1      -4.585  -2.595   1.310  1.00  0.00     0.280 C 
ATOM      4  O   UNL     1      -5.442  -1.730   1.533  1.00  0.00    -0.268 OA
ATOM      5  H   UNL     1      -3.876  -2.276   3.118  1.00  0.00     0.163 HD
BRANCH   3   6
ATOM      6  C   UNL     1      -4.422  -3.204  -0.117  1.00  0.00     0.171 C 
ATOM      7  C   UNL     1      -5.603  -4.169  -0.297  1.00  0.00     0.090 C 
BRANCH   6   8
ATOM      8  C   UNL     1      -4.380  -2.138  -1.270  1.00  0.00     0.082 C 
BRANCH   8   9
ATOM      9  C   UNL     1      -5.095  -0.778  -1.115  1.00  0.00     0.049 C 
BRANCH   9  10
ATOM     10  C   UNL     1      -4.342   0.346  -0.354  1.00  0.00     0.230 C 
BRANCH  10  11
ATOM     11  O   UNL     1      -3.181   0.761  -1.094  1.00  0.00    -0.487 OA
BRANCH  11  12
ATOM     12  C   UNL     1      -2.064   1.145  -0.380  1.00  0.00     0.200 A 
ATOM     13  C   UNL     1      -1.488  -1.270   0.205  1.00  0.00     0.049 C 
ATOM     14  C   UNL     1      -1.137   0.162   0.015  1.00  0.00    -0.001 A 
ATOM     15  C   UNL     1       0.214   0.491   0.213  1.00  0.00     0.023 A 
ATOM     16  C   UNL     1       0.644   1.802   0.102  1.00  0.00     0.025 A 
ATOM     17  C   UNL     1      -1.628   2.482  -0.377  1.00  0.00     0.312 A 
ATOM     18  Br  UNL     1       2.481   2.191   0.291  1.00  0.00    -0.051 Br
ATOM     19  C   UNL     1      -0.276   2.812  -0.139  1.00  0.00     0.105 A 
BRANCH  17  20
ATOM     20  N   UNL     1      -2.564   3.593  -0.545  1.00  0.00     0.066 N 
ATOM     21  O   UNL     1      -2.099   4.676  -0.934  1.00  0.00    -0.258 OA
ATOM     22  O   UNL     1      -3.742   3.423  -0.207  1.00  0.00    -0.258 OA
ENDBRANCH  17  20
ENDBRANCH  11  12
ENDBRANCH  10  11
ENDBRANCH   9  10
ENDBRANCH   8   9
ENDBRANCH   6   8
BRANCH   6  23
ATOM     23  N   UNL     1      -3.216  -4.058  -0.268  1.00  0.00    -0.345 N 
ATOM     24  H   UNL     1      -3.173  -4.420  -1.221  1.00  0.00     0.345 HD
ATOM     25  H   UNL     1      -3.265  -4.835   0.390  1.00  0.00     0.345 HD
ATOM     26  H   UNL     1      -2.381  -3.503  -0.077  1.00  0.00     0.345 HD
ENDBRANCH   6  23
ENDBRANCH   3   6
ENDBRANCH   1   2
BRANCH   1  27
ATOM     27  C   UNL     1      -1.803  -3.768   3.493  1.00  0.00     0.021 C 
BRANCH  27  28
ATOM     28  C   UNL     1      -2.001  -2.987   4.800  1.00  0.00     0.002 C 
BRANCH  28  29
ATOM     29  C   UNL     1      -3.017  -3.575   5.784  1.00  0.00     0.002 C 
BRANCH  29  30
ATOM     30  C   UNL     1      -2.831  -5.056   6.116  1.00  0.00     0.021 C 
BRANCH  30  31
ATOM     31  C   UNL     1      -1.476  -5.410   6.710  1.00  0.00     0.116 C 
BRANCH  31  32
ATOM     32  N   UNL     1      -1.309  -4.884   8.053  1.00  0.00    -0.352 N 
ATOM     33  C   UNL     1      -1.003  -5.557   9.212  1.00  0.00     0.251 C 
ATOM     34  H   UNL     1      -1.433  -3.912   8.147  1.00  0.00     0.163 HD
ATOM     35  O   UNL     1      -1.086  -4.995  10.297  1.00  0.00    -0.269 OA
BRANCH  33  36
ATOM     36  C   UNL     1      -0.597  -6.978   9.145  1.00  0.00     0.039 A 
ATOM     37  C   UNL     1      -1.165  -7.887  10.041  1.00  0.00     0.014 A 
ATOM     38  C   UNL     1       0.334  -7.414   8.197  1.00  0.00     0.014 A 
ATOM     39  C   UNL     1      -0.848  -9.243   9.944  1.00  0.00     0.010 A 
ATOM     40  C   UNL     1       0.588  -8.775   8.051  1.00  0.00     0.010 A 
ATOM     41  C   UNL     1       0.003  -9.703   8.926  1.00  0.00    -0.014 A 
BRANCH  41  42
ATOM     42  C   UNL     1       0.293 -11.151   8.761  1.00  0.00     0.031 A 
ATOM     43  C   UNL     1       1.694 -11.666   8.932  1.00  0.00     0.074 A 
ATOM     44  C   UNL     1      -0.696 -11.991   8.396  1.00  0.00     0.049 A 
ATOM     45  N   UNL     1       2.157 -12.881   8.770  1.00  0.00    -0.248 NA
ATOM     46  C   UNL     1       2.720 -10.681   9.310  1.00  0.00     0.031 C 
ATOM     47  C   UNL     1      -2.086 -11.605   8.151  1.00  0.00     0.029 A 
ATOM     48  N   UNL     1      -0.680 -13.343   8.156  1.00  0.00    -0.354 N 
ATOM     49  C   UNL     1       3.522 -12.801   9.013  1.00  0.00     0.074 A 
ATOM     50  C   UNL     1       3.824 -11.412   9.277  1.00  0.00     0.031 C 
ATOM     51  C   UNL     1      -2.794 -12.696   7.821  1.00  0.00     0.029 A 
ATOM     52  C   UNL     1      -1.903 -13.851   7.789  1.00  0.00     0.049 A 
ATOM     53  H   UNL     1       0.130 -13.896   8.239  1.00  0.00     0.167 HD
ATOM     54  C   UNL     1       4.436 -13.801   9.039  1.00  0.00     0.037 A 
ATOM     55  C   UNL     1      -2.261 -15.106   7.457  1.00  0.00     0.037 A 
ATOM     56  C   UNL     1       4.126 -15.186   8.796  1.00  0.00     0.049 A 
ATOM     57  C   UNL     1      -1.224 -16.196   7.481  1.00  0.00     0.074 A 
ATOM     58  C   UNL     1       4.969 -16.282   8.857  1.00  0.00     0.029 A 
ATOM     59  N   UNL     1       2.873 -15.665   8.441  1.00  0.00    -0.354 N 
ATOM     60  N   UNL     1       0.049 -16.121   7.784  1.00  0.00    -0.248 NA
ATOM     61  C   UNL     1      -1.677 -17.548   7.125  1.00  0.00     0.031 C 
ATOM     62  C   UNL     1       4.239 -17.416   8.487  1.00  0.00     0.029 A 
ATOM     63  C   UNL     1       2.927 -17.037   8.253  1.00  0.00     0.049 A 
ATOM     64  H   UNL     1       2.065 -15.111   8.338  1.00  0.00     0.167 HD
ATOM     65  C   UNL     1       0.543 -17.415   7.684  1.00  0.00     0.074 A 
ATOM     66  C   UNL     1      -0.573 -18.259   7.309  1.00  0.00     0.031 C 
ATOM     67  C   UNL     1       1.806 -17.864   7.886  1.00  0.00     0.037 A 
BRANCH  54  68
ATOM     68  C   UNL     1       5.861 -13.433   9.341  1.00  0.00     0.064 A 
ATOM     69  C   UNL     1       6.254 -12.990  10.613  1.00  0.00     0.173 A 
ATOM     70  C   UNL     1       6.853 -13.562   8.357  1.00  0.00     0.173 A 
ATOM     71  F   UNL     1       5.344 -12.839  11.587  1.00  0.00    -0.203 F 
ATOM     72  C   UNL     1       7.581 -12.660  10.880  1.00  0.00     0.198 A 
ATOM     73  C   UNL     1       8.184 -13.263   8.637  1.00  0.00     0.198 A 
ATOM     74  F   UNL     1       6.534 -13.987   7.125  1.00  0.00    -0.203 F 
ATOM     75  F   UNL     1       7.922 -12.188  12.087  1.00  0.00    -0.200 F 
ATOM     76  C   UNL     1       8.545 -12.804   9.894  1.00  0.00     0.200 A 
ATOM     77  F   UNL     1       9.118 -13.417   7.688  1.00  0.00    -0.200 F 
ATOM     78  F   UNL     1       9.823 -12.493  10.155  1.00  0.00    -0.200 F 
ENDBRANCH  54  68
BRANCH  55  79
ATOM     79  C   UNL     1      -3.672 -15.404   7.093  1.00  0.00     0.064 A 
ATOM     80  C   UNL     1      -4.481 -16.188   7.928  1.00  0.00     0.173 A 
ATOM     81  C   UNL     1      -4.238 -14.920   5.905  1.00  0.00     0.173 A 
ATOM     82  F   UNL     1      -3.980 -16.691   9.066  1.00  0.00    -0.203 F 
ATOM     83  C   UNL     1      -5.795 -16.494   7.578  1.00  0.00     0.198 A 
ATOM     84  C   UNL     1      -5.561 -15.201   5.571  1.00  0.00     0.198 A 
ATOM     85  F   UNL     1      -3.509 -14.161   5.073  1.00  0.00    -0.203 F 
ATOM     86  F   UNL     1      -6.530 -17.286   8.370  1.00  0.00    -0.200 F 
ATOM     87  C   UNL     1      -6.336 -15.996   6.402  1.00  0.00     0.200 A 
ATOM     88  F   UNL     1      -6.085 -14.704   4.442  1.00  0.00    -0.200 F 
ATOM     89  F   UNL     1      -7.600 -16.287   6.068  1.00  0.00    -0.200 F 
ENDBRANCH  55  79
BRANCH  67  90
ATOM     90  C   UNL     1       2.044 -19.341   7.744  1.00  0.00     0.064 A 
ATOM     91  C   UNL     1       2.015 -19.976   6.494  1.00  0.00     0.173 A 
ATOM     92  C   UNL     1       2.344 -20.121   8.871  1.00  0.00     0.173 A 
ATOM     93  F   UNL     1       1.718 -19.278   5.388  1.00  0.00    -0.203 F 
ATOM     94  C   UNL     1       2.251 -21.344   6.382  1.00  0.00     0.198 A 
ATOM     95  C   UNL     1       2.612 -21.482   8.751  1.00  0.00     0.198 A 
ATOM     96  F   UNL     1       2.392 -19.561  10.089  1.00  0.00    -0.203 F 
ATOM     97  F   UNL     1       2.168 -21.940   5.184  1.00  0.00    -0.200 F 
ATOM     98  C   UNL     1       2.558 -22.094   7.508  1.00  0.00     0.200 A 
ATOM     99  F   UNL     1       2.924 -22.201   9.838  1.00  0.00    -0.200 F 
ATOM    100  F   UNL     1       2.793 -23.408   7.396  1.00  0.00    -0.200 F 
ENDBRANCH  67  90
ENDBRANCH  41  42
ENDBRANCH  33  36
ENDBRANCH  31  32
ENDBRANCH  30  31
ENDBRANCH  29  30
ENDBRANCH  28  29
ENDBRANCH  27  28
ENDBRANCH   1  27
TORSDOF 20
