REMARK SMILES CCC[NH2+][C@]1(C(=O)NCCCCCCNC(=O)c2ccc(-c3c4nc(c(-c5c(F)c(F)c(F)c(F)c5F)c5ccc([nH]5)c(-c5c(F)c(F)c(F)c(F)c5F)c5nc(c(-c6c(F)c(F)c(F)c(F)c6F)c6ccc3[nH]6)C=C5)C=C4)cc2)CCC[C@H](OC(C)(C)C)C1
REMARK SMILES IDX 11 1 10 2 9 3 8 4 6 5 7 6 5 8 81 9 90 10 82 11 84 12 83 13
REMARK SMILES IDX 4 14 3 17 2 18 1 19 85 20 86 21 87 22 88 23 89 24 12 25
REMARK SMILES IDX 13 26 14 27 15 28 16 29 17 31 18 32 19 33 80 34 20 35 79 36
REMARK SMILES IDX 21 37 22 38 23 39 73 40 24 41 78 42 72 43 74 44 25 45 77 46
REMARK SMILES IDX 71 47 70 48 26 50 58 51 38 52 57 53 39 54 42 55 56 56 75 57
REMARK SMILES IDX 40 58 41 59 55 61 76 62 43 63 27 64 28 65 36 66 29 67 30 68
REMARK SMILES IDX 34 69 37 70 31 71 32 72 35 73 33 74 59 75 60 76 68 77 61 78
REMARK SMILES IDX 62 79 66 80 69 81 63 82 64 83 67 84 65 85 44 86 45 87 53 88
REMARK SMILES IDX 46 89 47 90 51 91 54 92 48 93 49 94 52 95 50 96
REMARK H PARENT 8 7 4 15 4 16 15 30 74 49 42 60
REMARK Flexibility Score: inf
ROOT
ATOM      1  C   UNL     1      -3.932  -0.005  -1.029  1.00  0.00     0.002 C 
ENDROOT
BRANCH   1   2
ATOM      2  C   UNL     1      -3.048  -0.244  -2.252  1.00  0.00     0.021 C 
BRANCH   2   3
ATOM      3  C   UNL     1      -2.089   0.890  -2.588  1.00  0.00     0.116 C 
BRANCH   3   4
ATOM      4  N   UNL     1      -0.739   0.705  -2.107  1.00  0.00    -0.351 N 
ATOM      5  C   UNL     1       0.405   1.299  -2.580  1.00  0.00     0.281 C 
ATOM      6  O   UNL     1       1.197   1.674  -1.703  1.00  0.00    -0.268 OA
ATOM      7  H   UNL     1      -0.626   0.081  -1.355  1.00  0.00     0.163 HD
BRANCH   5   8
ATOM      8  C   UNL     1       0.853   1.275  -4.087  1.00  0.00     0.178 C 
ATOM      9  C   UNL     1       1.735   2.495  -4.426  1.00  0.00     0.079 C 
ATOM     10  C   UNL     1       1.801   0.039  -4.157  1.00  0.00     0.111 C 
ATOM     11  C   UNL     1       2.371   2.374  -5.816  1.00  0.00     0.010 C 
ATOM     12  C   UNL     1       2.423  -0.214  -5.531  1.00  0.00     0.125 C 
ATOM     13  C   UNL     1       3.142   1.064  -6.019  1.00  0.00     0.032 C 
BRANCH   8  14
ATOM     14  N   UNL     1      -0.237   1.101  -5.064  1.00  0.00    -0.334 N 
ATOM     15  H   UNL     1       0.187   0.731  -5.915  1.00  0.00     0.347 HD
ATOM     16  H   UNL     1      -0.900   0.503  -4.572  1.00  0.00     0.347 HD
BRANCH  14  17
ATOM     17  C   UNL     1      -1.045   2.240  -5.460  1.00  0.00     0.261 C 
BRANCH  17  18
ATOM     18  C   UNL     1      -2.106   1.902  -6.528  1.00  0.00     0.058 C 
ATOM     19  C   UNL     1      -2.825   0.563  -6.410  1.00  0.00     0.010 C 
ENDBRANCH  17  18
ENDBRANCH  14  17
ENDBRANCH   8  14
BRANCH  12  20
ATOM     20  O   UNL     1       1.483  -0.634  -6.523  1.00  0.00    -0.372 OA
BRANCH  20  21
ATOM     21  C   UNL     1       1.015  -1.993  -6.581  1.00  0.00     0.060 C 
ATOM     22  C   UNL     1       2.151  -3.020  -6.542  1.00  0.00     0.042 C 
ATOM     23  C   UNL     1      -0.030  -2.355  -5.515  1.00  0.00     0.042 C 
ATOM     24  C   UNL     1       0.312  -2.086  -7.947  1.00  0.00     0.042 C 
ENDBRANCH  20  21
ENDBRANCH  12  20
ENDBRANCH   5   8
ENDBRANCH   3   4
ENDBRANCH   2   3
ENDBRANCH   1   2
BRANCH   1  25
ATOM     25  C   UNL     1      -4.678   1.335  -0.975  1.00  0.00     0.002 C 
BRANCH  25  26
ATOM     26  C   UNL     1      -5.429   1.760  -2.242  1.00  0.00     0.021 C 
BRANCH  26  27
ATOM     27  C   UNL     1      -6.466   0.768  -2.762  1.00  0.00     0.116 C 
BRANCH  27  28
ATOM     28  N   UNL     1      -7.451   0.420  -1.755  1.00  0.00    -0.352 N 
ATOM     29  C   UNL     1      -8.811   0.585  -1.744  1.00  0.00     0.251 C 
ATOM     30  H   UNL     1      -7.082  -0.005  -0.947  1.00  0.00     0.163 HD
ATOM     31  O   UNL     1      -9.439   0.395  -0.708  1.00  0.00    -0.269 OA
BRANCH  29  32
ATOM     32  C   UNL     1      -9.534   1.000  -2.967  1.00  0.00     0.039 A 
ATOM     33  C   UNL     1     -10.565   1.937  -2.845  1.00  0.00     0.014 A 
ATOM     34  C   UNL     1      -9.249   0.433  -4.212  1.00  0.00     0.014 A 
ATOM     35  C   UNL     1     -11.278   2.339  -3.977  1.00  0.00     0.010 A 
ATOM     36  C   UNL     1      -9.919   0.880  -5.350  1.00  0.00     0.010 A 
ATOM     37  C   UNL     1     -10.945   1.831  -5.242  1.00  0.00    -0.014 A 
BRANCH  37  38
ATOM     38  C   UNL     1     -11.669   2.275  -6.460  1.00  0.00     0.031 A 
ATOM     39  C   UNL     1     -12.525   1.305  -7.226  1.00  0.00     0.074 A 
ATOM     40  C   UNL     1     -11.519   3.539  -6.900  1.00  0.00     0.049 A 
ATOM     41  N   UNL     1     -13.178   1.482  -8.348  1.00  0.00    -0.248 NA
ATOM     42  C   UNL     1     -12.645  -0.051  -6.670  1.00  0.00     0.031 C 
ATOM     43  C   UNL     1     -10.693   4.564  -6.261  1.00  0.00     0.029 A 
ATOM     44  N   UNL     1     -12.048   4.174  -7.996  1.00  0.00    -0.354 N 
ATOM     45  C   UNL     1     -13.779   0.263  -8.632  1.00  0.00     0.074 A 
ATOM     46  C   UNL     1     -13.371  -0.661  -7.596  1.00  0.00     0.031 C 
ATOM     47  C   UNL     1     -10.783   5.703  -6.966  1.00  0.00     0.029 A 
ATOM     48  C   UNL     1     -11.642   5.479  -8.125  1.00  0.00     0.049 A 
ATOM     49  H   UNL     1     -12.661   3.735  -8.629  1.00  0.00     0.167 HD
ATOM     50  C   UNL     1     -14.615  -0.050  -9.650  1.00  0.00     0.037 A 
ATOM     51  C   UNL     1     -11.923   6.389  -9.076  1.00  0.00     0.037 A 
ATOM     52  C   UNL     1     -15.032   0.875 -10.671  1.00  0.00     0.049 A 
ATOM     53  C   UNL     1     -12.837   6.007 -10.210  1.00  0.00     0.074 A 
ATOM     54  C   UNL     1     -15.900   0.663 -11.729  1.00  0.00     0.029 A 
ATOM     55  N   UNL     1     -14.610   2.194 -10.760  1.00  0.00    -0.354 N 
ATOM     56  N   UNL     1     -13.438   4.866 -10.441  1.00  0.00    -0.248 NA
ATOM     57  C   UNL     1     -13.115   7.045 -11.213  1.00  0.00     0.031 C 
ATOM     58  C   UNL     1     -15.974   1.842 -12.478  1.00  0.00     0.029 A 
ATOM     59  C   UNL     1     -15.189   2.802 -11.862  1.00  0.00     0.049 A 
ATOM     60  H   UNL     1     -13.990   2.632 -10.133  1.00  0.00     0.167 HD
ATOM     61  C   UNL     1     -14.188   5.056 -11.593  1.00  0.00     0.074 A 
ATOM     62  C   UNL     1     -13.978   6.427 -12.008  1.00  0.00     0.031 C 
ATOM     63  C   UNL     1     -14.980   4.173 -12.250  1.00  0.00     0.037 A 
BRANCH  50  64
ATOM     64  C   UNL     1     -15.144  -1.454  -9.706  1.00  0.00     0.064 A 
ATOM     65  C   UNL     1     -16.084  -1.919  -8.773  1.00  0.00     0.173 A 
ATOM     66  C   UNL     1     -14.740  -2.332 -10.723  1.00  0.00     0.173 A 
ATOM     67  F   UNL     1     -16.494  -1.123  -7.774  1.00  0.00    -0.203 F 
ATOM     68  C   UNL     1     -16.579  -3.219  -8.841  1.00  0.00     0.198 A 
ATOM     69  C   UNL     1     -15.259  -3.622 -10.805  1.00  0.00     0.198 A 
ATOM     70  F   UNL     1     -13.849  -1.936 -11.644  1.00  0.00    -0.203 F 
ATOM     71  F   UNL     1     -17.440  -3.655  -7.911  1.00  0.00    -0.200 F 
ATOM     72  C   UNL     1     -16.172  -4.066  -9.860  1.00  0.00     0.200 A 
ATOM     73  F   UNL     1     -14.875  -4.436 -11.798  1.00  0.00    -0.200 F 
ATOM     74  F   UNL     1     -16.655  -5.314  -9.928  1.00  0.00    -0.200 F 
ENDBRANCH  50  64
BRANCH  51  75
ATOM     75  C   UNL     1     -11.351   7.758  -8.992  1.00  0.00     0.064 A 
ATOM     76  C   UNL     1     -12.170   8.865  -8.731  1.00  0.00     0.173 A 
ATOM     77  C   UNL     1      -9.982   7.991  -9.188  1.00  0.00     0.173 A 
ATOM     78  F   UNL     1     -13.489   8.695  -8.557  1.00  0.00    -0.203 F 
ATOM     79  C   UNL     1     -11.646  10.156  -8.694  1.00  0.00     0.198 A 
ATOM     80  C   UNL     1      -9.454   9.278  -9.123  1.00  0.00     0.198 A 
ATOM     81  F   UNL     1      -9.154   6.965  -9.437  1.00  0.00    -0.203 F 
ATOM     82  F   UNL     1     -12.460  11.201  -8.493  1.00  0.00    -0.200 F 
ATOM     83  C   UNL     1     -10.288  10.361  -8.886  1.00  0.00     0.200 A 
ATOM     84  F   UNL     1      -8.139   9.471  -9.295  1.00  0.00    -0.200 F 
ATOM     85  F   UNL     1      -9.784  11.602  -8.851  1.00  0.00    -0.200 F 
ENDBRANCH  51  75
BRANCH  63  86
ATOM     86  C   UNL     1     -15.710   4.676 -13.461  1.00  0.00     0.064 A 
ATOM     87  C   UNL     1     -15.043   4.942 -14.665  1.00  0.00     0.173 A 
ATOM     88  C   UNL     1     -17.101   4.859 -13.424  1.00  0.00     0.173 A 
ATOM     89  F   UNL     1     -13.712   4.797 -14.746  1.00  0.00    -0.203 F 
ATOM     90  C   UNL     1     -15.739   5.398 -15.782  1.00  0.00     0.198 A 
ATOM     91  C   UNL     1     -17.797   5.288 -14.550  1.00  0.00     0.198 A 
ATOM     92  F   UNL     1     -17.786   4.613 -12.297  1.00  0.00    -0.203 F 
ATOM     93  F   UNL     1     -15.075   5.691 -16.909  1.00  0.00    -0.200 F 
ATOM     94  C   UNL     1     -17.115   5.564 -15.726  1.00  0.00     0.200 A 
ATOM     95  F   UNL     1     -19.128   5.436 -14.498  1.00  0.00    -0.200 F 
ATOM     96  F   UNL     1     -17.783   5.997 -16.804  1.00  0.00    -0.200 F 
ENDBRANCH  63  86
ENDBRANCH  37  38
ENDBRANCH  29  32
ENDBRANCH  27  28
ENDBRANCH  26  27
ENDBRANCH  25  26
ENDBRANCH   1  25
TORSDOF 18
