REMARK SMILES C[C@@H](Sc1nc(C[NH+]2CCCC2)nc2ccccc12)C(=O)NCCCCCCNC(=O)c1ccc(-c2c3nc(c(-c4c(F)c(F)c(F)c(F)c4F)c4ccc([nH]4)c(-c4c(F)c(F)c(F)c(F)c4F)c4nc(c(-c5c(F)c(F)c(F)c(F)c5F)c5ccc2[nH]5)C=C4)C=C3)cc1
REMARK SMILES IDX 24 1 23 2 22 3 20 4 21 5 2 7 1 8 3 9 4 10 5 11 19 12 6 13
REMARK SMILES IDX 14 14 18 15 13 16 15 17 17 18 16 19 7 20 8 21 9 22 12 23
REMARK SMILES IDX 10 25 11 26 25 27 26 28 27 29 28 30 29 31 30 32 31 34 32 35
REMARK SMILES IDX 33 36 94 37 34 38 93 39 35 40 36 41 37 42 87 43 38 44 92 45
REMARK SMILES IDX 86 46 88 47 39 48 91 49 85 50 84 51 40 53 72 54 52 55 71 56
REMARK SMILES IDX 53 57 56 58 70 59 89 60 54 61 55 62 69 64 90 65 57 66 41 67
REMARK SMILES IDX 42 68 50 69 43 70 44 71 48 72 51 73 45 74 46 75 49 76 47 77
REMARK SMILES IDX 73 78 74 79 82 80 75 81 76 82 80 83 83 84 77 85 78 86 81 87
REMARK SMILES IDX 79 88 58 89 59 90 67 91 60 92 61 93 65 94 68 95 62 96 63 97
REMARK SMILES IDX 66 98 64 99
REMARK H PARENT 22 6 8 24 29 33 88 52 56 63
REMARK Flexibility Score: inf
ROOT
ATOM      1  C   UNL     1      -1.611  -0.143   2.452  1.00  0.00     0.021 C 
ENDROOT
BRANCH   1   2
ATOM      2  C   UNL     1      -1.036  -1.332   1.698  1.00  0.00     0.116 C 
BRANCH   2   3
ATOM      3  N   UNL     1      -1.585  -1.479   0.358  1.00  0.00    -0.355 N 
ATOM      4  C   UNL     1      -0.957  -1.543  -0.860  1.00  0.00     0.233 C 
ATOM      5  O   UNL     1      -1.658  -1.748  -1.855  1.00  0.00    -0.274 OA
ATOM      6  H   UNL     1      -2.567  -1.543   0.319  1.00  0.00     0.163 HD
BRANCH   4   7
ATOM      7  C   UNL     1       0.550  -1.259  -1.003  1.00  0.00     0.139 C 
ATOM      8  C   UNL     1       0.724   0.234  -0.739  1.00  0.00     0.030 C 
BRANCH   7   9
ATOM      9  S   UNL     1       1.429  -2.501   0.059  1.00  0.00    -0.093 SA
BRANCH   9  10
ATOM     10  C   UNL     1       3.177  -2.413  -0.222  1.00  0.00     0.109 A 
ATOM     11  N   UNL     1       3.678  -3.644  -0.447  1.00  0.00    -0.220 NA
ATOM     12  C   UNL     1       4.005  -1.309   0.012  1.00  0.00     0.033 A 
ATOM     13  C   UNL     1       5.009  -3.788  -0.414  1.00  0.00     0.185 A 
ATOM     14  C   UNL     1       5.364  -1.534  -0.224  1.00  0.00     0.075 A 
ATOM     15  C   UNL     1       3.615  -0.046   0.516  1.00  0.00     0.013 A 
ATOM     16  N   UNL     1       5.869  -2.756  -0.411  1.00  0.00    -0.227 NA
ATOM     17  C   UNL     1       6.237  -0.452  -0.182  1.00  0.00     0.029 A 
ATOM     18  C   UNL     1       4.498   1.026   0.561  1.00  0.00     0.001 A 
ATOM     19  C   UNL     1       5.811   0.831   0.169  1.00  0.00     0.002 A 
BRANCH  13  20
ATOM     20  C   UNL     1       5.570  -5.190  -0.187  1.00  0.00     0.340 C 
BRANCH  20  21
ATOM     21  N   UNL     1       5.303  -5.854   1.115  1.00  0.00    -0.329 N 
ATOM     22  C   UNL     1       3.904  -6.218   1.344  1.00  0.00     0.262 C 
ATOM     23  C   UNL     1       5.772  -5.112   2.288  1.00  0.00     0.262 C 
ATOM     24  H   UNL     1       5.854  -6.706   1.018  1.00  0.00     0.348 HD
ATOM     25  C   UNL     1       3.352  -5.232   2.355  1.00  0.00     0.067 C 
ATOM     26  C   UNL     1       4.558  -4.769   3.143  1.00  0.00     0.067 C 
ENDBRANCH  20  21
ENDBRANCH  13  20
ENDBRANCH   9  10
ENDBRANCH   7   9
ENDBRANCH   4   7
ENDBRANCH   2   3
ENDBRANCH   1   2
BRANCH   1  27
ATOM     27  C   UNL     1      -3.098  -0.260   2.776  1.00  0.00     0.002 C 
BRANCH  27  28
ATOM     28  C   UNL     1      -3.494  -1.519   3.553  1.00  0.00     0.002 C 
BRANCH  28  29
ATOM     29  C   UNL     1      -2.734  -1.747   4.862  1.00  0.00     0.021 C 
BRANCH  29  30
ATOM     30  C   UNL     1      -2.828  -0.602   5.863  1.00  0.00     0.116 C 
BRANCH  30  31
ATOM     31  N   UNL     1      -4.196  -0.355   6.289  1.00  0.00    -0.352 N 
ATOM     32  C   UNL     1      -4.721  -0.311   7.555  1.00  0.00     0.251 C 
ATOM     33  H   UNL     1      -4.840  -0.197   5.561  1.00  0.00     0.163 HD
ATOM     34  O   UNL     1      -5.939  -0.281   7.718  1.00  0.00    -0.269 OA
BRANCH  32  35
ATOM     35  C   UNL     1      -3.823  -0.318   8.728  1.00  0.00     0.039 A 
ATOM     36  C   UNL     1      -4.140  -1.133   9.817  1.00  0.00     0.014 A 
ATOM     37  C   UNL     1      -2.677   0.482   8.759  1.00  0.00     0.014 A 
ATOM     38  C   UNL     1      -3.276  -1.191  10.912  1.00  0.00     0.010 A 
ATOM     39  C   UNL     1      -1.778   0.363   9.815  1.00  0.00     0.010 A 
ATOM     40  C   UNL     1      -2.071  -0.471  10.905  1.00  0.00    -0.014 A 
BRANCH  40  41
ATOM     41  C   UNL     1      -1.104  -0.579  12.027  1.00  0.00     0.031 A 
ATOM     42  C   UNL     1      -0.778   0.627  12.865  1.00  0.00     0.074 A 
ATOM     43  C   UNL     1      -0.475  -1.748  12.254  1.00  0.00     0.049 A 
ATOM     44  N   UNL     1       0.078   0.746  13.849  1.00  0.00    -0.248 NA
ATOM     45  C   UNL     1      -1.489   1.871  12.535  1.00  0.00     0.031 C 
ATOM     46  C   UNL     1      -0.675  -2.977  11.485  1.00  0.00     0.029 A 
ATOM     47  N   UNL     1       0.465  -2.092  13.192  1.00  0.00    -0.354 N 
ATOM     48  C   UNL     1       0.016   2.075  14.245  1.00  0.00     0.074 A 
ATOM     49  C   UNL     1      -0.915   2.737  13.357  1.00  0.00     0.031 C 
ATOM     50  C   UNL     1       0.094  -3.949  12.002  1.00  0.00     0.029 A 
ATOM     51  C   UNL     1       0.874  -3.401  13.107  1.00  0.00     0.049 A 
ATOM     52  H   UNL     1       0.814  -1.462  13.863  1.00  0.00     0.167 HD
ATOM     53  C   UNL     1       0.658   2.683  15.271  1.00  0.00     0.037 A 
ATOM     54  C   UNL     1       1.781  -4.080  13.836  1.00  0.00     0.037 A 
ATOM     55  C   UNL     1       1.572   2.015  16.161  1.00  0.00     0.049 A 
ATOM     56  C   UNL     1       2.505  -3.372  14.950  1.00  0.00     0.074 A 
ATOM     57  C   UNL     1       2.230   2.527  17.266  1.00  0.00     0.029 A 
ATOM     58  N   UNL     1       1.965   0.690  16.042  1.00  0.00    -0.354 N 
ATOM     59  N   UNL     1       2.383  -2.135  15.363  1.00  0.00    -0.248 NA
ATOM     60  C   UNL     1       3.491  -4.161  15.701  1.00  0.00     0.031 C 
ATOM     61  C   UNL     1       3.067   1.530  17.778  1.00  0.00     0.029 A 
ATOM     62  C   UNL     1       2.881   0.376  17.033  1.00  0.00     0.049 A 
ATOM     63  H   UNL     1       1.640   0.064  15.354  1.00  0.00     0.167 HD
ATOM     64  C   UNL     1       3.247  -2.005  16.443  1.00  0.00     0.074 A 
ATOM     65  C   UNL     1       3.877  -3.296  16.628  1.00  0.00     0.031 C 
ATOM     66  C   UNL     1       3.495  -0.916  17.212  1.00  0.00     0.037 A 
BRANCH  53  67
ATOM     67  C   UNL     1       0.401   4.150  15.480  1.00  0.00     0.064 A 
ATOM     68  C   UNL     1      -0.849   4.629  15.903  1.00  0.00     0.173 A 
ATOM     69  C   UNL     1       1.425   5.088  15.277  1.00  0.00     0.173 A 
ATOM     70  F   UNL     1      -1.867   3.777  16.102  1.00  0.00    -0.203 F 
ATOM     71  C   UNL     1      -1.075   5.992  16.075  1.00  0.00     0.198 A 
ATOM     72  C   UNL     1       1.205   6.447  15.486  1.00  0.00     0.198 A 
ATOM     73  F   UNL     1       2.642   4.687  14.880  1.00  0.00    -0.203 F 
ATOM     74  F   UNL     1      -2.295   6.429  16.418  1.00  0.00    -0.200 F 
ATOM     75  C   UNL     1      -0.047   6.899  15.873  1.00  0.00     0.200 A 
ATOM     76  F   UNL     1       2.205   7.321  15.306  1.00  0.00    -0.200 F 
ATOM     77  F   UNL     1      -0.265   8.211  16.044  1.00  0.00    -0.200 F 
ENDBRANCH  53  67
BRANCH  54  78
ATOM     78  C   UNL     1       2.037  -5.518  13.555  1.00  0.00     0.064 A 
ATOM     79  C   UNL     1       1.669  -6.506  14.479  1.00  0.00     0.173 A 
ATOM     80  C   UNL     1       2.662  -5.934  12.370  1.00  0.00     0.173 A 
ATOM     81  F   UNL     1       1.088  -6.157  15.636  1.00  0.00    -0.203 F 
ATOM     82  C   UNL     1       1.938  -7.852  14.240  1.00  0.00     0.198 A 
ATOM     83  C   UNL     1       2.901  -7.283  12.118  1.00  0.00     0.198 A 
ATOM     84  F   UNL     1       3.030  -5.030  11.450  1.00  0.00    -0.203 F 
ATOM     85  F   UNL     1       1.623  -8.770  15.164  1.00  0.00    -0.200 F 
ATOM     86  C   UNL     1       2.549  -8.240  13.057  1.00  0.00     0.200 A 
ATOM     87  F   UNL     1       3.477  -7.655  10.966  1.00  0.00    -0.200 F 
ATOM     88  F   UNL     1       2.805  -9.535  12.826  1.00  0.00    -0.200 F 
ENDBRANCH  54  78
BRANCH  66  89
ATOM     89  C   UNL     1       4.457  -1.083  18.354  1.00  0.00     0.064 A 
ATOM     90  C   UNL     1       5.832  -1.267  18.145  1.00  0.00     0.173 A 
ATOM     91  C   UNL     1       3.998  -1.022  19.680  1.00  0.00     0.173 A 
ATOM     92  F   UNL     1       6.320  -1.348  16.898  1.00  0.00    -0.203 F 
ATOM     93  C   UNL     1       6.707  -1.413  19.218  1.00  0.00     0.198 A 
ATOM     94  C   UNL     1       4.881  -1.133  20.751  1.00  0.00     0.198 A 
ATOM     95  F   UNL     1       2.695  -0.841  19.938  1.00  0.00    -0.203 F 
ATOM     96  F   UNL     1       8.008  -1.643  18.993  1.00  0.00    -0.200 F 
ATOM     97  C   UNL     1       6.232  -1.338  20.520  1.00  0.00     0.200 A 
ATOM     98  F   UNL     1       4.423  -1.042  22.007  1.00  0.00    -0.200 F 
ATOM     99  F   UNL     1       7.077  -1.470  21.551  1.00  0.00    -0.200 F 
ENDBRANCH  66  89
ENDBRANCH  40  41
ENDBRANCH  32  35
ENDBRANCH  30  31
ENDBRANCH  29  30
ENDBRANCH  28  29
ENDBRANCH  27  28
ENDBRANCH   1  27
TORSDOF 17
