REMARK SMILES CC[C@@H](Oc1ccccc1/C=C1/SC(=S)N(c2ccc(NC(C)=O)cc2)C1=O)C(=O)NCCCCCCNC(=O)c1ccc(-c2c3nc(c(-c4c(F)c(F)c(F)c(F)c4F)c4ccc([nH]4)c(-c4c(F)c(F)c(F)c(F)c4F)c4nc(c(-c5c(F)c(F)c(F)c(F)c5F)c5ccc2[nH]5)C=C4)C=C3)cc1
REMARK SMILES IDX 33 1 32 2 31 3 29 4 30 5 3 7 2 8 1 9 4 10 5 11 6 12 10 13
REMARK SMILES IDX 7 14 9 15 8 16 11 17 12 18 13 19 27 20 14 21 16 22 28 23
REMARK SMILES IDX 15 24 17 25 18 26 26 27 19 28 25 29 20 30 21 31 22 32 23 34
REMARK SMILES IDX 24 35 34 36 35 37 36 38 37 39 38 40 39 41 40 43 41 44 42 45
REMARK SMILES IDX 103 46 43 47 102 48 44 49 45 50 46 51 96 52 47 53 101 54
REMARK SMILES IDX 95 55 97 56 48 57 100 58 94 59 93 60 49 62 81 63 61 64 80 65
REMARK SMILES IDX 62 66 65 67 79 68 98 69 63 70 64 71 78 73 99 74 66 75 50 76
REMARK SMILES IDX 51 77 59 78 52 79 53 80 57 81 60 82 54 83 55 84 58 85 56 86
REMARK SMILES IDX 82 87 83 88 91 89 84 90 85 91 89 92 92 93 86 94 87 95 90 96
REMARK SMILES IDX 88 97 67 98 68 99 76 100 69 101 70 102 74 103 77 104 71 105
REMARK SMILES IDX 72 106 75 107 73 108
REMARK H PARENT 31 6 21 33 38 42 97 61 65 72
REMARK Flexibility Score: inf
ROOT
ATOM      1  C   UNL     1      -2.381   3.356   1.692  1.00  0.00     0.021 C 
ENDROOT
BRANCH   1   2
ATOM      2  C   UNL     1      -1.645   3.621   0.377  1.00  0.00     0.116 C 
BRANCH   2   3
ATOM      3  N   UNL     1      -0.381   4.313   0.544  1.00  0.00    -0.353 N 
ATOM      4  C   UNL     1       0.886   3.928   0.195  1.00  0.00     0.261 C 
ATOM      5  O   UNL     1       1.776   4.782   0.270  1.00  0.00    -0.271 OA
ATOM      6  H   UNL     1      -0.444   5.196   0.975  1.00  0.00     0.163 HD
BRANCH   4   7
ATOM      7  C   UNL     1       1.238   2.466  -0.169  1.00  0.00     0.261 C 
BRANCH   7   8
ATOM      8  C   UNL     1       1.150   1.622   1.116  1.00  0.00     0.052 C 
ATOM      9  C   UNL     1       2.277   0.601   1.223  1.00  0.00     0.008 C 
ENDBRANCH   7   8
BRANCH   7  10
ATOM     10  O   UNL     1       0.353   1.954  -1.170  1.00  0.00    -0.480 OA
BRANCH  10  11
ATOM     11  C   UNL     1       0.938   1.105  -2.076  1.00  0.00     0.127 A 
ATOM     12  C   UNL     1       1.591   1.645  -3.185  1.00  0.00     0.047 A 
ATOM     13  C   UNL     1       0.712  -0.282  -1.998  1.00  0.00     0.018 A 
ATOM     14  C   UNL     1       2.061   0.801  -4.194  1.00  0.00     0.004 A 
ATOM     15  C   UNL     1       1.217  -1.122  -2.998  1.00  0.00     0.012 A 
ATOM     16  C   UNL     1       1.885  -0.580  -4.096  1.00  0.00     0.001 A 
BRANCH  13  17
ATOM     17  C   UNL     1      -0.083  -0.887  -0.923  1.00  0.00     0.033 C 
ATOM     18  C   UNL     1      -1.396  -0.680  -0.757  1.00  0.00     0.081 C 
ATOM     19  S   UNL     1      -2.281  -1.308   0.581  1.00  0.00    -0.054 SA
ATOM     20  C   UNL     1      -2.293   0.115  -1.643  1.00  0.00     0.270 C 
ATOM     21  C   UNL     1      -3.759  -0.465   0.120  1.00  0.00     0.152 C 
ATOM     22  N   UNL     1      -3.551   0.214  -1.066  1.00  0.00    -0.261 N 
ATOM     23  O   UNL     1      -1.977   0.547  -2.744  1.00  0.00    -0.268 OA
ATOM     24  S   UNL     1      -5.109  -0.474   1.107  1.00  0.00    -0.051 S 
BRANCH  22  25
ATOM     25  C   UNL     1      -4.551   0.933  -1.762  1.00  0.00     0.051 A 
ATOM     26  C   UNL     1      -5.661   0.270  -2.283  1.00  0.00     0.029 A 
ATOM     27  C   UNL     1      -4.396   2.302  -1.994  1.00  0.00     0.029 A 
ATOM     28  C   UNL     1      -6.622   0.980  -3.009  1.00  0.00     0.028 A 
ATOM     29  C   UNL     1      -5.389   3.020  -2.662  1.00  0.00     0.028 A 
ATOM     30  C   UNL     1      -6.506   2.361  -3.183  1.00  0.00     0.041 A 
BRANCH  30  31
ATOM     31  N   UNL     1      -7.472   3.150  -3.834  1.00  0.00    -0.326 N 
ATOM     32  C   UNL     1      -8.560   2.702  -4.557  1.00  0.00     0.221 C 
ATOM     33  H   UNL     1      -7.359   4.125  -3.769  1.00  0.00     0.169 HD
ATOM     34  C   UNL     1      -9.494   3.817  -4.947  1.00  0.00     0.114 C 
ATOM     35  O   UNL     1      -8.790   1.548  -4.902  1.00  0.00    -0.275 OA
ENDBRANCH  30  31
ENDBRANCH  22  25
ENDBRANCH  13  17
ENDBRANCH  10  11
ENDBRANCH   7  10
ENDBRANCH   4   7
ENDBRANCH   2   3
ENDBRANCH   1   2
BRANCH   1  36
ATOM     36  C   UNL     1      -3.211   4.529   2.238  1.00  0.00     0.002 C 
BRANCH  36  37
ATOM     37  C   UNL     1      -4.399   4.999   1.379  1.00  0.00     0.002 C 
BRANCH  37  38
ATOM     38  C   UNL     1      -5.436   3.931   1.017  1.00  0.00     0.021 C 
BRANCH  38  39
ATOM     39  C   UNL     1      -6.275   3.407   2.179  1.00  0.00     0.116 C 
BRANCH  39  40
ATOM     40  N   UNL     1      -7.411   4.264   2.480  1.00  0.00    -0.352 N 
ATOM     41  C   UNL     1      -8.751   4.147   2.192  1.00  0.00     0.251 C 
ATOM     42  H   UNL     1      -7.178   5.079   2.982  1.00  0.00     0.163 HD
ATOM     43  O   UNL     1      -9.480   5.115   2.404  1.00  0.00    -0.269 OA
BRANCH  41  44
ATOM     44  C   UNL     1      -9.352   2.911   1.622  1.00  0.00     0.039 A 
ATOM     45  C   UNL     1     -10.451   3.045   0.760  1.00  0.00     0.014 A 
ATOM     46  C   UNL     1      -8.940   1.628   1.986  1.00  0.00     0.014 A 
ATOM     47  C   UNL     1     -11.097   1.914   0.241  1.00  0.00     0.010 A 
ATOM     48  C   UNL     1      -9.526   0.502   1.401  1.00  0.00     0.010 A 
ATOM     49  C   UNL     1     -10.627   0.628   0.541  1.00  0.00    -0.014 A 
BRANCH  49  50
ATOM     50  C   UNL     1     -11.304  -0.596   0.027  1.00  0.00     0.031 A 
ATOM     51  C   UNL     1     -11.918  -1.580   0.989  1.00  0.00     0.074 A 
ATOM     52  C   UNL     1     -11.316  -0.870  -1.292  1.00  0.00     0.049 A 
ATOM     53  N   UNL     1     -12.425  -2.766   0.760  1.00  0.00    -0.248 NA
ATOM     54  C   UNL     1     -11.936  -1.186   2.406  1.00  0.00     0.031 C 
ATOM     55  C   UNL     1     -10.737  -0.027  -2.335  1.00  0.00     0.029 A 
ATOM     56  N   UNL     1     -11.820  -1.950  -1.976  1.00  0.00    -0.354 N 
ATOM     57  C   UNL     1     -12.779  -3.275   2.003  1.00  0.00     0.074 A 
ATOM     58  C   UNL     1     -12.399  -2.283   2.986  1.00  0.00     0.031 C 
ATOM     59  C   UNL     1     -10.928  -0.613  -3.527  1.00  0.00     0.029 A 
ATOM     60  C   UNL     1     -11.604  -1.892  -3.331  1.00  0.00     0.049 A 
ATOM     61  H   UNL     1     -12.292  -2.695  -1.538  1.00  0.00     0.167 HD
ATOM     62  C   UNL     1     -13.378  -4.454   2.300  1.00  0.00     0.037 A 
ATOM     63  C   UNL     1     -11.897  -2.773  -4.306  1.00  0.00     0.037 A 
ATOM     64  C   UNL     1     -13.802  -5.421   1.321  1.00  0.00     0.049 A 
ATOM     65  C   UNL     1     -12.585  -4.065  -3.959  1.00  0.00     0.074 A 
ATOM     66  C   UNL     1     -14.473  -6.615   1.522  1.00  0.00     0.029 A 
ATOM     67  N   UNL     1     -13.601  -5.301  -0.046  1.00  0.00    -0.354 N 
ATOM     68  N   UNL     1     -12.947  -4.519  -2.785  1.00  0.00    -0.248 NA
ATOM     69  C   UNL     1     -12.908  -4.966  -5.075  1.00  0.00     0.031 C 
ATOM     70  C   UNL     1     -14.646  -7.235   0.280  1.00  0.00     0.029 A 
ATOM     71  C   UNL     1     -14.124  -6.406  -0.699  1.00  0.00     0.049 A 
ATOM     72  H   UNL     1     -13.153  -4.543  -0.487  1.00  0.00     0.167 HD
ATOM     73  C   UNL     1     -13.562  -5.741  -3.020  1.00  0.00     0.074 A 
ATOM     74  C   UNL     1     -13.531  -5.957  -4.451  1.00  0.00     0.031 C 
ATOM     75  C   UNL     1     -14.103  -6.604  -2.126  1.00  0.00     0.037 A 
BRANCH  62  76
ATOM     76  C   UNL     1     -13.604  -4.767   3.751  1.00  0.00     0.064 A 
ATOM     77  C   UNL     1     -14.548  -4.069   4.520  1.00  0.00     0.173 A 
ATOM     78  C   UNL     1     -12.878  -5.792   4.377  1.00  0.00     0.173 A 
ATOM     79  F   UNL     1     -15.262  -3.074   3.973  1.00  0.00    -0.203 F 
ATOM     80  C   UNL     1     -14.727  -4.358   5.870  1.00  0.00     0.198 A 
ATOM     81  C   UNL     1     -13.084  -6.100   5.719  1.00  0.00     0.198 A 
ATOM     82  F   UNL     1     -11.971  -6.498   3.686  1.00  0.00    -0.203 F 
ATOM     83  F   UNL     1     -15.592  -3.638   6.599  1.00  0.00    -0.200 F 
ATOM     84  C   UNL     1     -13.999  -5.376   6.468  1.00  0.00     0.200 A 
ATOM     85  F   UNL     1     -12.390  -7.094   6.291  1.00  0.00    -0.200 F 
ATOM     86  F   UNL     1     -14.174  -5.654   7.767  1.00  0.00    -0.200 F 
ENDBRANCH  62  76
BRANCH  63  87
ATOM     87  C   UNL     1     -11.558  -2.445  -5.715  1.00  0.00     0.064 A 
ATOM     88  C   UNL     1     -12.562  -2.108  -6.633  1.00  0.00     0.173 A 
ATOM     89  C   UNL     1     -10.230  -2.446  -6.168  1.00  0.00     0.173 A 
ATOM     90  F   UNL     1     -13.849  -2.124  -6.253  1.00  0.00    -0.203 F 
ATOM     91  C   UNL     1     -12.253  -1.794  -7.954  1.00  0.00     0.198 A 
ATOM     92  C   UNL     1      -9.920  -2.107  -7.483  1.00  0.00     0.198 A 
ATOM     93  F   UNL     1      -9.236  -2.775  -5.330  1.00  0.00    -0.203 F 
ATOM     94  F   UNL     1     -13.236  -1.516  -8.821  1.00  0.00    -0.200 F 
ATOM     95  C   UNL     1     -10.932  -1.785  -8.376  1.00  0.00     0.200 A 
ATOM     96  F   UNL     1      -8.644  -2.105  -7.891  1.00  0.00    -0.200 F 
ATOM     97  F   UNL     1     -10.637  -1.484  -9.648  1.00  0.00    -0.200 F 
ENDBRANCH  63  87
BRANCH  75  98
ATOM     98  C   UNL     1     -14.748  -7.847  -2.664  1.00  0.00     0.064 A 
ATOM     99  C   UNL     1     -13.989  -8.918  -3.156  1.00  0.00     0.173 A 
ATOM    100  C   UNL     1     -16.144  -7.991  -2.629  1.00  0.00     0.173 A 
ATOM    101  F   UNL     1     -12.653  -8.825  -3.223  1.00  0.00    -0.203 F 
ATOM    102  C   UNL     1     -14.606 -10.083  -3.608  1.00  0.00     0.198 A 
ATOM    103  C   UNL     1     -16.755  -9.165  -3.058  1.00  0.00     0.198 A 
ATOM    104  F   UNL     1     -16.914  -6.997  -2.161  1.00  0.00    -0.203 F 
ATOM    105  F   UNL     1     -13.863 -11.082  -4.106  1.00  0.00    -0.200 F 
ATOM    106  C   UNL     1     -15.986 -10.209  -3.551  1.00  0.00     0.200 A 
ATOM    107  F   UNL     1     -18.087  -9.290  -2.990  1.00  0.00    -0.200 F 
ATOM    108  F   UNL     1     -16.576 -11.335  -3.975  1.00  0.00    -0.200 F 
ENDBRANCH  75  98
ENDBRANCH  49  50
ENDBRANCH  41  44
ENDBRANCH  39  40
ENDBRANCH  38  39
ENDBRANCH  37  38
ENDBRANCH  36  37
ENDBRANCH   1  36
TORSDOF 19
