REMARK SMILES O=C(CCN1C(=O)S/C(=C\c2ccccc2F)C1=O)Nc1ccc(C(=O)NCCCCCCNC(=O)c2ccc(-c3c4nc(c(-c5c(F)c(F)c(F)c(F)c5F)c5ccc([nH]5)c(-c5c(F)c(F)c(F)c(F)c5F)c5nc(c(-c6c(F)c(F)c(F)c(F)c6F)c6ccc3[nH]6)C=C5)C=C4)cc2)c(O)c1
REMARK SMILES IDX 29 1 28 2 27 3 25 4 26 5 24 7 21 8 22 9 102 10 23 11 100 12
REMARK SMILES IDX 20 13 1 14 2 15 3 17 4 18 5 19 6 20 18 21 7 22 8 23 9 24
REMARK SMILES IDX 19 25 10 26 11 27 12 28 16 29 13 30 15 31 17 32 14 33 101 34
REMARK SMILES IDX 30 36 31 37 32 38 33 39 34 40 35 41 36 43 37 44 38 45 99 46
REMARK SMILES IDX 39 47 98 48 40 49 41 50 42 51 92 52 43 53 97 54 91 55 93 56
REMARK SMILES IDX 44 57 96 58 90 59 89 60 45 62 77 63 57 64 76 65 58 66 61 67
REMARK SMILES IDX 75 68 94 69 59 70 60 71 74 73 95 74 62 75 46 76 47 77 55 78
REMARK SMILES IDX 48 79 49 80 53 81 56 82 50 83 51 84 54 85 52 86 78 87 79 88
REMARK SMILES IDX 87 89 80 90 81 91 85 92 88 93 82 94 83 95 86 96 84 97 63 98
REMARK SMILES IDX 64 99 72 100 65 101 66 102 70 103 73 104 67 105 68 106
REMARK SMILES IDX 71 107 69 108
REMARK H PARENT 27 6 20 16 101 35 34 42 93 61 61 72
REMARK Flexibility Score: inf
ROOT
ATOM      1  C   UNL     1       0.081   6.581   4.696  1.00  0.00     0.021 C 
ENDROOT
BRANCH   1   2
ATOM      2  C   UNL     1       0.849   5.268   4.819  1.00  0.00     0.116 C 
BRANCH   2   3
ATOM      3  N   UNL     1       0.158   4.239   5.578  1.00  0.00    -0.352 N 
ATOM      4  C   UNL     1       0.138   2.874   5.413  1.00  0.00     0.255 C 
ATOM      5  O   UNL     1      -0.537   2.192   6.180  1.00  0.00    -0.269 OA
ATOM      6  H   UNL     1      -0.383   4.573   6.330  1.00  0.00     0.163 HD
BRANCH   4   7
ATOM      7  C   UNL     1       0.871   2.211   4.308  1.00  0.00     0.081 A 
ATOM      8  C   UNL     1       2.013   1.002   2.038  1.00  0.00     0.044 A 
ATOM      9  C   UNL     1       0.746   0.618   2.469  1.00  0.00     0.027 A 
ATOM     10  C   UNL     1       2.743   1.921   2.800  1.00  0.00     0.073 A 
ATOM     11  C   UNL     1       0.179   1.219   3.599  1.00  0.00     0.020 A 
ATOM     12  C   UNL     1       2.187   2.498   3.943  1.00  0.00     0.130 A 
BRANCH   8  13
ATOM     13  N   UNL     1       2.629   0.497   0.880  1.00  0.00    -0.326 N 
ATOM     14  O   UNL     1       0.829  -0.376  -0.298  1.00  0.00    -0.275 OA
ATOM     15  C   UNL     1       2.030  -0.153  -0.180  1.00  0.00     0.226 C 
ATOM     16  H   UNL     1       3.603   0.621   0.818  1.00  0.00     0.169 HD
BRANCH  15  17
ATOM     17  C   UNL     1       3.011  -0.642  -1.234  1.00  0.00     0.122 C 
BRANCH  17  18
ATOM     18  C   UNL     1       3.912   0.436  -1.845  1.00  0.00     0.140 C 
BRANCH  18  19
ATOM     19  N   UNL     1       4.912   0.994  -0.938  1.00  0.00    -0.268 N 
ATOM     20  C   UNL     1       5.050   2.353  -0.778  1.00  0.00     0.293 C 
ATOM     21  C   UNL     1       5.838   0.204  -0.291  1.00  0.00     0.268 C 
ATOM     22  O   UNL     1       4.405   3.229  -1.326  1.00  0.00    -0.261 OA
ATOM     23  S   UNL     1       6.304   2.692   0.399  1.00  0.00    -0.022 SA
ATOM     24  C   UNL     1       6.593   1.024   0.691  1.00  0.00     0.083 C 
ATOM     25  O   UNL     1       5.985  -1.000  -0.434  1.00  0.00    -0.268 OA
ATOM     26  C   UNL     1       7.283   0.458   1.689  1.00  0.00     0.032 C 
BRANCH  26  27
ATOM     27  C   UNL     1       7.940   1.180   2.784  1.00  0.00     0.012 A 
ATOM     28  C   UNL     1       9.331   1.125   2.911  1.00  0.00     0.011 A 
ATOM     29  C   UNL     1       7.206   1.906   3.730  1.00  0.00     0.130 A 
ATOM     30  C   UNL     1       9.969   1.815   3.946  1.00  0.00     0.001 A 
ATOM     31  C   UNL     1       7.836   2.600   4.759  1.00  0.00     0.040 A 
ATOM     32  F   UNL     1       5.867   1.937   3.663  1.00  0.00    -0.206 F 
ATOM     33  C   UNL     1       9.224   2.558   4.864  1.00  0.00     0.003 A 
ENDBRANCH  26  27
ENDBRANCH  18  19
ENDBRANCH  17  18
ENDBRANCH  15  17
ENDBRANCH   8  13
BRANCH  12  34
ATOM     34  O   UNL     1       3.019   3.314   4.659  1.00  0.00    -0.507 OA
ATOM     35  H   UNL     1       2.708   3.733   5.438  1.00  0.00     0.293 HD
ENDBRANCH  12  34
ENDBRANCH   4   7
ENDBRANCH   2   3
ENDBRANCH   1   2
BRANCH   1  36
ATOM     36  C   UNL     1      -0.311   7.270   6.007  1.00  0.00     0.002 C 
BRANCH  36  37
ATOM     37  C   UNL     1       0.799   7.473   7.041  1.00  0.00     0.002 C 
BRANCH  37  38
ATOM     38  C   UNL     1       2.062   8.184   6.554  1.00  0.00     0.021 C 
BRANCH  38  39
ATOM     39  C   UNL     1       1.844   9.517   5.849  1.00  0.00     0.116 C 
BRANCH  39  40
ATOM     40  N   UNL     1       1.196  10.508   6.692  1.00  0.00    -0.352 N 
ATOM     41  C   UNL     1       1.565  11.803   6.959  1.00  0.00     0.251 C 
ATOM     42  H   UNL     1       0.371  10.206   7.137  1.00  0.00     0.163 HD
ATOM     43  O   UNL     1       0.964  12.455   7.807  1.00  0.00    -0.269 OA
BRANCH  41  44
ATOM     44  C   UNL     1       2.712  12.408   6.246  1.00  0.00     0.039 A 
ATOM     45  C   UNL     1       3.655  13.133   6.980  1.00  0.00     0.014 A 
ATOM     46  C   UNL     1       2.861  12.263   4.864  1.00  0.00     0.014 A 
ATOM     47  C   UNL     1       4.783  13.651   6.339  1.00  0.00     0.010 A 
ATOM     48  C   UNL     1       4.023  12.714   4.241  1.00  0.00     0.010 A 
ATOM     49  C   UNL     1       4.996  13.412   4.972  1.00  0.00    -0.014 A 
BRANCH  49  50
ATOM     50  C   UNL     1       6.228  13.882   4.287  1.00  0.00     0.031 A 
ATOM     51  C   UNL     1       6.134  14.891   3.175  1.00  0.00     0.074 A 
ATOM     52  C   UNL     1       7.425  13.366   4.630  1.00  0.00     0.049 A 
ATOM     53  N   UNL     1       7.080  15.357   2.399  1.00  0.00    -0.248 NA
ATOM     54  C   UNL     1       4.798  15.436   2.883  1.00  0.00     0.031 C 
ATOM     55  C   UNL     1       7.646  12.369   5.679  1.00  0.00     0.029 A 
ATOM     56  N   UNL     1       8.683  13.604   4.132  1.00  0.00    -0.354 N 
ATOM     57  C   UNL     1       6.455  16.244   1.533  1.00  0.00     0.074 A 
ATOM     58  C   UNL     1       5.041  16.209   1.834  1.00  0.00     0.031 C 
ATOM     59  C   UNL     1       8.959  12.106   5.769  1.00  0.00     0.029 A 
ATOM     60  C   UNL     1       9.671  12.874   4.751  1.00  0.00     0.049 A 
ATOM     61  H   UNL     1       8.861  14.238   3.400  1.00  0.00     0.167 HD
ATOM     62  C   UNL     1       7.016  17.038   0.592  1.00  0.00     0.037 A 
ATOM     63  C   UNL     1      10.997  12.824   4.518  1.00  0.00     0.037 A 
ATOM     64  C   UNL     1       8.425  17.087   0.308  1.00  0.00     0.049 A 
ATOM     65  C   UNL     1      11.583  13.676   3.423  1.00  0.00     0.074 A 
ATOM     66  C   UNL     1       9.089  17.878  -0.615  1.00  0.00     0.029 A 
ATOM     67  N   UNL     1       9.388  16.321   0.946  1.00  0.00    -0.354 N 
ATOM     68  N   UNL     1      10.986  14.535   2.634  1.00  0.00    -0.248 NA
ATOM     69  C   UNL     1      13.029  13.552   3.185  1.00  0.00     0.031 C 
ATOM     70  C   UNL     1      10.446  17.556  -0.569  1.00  0.00     0.029 A 
ATOM     71  C   UNL     1      10.639  16.609   0.424  1.00  0.00     0.049 A 
ATOM     72  H   UNL     1       9.210  15.669   1.662  1.00  0.00     0.167 HD
ATOM     73  C   UNL     1      11.983  15.081   1.837  1.00  0.00     0.074 A 
ATOM     74  C   UNL     1      13.227  14.462   2.241  1.00  0.00     0.031 C 
ATOM     75  C   UNL     1      11.874  16.010   0.857  1.00  0.00     0.037 A 
BRANCH  62  76
ATOM     76  C   UNL     1       6.118  17.953  -0.190  1.00  0.00     0.064 A 
ATOM     77  C   UNL     1       5.923  17.761  -1.566  1.00  0.00     0.173 A 
ATOM     78  C   UNL     1       5.539  19.084   0.405  1.00  0.00     0.173 A 
ATOM     79  F   UNL     1       6.462  16.698  -2.184  1.00  0.00    -0.203 F 
ATOM     80  C   UNL     1       5.205  18.683  -2.322  1.00  0.00     0.198 A 
ATOM     81  C   UNL     1       4.796  19.988  -0.350  1.00  0.00     0.198 A 
ATOM     82  F   UNL     1       5.687  19.306   1.719  1.00  0.00    -0.203 F 
ATOM     83  F   UNL     1       5.073  18.504  -3.644  1.00  0.00    -0.200 F 
ATOM     84  C   UNL     1       4.642  19.794  -1.714  1.00  0.00     0.200 A 
ATOM     85  F   UNL     1       4.235  21.050   0.244  1.00  0.00    -0.200 F 
ATOM     86  F   UNL     1       3.954  20.683  -2.444  1.00  0.00    -0.200 F 
ENDBRANCH  62  76
BRANCH  63  87
ATOM     87  C   UNL     1      11.871  11.957   5.355  1.00  0.00     0.064 A 
ATOM     88  C   UNL     1      11.785  10.558   5.306  1.00  0.00     0.173 A 
ATOM     89  C   UNL     1      12.822  12.520   6.219  1.00  0.00     0.173 A 
ATOM     90  F   UNL     1      10.892   9.966   4.498  1.00  0.00    -0.203 F 
ATOM     91  C   UNL     1      12.608   9.757   6.096  1.00  0.00     0.198 A 
ATOM     92  C   UNL     1      13.666  11.717   6.984  1.00  0.00     0.198 A 
ATOM     93  F   UNL     1      12.958  13.852   6.287  1.00  0.00    -0.203 F 
ATOM     94  F   UNL     1      12.485   8.423   6.050  1.00  0.00    -0.200 F 
ATOM     95  C   UNL     1      13.554  10.337   6.927  1.00  0.00     0.200 A 
ATOM     96  F   UNL     1      14.599  12.282   7.762  1.00  0.00    -0.200 F 
ATOM     97  F   UNL     1      14.362   9.565   7.667  1.00  0.00    -0.200 F 
ENDBRANCH  63  87
BRANCH  75  98
ATOM     98  C   UNL     1      13.131  16.465   0.175  1.00  0.00     0.064 A 
ATOM     99  C   UNL     1      13.595  17.779   0.353  1.00  0.00     0.173 A 
ATOM    100  C   UNL     1      13.816  15.644  -0.732  1.00  0.00     0.173 A 
ATOM    101  F   UNL     1      12.969  18.607   1.202  1.00  0.00    -0.203 F 
ATOM    102  C   UNL     1      14.682  18.259  -0.370  1.00  0.00     0.198 A 
ATOM    103  C   UNL     1      14.923  16.119  -1.430  1.00  0.00     0.198 A 
ATOM    104  F   UNL     1      13.419  14.378  -0.929  1.00  0.00    -0.203 F 
ATOM    105  F   UNL     1      15.077  19.531  -0.219  1.00  0.00    -0.200 F 
ATOM    106  C   UNL     1      15.347  17.429  -1.259  1.00  0.00     0.200 A 
ATOM    107  F   UNL     1      15.579  15.308  -2.271  1.00  0.00    -0.200 F 
ATOM    108  F   UNL     1      16.396  17.891  -1.953  1.00  0.00    -0.200 F 
ENDBRANCH  75  98
ENDBRANCH  49  50
ENDBRANCH  41  44
ENDBRANCH  39  40
ENDBRANCH  38  39
ENDBRANCH  37  38
ENDBRANCH  36  37
ENDBRANCH   1  36
TORSDOF 19
