REMARK SMILES COc1ccc(OCC(C)(C)C(=O)NCCCCCCNC(=O)c2ccc(-c3c4nc(c(-c5c(F)c(F)c(F)c(F)c5F)c5ccc([nH]5)c(-c5c(F)c(F)c(F)c(F)c5F)c5nc(c(-c6c(F)c(F)c(F)c(F)c6F)c6ccc3[nH]6)C=C5)C=C4)cc2)c(CC[NH3+])c1
REMARK SMILES IDX 15 1 14 2 12 3 13 4 9 6 10 7 11 8 8 9 7 10 6 11 3 12 4 13
REMARK SMILES IDX 91 14 5 15 87 16 2 17 1 18 88 19 89 20 90 21 16 25 17 26
REMARK SMILES IDX 18 27 19 28 20 29 21 30 22 31 23 33 24 34 25 35 86 36 26 37
REMARK SMILES IDX 85 38 27 39 28 40 29 41 79 42 30 43 84 44 78 45 80 46 31 47
REMARK SMILES IDX 83 48 77 49 76 50 32 52 64 53 44 54 63 55 45 56 48 57 62 58
REMARK SMILES IDX 81 59 46 60 47 61 61 63 82 64 49 65 33 66 34 67 42 68 35 69
REMARK SMILES IDX 36 70 40 71 43 72 37 73 38 74 41 75 39 76 65 77 66 78 74 79
REMARK SMILES IDX 67 80 68 81 72 82 75 83 69 84 70 85 73 86 71 87 50 88 51 89
REMARK SMILES IDX 59 90 52 91 53 92 57 93 60 94 54 95 55 96 58 97 56 98
REMARK H PARENT 14 5 90 22 90 23 90 24 21 32 80 51 48 62
REMARK Flexibility Score: inf
ROOT
ATOM      1  C   UNL     1       3.825   3.618   6.330  1.00  0.00     0.116 C 
ENDROOT
BRANCH   1   2
ATOM      2  N   UNL     1       2.919   4.703   6.005  1.00  0.00    -0.356 N 
ATOM      3  C   UNL     1       2.744   5.415   4.855  1.00  0.00     0.229 C 
ATOM      4  O   UNL     1       1.871   6.283   4.869  1.00  0.00    -0.274 OA
ATOM      5  H   UNL     1       2.326   4.972   6.744  1.00  0.00     0.163 HD
BRANCH   3   6
ATOM      6  C   UNL     1       3.606   5.122   3.619  1.00  0.00     0.077 C 
ATOM      7  C   UNL     1       3.384   3.643   3.242  1.00  0.00     0.025 C 
ATOM      8  C   UNL     1       5.089   5.443   3.944  1.00  0.00     0.025 C 
BRANCH   6   9
ATOM      9  C   UNL     1       3.264   6.149   2.481  1.00  0.00     0.245 C 
BRANCH   9  10
ATOM     10  O   UNL     1       2.108   5.986   1.672  1.00  0.00    -0.492 OA
BRANCH  10  11
ATOM     11  C   UNL     1       1.897   4.901   0.879  1.00  0.00     0.123 A 
ATOM     12  C   UNL     1       0.979   2.526  -0.280  1.00  0.00     0.119 A 
ATOM     13  C   UNL     1       0.061   3.435   0.218  1.00  0.00     0.050 A 
ATOM     14  C   UNL     1       2.337   2.857  -0.319  1.00  0.00     0.054 A 
ATOM     15  C   UNL     1       0.522   4.613   0.796  1.00  0.00     0.050 A 
ATOM     16  C   UNL     1       2.826   4.064   0.235  1.00  0.00     0.003 A 
BRANCH  12  17
ATOM     17  O   UNL     1       0.492   1.354  -0.790  1.00  0.00    -0.497 OA
ATOM     18  C   UNL     1       1.036   0.211  -0.129  1.00  0.00     0.278 C 
ENDBRANCH  12  17
BRANCH  16  19
ATOM     19  C   UNL     1       4.318   4.309   0.116  1.00  0.00     0.101 C 
BRANCH  19  20
ATOM     20  C   UNL     1       4.776   5.282  -0.977  1.00  0.00     0.263 C 
BRANCH  20  21
ATOM     21  N   UNL     1       4.261   6.643  -0.871  1.00  0.00    -0.357 N 
ATOM     22  H   UNL     1       3.246   6.630  -0.969  1.00  0.00     0.344 HD
ATOM     23  H   UNL     1       4.667   7.218  -1.609  1.00  0.00     0.344 HD
ATOM     24  H   UNL     1       4.511   7.031   0.038  1.00  0.00     0.344 HD
ENDBRANCH  20  21
ENDBRANCH  19  20
ENDBRANCH  16  19
ENDBRANCH  10  11
ENDBRANCH   9  10
ENDBRANCH   6   9
ENDBRANCH   3   6
ENDBRANCH   1   2
BRANCH   1  25
ATOM     25  C   UNL     1       4.527   3.858   7.652  1.00  0.00     0.021 C 
BRANCH  25  26
ATOM     26  C   UNL     1       3.592   3.684   8.847  1.00  0.00     0.002 C 
BRANCH  26  27
ATOM     27  C   UNL     1       2.835   2.350   8.865  1.00  0.00     0.002 C 
BRANCH  27  28
ATOM     28  C   UNL     1       3.722   1.109   8.721  1.00  0.00     0.021 C 
BRANCH  28  29
ATOM     29  C   UNL     1       4.859   1.045   9.731  1.00  0.00     0.116 C 
BRANCH  29  30
ATOM     30  N   UNL     1       4.365   1.117  11.095  1.00  0.00    -0.352 N 
ATOM     31  C   UNL     1       4.625   0.283  12.145  1.00  0.00     0.251 C 
ATOM     32  H   UNL     1       3.760   1.870  11.289  1.00  0.00     0.163 HD
ATOM     33  O   UNL     1       3.954   0.343  13.174  1.00  0.00    -0.269 OA
BRANCH  31  34
ATOM     34  C   UNL     1       5.712  -0.702  12.024  1.00  0.00     0.039 A 
ATOM     35  C   UNL     1       5.480  -2.015  12.434  1.00  0.00     0.014 A 
ATOM     36  C   UNL     1       6.950  -0.327  11.493  1.00  0.00     0.014 A 
ATOM     37  C   UNL     1       6.484  -2.967  12.271  1.00  0.00     0.010 A 
ATOM     38  C   UNL     1       7.917  -1.294  11.255  1.00  0.00     0.010 A 
ATOM     39  C   UNL     1       7.697  -2.620  11.655  1.00  0.00    -0.014 A 
BRANCH  39  40
ATOM     40  C   UNL     1       8.752  -3.635  11.427  1.00  0.00     0.031 A 
ATOM     41  C   UNL     1      10.084  -3.503  12.105  1.00  0.00     0.074 A 
ATOM     42  C   UNL     1       8.525  -4.640  10.560  1.00  0.00     0.049 A 
ATOM     43  N   UNL     1      11.146  -4.261  11.999  1.00  0.00    -0.248 NA
ATOM     44  C   UNL     1      10.260  -2.347  12.998  1.00  0.00     0.031 C 
ATOM     45  C   UNL     1       7.289  -4.835   9.800  1.00  0.00     0.029 A 
ATOM     46  N   UNL     1       9.327  -5.679  10.166  1.00  0.00    -0.354 N 
ATOM     47  C   UNL     1      12.114  -3.666  12.796  1.00  0.00     0.074 A 
ATOM     48  C   UNL     1      11.537  -2.453  13.331  1.00  0.00     0.031 C 
ATOM     49  C   UNL     1       7.407  -5.941   9.049  1.00  0.00     0.029 A 
ATOM     50  C   UNL     1       8.739  -6.506   9.242  1.00  0.00     0.049 A 
ATOM     51  H   UNL     1      10.238  -5.819  10.512  1.00  0.00     0.167 HD
ATOM     52  C   UNL     1      13.365  -4.106  13.073  1.00  0.00     0.037 A 
ATOM     53  C   UNL     1       9.224  -7.593   8.613  1.00  0.00     0.037 A 
ATOM     54  C   UNL     1      13.922  -5.325  12.547  1.00  0.00     0.049 A 
ATOM     55  C   UNL     1      10.615  -8.064   8.936  1.00  0.00     0.074 A 
ATOM     56  C   UNL     1      15.149  -5.902  12.824  1.00  0.00     0.029 A 
ATOM     57  N   UNL     1      13.291  -6.149  11.625  1.00  0.00    -0.354 N 
ATOM     58  N   UNL     1      11.494  -7.543   9.758  1.00  0.00    -0.248 NA
ATOM     59  C   UNL     1      11.078  -9.277   8.251  1.00  0.00     0.031 C 
ATOM     60  C   UNL     1      15.288  -7.038  12.019  1.00  0.00     0.029 A 
ATOM     61  C   UNL     1      14.120  -7.210  11.293  1.00  0.00     0.049 A 
ATOM     62  H   UNL     1      12.389  -6.002  11.261  1.00  0.00     0.167 HD
ATOM     63  C   UNL     1      12.604  -8.376   9.709  1.00  0.00     0.074 A 
ATOM     64  C   UNL     1      12.279  -9.446   8.788  1.00  0.00     0.031 C 
ATOM     65  C   UNL     1      13.784  -8.264  10.368  1.00  0.00     0.037 A 
BRANCH  52  66
ATOM     66  C   UNL     1      14.217  -3.254  13.971  1.00  0.00     0.064 A 
ATOM     67  C   UNL     1      13.911  -3.067  15.328  1.00  0.00     0.173 A 
ATOM     68  C   UNL     1      15.368  -2.626  13.469  1.00  0.00     0.173 A 
ATOM     69  F   UNL     1      12.818  -3.635  15.859  1.00  0.00    -0.203 F 
ATOM     70  C   UNL     1      14.699  -2.250  16.136  1.00  0.00     0.198 A 
ATOM     71  C   UNL     1      16.174  -1.841  14.289  1.00  0.00     0.198 A 
ATOM     72  F   UNL     1      15.713  -2.774  12.181  1.00  0.00    -0.203 F 
ATOM     73  F   UNL     1      14.348  -2.033  17.411  1.00  0.00    -0.200 F 
ATOM     74  C   UNL     1      15.832  -1.643  15.617  1.00  0.00     0.200 A 
ATOM     75  F   UNL     1      17.277  -1.268  13.789  1.00  0.00    -0.200 F 
ATOM     76  F   UNL     1      16.590  -0.859  16.396  1.00  0.00    -0.200 F 
ENDBRANCH  52  66
BRANCH  53  77
ATOM     77  C   UNL     1       8.372  -8.313   7.631  1.00  0.00     0.064 A 
ATOM     78  C   UNL     1       7.865  -9.589   7.911  1.00  0.00     0.173 A 
ATOM     79  C   UNL     1       8.025  -7.729   6.404  1.00  0.00     0.173 A 
ATOM     80  F   UNL     1       8.181 -10.197   9.065  1.00  0.00    -0.203 F 
ATOM     81  C   UNL     1       7.056 -10.259   6.996  1.00  0.00     0.198 A 
ATOM     82  C   UNL     1       7.191  -8.386   5.503  1.00  0.00     0.198 A 
ATOM     83  F   UNL     1       8.476  -6.505   6.091  1.00  0.00    -0.203 F 
ATOM     84  F   UNL     1       6.616 -11.494   7.273  1.00  0.00    -0.200 F 
ATOM     85  C   UNL     1       6.713  -9.654   5.796  1.00  0.00     0.200 A 
ATOM     86  F   UNL     1       6.846  -7.789   4.354  1.00  0.00    -0.200 F 
ATOM     87  F   UNL     1       5.924 -10.293   4.922  1.00  0.00    -0.200 F 
ENDBRANCH  53  77
BRANCH  65  88
ATOM     88  C   UNL     1      14.805  -9.342  10.138  1.00  0.00     0.064 A 
ATOM     89  C   UNL     1      15.480  -9.473   8.915  1.00  0.00     0.173 A 
ATOM     90  C   UNL     1      15.142 -10.232  11.171  1.00  0.00     0.173 A 
ATOM     91  F   UNL     1      15.185  -8.658   7.891  1.00  0.00    -0.203 F 
ATOM     92  C   UNL     1      16.433 -10.471   8.726  1.00  0.00     0.198 A 
ATOM     93  C   UNL     1      16.120 -11.205  10.989  1.00  0.00     0.198 A 
ATOM     94  F   UNL     1      14.532 -10.146  12.363  1.00  0.00    -0.203 F 
ATOM     95  F   UNL     1      17.026 -10.610   7.532  1.00  0.00    -0.200 F 
ATOM     96  C   UNL     1      16.758 -11.329   9.765  1.00  0.00     0.200 A 
ATOM     97  F   UNL     1      16.446 -12.022  12.001  1.00  0.00    -0.200 F 
ATOM     98  F   UNL     1      17.683 -12.283   9.584  1.00  0.00    -0.200 F 
ENDBRANCH  65  88
ENDBRANCH  39  40
ENDBRANCH  31  34
ENDBRANCH  29  30
ENDBRANCH  28  29
ENDBRANCH  27  28
ENDBRANCH  26  27
ENDBRANCH  25  26
ENDBRANCH   1  25
TORSDOF 20
