REMARK SMILES Cc1nn(CC(=O)NC(C)(C)C)c(C)c1S(=O)(=O)N1CCC[C@@H](C(=O)NCCCCCCNC(=O)c2ccc(-c3c4nc(c(-c5c(F)c(F)c(F)c(F)c5F)c5ccc([nH]5)c(-c5c(F)c(F)c(F)c(F)c5F)c5nc(c(-c6c(F)c(F)c(F)c(F)c6F)c6ccc3[nH]6)C=C5)C=C4)cc2)C1
REMARK SMILES IDX 28 1 27 2 26 3 24 4 25 5 23 7 19 8 20 9 99 10 21 11 22 12
REMARK SMILES IDX 16 13 17 14 18 15 15 16 1 17 2 18 3 19 4 20 13 21 14 22 5 23
REMARK SMILES IDX 6 24 7 25 8 26 9 28 10 29 11 30 12 31 29 32 30 33 31 34
REMARK SMILES IDX 32 35 33 36 34 37 35 39 36 40 37 41 98 42 38 43 97 44 39 45
REMARK SMILES IDX 40 46 41 47 91 48 42 49 96 50 90 51 92 52 43 53 95 54 89 55
REMARK SMILES IDX 88 56 44 58 76 59 56 60 75 61 57 62 60 63 74 64 93 65 58 66
REMARK SMILES IDX 59 67 73 69 94 70 61 71 45 72 46 73 54 74 47 75 48 76 52 77
REMARK SMILES IDX 55 78 49 79 50 80 53 81 51 82 77 83 78 84 86 85 79 86 80 87
REMARK SMILES IDX 84 88 87 89 81 90 82 91 85 92 83 93 62 94 63 95 71 96 64 97
REMARK SMILES IDX 65 98 69 99 72 100 66 101 67 102 70 103 68 104
REMARK H PARENT 26 6 8 27 33 38 92 57 60 68
REMARK Flexibility Score: inf
ROOT
ATOM      1  C   UNL     1       6.976   3.108   1.566  1.00  0.00     0.021 C 
ENDROOT
BRANCH   1   2
ATOM      2  C   UNL     1       5.681   2.570   0.966  1.00  0.00     0.116 C 
BRANCH   2   3
ATOM      3  N   UNL     1       5.356   1.240   1.446  1.00  0.00    -0.356 N 
ATOM      4  C   UNL     1       4.174   0.747   1.912  1.00  0.00     0.224 C 
ATOM      5  O   UNL     1       4.124  -0.445   2.218  1.00  0.00    -0.275 OA
ATOM      6  H   UNL     1       6.102   0.597   1.435  1.00  0.00     0.163 HD
BRANCH   4   7
ATOM      7  C   UNL     1       2.955   1.657   1.994  1.00  0.00     0.093 C 
ATOM      8  N   UNL     1       1.069   2.479   0.535  1.00  0.00    -0.197 NA
ATOM      9  C   UNL     1       0.059   2.104   1.544  1.00  0.00     0.102 C 
ATOM     10  C   UNL     1       2.418   1.871   0.582  1.00  0.00     0.116 C 
ATOM     11  C   UNL     1       0.665   1.952   2.928  1.00  0.00     0.018 C 
ATOM     12  C   UNL     1       1.882   1.044   2.898  1.00  0.00     0.016 C 
BRANCH   8  13
ATOM     13  S   UNL     1       0.470   2.851  -1.004  1.00  0.00     0.246 S 
ATOM     14  O   UNL     1       1.571   3.391  -1.776  1.00  0.00    -0.207 OA
ATOM     15  O   UNL     1      -0.755   3.604  -0.827  1.00  0.00    -0.207 OA
BRANCH  13  16
ATOM     16  C   UNL     1      -0.021   1.496  -1.961  1.00  0.00     0.126 A 
ATOM     17  C   UNL     1       0.724  -0.742  -0.707  1.00  0.00     0.070 C 
ATOM     18  C   UNL     1       0.185   0.102  -1.800  1.00  0.00     0.080 A 
ATOM     19  N   UNL     1      -0.177  -0.560  -2.907  1.00  0.00    -0.176 NA
ATOM     20  N   UNL     1      -0.551   0.389  -3.776  1.00  0.00    -0.259 N 
ATOM     21  C   UNL     1      -0.672   1.623  -3.187  1.00  0.00     0.056 A 
ATOM     22  C   UNL     1      -1.279   2.811  -3.850  1.00  0.00     0.068 C 
BRANCH  20  23
ATOM     23  C   UNL     1      -0.791   0.031  -5.161  1.00  0.00     0.244 C 
BRANCH  23  24
ATOM     24  C   UNL     1       0.255  -0.872  -5.772  1.00  0.00     0.242 C 
ATOM     25  O   UNL     1      -0.034  -2.042  -6.059  1.00  0.00    -0.273 OA
ATOM     26  N   UNL     1       1.480  -0.457  -6.194  1.00  0.00    -0.350 N 
ATOM     27  H   UNL     1       1.874  -1.108  -6.818  1.00  0.00     0.164 HD
BRANCH  26  28
ATOM     28  C   UNL     1       2.392   0.691  -5.986  1.00  0.00     0.032 C 
ATOM     29  C   UNL     1       3.484   0.258  -4.993  1.00  0.00     0.034 C 
ATOM     30  C   UNL     1       3.045   1.006  -7.345  1.00  0.00     0.034 C 
ATOM     31  C   UNL     1       1.762   1.986  -5.485  1.00  0.00     0.034 C 
ENDBRANCH  26  28
ENDBRANCH  23  24
ENDBRANCH  20  23
ENDBRANCH  13  16
ENDBRANCH   8  13
ENDBRANCH   4   7
ENDBRANCH   2   3
ENDBRANCH   1   2
BRANCH   1  32
ATOM     32  C   UNL     1       8.243   2.319   1.223  1.00  0.00     0.002 C 
BRANCH  32  33
ATOM     33  C   UNL     1       8.524   2.077  -0.265  1.00  0.00     0.002 C 
BRANCH  33  34
ATOM     34  C   UNL     1       8.498   3.301  -1.189  1.00  0.00     0.021 C 
BRANCH  34  35
ATOM     35  C   UNL     1       9.499   4.398  -0.845  1.00  0.00     0.116 C 
BRANCH  35  36
ATOM     36  N   UNL     1      10.885   3.962  -0.960  1.00  0.00    -0.352 N 
ATOM     37  C   UNL     1      12.020   4.601  -0.509  1.00  0.00     0.251 C 
ATOM     38  H   UNL     1      11.029   3.102  -1.418  1.00  0.00     0.163 HD
ATOM     39  O   UNL     1      13.125   4.313  -0.955  1.00  0.00    -0.269 OA
BRANCH  37  40
ATOM     40  C   UNL     1      11.887   5.665   0.503  1.00  0.00     0.039 A 
ATOM     41  C   UNL     1      12.532   6.891   0.329  1.00  0.00     0.014 A 
ATOM     42  C   UNL     1      11.077   5.444   1.614  1.00  0.00     0.014 A 
ATOM     43  C   UNL     1      12.278   7.929   1.226  1.00  0.00     0.010 A 
ATOM     44  C   UNL     1      10.747   6.501   2.441  1.00  0.00     0.010 A 
ATOM     45  C   UNL     1      11.357   7.747   2.271  1.00  0.00    -0.014 A 
BRANCH  45  46
ATOM     46  C   UNL     1      10.954   8.893   3.101  1.00  0.00     0.031 A 
ATOM     47  C   UNL     1      10.471  10.120   2.386  1.00  0.00     0.074 A 
ATOM     48  C   UNL     1      10.760   8.819   4.437  1.00  0.00     0.049 A 
ATOM     49  N   UNL     1      10.839  11.351   2.559  1.00  0.00    -0.248 NA
ATOM     50  C   UNL     1       9.447   9.951   1.342  1.00  0.00     0.031 C 
ATOM     51  C   UNL     1      10.859   7.640   5.304  1.00  0.00     0.029 A 
ATOM     52  N   UNL     1      10.293   9.783   5.286  1.00  0.00    -0.354 N 
ATOM     53  C   UNL     1      10.006  12.131   1.756  1.00  0.00     0.074 A 
ATOM     54  C   UNL     1       9.223  11.212   0.970  1.00  0.00     0.031 C 
ATOM     55  C   UNL     1      10.238   7.892   6.475  1.00  0.00     0.029 A 
ATOM     56  C   UNL     1       9.854   9.292   6.506  1.00  0.00     0.049 A 
ATOM     57  H   UNL     1      10.271  10.739   5.053  1.00  0.00     0.167 HD
ATOM     58  C   UNL     1       9.898  13.481   1.910  1.00  0.00     0.037 A 
ATOM     59  C   UNL     1       9.191   9.965   7.473  1.00  0.00     0.037 A 
ATOM     60  C   UNL     1      11.018  14.036   2.618  1.00  0.00     0.049 A 
ATOM     61  C   UNL     1       9.410  11.412   7.262  1.00  0.00     0.074 A 
ATOM     62  C   UNL     1      12.385  14.061   2.416  1.00  0.00     0.029 A 
ATOM     63  N   UNL     1      10.842  14.467   3.908  1.00  0.00    -0.354 N 
ATOM     64  N   UNL     1      10.545  12.020   7.458  1.00  0.00    -0.248 NA
ATOM     65  C   UNL     1       8.428  12.153   6.488  1.00  0.00     0.031 C 
ATOM     66  C   UNL     1      12.955  14.001   3.723  1.00  0.00     0.029 A 
ATOM     67  C   UNL     1      11.896  13.970   4.629  1.00  0.00     0.049 A 
ATOM     68  H   UNL     1      10.105  15.024   4.248  1.00  0.00     0.167 HD
ATOM     69  C   UNL     1      10.580  13.009   6.489  1.00  0.00     0.074 A 
ATOM     70  C   UNL     1       9.205  13.133   6.024  1.00  0.00     0.031 C 
ATOM     71  C   UNL     1      11.766  13.428   5.959  1.00  0.00     0.037 A 
BRANCH  58  72
ATOM     72  C   UNL     1       8.632  14.273   1.673  1.00  0.00     0.064 A 
ATOM     73  C   UNL     1       8.678  15.683   1.661  1.00  0.00     0.173 A 
ATOM     74  C   UNL     1       7.342  13.709   1.758  1.00  0.00     0.173 A 
ATOM     75  F   UNL     1       9.853  16.329   1.613  1.00  0.00    -0.203 F 
ATOM     76  C   UNL     1       7.524  16.463   1.791  1.00  0.00     0.198 A 
ATOM     77  C   UNL     1       6.189  14.491   1.834  1.00  0.00     0.198 A 
ATOM     78  F   UNL     1       7.157  12.388   1.881  1.00  0.00    -0.203 F 
ATOM     79  F   UNL     1       7.629  17.795   1.898  1.00  0.00    -0.200 F 
ATOM     80  C   UNL     1       6.281  15.866   1.882  1.00  0.00     0.200 A 
ATOM     81  F   UNL     1       4.993  13.894   1.942  1.00  0.00    -0.200 F 
ATOM     82  F   UNL     1       5.181  16.608   2.067  1.00  0.00    -0.200 F 
ENDBRANCH  58  72
BRANCH  59  83
ATOM     83  C   UNL     1       8.229   9.445   8.466  1.00  0.00     0.064 A 
ATOM     84  C   UNL     1       7.962  10.141   9.654  1.00  0.00     0.173 A 
ATOM     85  C   UNL     1       7.363   8.381   8.149  1.00  0.00     0.173 A 
ATOM     86  F   UNL     1       8.715  11.194  10.004  1.00  0.00    -0.203 F 
ATOM     87  C   UNL     1       6.878   9.804  10.470  1.00  0.00     0.198 A 
ATOM     88  C   UNL     1       6.288   8.038   8.969  1.00  0.00     0.198 A 
ATOM     89  F   UNL     1       7.490   7.712   6.994  1.00  0.00    -0.203 F 
ATOM     90  F   UNL     1       6.618  10.529  11.567  1.00  0.00    -0.200 F 
ATOM     91  C   UNL     1       6.038   8.759  10.123  1.00  0.00     0.200 A 
ATOM     92  F   UNL     1       5.464   7.046   8.605  1.00  0.00    -0.200 F 
ATOM     93  F   UNL     1       4.966   8.473  10.874  1.00  0.00    -0.200 F 
ENDBRANCH  59  83
BRANCH  71  94
ATOM     94  C   UNL     1      13.029  13.039   6.672  1.00  0.00     0.064 A 
ATOM     95  C   UNL     1      13.438  11.710   6.877  1.00  0.00     0.173 A 
ATOM     96  C   UNL     1      13.911  14.053   7.069  1.00  0.00     0.173 A 
ATOM     97  F   UNL     1      12.708  10.684   6.423  1.00  0.00    -0.203 F 
ATOM     98  C   UNL     1      14.642  11.415   7.513  1.00  0.00     0.198 A 
ATOM     99  C   UNL     1      15.132  13.755   7.667  1.00  0.00     0.198 A 
ATOM    100  F   UNL     1      13.604  15.340   6.841  1.00  0.00    -0.203 F 
ATOM    101  F   UNL     1      14.995  10.138   7.724  1.00  0.00    -0.200 F 
ATOM    102  C   UNL     1      15.489  12.437   7.905  1.00  0.00     0.200 A 
ATOM    103  F   UNL     1      15.972  14.745   7.998  1.00  0.00    -0.200 F 
ATOM    104  F   UNL     1      16.662  12.153   8.490  1.00  0.00    -0.200 F 
ENDBRANCH  71  94
ENDBRANCH  45  46
ENDBRANCH  37  40
ENDBRANCH  35  36
ENDBRANCH  34  35
ENDBRANCH  33  34
ENDBRANCH  32  33
ENDBRANCH   1  32
TORSDOF 18
