REMARK SMILES CCC[C@@]1(C(=O)NCCCCCCNC(=O)c2ccc(-c3c4nc(c(-c5c(F)c(F)c(F)c(F)c5F)c5ccc([nH]5)c(-c5c(F)c(F)c(F)c(F)c5F)c5nc(c(-c6c(F)c(F)c(F)c(F)c6F)c6ccc3[nH]6)C=C5)C=C4)cc2)CCN(C(=O)NC[C@]2(C)CCCO2)C1
REMARK SMILES IDX 10 1 9 2 8 3 7 4 5 5 6 6 4 8 80 9 93 10 81 11 82 12 3 13
REMARK SMILES IDX 2 14 1 15 83 16 84 17 85 18 86 20 87 21 89 22 92 23 88 24
REMARK SMILES IDX 90 25 91 26 11 27 12 28 13 29 14 30 15 31 16 33 17 34 18 35
REMARK SMILES IDX 79 36 19 37 78 38 20 39 21 40 22 41 72 42 23 43 77 44 71 45
REMARK SMILES IDX 73 46 24 47 76 48 70 49 69 50 25 52 57 53 37 54 56 55 38 56
REMARK SMILES IDX 41 57 55 58 74 59 39 60 40 61 54 63 75 64 42 65 26 66 27 67
REMARK SMILES IDX 35 68 28 69 29 70 33 71 36 72 30 73 31 74 34 75 32 76 58 77
REMARK SMILES IDX 59 78 67 79 60 80 61 81 65 82 68 83 62 84 63 85 66 86 64 87
REMARK SMILES IDX 43 88 44 89 52 90 45 91 46 92 50 93 53 94 47 95 48 96 51 97
REMARK SMILES IDX 49 98
REMARK H PARENT 7 7 85 19 14 32 73 51 41 62
REMARK Flexibility Score: inf
ROOT
ATOM      1  C   UNL     1      -5.346  -5.452   1.207  1.00  0.00     0.002 C 
ENDROOT
BRANCH   1   2
ATOM      2  C   UNL     1      -4.313  -6.101   0.278  1.00  0.00     0.021 C 
BRANCH   2   3
ATOM      3  C   UNL     1      -2.898  -5.542   0.390  1.00  0.00     0.116 C 
BRANCH   3   4
ATOM      4  N   UNL     1      -2.348  -5.676   1.721  1.00  0.00    -0.356 N 
ATOM      5  C   UNL     1      -1.225  -6.233   2.237  1.00  0.00     0.228 C 
ATOM      6  O   UNL     1      -1.053  -5.941   3.423  1.00  0.00    -0.274 OA
ATOM      7  H   UNL     1      -2.921  -5.269   2.410  1.00  0.00     0.163 HD
BRANCH   5   8
ATOM      8  C   UNL     1      -0.216  -7.097   1.431  1.00  0.00     0.068 C 
ATOM      9  C   UNL     1       0.425  -6.221   0.324  1.00  0.00     0.040 C 
ATOM     10  C   UNL     1      -0.951  -8.209   0.650  1.00  0.00     0.138 C 
ATOM     11  C   UNL     1       0.043  -6.814  -1.022  1.00  0.00     0.122 C 
ATOM     12  N   UNL     1      -0.908  -7.872  -0.772  1.00  0.00    -0.324 N 
BRANCH   8  13
ATOM     13  C   UNL     1       0.958  -7.726   2.289  1.00  0.00     0.018 C 
BRANCH  13  14
ATOM     14  C   UNL     1       0.909  -7.793   3.821  1.00  0.00    -0.002 C 
ATOM     15  C   UNL     1      -0.170  -8.692   4.396  1.00  0.00     0.004 C 
ENDBRANCH  13  14
ENDBRANCH   8  13
BRANCH  12  16
ATOM     16  C   UNL     1      -1.639  -8.618  -1.644  1.00  0.00     0.317 C 
ATOM     17  O   UNL     1      -2.278  -9.604  -1.259  1.00  0.00    -0.249 OA
ATOM     18  N   UNL     1      -1.760  -8.333  -2.953  1.00  0.00    -0.335 N 
ATOM     19  H   UNL     1      -2.267  -9.027  -3.434  1.00  0.00     0.165 HD
BRANCH  18  20
ATOM     20  C   UNL     1      -1.333  -7.261  -3.843  1.00  0.00     0.152 C 
BRANCH  20  21
ATOM     21  C   UNL     1      -0.034  -7.530  -4.655  1.00  0.00     0.083 C 
ATOM     22  C   UNL     1      -0.208  -8.613  -5.722  1.00  0.00     0.039 C 
ATOM     23  O   UNL     1       1.003  -8.022  -3.784  1.00  0.00    -0.373 OA
ATOM     24  C   UNL     1       0.463  -6.217  -5.283  1.00  0.00     0.044 C 
ATOM     25  C   UNL     1       0.127  -9.887  -4.990  1.00  0.00     0.031 C 
ATOM     26  C   UNL     1       1.175  -9.432  -3.998  1.00  0.00     0.161 C 
ENDBRANCH  20  21
ENDBRANCH  18  20
ENDBRANCH  12  16
ENDBRANCH   5   8
ENDBRANCH   3   4
ENDBRANCH   2   3
ENDBRANCH   1   2
BRANCH   1  27
ATOM     27  C   UNL     1      -5.398  -3.921   1.194  1.00  0.00     0.002 C 
BRANCH  27  28
ATOM     28  C   UNL     1      -5.526  -3.270  -0.184  1.00  0.00     0.021 C 
BRANCH  28  29
ATOM     29  C   UNL     1      -6.720  -3.731  -1.006  1.00  0.00     0.116 C 
BRANCH  29  30
ATOM     30  N   UNL     1      -7.988  -3.309  -0.438  1.00  0.00    -0.352 N 
ATOM     31  C   UNL     1      -9.041  -2.686  -1.068  1.00  0.00     0.251 C 
ATOM     32  H   UNL     1      -8.110  -3.491   0.522  1.00  0.00     0.163 HD
ATOM     33  O   UNL     1      -9.995  -2.261  -0.436  1.00  0.00    -0.269 OA
BRANCH  31  34
ATOM     34  C   UNL     1      -8.985  -2.509  -2.535  1.00  0.00     0.039 A 
ATOM     35  C   UNL     1      -9.188  -1.236  -3.075  1.00  0.00     0.014 A 
ATOM     36  C   UNL     1      -8.688  -3.593  -3.365  1.00  0.00     0.014 A 
ATOM     37  C   UNL     1      -9.022  -1.035  -4.448  1.00  0.00     0.010 A 
ATOM     38  C   UNL     1      -8.461  -3.378  -4.719  1.00  0.00     0.010 A 
ATOM     39  C   UNL     1      -8.624  -2.098  -5.273  1.00  0.00    -0.014 A 
BRANCH  39  40
ATOM     40  C   UNL     1      -8.383  -1.919  -6.726  1.00  0.00     0.031 A 
ATOM     41  C   UNL     1      -9.257  -2.640  -7.711  1.00  0.00     0.074 A 
ATOM     42  C   UNL     1      -7.326  -1.202  -7.154  1.00  0.00     0.049 A 
ATOM     43  N   UNL     1      -9.110  -2.785  -9.003  1.00  0.00    -0.248 NA
ATOM     44  C   UNL     1     -10.441  -3.319  -7.159  1.00  0.00     0.031 C 
ATOM     45  C   UNL     1      -6.393  -0.472  -6.296  1.00  0.00     0.029 A 
ATOM     46  N   UNL     1      -6.845  -0.993  -8.423  1.00  0.00    -0.354 N 
ATOM     47  C   UNL     1     -10.160  -3.596  -9.411  1.00  0.00     0.074 A 
ATOM     48  C   UNL     1     -10.916  -3.942  -8.227  1.00  0.00     0.031 C 
ATOM     49  C   UNL     1      -5.455   0.109  -7.062  1.00  0.00     0.029 A 
ATOM     50  C   UNL     1      -5.693  -0.246  -8.458  1.00  0.00     0.049 A 
ATOM     51  H   UNL     1      -7.283  -1.346  -9.230  1.00  0.00     0.167 HD
ATOM     52  C   UNL     1     -10.473  -4.002 -10.664  1.00  0.00     0.037 A 
ATOM     53  C   UNL     1      -4.907   0.094  -9.498  1.00  0.00     0.037 A 
ATOM     54  C   UNL     1      -9.739  -3.625 -11.842  1.00  0.00     0.049 A 
ATOM     55  C   UNL     1      -5.273  -0.374 -10.881  1.00  0.00     0.074 A 
ATOM     56  C   UNL     1     -10.001  -3.945 -13.162  1.00  0.00     0.029 A 
ATOM     57  N   UNL     1      -8.599  -2.834 -11.839  1.00  0.00    -0.354 N 
ATOM     58  N   UNL     1      -6.283  -1.117 -11.261  1.00  0.00    -0.248 NA
ATOM     59  C   UNL     1      -4.388   0.041 -11.979  1.00  0.00     0.031 C 
ATOM     60  C   UNL     1      -9.001  -3.375 -13.957  1.00  0.00     0.029 A 
ATOM     61  C   UNL     1      -8.140  -2.665 -13.135  1.00  0.00     0.049 A 
ATOM     62  H   UNL     1      -8.179  -2.450 -11.036  1.00  0.00     0.167 HD
ATOM     63  C   UNL     1      -6.178  -1.228 -12.641  1.00  0.00     0.074 A 
ATOM     64  C   UNL     1      -5.003  -0.477 -13.033  1.00  0.00     0.031 C 
ATOM     65  C   UNL     1      -6.983  -1.892 -13.505  1.00  0.00     0.037 A 
BRANCH  52  66
ATOM     66  C   UNL     1     -11.660  -4.905 -10.822  1.00  0.00     0.064 A 
ATOM     67  C   UNL     1     -12.970  -4.438 -10.638  1.00  0.00     0.173 A 
ATOM     68  C   UNL     1     -11.487  -6.249 -11.188  1.00  0.00     0.173 A 
ATOM     69  F   UNL     1     -13.187  -3.165 -10.275  1.00  0.00    -0.203 F 
ATOM     70  C   UNL     1     -14.061  -5.290 -10.784  1.00  0.00     0.198 A 
ATOM     71  C   UNL     1     -12.583  -7.090 -11.362  1.00  0.00     0.198 A 
ATOM     72  F   UNL     1     -10.256  -6.745 -11.380  1.00  0.00    -0.203 F 
ATOM     73  F   UNL     1     -15.300  -4.833 -10.553  1.00  0.00    -0.200 F 
ATOM     74  C   UNL     1     -13.867  -6.612 -11.152  1.00  0.00     0.200 A 
ATOM     75  F   UNL     1     -12.395  -8.366 -11.729  1.00  0.00    -0.200 F 
ATOM     76  F   UNL     1     -14.919  -7.430 -11.297  1.00  0.00    -0.200 F 
ENDBRANCH  52  66
BRANCH  53  77
ATOM     77  C   UNL     1      -3.702   0.934  -9.274  1.00  0.00     0.064 A 
ATOM     78  C   UNL     1      -3.664   2.264  -9.717  1.00  0.00     0.173 A 
ATOM     79  C   UNL     1      -2.570   0.432  -8.618  1.00  0.00     0.173 A 
ATOM     80  F   UNL     1      -4.715   2.781 -10.370  1.00  0.00    -0.203 F 
ATOM     81  C   UNL     1      -2.532   3.054  -9.528  1.00  0.00     0.198 A 
ATOM     82  C   UNL     1      -1.448   1.231  -8.406  1.00  0.00     0.198 A 
ATOM     83  F   UNL     1      -2.557  -0.833  -8.172  1.00  0.00    -0.203 F 
ATOM     84  F   UNL     1      -2.507   4.308  -9.998  1.00  0.00    -0.200 F 
ATOM     85  C   UNL     1      -1.427   2.538  -8.867  1.00  0.00     0.200 A 
ATOM     86  F   UNL     1      -0.386   0.733  -7.757  1.00  0.00    -0.200 F 
ATOM     87  F   UNL     1      -0.340   3.299  -8.682  1.00  0.00    -0.200 F 
ENDBRANCH  53  77
BRANCH  65  88
ATOM     88  C   UNL     1      -6.660  -1.794 -14.966  1.00  0.00     0.064 A 
ATOM     89  C   UNL     1      -5.593  -2.505 -15.533  1.00  0.00     0.173 A 
ATOM     90  C   UNL     1      -7.473  -1.032 -15.818  1.00  0.00     0.173 A 
ATOM     91  F   UNL     1      -4.779  -3.235 -14.756  1.00  0.00    -0.203 F 
ATOM     92  C   UNL     1      -5.346  -2.447 -16.902  1.00  0.00     0.198 A 
ATOM     93  C   UNL     1      -7.238  -0.996 -17.189  1.00  0.00     0.198 A 
ATOM     94  F   UNL     1      -8.509  -0.338 -15.322  1.00  0.00    -0.203 F 
ATOM     95  F   UNL     1      -4.303  -3.110 -17.421  1.00  0.00    -0.200 F 
ATOM     96  C   UNL     1      -6.173  -1.701 -17.730  1.00  0.00     0.200 A 
ATOM     97  F   UNL     1      -8.045  -0.284 -17.988  1.00  0.00    -0.200 F 
ATOM     98  F   UNL     1      -5.941  -1.659 -19.049  1.00  0.00    -0.200 F 
ENDBRANCH  65  88
ENDBRANCH  39  40
ENDBRANCH  31  34
ENDBRANCH  29  30
ENDBRANCH  28  29
ENDBRANCH  27  28
ENDBRANCH   1  27
TORSDOF 18
