REMARK SMILES O=C(NCCCCCCNC(=O)[C@@H](F)[C@H]1CCCc2cccnc21)c1ccc(-c2c3nc(c(-c4c(F)c(F)c(F)c(F)c4F)c4ccc([nH]4)c(-c4c(F)c(F)c(F)c(F)c4F)c4nc(c(-c5c(F)c(F)c(F)c(F)c5F)c5ccc2[nH]5)C=C4)C=C3)cc1
REMARK SMILES IDX 6 1 5 2 4 3 3 4 1 5 2 6 25 8 26 9 87 10 27 11 86 12 28 13
REMARK SMILES IDX 29 14 30 15 80 16 31 17 85 18 79 19 81 20 32 21 84 22 78 23
REMARK SMILES IDX 77 24 33 26 65 27 45 28 64 29 46 30 49 31 63 32 82 33 47 34
REMARK SMILES IDX 48 35 62 37 83 38 50 39 34 40 35 41 43 42 36 43 37 44 41 45
REMARK SMILES IDX 44 46 38 47 39 48 42 49 40 50 66 51 67 52 75 53 68 54 69 55
REMARK SMILES IDX 73 56 76 57 70 58 71 59 74 60 72 61 51 62 52 63 60 64 53 65
REMARK SMILES IDX 54 66 58 67 61 68 55 69 56 70 59 71 57 72 7 73 8 74 9 75
REMARK SMILES IDX 10 76 11 77 12 79 13 80 14 81 15 82 16 83 24 84 17 85 19 86
REMARK SMILES IDX 23 87 18 88 20 89 22 90 21 91
REMARK H PARENT 3 7 81 25 49 36 10 78
REMARK Flexibility Score: inf
ROOT
ATOM      1  C   UNL     1       9.376  -1.586   0.996  1.00  0.00     0.002 C 
ENDROOT
BRANCH   1   2
ATOM      2  C   UNL     1       8.234  -2.250   1.765  1.00  0.00     0.021 C 
BRANCH   2   3
ATOM      3  C   UNL     1       8.422  -2.379   3.270  1.00  0.00     0.116 C 
BRANCH   3   4
ATOM      4  N   UNL     1       8.541  -1.102   3.952  1.00  0.00    -0.352 N 
ATOM      5  O   UNL     1       8.062   0.527   5.434  1.00  0.00    -0.269 OA
ATOM      6  C   UNL     1       7.880  -0.630   5.061  1.00  0.00     0.251 C 
ATOM      7  H   UNL     1       9.195  -0.480   3.560  1.00  0.00     0.163 HD
BRANCH   6   8
ATOM      8  C   UNL     1       6.917  -1.488   5.790  1.00  0.00     0.039 A 
ATOM      9  C   UNL     1       7.186  -2.833   6.049  1.00  0.00     0.014 A 
ATOM     10  C   UNL     1       5.713  -0.926   6.232  1.00  0.00     0.014 A 
ATOM     11  C   UNL     1       6.195  -3.648   6.590  1.00  0.00     0.010 A 
ATOM     12  C   UNL     1       4.753  -1.727   6.859  1.00  0.00     0.010 A 
ATOM     13  C   UNL     1       4.966  -3.106   7.002  1.00  0.00    -0.014 A 
BRANCH  13  14
ATOM     14  C   UNL     1       3.939  -4.000   7.597  1.00  0.00     0.031 A 
ATOM     15  C   UNL     1       2.619  -4.234   6.912  1.00  0.00     0.074 A 
ATOM     16  C   UNL     1       4.220  -4.643   8.747  1.00  0.00     0.049 A 
ATOM     17  N   UNL     1       1.637  -5.030   7.261  1.00  0.00    -0.248 NA
ATOM     18  C   UNL     1       2.361  -3.473   5.681  1.00  0.00     0.031 C 
ATOM     19  C   UNL     1       5.455  -4.484   9.518  1.00  0.00     0.029 A 
ATOM     20  N   UNL     1       3.505  -5.575   9.455  1.00  0.00    -0.354 N 
ATOM     21  C   UNL     1       0.639  -4.845   6.312  1.00  0.00     0.074 A 
ATOM     22  C   UNL     1       1.124  -3.847   5.383  1.00  0.00     0.031 C 
ATOM     23  C   UNL     1       5.437  -5.331  10.557  1.00  0.00     0.029 A 
ATOM     24  C   UNL     1       4.170  -6.055  10.556  1.00  0.00     0.049 A 
ATOM     25  H   UNL     1       2.601  -5.871   9.199  1.00  0.00     0.167 HD
ATOM     26  C   UNL     1      -0.566  -5.459   6.221  1.00  0.00     0.037 A 
ATOM     27  C   UNL     1       3.802  -6.975  11.467  1.00  0.00     0.037 A 
ATOM     28  C   UNL     1      -1.034  -6.474   7.129  1.00  0.00     0.049 A 
ATOM     29  C   UNL     1       2.466  -7.647  11.333  1.00  0.00     0.074 A 
ATOM     30  C   UNL     1      -2.220  -7.189   7.089  1.00  0.00     0.029 A 
ATOM     31  N   UNL     1      -0.339  -6.920   8.243  1.00  0.00    -0.354 N 
ATOM     32  N   UNL     1       1.554  -7.495  10.405  1.00  0.00    -0.248 NA
ATOM     33  C   UNL     1       2.110  -8.619  12.375  1.00  0.00     0.031 C 
ATOM     34  C   UNL     1      -2.260  -8.038   8.200  1.00  0.00     0.029 A 
ATOM     35  C   UNL     1      -1.079  -7.886   8.909  1.00  0.00     0.049 A 
ATOM     36  H   UNL     1       0.549  -6.598   8.521  1.00  0.00     0.167 HD
ATOM     37  C   UNL     1       0.524  -8.364  10.738  1.00  0.00     0.074 A 
ATOM     38  C   UNL     1       0.934  -9.054  11.944  1.00  0.00     0.031 C 
ATOM     39  C   UNL     1      -0.655  -8.568  10.104  1.00  0.00     0.037 A 
BRANCH  26  40
ATOM     40  C   UNL     1      -1.478  -5.041   5.104  1.00  0.00     0.064 A 
ATOM     41  C   UNL     1      -1.228  -5.401   3.772  1.00  0.00     0.173 A 
ATOM     42  C   UNL     1      -2.645  -4.311   5.378  1.00  0.00     0.173 A 
ATOM     43  F   UNL     1      -0.121  -6.089   3.454  1.00  0.00    -0.203 F 
ATOM     44  C   UNL     1      -2.101  -5.027   2.752  1.00  0.00     0.198 A 
ATOM     45  C   UNL     1      -3.528  -3.960   4.360  1.00  0.00     0.198 A 
ATOM     46  F   UNL     1      -2.935  -3.947   6.636  1.00  0.00    -0.203 F 
ATOM     47  F   UNL     1      -1.821  -5.348   1.481  1.00  0.00    -0.200 F 
ATOM     48  C   UNL     1      -3.253  -4.313   3.048  1.00  0.00     0.200 A 
ATOM     49  F   UNL     1      -4.647  -3.280   4.649  1.00  0.00    -0.200 F 
ATOM     50  F   UNL     1      -4.095  -3.960   2.066  1.00  0.00    -0.200 F 
ENDBRANCH  26  40
BRANCH  27  51
ATOM     51  C   UNL     1       4.729  -7.329  12.571  1.00  0.00     0.064 A 
ATOM     52  C   UNL     1       5.356  -8.582  12.610  1.00  0.00     0.173 A 
ATOM     53  C   UNL     1       5.017  -6.421  13.600  1.00  0.00     0.173 A 
ATOM     54  F   UNL     1       5.097  -9.490  11.658  1.00  0.00    -0.203 F 
ATOM     55  C   UNL     1       6.228  -8.918  13.644  1.00  0.00     0.198 A 
ATOM     56  C   UNL     1       5.910  -6.747  14.618  1.00  0.00     0.198 A 
ATOM     57  F   UNL     1       4.446  -5.208  13.604  1.00  0.00    -0.203 F 
ATOM     58  F   UNL     1       6.786 -10.135  13.677  1.00  0.00    -0.200 F 
ATOM     59  C   UNL     1       6.510  -7.997  14.643  1.00  0.00     0.200 A 
ATOM     60  F   UNL     1       6.192  -5.850  15.572  1.00  0.00    -0.200 F 
ATOM     61  F   UNL     1       7.355  -8.318  15.632  1.00  0.00    -0.200 F 
ENDBRANCH  27  51
BRANCH  39  62
ATOM     62  C   UNL     1      -1.571  -9.604  10.686  1.00  0.00     0.064 A 
ATOM     63  C   UNL     1      -2.275  -9.377  11.877  1.00  0.00     0.173 A 
ATOM     64  C   UNL     1      -1.757 -10.832  10.034  1.00  0.00     0.173 A 
ATOM     65  F   UNL     1      -2.116  -8.225  12.545  1.00  0.00    -0.203 F 
ATOM     66  C   UNL     1      -3.111 -10.354  12.410  1.00  0.00     0.198 A 
ATOM     67  C   UNL     1      -2.615 -11.796  10.556  1.00  0.00     0.198 A 
ATOM     68  F   UNL     1      -1.110 -11.096   8.889  1.00  0.00    -0.203 F 
ATOM     69  F   UNL     1      -3.735 -10.136  13.576  1.00  0.00    -0.200 F 
ATOM     70  C   UNL     1      -3.284 -11.560  11.747  1.00  0.00     0.200 A 
ATOM     71  F   UNL     1      -2.788 -12.957   9.910  1.00  0.00    -0.200 F 
ATOM     72  F   UNL     1      -4.089 -12.500  12.263  1.00  0.00    -0.200 F 
ENDBRANCH  39  62
ENDBRANCH  13  14
ENDBRANCH   6   8
ENDBRANCH   3   4
ENDBRANCH   2   3
ENDBRANCH   1   2
BRANCH   1  73
ATOM     73  C   UNL     1      10.778  -2.164   1.209  1.00  0.00     0.002 C 
BRANCH  73  74
ATOM     74  C   UNL     1      10.943  -3.675   1.015  1.00  0.00     0.021 C 
BRANCH  74  75
ATOM     75  C   UNL     1      10.355  -4.246  -0.269  1.00  0.00     0.116 C 
BRANCH  75  76
ATOM     76  N   UNL     1      10.958  -3.734  -1.481  1.00  0.00    -0.354 N 
ATOM     77  C   UNL     1      10.998  -4.334  -2.715  1.00  0.00     0.255 C 
ATOM     78  H   UNL     1      11.390  -2.852  -1.412  1.00  0.00     0.163 HD
ATOM     79  O   UNL     1      11.349  -3.653  -3.683  1.00  0.00    -0.272 OA
BRANCH  77  80
ATOM     80  C   UNL     1      10.659  -5.820  -2.871  1.00  0.00     0.264 C 
ATOM     81  F   UNL     1      11.105  -6.552  -1.806  1.00  0.00    -0.236 F 
BRANCH  80  82
ATOM     82  C   UNL     1       9.190  -6.168  -3.195  1.00  0.00     0.082 C 
ATOM     83  C   UNL     1       8.923  -7.682  -3.072  1.00  0.00     0.014 C 
ATOM     84  C   UNL     1       8.154  -5.385  -2.423  1.00  0.00     0.050 A 
ATOM     85  C   UNL     1       8.731  -8.122  -1.621  1.00  0.00     0.006 C 
ATOM     86  C   UNL     1       7.436  -5.942  -1.361  1.00  0.00    -0.026 A 
ATOM     87  N   UNL     1       7.950  -4.111  -2.844  1.00  0.00    -0.261 NA
ATOM     88  C   UNL     1       7.584  -7.378  -0.944  1.00  0.00     0.037 C 
ATOM     89  C   UNL     1       6.493  -5.134  -0.711  1.00  0.00     0.007 A 
ATOM     90  C   UNL     1       7.027  -3.365  -2.202  1.00  0.00     0.111 A 
ATOM     91  C   UNL     1       6.285  -3.826  -1.133  1.00  0.00     0.020 A 
ENDBRANCH  80  82
ENDBRANCH  77  80
ENDBRANCH  75  76
ENDBRANCH  74  75
ENDBRANCH  73  74
ENDBRANCH   1  73
TORSDOF 14
