REMARK SMILES CC(C)OCCS(=O)(=O)N[C@@H]1COC[C@@H]1C(=O)NCCCCCCNC(=O)c1ccc(-c2c3nc(c(-c4c(F)c(F)c(F)c(F)c4F)c4ccc([nH]4)c(-c4c(F)c(F)c(F)c(F)c4F)c4nc(c(-c5c(F)c(F)c(F)c(F)c5F)c5ccc2[nH]5)C=C4)C=C3)cc1
REMARK SMILES IDX 19 1 18 2 16 3 17 4 15 6 11 7 12 8 13 9 14 10 10 11 7 13
REMARK SMILES IDX 8 14 9 15 6 16 5 17 4 18 2 19 1 20 3 21 20 22 21 23 22 24
REMARK SMILES IDX 23 25 24 26 25 27 26 28 27 30 28 31 29 32 90 33 30 34 89 35
REMARK SMILES IDX 31 36 32 37 33 38 83 39 34 40 88 41 82 42 84 43 35 44 87 45
REMARK SMILES IDX 81 46 80 47 36 49 68 50 48 51 67 52 49 53 52 54 66 55 85 56
REMARK SMILES IDX 50 57 51 58 65 60 86 61 53 62 37 63 38 64 46 65 39 66 40 67
REMARK SMILES IDX 44 68 47 69 41 70 42 71 45 72 43 73 69 74 70 75 78 76 71 77
REMARK SMILES IDX 72 78 76 79 79 80 73 81 74 82 77 83 75 84 54 85 55 86 63 87
REMARK SMILES IDX 56 88 57 89 61 90 64 91 58 92 59 93 62 94 60 95
REMARK H PARENT 18 5 10 12 25 29 84 48 52 59
REMARK Flexibility Score: inf
ROOT
ATOM      1  C   UNL     1      -0.587  -2.193   3.630  1.00  0.00     0.116 C 
ENDROOT
BRANCH   1   2
ATOM      2  N   UNL     1       0.605  -2.843   4.103  1.00  0.00    -0.356 N 
ATOM      3  C   UNL     1       1.861  -2.804   3.584  1.00  0.00     0.227 C 
ATOM      4  O   UNL     1       2.759  -3.205   4.338  1.00  0.00    -0.275 OA
ATOM      5  H   UNL     1       0.497  -3.392   4.913  1.00  0.00     0.163 HD
BRANCH   3   6
ATOM      6  C   UNL     1       2.245  -2.451   2.141  1.00  0.00     0.124 C 
ATOM      7  C   UNL     1       1.812  -1.229   1.322  1.00  0.00     0.110 C 
ATOM      8  C   UNL     1       0.780  -1.832   0.347  1.00  0.00     0.181 C 
ATOM      9  O   UNL     1       0.744  -3.255   0.495  1.00  0.00    -0.379 OA
ATOM     10  C   UNL     1       1.879  -3.639   1.260  1.00  0.00     0.175 C 
BRANCH   7  11
ATOM     11  N   UNL     1       1.385   0.003   2.130  1.00  0.00    -0.209 NA
ATOM     12  H   UNL     1       0.366  -0.005   2.167  1.00  0.00     0.141 HD
BRANCH  11  13
ATOM     13  S   UNL     1       1.856   1.579   1.597  1.00  0.00     0.214 S 
ATOM     14  O   UNL     1       2.080   1.571   0.178  1.00  0.00    -0.212 OA
ATOM     15  O   UNL     1       2.951   1.894   2.502  1.00  0.00    -0.212 OA
BRANCH  13  16
ATOM     16  C   UNL     1       0.507   2.721   2.034  1.00  0.00     0.182 C 
BRANCH  16  17
ATOM     17  C   UNL     1      -0.514   3.145   0.973  1.00  0.00     0.178 C 
BRANCH  17  18
ATOM     18  O   UNL     1      -1.764   2.464   0.857  1.00  0.00    -0.378 OA
BRANCH  18  19
ATOM     19  C   UNL     1      -1.746   1.085   0.520  1.00  0.00     0.112 C 
ATOM     20  C   UNL     1      -0.786   0.777  -0.628  1.00  0.00     0.038 C 
ATOM     21  C   UNL     1      -1.628   0.344   1.839  1.00  0.00     0.038 C 
ENDBRANCH  18  19
ENDBRANCH  17  18
ENDBRANCH  16  17
ENDBRANCH  13  16
ENDBRANCH  11  13
ENDBRANCH   7  11
ENDBRANCH   3   6
ENDBRANCH   1   2
BRANCH   1  22
ATOM     22  C   UNL     1      -1.924  -2.685   4.189  1.00  0.00     0.021 C 
BRANCH  22  23
ATOM     23  C   UNL     1      -2.226  -2.400   5.664  1.00  0.00     0.002 C 
BRANCH  23  24
ATOM     24  C   UNL     1      -2.198  -0.936   6.116  1.00  0.00     0.002 C 
BRANCH  24  25
ATOM     25  C   UNL     1      -3.182   0.026   5.443  1.00  0.00     0.021 C 
BRANCH  25  26
ATOM     26  C   UNL     1      -4.656  -0.375   5.457  1.00  0.00     0.116 C 
BRANCH  26  27
ATOM     27  N   UNL     1      -5.175  -0.584   6.799  1.00  0.00    -0.352 N 
ATOM     28  C   UNL     1      -6.274  -0.044   7.421  1.00  0.00     0.251 C 
ATOM     29  H   UNL     1      -4.656  -1.214   7.349  1.00  0.00     0.163 HD
ATOM     30  O   UNL     1      -6.452  -0.236   8.621  1.00  0.00    -0.269 OA
BRANCH  28  31
ATOM     31  C   UNL     1      -7.237   0.789   6.667  1.00  0.00     0.039 A 
ATOM     32  C   UNL     1      -7.726   1.957   7.262  1.00  0.00     0.014 A 
ATOM     33  C   UNL     1      -7.681   0.419   5.396  1.00  0.00     0.014 A 
ATOM     34  C   UNL     1      -8.600   2.787   6.555  1.00  0.00     0.010 A 
ATOM     35  C   UNL     1      -8.493   1.282   4.663  1.00  0.00     0.010 A 
ATOM     36  C   UNL     1      -8.959   2.478   5.233  1.00  0.00    -0.014 A 
BRANCH  36  37
ATOM     37  C   UNL     1      -9.800   3.401   4.428  1.00  0.00     0.031 A 
ATOM     38  C   UNL     1     -11.153   2.967   3.936  1.00  0.00     0.074 A 
ATOM     39  C   UNL     1      -9.316   4.612   4.087  1.00  0.00     0.049 A 
ATOM     40  N   UNL     1     -11.999   3.606   3.166  1.00  0.00    -0.248 NA
ATOM     41  C   UNL     1     -11.606   1.629   4.343  1.00  0.00     0.031 C 
ATOM     42  C   UNL     1      -8.004   5.134   4.469  1.00  0.00     0.029 A 
ATOM     43  N   UNL     1      -9.867   5.620   3.333  1.00  0.00    -0.354 N 
ATOM     44  C   UNL     1     -13.076   2.746   2.993  1.00  0.00     0.074 A 
ATOM     45  C   UNL     1     -12.752   1.519   3.688  1.00  0.00     0.031 C 
ATOM     46  C   UNL     1      -7.860   6.372   3.971  1.00  0.00     0.029 A 
ATOM     47  C   UNL     1      -9.047   6.714   3.194  1.00  0.00     0.049 A 
ATOM     48  H   UNL     1     -10.763   5.564   2.931  1.00  0.00     0.167 HD
ATOM     49  C   UNL     1     -14.239   2.969   2.334  1.00  0.00     0.037 A 
ATOM     50  C   UNL     1      -9.226   7.858   2.507  1.00  0.00     0.037 A 
ATOM     51  C   UNL     1     -14.560   4.196   1.651  1.00  0.00     0.049 A 
ATOM     52  C   UNL     1     -10.511   8.064   1.749  1.00  0.00     0.074 A 
ATOM     53  C   UNL     1     -15.729   4.538   0.995  1.00  0.00     0.029 A 
ATOM     54  N   UNL     1     -13.702   5.281   1.529  1.00  0.00    -0.354 N 
ATOM     55  N   UNL     1     -11.550   7.271   1.649  1.00  0.00    -0.248 NA
ATOM     56  C   UNL     1     -10.649   9.328   1.012  1.00  0.00     0.031 C 
ATOM     57  C   UNL     1     -15.557   5.803   0.424  1.00  0.00     0.029 A 
ATOM     58  C   UNL     1     -14.306   6.279   0.781  1.00  0.00     0.049 A 
ATOM     59  H   UNL     1     -12.799   5.333   1.916  1.00  0.00     0.167 HD
ATOM     60  C   UNL     1     -12.475   7.950   0.867  1.00  0.00     0.074 A 
ATOM     61  C   UNL     1     -11.881   9.227   0.533  1.00  0.00     0.031 C 
ATOM     62  C   UNL     1     -13.706   7.551   0.461  1.00  0.00     0.037 A 
BRANCH  49  63
ATOM     63  C   UNL     1     -15.254   1.861   2.317  1.00  0.00     0.064 A 
ATOM     64  C   UNL     1     -15.932   1.463   3.479  1.00  0.00     0.173 A 
ATOM     65  C   UNL     1     -15.583   1.214   1.115  1.00  0.00     0.173 A 
ATOM     66  F   UNL     1     -15.651   2.041   4.657  1.00  0.00    -0.203 F 
ATOM     67  C   UNL     1     -16.876   0.439   3.446  1.00  0.00     0.198 A 
ATOM     68  C   UNL     1     -16.553   0.215   1.079  1.00  0.00     0.198 A 
ATOM     69  F   UNL     1     -14.972   1.558  -0.029  1.00  0.00    -0.203 F 
ATOM     70  F   UNL     1     -17.470   0.041   4.579  1.00  0.00    -0.200 F 
ATOM     71  C   UNL     1     -17.191  -0.178   2.245  1.00  0.00     0.200 A 
ATOM     72  F   UNL     1     -16.868  -0.369  -0.085  1.00  0.00    -0.200 F 
ATOM     73  F   UNL     1     -18.106  -1.157   2.213  1.00  0.00    -0.200 F 
ENDBRANCH  49  63
BRANCH  50  74
ATOM     74  C   UNL     1      -8.170   8.906   2.513  1.00  0.00     0.064 A 
ATOM     75  C   UNL     1      -8.387  10.144   3.134  1.00  0.00     0.173 A 
ATOM     76  C   UNL     1      -6.930   8.698   1.891  1.00  0.00     0.173 A 
ATOM     77  F   UNL     1      -9.564  10.399   3.725  1.00  0.00    -0.203 F 
ATOM     78  C   UNL     1      -7.415  11.143   3.110  1.00  0.00     0.198 A 
ATOM     79  C   UNL     1      -5.946   9.685   1.898  1.00  0.00     0.198 A 
ATOM     80  F   UNL     1      -6.667   7.530   1.286  1.00  0.00    -0.203 F 
ATOM     81  F   UNL     1      -7.671  12.335   3.664  1.00  0.00    -0.200 F 
ATOM     82  C   UNL     1      -6.193  10.910   2.498  1.00  0.00     0.200 A 
ATOM     83  F   UNL     1      -4.760   9.450   1.320  1.00  0.00    -0.200 F 
ATOM     84  F   UNL     1      -5.258  11.869   2.479  1.00  0.00    -0.200 F 
ENDBRANCH  50  74
BRANCH  62  85
ATOM     85  C   UNL     1     -14.512   8.520  -0.357  1.00  0.00     0.064 A 
ATOM     86  C   UNL     1     -14.164   8.842  -1.677  1.00  0.00     0.173 A 
ATOM     87  C   UNL     1     -15.674   9.101   0.176  1.00  0.00     0.173 A 
ATOM     88  F   UNL     1     -13.056   8.326  -2.229  1.00  0.00    -0.203 F 
ATOM     89  C   UNL     1     -14.933   9.732  -2.423  1.00  0.00     0.198 A 
ATOM     90  C   UNL     1     -16.460   9.961  -0.585  1.00  0.00     0.198 A 
ATOM     91  F   UNL     1     -16.056   8.821   1.431  1.00  0.00    -0.203 F 
ATOM     92  F   UNL     1     -14.552  10.066  -3.663  1.00  0.00    -0.200 F 
ATOM     93  C   UNL     1     -16.085  10.283  -1.881  1.00  0.00     0.200 A 
ATOM     94  F   UNL     1     -17.581  10.478  -0.065  1.00  0.00    -0.200 F 
ATOM     95  F   UNL     1     -16.829  11.130  -2.604  1.00  0.00    -0.200 F 
ENDBRANCH  62  85
ENDBRANCH  36  37
ENDBRANCH  28  31
ENDBRANCH  26  27
ENDBRANCH  25  26
ENDBRANCH  24  25
ENDBRANCH  23  24
ENDBRANCH  22  23
ENDBRANCH   1  22
TORSDOF 19
