REMARK SMILES CC(=O)O[C@@H]1CC[C@@]23C(=O)O[C@]4(CC[C@]2(O)C1)[C@H]3CC[C@]1(C)[C@H](C(=O)NCCCCCCNC(=O)c2ccc(-c3c5nc(c(-c6c(F)c(F)c(F)c(F)c6F)c6ccc([nH]6)c(-c6c(F)c(F)c(F)c(F)c6F)c6nc(c(-c7c(F)c(F)c(F)c(F)c7F)c7ccc3[nH]7)C=C6)C=C5)cc2)CC[C@@H]14
REMARK SMILES IDX 29 1 28 2 27 3 26 4 24 5 25 6 23 8 5 9 6 10 17 11 7 12 15 13
REMARK SMILES IDX 8 14 14 15 9 16 18 17 13 18 10 19 11 20 12 21 19 22 101 23
REMARK SMILES IDX 20 24 21 25 100 26 22 27 99 28 4 29 2 30 1 31 3 32 16 33
REMARK SMILES IDX 30 35 31 36 32 37 33 38 34 39 35 41 36 42 37 43 98 44 38 45
REMARK SMILES IDX 97 46 39 47 40 48 41 49 91 50 42 51 96 52 90 53 92 54 43 55
REMARK SMILES IDX 95 56 89 57 88 58 44 60 76 61 56 62 75 63 57 64 60 65 74 66
REMARK SMILES IDX 93 67 58 68 59 69 73 71 94 72 61 73 45 74 46 75 54 76 47 77
REMARK SMILES IDX 48 78 52 79 55 80 49 81 50 82 53 83 51 84 77 85 78 86 86 87
REMARK SMILES IDX 79 88 80 89 84 90 87 91 81 92 82 93 85 94 83 95 62 96 63 97
REMARK SMILES IDX 71 98 64 99 65 100 69 101 72 102 66 103 67 104 70 105 68 106
REMARK H PARENT 26 7 16 34 33 40 92 59 60 70
REMARK Flexibility Score: inf
ROOT
ATOM      1  C   UNL     1       3.273  -6.375  11.205  1.00  0.00     0.002 C 
ENDROOT
BRANCH   1   2
ATOM      2  C   UNL     1       3.407  -6.140   9.701  1.00  0.00     0.021 C 
BRANCH   2   3
ATOM      3  C   UNL     1       3.937  -4.743   9.329  1.00  0.00     0.116 C 
BRANCH   3   4
ATOM      4  N   UNL     1       5.383  -4.766   9.382  1.00  0.00    -0.356 N 
ATOM      5  C   UNL     1       6.331  -5.033   8.456  1.00  0.00     0.223 C 
ATOM      6  O   UNL     1       7.444  -5.322   8.917  1.00  0.00    -0.275 OA
ATOM      7  H   UNL     1       5.749  -4.544  10.269  1.00  0.00     0.163 HD
BRANCH   5   8
ATOM      8  C   UNL     1       6.182  -4.902   6.934  1.00  0.00     0.085 C 
ATOM      9  C   UNL     1      -0.184  -2.121   2.933  1.00  0.00     0.179 C 
ATOM     10  C   UNL     1       0.713  -1.728   4.090  1.00  0.00     0.047 C 
ATOM     11  C   UNL     1      -0.468  -3.631   2.973  1.00  0.00     0.081 C 
ATOM     12  C   UNL     1       1.928  -2.638   4.122  1.00  0.00     0.026 C 
ATOM     13  C   UNL     1       0.698  -4.596   3.311  1.00  0.00     0.085 C 
ATOM     14  C   UNL     1       1.514  -4.285   4.508  1.00  0.00     0.103 C 
ATOM     15  C   UNL     1       1.863  -4.643   2.212  1.00  0.00     0.041 C 
ATOM     16  C   UNL     1       1.926  -4.046   5.861  1.00  0.00     0.316 C 
ATOM     17  C   UNL     1       2.589  -5.672   4.544  1.00  0.00     0.054 C 
ATOM     18  C   UNL     1       3.435  -4.529   2.799  1.00  0.00     0.052 C 
ATOM     19  O   UNL     1       1.333  -3.771   6.892  1.00  0.00    -0.251 OA
ATOM     20  O   UNL     1       3.301  -3.971   5.602  1.00  0.00    -0.458 OA
ATOM     21  C   UNL     1       3.708  -4.766   4.394  1.00  0.00     0.120 C 
ATOM     22  C   UNL     1       2.809  -6.660   5.707  1.00  0.00     0.009 C 
ATOM     23  C   UNL     1       5.167  -5.057   4.675  1.00  0.00     0.040 C 
ATOM     24  C   UNL     1       4.138  -6.577   6.504  1.00  0.00     0.008 C 
ATOM     25  C   UNL     1       5.422  -5.899   5.961  1.00  0.00    -0.014 C 
ATOM     26  C   UNL     1       5.857  -3.683   4.938  1.00  0.00     0.009 C 
ATOM     27  C   UNL     1       6.444  -7.014   5.622  1.00  0.00     0.012 C 
ATOM     28  C   UNL     1       5.865  -3.494   6.457  1.00  0.00     0.014 C 
BRANCH   9  29
ATOM     29  O   UNL     1       0.432  -1.770   1.670  1.00  0.00    -0.462 OA
BRANCH  29  30
ATOM     30  C   UNL     1       0.351  -0.452   1.313  1.00  0.00     0.302 C 
ATOM     31  C   UNL     1       1.018  -0.212  -0.008  1.00  0.00     0.139 C 
ATOM     32  O   UNL     1      -0.167   0.432   1.981  1.00  0.00    -0.253 OA
ENDBRANCH  29  30
ENDBRANCH   9  29
BRANCH  13  33
ATOM     33  O   UNL     1       0.116  -5.895   3.460  1.00  0.00    -0.389 OA
ATOM     34  H   UNL     1       0.811  -6.538   3.674  1.00  0.00     0.211 HD
ENDBRANCH  13  33
ENDBRANCH   5   8
ENDBRANCH   3   4
ENDBRANCH   2   3
ENDBRANCH   1   2
BRANCH   1  35
ATOM     35  C   UNL     1       2.194  -5.520  11.870  1.00  0.00     0.002 C 
BRANCH  35  36
ATOM     36  C   UNL     1       0.806  -5.635  11.233  1.00  0.00     0.021 C 
BRANCH  36  37
ATOM     37  C   UNL     1       0.268  -7.061  11.155  1.00  0.00     0.116 C 
BRANCH  37  38
ATOM     38  N   UNL     1       0.159  -7.662  12.476  1.00  0.00    -0.352 N 
ATOM     39  C   UNL     1      -0.960  -8.079  13.148  1.00  0.00     0.251 C 
ATOM     40  H   UNL     1       1.010  -7.786  12.956  1.00  0.00     0.163 HD
ATOM     41  O   UNL     1      -0.917  -8.308  14.352  1.00  0.00    -0.269 OA
BRANCH  39  42
ATOM     42  C   UNL     1      -2.226  -8.251  12.410  1.00  0.00     0.039 A 
ATOM     43  C   UNL     1      -3.411  -7.770  12.970  1.00  0.00     0.014 A 
ATOM     44  C   UNL     1      -2.241  -8.902  11.172  1.00  0.00     0.014 A 
ATOM     45  C   UNL     1      -4.607  -7.898  12.263  1.00  0.00     0.010 A 
ATOM     46  C   UNL     1      -3.419  -8.960  10.436  1.00  0.00     0.010 A 
ATOM     47  C   UNL     1      -4.615  -8.466  10.978  1.00  0.00    -0.014 A 
BRANCH  47  48
ATOM     48  C   UNL     1      -5.867  -8.556  10.187  1.00  0.00     0.031 A 
ATOM     49  C   UNL     1      -6.429  -9.898   9.813  1.00  0.00     0.074 A 
ATOM     50  C   UNL     1      -6.462  -7.426   9.758  1.00  0.00     0.049 A 
ATOM     51  N   UNL     1      -7.473 -10.182   9.075  1.00  0.00    -0.248 NA
ATOM     52  C   UNL     1      -5.710 -11.080  10.313  1.00  0.00     0.031 C 
ATOM     53  C   UNL     1      -5.981  -6.068  10.016  1.00  0.00     0.029 A 
ATOM     54  N   UNL     1      -7.594  -7.241   9.005  1.00  0.00    -0.354 N 
ATOM     55  C   UNL     1      -7.528 -11.568   9.017  1.00  0.00     0.074 A 
ATOM     56  C   UNL     1      -6.381 -12.069   9.742  1.00  0.00     0.031 C 
ATOM     57  C   UNL     1      -6.822  -5.190   9.449  1.00  0.00     0.029 A 
ATOM     58  C   UNL     1      -7.876  -5.921   8.752  1.00  0.00     0.049 A 
ATOM     59  H   UNL     1      -8.151  -7.984   8.677  1.00  0.00     0.167 HD
ATOM     60  C   UNL     1      -8.466 -12.351   8.434  1.00  0.00     0.037 A 
ATOM     61  C   UNL     1      -8.865  -5.364   8.028  1.00  0.00     0.037 A 
ATOM     62  C   UNL     1      -9.613 -11.845   7.725  1.00  0.00     0.049 A 
ATOM     63  C   UNL     1      -9.886  -6.257   7.377  1.00  0.00     0.074 A 
ATOM     64  C   UNL     1     -10.646 -12.554   7.138  1.00  0.00     0.029 A 
ATOM     65  N   UNL     1      -9.875 -10.500   7.503  1.00  0.00    -0.354 N 
ATOM     66  N   UNL     1      -9.965  -7.566   7.381  1.00  0.00    -0.248 NA
ATOM     67  C   UNL     1     -10.963  -5.595   6.628  1.00  0.00     0.031 C 
ATOM     68  C   UNL     1     -11.503 -11.642   6.513  1.00  0.00     0.029 A 
ATOM     69  C   UNL     1     -11.040 -10.361   6.766  1.00  0.00     0.049 A 
ATOM     70  H   UNL     1      -9.315  -9.755   7.822  1.00  0.00     0.167 HD
ATOM     71  C   UNL     1     -11.109  -7.883   6.662  1.00  0.00     0.074 A 
ATOM     72  C   UNL     1     -11.703  -6.628   6.251  1.00  0.00     0.031 C 
ATOM     73  C   UNL     1     -11.621  -9.103   6.368  1.00  0.00     0.037 A 
BRANCH  60  74
ATOM     74  C   UNL     1      -8.295 -13.839   8.539  1.00  0.00     0.064 A 
ATOM     75  C   UNL     1      -8.435 -14.512   9.763  1.00  0.00     0.173 A 
ATOM     76  C   UNL     1      -8.030 -14.610   7.396  1.00  0.00     0.173 A 
ATOM     77  F   UNL     1      -8.677 -13.823  10.889  1.00  0.00    -0.203 F 
ATOM     78  C   UNL     1      -8.289 -15.895   9.844  1.00  0.00     0.198 A 
ATOM     79  C   UNL     1      -7.919 -15.996   7.475  1.00  0.00     0.198 A 
ATOM     80  F   UNL     1      -7.893 -14.020   6.199  1.00  0.00    -0.203 F 
ATOM     81  F   UNL     1      -8.377 -16.508  11.032  1.00  0.00    -0.200 F 
ATOM     82  C   UNL     1      -8.040 -16.636   8.699  1.00  0.00     0.200 A 
ATOM     83  F   UNL     1      -7.694 -16.712   6.365  1.00  0.00    -0.200 F 
ATOM     84  F   UNL     1      -7.911 -17.968   8.776  1.00  0.00    -0.200 F 
ENDBRANCH  60  74
BRANCH  61  85
ATOM     85  C   UNL     1      -8.941  -3.886   7.893  1.00  0.00     0.064 A 
ATOM     86  C   UNL     1      -9.977  -3.157   8.492  1.00  0.00     0.173 A 
ATOM     87  C   UNL     1      -7.978  -3.171   7.165  1.00  0.00     0.173 A 
ATOM     88  F   UNL     1     -10.934  -3.796   9.182  1.00  0.00    -0.203 F 
ATOM     89  C   UNL     1     -10.060  -1.773   8.350  1.00  0.00     0.198 A 
ATOM     90  C   UNL     1      -8.043  -1.784   7.051  1.00  0.00     0.198 A 
ATOM     91  F   UNL     1      -6.963  -3.820   6.576  1.00  0.00    -0.203 F 
ATOM     92  F   UNL     1     -11.089  -1.107   8.891  1.00  0.00    -0.200 F 
ATOM     93  C   UNL     1      -9.089  -1.087   7.636  1.00  0.00     0.200 A 
ATOM     94  F   UNL     1      -7.095  -1.125   6.372  1.00  0.00    -0.200 F 
ATOM     95  F   UNL     1      -9.167   0.244   7.503  1.00  0.00    -0.200 F 
ENDBRANCH  61  85
BRANCH  73  96
ATOM     96  C   UNL     1     -12.908  -9.143   5.594  1.00  0.00     0.064 A 
ATOM     97  C   UNL     1     -12.968  -8.781   4.240  1.00  0.00     0.173 A 
ATOM     98  C   UNL     1     -14.089  -9.594   6.206  1.00  0.00     0.173 A 
ATOM     99  F   UNL     1     -11.871  -8.331   3.612  1.00  0.00    -0.203 F 
ATOM    100  C   UNL     1     -14.168  -8.841   3.536  1.00  0.00     0.198 A 
ATOM    101  C   UNL     1     -15.278  -9.685   5.489  1.00  0.00     0.198 A 
ATOM    102  F   UNL     1     -14.085  -9.961   7.496  1.00  0.00    -0.203 F 
ATOM    103  F   UNL     1     -14.213  -8.440   2.258  1.00  0.00    -0.200 F 
ATOM    104  C   UNL     1     -15.319  -9.301   4.158  1.00  0.00     0.200 A 
ATOM    105  F   UNL     1     -16.385 -10.147   6.087  1.00  0.00    -0.200 F 
ATOM    106  F   UNL     1     -16.471  -9.367   3.475  1.00  0.00    -0.200 F 
ENDBRANCH  73  96
ENDBRANCH  47  48
ENDBRANCH  39  42
ENDBRANCH  37  38
ENDBRANCH  36  37
ENDBRANCH  35  36
ENDBRANCH   1  35
TORSDOF 16
