REMARK SMILES Cc1ccc(C[N@H+]2CCC[C@@H](C(=O)NCCCCCCNC(=O)c3ccc(-c4c5nc(c(-c6c(F)c(F)c(F)c(F)c6F)c6ccc([nH]6)c(-c6c(F)c(F)c(F)c(F)c6F)c6nc(c(-c7c(F)c(F)c(F)c(F)c7F)c7ccc4[nH]7)C=C6)C=C5)cc3)C2)o1
REMARK SMILES IDX 17 1 16 2 15 3 14 4 12 5 13 6 11 8 7 9 8 10 87 11 9 13 10 14
REMARK SMILES IDX 6 15 5 16 1 17 2 18 3 19 88 20 4 21 18 22 19 23 20 24 21 25
REMARK SMILES IDX 22 26 23 28 24 29 25 30 86 31 26 32 85 33 27 34 28 35 29 36
REMARK SMILES IDX 79 37 30 38 84 39 78 40 80 41 31 42 83 43 77 44 76 45 32 47
REMARK SMILES IDX 64 48 44 49 63 50 45 51 48 52 62 53 81 54 46 55 47 56 61 58
REMARK SMILES IDX 82 59 49 60 33 61 34 62 42 63 35 64 36 65 40 66 43 67 37 68
REMARK SMILES IDX 38 69 41 70 39 71 65 72 66 73 74 74 67 75 68 76 72 77 75 78
REMARK SMILES IDX 69 79 70 80 73 81 71 82 50 83 51 84 59 85 52 86 53 87 57 88
REMARK SMILES IDX 60 89 54 90 55 91 58 92 56 93
REMARK H PARENT 14 7 7 12 21 27 80 46 48 57
REMARK Flexibility Score: inf
ROOT
ATOM      1  C   UNL     1       0.876   8.865   3.631  1.00  0.00     0.002 C 
ENDROOT
BRANCH   1   2
ATOM      2  C   UNL     1      -0.383   7.998   3.741  1.00  0.00     0.021 C 
BRANCH   2   3
ATOM      3  C   UNL     1      -0.670   7.158   2.500  1.00  0.00     0.116 C 
BRANCH   3   4
ATOM      4  N   UNL     1       0.393   6.200   2.280  1.00  0.00    -0.356 N 
ATOM      5  C   UNL     1       0.367   4.842   2.317  1.00  0.00     0.228 C 
ATOM      6  O   UNL     1       1.443   4.244   2.278  1.00  0.00    -0.275 OA
ATOM      7  H   UNL     1       1.271   6.594   2.072  1.00  0.00     0.163 HD
BRANCH   5   8
ATOM      8  C   UNL     1      -0.963   4.117   2.375  1.00  0.00     0.133 C 
ATOM      9  N   UNL     1      -2.260   2.368   1.206  1.00  0.00    -0.328 N 
ATOM     10  C   UNL     1      -2.429   1.610   2.454  1.00  0.00     0.262 C 
ATOM     11  C   UNL     1      -0.995   3.122   1.216  1.00  0.00     0.276 C 
ATOM     12  H   UNL     1      -3.030   3.035   1.160  1.00  0.00     0.348 HD
ATOM     13  C   UNL     1      -2.399   2.536   3.676  1.00  0.00     0.062 C 
ATOM     14  C   UNL     1      -1.133   3.390   3.709  1.00  0.00     0.025 C 
BRANCH   9  15
ATOM     15  C   UNL     1      -2.374   1.518  -0.000  1.00  0.00     0.338 C 
BRANCH  15  16
ATOM     16  C   UNL     1      -1.384   0.405  -0.101  1.00  0.00     0.158 A 
ATOM     17  C   UNL     1       2.129  -0.179  -0.190  1.00  0.00     0.087 C 
ATOM     18  C   UNL     1       0.666  -0.373  -0.186  1.00  0.00     0.101 A 
ATOM     19  C   UNL     1      -0.159  -1.470  -0.069  1.00  0.00     0.046 A 
ATOM     20  O   UNL     1      -0.078   0.759  -0.275  1.00  0.00    -0.460 OA
ATOM     21  C   UNL     1      -1.484  -0.968  -0.021  1.00  0.00     0.052 A 
ENDBRANCH  15  16
ENDBRANCH   9  15
ENDBRANCH   5   8
ENDBRANCH   3   4
ENDBRANCH   2   3
ENDBRANCH   1   2
BRANCH   1  22
ATOM     22  C   UNL     1       0.909   9.808   2.424  1.00  0.00     0.002 C 
BRANCH  22  23
ATOM     23  C   UNL     1      -0.305  10.728   2.294  1.00  0.00     0.021 C 
BRANCH  23  24
ATOM     24  C   UNL     1      -0.570  11.600   3.514  1.00  0.00     0.116 C 
BRANCH  24  25
ATOM     25  N   UNL     1       0.517  12.531   3.770  1.00  0.00    -0.352 N 
ATOM     26  C   UNL     1       0.469  13.890   3.944  1.00  0.00     0.251 C 
ATOM     27  H   UNL     1       1.414  12.129   3.825  1.00  0.00     0.163 HD
ATOM     28  O   UNL     1       1.504  14.552   3.964  1.00  0.00    -0.269 OA
BRANCH  26  29
ATOM     29  C   UNL     1      -0.838  14.564   4.086  1.00  0.00     0.039 A 
ATOM     30  C   UNL     1      -1.071  15.742   3.373  1.00  0.00     0.014 A 
ATOM     31  C   UNL     1      -1.831  14.035   4.916  1.00  0.00     0.014 A 
ATOM     32  C   UNL     1      -2.320  16.360   3.451  1.00  0.00     0.010 A 
ATOM     33  C   UNL     1      -3.099  14.607   4.928  1.00  0.00     0.010 A 
ATOM     34  C   UNL     1      -3.354  15.780   4.203  1.00  0.00    -0.014 A 
BRANCH  34  35
ATOM     35  C   UNL     1      -4.706  16.392   4.246  1.00  0.00     0.031 A 
ATOM     36  C   UNL     1      -5.259  16.911   5.544  1.00  0.00     0.074 A 
ATOM     37  C   UNL     1      -5.457  16.431   3.128  1.00  0.00     0.049 A 
ATOM     38  N   UNL     1      -6.434  17.434   5.795  1.00  0.00    -0.248 NA
ATOM     39  C   UNL     1      -4.388  16.803   6.725  1.00  0.00     0.031 C 
ATOM     40  C   UNL     1      -5.051  15.916   1.820  1.00  0.00     0.029 A 
ATOM     41  N   UNL     1      -6.722  16.919   2.915  1.00  0.00    -0.354 N 
ATOM     42  C   UNL     1      -6.444  17.705   7.156  1.00  0.00     0.074 A 
ATOM     43  C   UNL     1      -5.185  17.233   7.691  1.00  0.00     0.031 C 
ATOM     44  C   UNL     1      -6.035  16.140   0.935  1.00  0.00     0.029 A 
ATOM     45  C   UNL     1      -7.156  16.776   1.620  1.00  0.00     0.049 A 
ATOM     46  H   UNL     1      -7.266  17.333   3.623  1.00  0.00     0.167 HD
ATOM     47  C   UNL     1      -7.405  18.316   7.890  1.00  0.00     0.037 A 
ATOM     48  C   UNL     1      -8.329  17.114   1.051  1.00  0.00     0.037 A 
ATOM     49  C   UNL     1      -8.648  18.801   7.349  1.00  0.00     0.049 A 
ATOM     50  C   UNL     1      -9.387  17.777   1.891  1.00  0.00     0.074 A 
ATOM     51  C   UNL     1      -9.661  19.487   7.995  1.00  0.00     0.029 A 
ATOM     52  N   UNL     1      -9.049  18.646   6.030  1.00  0.00    -0.354 N 
ATOM     53  N   UNL     1      -9.356  18.097   3.162  1.00  0.00    -0.248 NA
ATOM     54  C   UNL     1     -10.642  18.134   1.215  1.00  0.00     0.031 C 
ATOM     55  C   UNL     1     -10.699  19.696   7.082  1.00  0.00     0.029 A 
ATOM     56  C   UNL     1     -10.308  19.198   5.850  1.00  0.00     0.049 A 
ATOM     57  H   UNL     1      -8.518  18.209   5.325  1.00  0.00     0.167 HD
ATOM     58  C   UNL     1     -10.569  18.718   3.430  1.00  0.00     0.074 A 
ATOM     59  C   UNL     1     -11.308  18.743   2.185  1.00  0.00     0.031 C 
ATOM     60  C   UNL     1     -11.028  19.222   4.602  1.00  0.00     0.037 A 
BRANCH  47  61
ATOM     61  C   UNL     1      -7.150  18.493   9.360  1.00  0.00     0.064 A 
ATOM     62  C   UNL     1      -6.162  19.369   9.837  1.00  0.00     0.173 A 
ATOM     63  C   UNL     1      -7.923  17.802  10.305  1.00  0.00     0.173 A 
ATOM     64  F   UNL     1      -5.387  20.046   8.976  1.00  0.00    -0.203 F 
ATOM     65  C   UNL     1      -5.934  19.519  11.203  1.00  0.00     0.198 A 
ATOM     66  C   UNL     1      -7.716  17.981  11.671  1.00  0.00     0.198 A 
ATOM     67  F   UNL     1      -8.885  16.958   9.906  1.00  0.00    -0.203 F 
ATOM     68  F   UNL     1      -4.947  20.318  11.632  1.00  0.00    -0.200 F 
ATOM     69  C   UNL     1      -6.716  18.831  12.118  1.00  0.00     0.200 A 
ATOM     70  F   UNL     1      -8.482  17.328  12.555  1.00  0.00    -0.200 F 
ATOM     71  F   UNL     1      -6.500  18.982  13.432  1.00  0.00    -0.200 F 
ENDBRANCH  47  61
BRANCH  48  72
ATOM     72  C   UNL     1      -8.556  16.853  -0.395  1.00  0.00     0.064 A 
ATOM     73  C   UNL     1      -8.656  17.911  -1.310  1.00  0.00     0.173 A 
ATOM     74  C   UNL     1      -8.681  15.548  -0.891  1.00  0.00     0.173 A 
ATOM     75  F   UNL     1      -8.562  19.178  -0.882  1.00  0.00    -0.203 F 
ATOM     76  C   UNL     1      -8.895  17.673  -2.662  1.00  0.00     0.198 A 
ATOM     77  C   UNL     1      -8.889  15.310  -2.248  1.00  0.00     0.198 A 
ATOM     78  F   UNL     1      -8.587  14.500  -0.059  1.00  0.00    -0.203 F 
ATOM     79  F   UNL     1      -9.035  18.704  -3.507  1.00  0.00    -0.200 F 
ATOM     80  C   UNL     1      -9.005  16.373  -3.131  1.00  0.00     0.200 A 
ATOM     81  F   UNL     1      -8.979  14.052  -2.700  1.00  0.00    -0.200 F 
ATOM     82  F   UNL     1      -9.231  16.145  -4.432  1.00  0.00    -0.200 F 
ENDBRANCH  48  72
BRANCH  60  83
ATOM     83  C   UNL     1     -12.379  19.879   4.589  1.00  0.00     0.064 A 
ATOM     84  C   UNL     1     -13.560  19.139   4.438  1.00  0.00     0.173 A 
ATOM     85  C   UNL     1     -12.493  21.266   4.772  1.00  0.00     0.173 A 
ATOM     86  F   UNL     1     -13.506  17.812   4.245  1.00  0.00    -0.203 F 
ATOM     87  C   UNL     1     -14.804  19.765   4.445  1.00  0.00     0.198 A 
ATOM     88  C   UNL     1     -13.739  21.884   4.814  1.00  0.00     0.198 A 
ATOM     89  F   UNL     1     -11.395  22.021   4.929  1.00  0.00    -0.203 F 
ATOM     90  F   UNL     1     -15.916  19.044   4.249  1.00  0.00    -0.200 F 
ATOM     91  C   UNL     1     -14.893  21.135   4.642  1.00  0.00     0.200 A 
ATOM     92  F   UNL     1     -13.824  23.206   5.020  1.00  0.00    -0.200 F 
ATOM     93  F   UNL     1     -16.091  21.735   4.659  1.00  0.00    -0.200 F 
ENDBRANCH  60  83
ENDBRANCH  34  35
ENDBRANCH  26  29
ENDBRANCH  24  25
ENDBRANCH  23  24
ENDBRANCH  22  23
ENDBRANCH   1  22
TORSDOF 15
