REMARK SMILES CC(C)Cc1ccc([C@H](CF)C(=O)NCCCCCCNC(=O)c2ccc(-c3c4nc(c(-c5c(F)c(F)c(F)c(F)c5F)c5ccc([nH]5)c(-c5c(F)c(F)c(F)c(F)c5F)c5nc(c(-c6c(F)c(F)c(F)c(F)c6F)c6ccc3[nH]6)C=C5)C=C4)cc2)cc1
REMARK SMILES IDX 17 1 16 2 15 3 14 4 12 5 13 6 9 8 8 9 5 10 6 11 88 12 7 13
REMARK SMILES IDX 87 14 4 15 2 16 1 17 3 18 10 19 11 20 18 21 19 22 20 23
REMARK SMILES IDX 21 24 22 25 23 27 24 28 25 29 86 30 26 31 85 32 27 33 28 34
REMARK SMILES IDX 29 35 79 36 30 37 84 38 78 39 80 40 31 41 83 42 77 43 76 44
REMARK SMILES IDX 32 46 64 47 44 48 63 49 45 50 48 51 62 52 81 53 46 54 47 55
REMARK SMILES IDX 61 57 82 58 49 59 33 60 34 61 42 62 35 63 36 64 40 65 43 66
REMARK SMILES IDX 37 67 38 68 41 69 39 70 65 71 66 72 74 73 67 74 68 75 72 76
REMARK SMILES IDX 75 77 69 78 70 79 73 80 71 81 50 82 51 83 59 84 52 85 53 86
REMARK SMILES IDX 57 87 60 88 54 89 55 90 58 91 56 92
REMARK H PARENT 14 7 21 26 80 45 48 56
REMARK Flexibility Score: inf
ROOT
ATOM      1  C   UNL     1      -5.728   0.124   5.295  1.00  0.00     0.002 C 
ENDROOT
BRANCH   1   2
ATOM      2  C   UNL     1      -4.349  -0.022   4.642  1.00  0.00     0.021 C 
BRANCH   2   3
ATOM      3  C   UNL     1      -3.651  -1.338   4.961  1.00  0.00     0.116 C 
BRANCH   3   4
ATOM      4  N   UNL     1      -4.324  -2.461   4.333  1.00  0.00    -0.355 N 
ATOM      5  C   UNL     1      -3.807  -3.574   3.738  1.00  0.00     0.230 C 
ATOM      6  O   UNL     1      -4.606  -4.444   3.379  1.00  0.00    -0.274 OA
ATOM      7  H   UNL     1      -5.307  -2.412   4.338  1.00  0.00     0.163 HD
BRANCH   5   8
ATOM      8  C   UNL     1      -2.312  -3.730   3.482  1.00  0.00     0.139 C 
BRANCH   8   9
ATOM      9  C   UNL     1      -1.428  -3.772   4.728  1.00  0.00    -0.033 A 
ATOM     10  C   UNL     1       0.256  -3.971   6.999  1.00  0.00    -0.048 A 
ATOM     11  C   UNL     1      -1.131  -3.940   7.147  1.00  0.00     0.004 A 
ATOM     12  C   UNL     1       0.800  -3.902   5.714  1.00  0.00     0.004 A 
ATOM     13  C   UNL     1      -1.959  -3.877   6.025  1.00  0.00     0.005 A 
ATOM     14  C   UNL     1      -0.032  -3.806   4.595  1.00  0.00     0.005 A 
BRANCH  10  15
ATOM     15  C   UNL     1       1.139  -4.196   8.201  1.00  0.00     0.038 C 
BRANCH  15  16
ATOM     16  C   UNL     1       1.121  -5.668   8.662  1.00  0.00    -0.013 C 
ATOM     17  C   UNL     1       1.709  -6.610   7.606  1.00  0.00     0.008 C 
ATOM     18  C   UNL     1       1.886  -5.817   9.977  1.00  0.00     0.008 C 
ENDBRANCH  15  16
ENDBRANCH  10  15
ENDBRANCH   8   9
BRANCH   8  19
ATOM     19  C   UNL     1      -1.916  -2.710   2.409  1.00  0.00     0.232 C 
ATOM     20  F   UNL     1      -0.759  -3.093   1.799  1.00  0.00    -0.250 F 
ENDBRANCH   8  19
ENDBRANCH   5   8
ENDBRANCH   3   4
ENDBRANCH   2   3
ENDBRANCH   1   2
BRANCH   1  21
ATOM     21  C   UNL     1      -5.745  -0.005   6.822  1.00  0.00     0.002 C 
BRANCH  21  22
ATOM     22  C   UNL     1      -4.777   0.920   7.564  1.00  0.00     0.021 C 
BRANCH  22  23
ATOM     23  C   UNL     1      -4.933   2.399   7.234  1.00  0.00     0.116 C 
BRANCH  23  24
ATOM     24  N   UNL     1      -6.254   2.904   7.570  1.00  0.00    -0.352 N 
ATOM     25  C   UNL     1      -6.595   4.036   8.263  1.00  0.00     0.251 C 
ATOM     26  H   UNL     1      -7.009   2.356   7.256  1.00  0.00     0.163 HD
ATOM     27  O   UNL     1      -7.759   4.226   8.609  1.00  0.00    -0.269 OA
BRANCH  25  28
ATOM     28  C   UNL     1      -5.552   5.020   8.616  1.00  0.00     0.039 A 
ATOM     29  C   UNL     1      -5.527   5.542   9.911  1.00  0.00     0.014 A 
ATOM     30  C   UNL     1      -4.604   5.428   7.673  1.00  0.00     0.014 A 
ATOM     31  C   UNL     1      -4.519   6.436  10.276  1.00  0.00     0.010 A 
ATOM     32  C   UNL     1      -3.557   6.259   8.059  1.00  0.00     0.010 A 
ATOM     33  C   UNL     1      -3.509   6.779   9.362  1.00  0.00    -0.014 A 
BRANCH  33  34
ATOM     34  C   UNL     1      -2.407   7.698   9.743  1.00  0.00     0.031 A 
ATOM     35  C   UNL     1      -2.267   9.027   9.053  1.00  0.00     0.074 A 
ATOM     36  C   UNL     1      -1.510   7.319  10.675  1.00  0.00     0.049 A 
ATOM     37  N   UNL     1      -1.332   9.934   9.183  1.00  0.00    -0.248 NA
ATOM     38  C   UNL     1      -3.303   9.373   8.066  1.00  0.00     0.031 C 
ATOM     39  C   UNL     1      -1.521   6.043  11.392  1.00  0.00     0.029 A 
ATOM     40  N   UNL     1      -0.408   7.969  11.174  1.00  0.00    -0.354 N 
ATOM     41  C   UNL     1      -1.668  10.952   8.300  1.00  0.00     0.074 A 
ATOM     42  C   UNL     1      -2.853  10.525   7.591  1.00  0.00     0.031 C 
ATOM     43  C   UNL     1      -0.489   6.011  12.251  1.00  0.00     0.029 A 
ATOM     44  C   UNL     1       0.280   7.244  12.116  1.00  0.00     0.049 A 
ATOM     45  H   UNL     1      -0.137   8.869  10.883  1.00  0.00     0.167 HD
ATOM     46  C   UNL     1      -1.062  12.150   8.121  1.00  0.00     0.037 A 
ATOM     47  C   UNL     1       1.411   7.538  12.785  1.00  0.00     0.037 A 
ATOM     48  C   UNL     1       0.109  12.579   8.839  1.00  0.00     0.049 A 
ATOM     49  C   UNL     1       2.085   8.863  12.534  1.00  0.00     0.074 A 
ATOM     50  C   UNL     1       0.792  13.779   8.738  1.00  0.00     0.029 A 
ATOM     51  N   UNL     1       0.767  11.823   9.797  1.00  0.00    -0.354 N 
ATOM     52  N   UNL     1       1.729   9.837  11.731  1.00  0.00    -0.248 NA
ATOM     53  C   UNL     1       3.316   9.133  13.290  1.00  0.00     0.031 C 
ATOM     54  C   UNL     1       1.885  13.735   9.608  1.00  0.00     0.029 A 
ATOM     55  C   UNL     1       1.853  12.529  10.289  1.00  0.00     0.049 A 
ATOM     56  H   UNL     1       0.503  10.920  10.084  1.00  0.00     0.167 HD
ATOM     57  C   UNL     1       2.664  10.847  11.918  1.00  0.00     0.074 A 
ATOM     58  C   UNL     1       3.594  10.374  12.921  1.00  0.00     0.031 C 
ATOM     59  C   UNL     1       2.748  12.056  11.313  1.00  0.00     0.037 A 
BRANCH  46  60
ATOM     60  C   UNL     1      -1.668  13.096   7.127  1.00  0.00     0.064 A 
ATOM     61  C   UNL     1      -2.893  13.734   7.381  1.00  0.00     0.173 A 
ATOM     62  C   UNL     1      -0.994  13.420   5.940  1.00  0.00     0.173 A 
ATOM     63  F   UNL     1      -3.583  13.450   8.495  1.00  0.00    -0.203 F 
ATOM     64  C   UNL     1      -3.428  14.646   6.475  1.00  0.00     0.198 A 
ATOM     65  C   UNL     1      -1.518  14.355   5.051  1.00  0.00     0.198 A 
ATOM     66  F   UNL     1       0.181  12.843   5.650  1.00  0.00    -0.203 F 
ATOM     67  F   UNL     1      -4.617  15.213   6.722  1.00  0.00    -0.200 F 
ATOM     68  C   UNL     1      -2.736  14.964   5.317  1.00  0.00     0.200 A 
ATOM     69  F   UNL     1      -0.841  14.672   3.938  1.00  0.00    -0.200 F 
ATOM     70  F   UNL     1      -3.244  15.855   4.455  1.00  0.00    -0.200 F 
ENDBRANCH  46  60
BRANCH  47  71
ATOM     71  C   UNL     1       1.987   6.576  13.763  1.00  0.00     0.064 A 
ATOM     72  C   UNL     1       2.052   6.887  15.129  1.00  0.00     0.173 A 
ATOM     73  C   UNL     1       2.536   5.354  13.349  1.00  0.00     0.173 A 
ATOM     74  F   UNL     1       1.558   8.053  15.574  1.00  0.00    -0.203 F 
ATOM     75  C   UNL     1       2.683   6.037  16.034  1.00  0.00     0.198 A 
ATOM     76  C   UNL     1       3.135   4.487  14.261  1.00  0.00     0.198 A 
ATOM     77  F   UNL     1       2.495   5.001  12.056  1.00  0.00    -0.203 F 
ATOM     78  F   UNL     1       2.797   6.396  17.320  1.00  0.00    -0.200 F 
ATOM     79  C   UNL     1       3.223   4.836  15.600  1.00  0.00     0.200 A 
ATOM     80  F   UNL     1       3.642   3.320  13.839  1.00  0.00    -0.200 F 
ATOM     81  F   UNL     1       3.841   4.024  16.467  1.00  0.00    -0.200 F 
ENDBRANCH  47  71
BRANCH  59  82
ATOM     82  C   UNL     1       3.842  12.980  11.764  1.00  0.00     0.064 A 
ATOM     83  C   UNL     1       5.190  12.735  11.465  1.00  0.00     0.173 A 
ATOM     84  C   UNL     1       3.529  14.148  12.477  1.00  0.00     0.173 A 
ATOM     85  F   UNL     1       5.542  11.625  10.798  1.00  0.00    -0.203 F 
ATOM     86  C   UNL     1       6.187  13.608  11.889  1.00  0.00     0.198 A 
ATOM     87  C   UNL     1       4.526  15.037  12.869  1.00  0.00     0.198 A 
ATOM     88  F   UNL     1       2.254  14.434  12.781  1.00  0.00    -0.203 F 
ATOM     89  F   UNL     1       7.473  13.326  11.639  1.00  0.00    -0.200 F 
ATOM     90  C   UNL     1       5.854  14.762  12.583  1.00  0.00     0.200 A 
ATOM     91  F   UNL     1       4.200  16.159  13.526  1.00  0.00    -0.200 F 
ATOM     92  F   UNL     1       6.815  15.606  12.984  1.00  0.00    -0.200 F 
ENDBRANCH  59  82
ENDBRANCH  33  34
ENDBRANCH  25  28
ENDBRANCH  23  24
ENDBRANCH  22  23
ENDBRANCH  21  22
ENDBRANCH   1  21
TORSDOF 17
