REMARK SMILES CSc1nc2ccccc2c(=O)n1CC(=O)NCCCCCCNC(=O)c1ccc(-c2c3nc(c(-c4c(F)c(F)c(F)c(F)c4F)c4ccc([nH]4)c(-c4c(F)c(F)c(F)c(F)c4F)c4nc(c(-c5c(F)c(F)c(F)c(F)c5F)c5ccc2[nH]5)C=C4)C=C3)cc1
REMARK SMILES IDX 20 1 19 2 18 3 17 4 15 5 16 6 14 8 13 9 3 10 4 11 5 12 11 13
REMARK SMILES IDX 6 14 10 15 12 16 7 17 9 18 8 19 2 20 1 21 21 22 22 23 23 24
REMARK SMILES IDX 24 25 25 26 26 28 27 29 28 30 89 31 29 32 88 33 30 34 31 35
REMARK SMILES IDX 32 36 82 37 33 38 87 39 81 40 83 41 34 42 86 43 80 44 79 45
REMARK SMILES IDX 35 47 67 48 47 49 66 50 48 51 51 52 65 53 84 54 49 55 50 56
REMARK SMILES IDX 64 58 85 59 52 60 36 61 37 62 45 63 38 64 39 65 43 66 46 67
REMARK SMILES IDX 40 68 41 69 44 70 42 71 68 72 69 73 77 74 70 75 71 76 75 77
REMARK SMILES IDX 78 78 72 79 73 80 76 81 74 82 53 83 54 84 62 85 55 86 56 87
REMARK SMILES IDX 60 88 63 89 57 90 58 91 61 92 59 93
REMARK H PARENT 17 7 24 27 83 46 51 57
REMARK Flexibility Score: inf
ROOT
ATOM      1  C   UNL     1       6.249   2.526   1.291  1.00  0.00     0.002 C 
ENDROOT
BRANCH   1   2
ATOM      2  C   UNL     1       4.739   2.707   1.468  1.00  0.00     0.021 C 
BRANCH   2   3
ATOM      3  C   UNL     1       3.878   1.535   1.008  1.00  0.00     0.116 C 
BRANCH   3   4
ATOM      4  N   UNL     1       4.087   0.322   1.772  1.00  0.00    -0.355 N 
ATOM      5  C   UNL     1       3.254  -0.480   2.491  1.00  0.00     0.240 C 
ATOM      6  O   UNL     1       3.703  -1.599   2.777  1.00  0.00    -0.273 OA
ATOM      7  H   UNL     1       5.023   0.016   1.772  1.00  0.00     0.163 HD
BRANCH   5   8
ATOM      8  C   UNL     1       1.776  -0.166   2.791  1.00  0.00     0.228 C 
BRANCH   8   9
ATOM      9  N   UNL     1       1.446   1.241   2.976  1.00  0.00    -0.278 N 
ATOM     10  C   UNL     1       0.580   1.983   2.191  1.00  0.00     0.171 A 
ATOM     11  N   UNL     1       0.424   3.263   2.312  1.00  0.00    -0.224 NA
ATOM     12  C   UNL     1       1.082   3.930   3.354  1.00  0.00     0.079 A 
ATOM     13  C   UNL     1       2.018   1.808   4.115  1.00  0.00     0.262 A 
ATOM     14  C   UNL     1       0.922   5.310   3.500  1.00  0.00     0.029 A 
ATOM     15  C   UNL     1       1.818   3.248   4.315  1.00  0.00     0.066 A 
ATOM     16  O   UNL     1       2.679   1.178   4.936  1.00  0.00    -0.269 OA
ATOM     17  C   UNL     1       1.467   5.981   4.602  1.00  0.00     0.002 A 
ATOM     18  C   UNL     1       2.361   3.903   5.428  1.00  0.00     0.016 A 
ATOM     19  C   UNL     1       2.177   5.275   5.573  1.00  0.00     0.001 A 
BRANCH  10  20
ATOM     20  S   UNL     1      -0.524   1.195   1.077  1.00  0.00    -0.091 SA
ATOM     21  C   UNL     1       0.500   0.516  -0.232  1.00  0.00     0.094 C 
ENDBRANCH  10  20
ENDBRANCH   8   9
ENDBRANCH   5   8
ENDBRANCH   3   4
ENDBRANCH   2   3
ENDBRANCH   1   2
BRANCH   1  22
ATOM     22  C   UNL     1       6.734   2.195  -0.125  1.00  0.00     0.002 C 
BRANCH  22  23
ATOM     23  C   UNL     1       6.264   3.136  -1.235  1.00  0.00     0.021 C 
BRANCH  23  24
ATOM     24  C   UNL     1       6.594   4.611  -1.031  1.00  0.00     0.116 C 
BRANCH  24  25
ATOM     25  N   UNL     1       8.022   4.887  -1.062  1.00  0.00    -0.352 N 
ATOM     26  C   UNL     1       8.724   5.779  -1.839  1.00  0.00     0.251 C 
ATOM     27  H   UNL     1       8.566   4.358  -0.434  1.00  0.00     0.163 HD
ATOM     28  O   UNL     1       9.950   5.794  -1.817  1.00  0.00    -0.269 OA
BRANCH  26  29
ATOM     29  C   UNL     1       7.994   6.695  -2.741  1.00  0.00     0.039 A 
ATOM     30  C   UNL     1       6.898   7.428  -2.281  1.00  0.00     0.014 A 
ATOM     31  C   UNL     1       8.395   6.793  -4.077  1.00  0.00     0.014 A 
ATOM     32  C   UNL     1       6.102   8.118  -3.190  1.00  0.00     0.010 A 
ATOM     33  C   UNL     1       7.636   7.549  -4.975  1.00  0.00     0.010 A 
ATOM     34  C   UNL     1       6.453   8.171  -4.549  1.00  0.00    -0.014 A 
BRANCH  34  35
ATOM     35  C   UNL     1       5.554   8.856  -5.513  1.00  0.00     0.031 A 
ATOM     36  C   UNL     1       4.816   8.069  -6.562  1.00  0.00     0.074 A 
ATOM     37  C   UNL     1       5.351  10.182  -5.403  1.00  0.00     0.049 A 
ATOM     38  N   UNL     1       3.983   8.491  -7.480  1.00  0.00    -0.248 NA
ATOM     39  C   UNL     1       5.043   6.616  -6.583  1.00  0.00     0.031 C 
ATOM     40  C   UNL     1       5.984  11.047  -4.409  1.00  0.00     0.029 A 
ATOM     41  N   UNL     1       4.536  11.026  -6.113  1.00  0.00    -0.354 N 
ATOM     42  C   UNL     1       3.597   7.363  -8.193  1.00  0.00     0.074 A 
ATOM     43  C   UNL     1       4.309   6.240  -7.622  1.00  0.00     0.031 C 
ATOM     44  C   UNL     1       5.492  12.289  -4.533  1.00  0.00     0.029 A 
ATOM     45  C   UNL     1       4.555  12.318  -5.652  1.00  0.00     0.049 A 
ATOM     46  H   UNL     1       3.991  10.733  -6.878  1.00  0.00     0.167 HD
ATOM     47  C   UNL     1       2.720   7.271  -9.221  1.00  0.00     0.037 A 
ATOM     48  C   UNL     1       3.896  13.409  -6.086  1.00  0.00     0.037 A 
ATOM     49  C   UNL     1       2.003   8.387  -9.783  1.00  0.00     0.049 A 
ATOM     50  C   UNL     1       2.972  13.291  -7.263  1.00  0.00     0.074 A 
ATOM     51  C   UNL     1       1.102   8.396 -10.833  1.00  0.00     0.029 A 
ATOM     52  N   UNL     1       2.105   9.696  -9.334  1.00  0.00    -0.354 N 
ATOM     53  N   UNL     1       2.639  12.225  -7.948  1.00  0.00    -0.248 NA
ATOM     54  C   UNL     1       2.344  14.532  -7.736  1.00  0.00     0.031 C 
ATOM     55  C   UNL     1       0.683   9.714 -11.042  1.00  0.00     0.029 A 
ATOM     56  C   UNL     1       1.291  10.522 -10.094  1.00  0.00     0.049 A 
ATOM     57  H   UNL     1       2.671   9.995  -8.586  1.00  0.00     0.167 HD
ATOM     58  C   UNL     1       1.757  12.661  -8.926  1.00  0.00     0.074 A 
ATOM     59  C   UNL     1       1.592  14.088  -8.735  1.00  0.00     0.031 C 
ATOM     60  C   UNL     1       1.143  11.941  -9.896  1.00  0.00     0.037 A 
BRANCH  47  61
ATOM     61  C   UNL     1       2.493   5.912  -9.818  1.00  0.00     0.064 A 
ATOM     62  C   UNL     1       1.761   4.926  -9.139  1.00  0.00     0.173 A 
ATOM     63  C   UNL     1       2.981   5.604 -11.097  1.00  0.00     0.173 A 
ATOM     64  F   UNL     1       1.286   5.165  -7.908  1.00  0.00    -0.203 F 
ATOM     65  C   UNL     1       1.546   3.674  -9.711  1.00  0.00     0.198 A 
ATOM     66  C   UNL     1       2.742   4.360 -11.675  1.00  0.00     0.198 A 
ATOM     67  F   UNL     1       3.683   6.513 -11.789  1.00  0.00    -0.203 F 
ATOM     68  F   UNL     1       0.880   2.733  -9.026  1.00  0.00    -0.200 F 
ATOM     69  C   UNL     1       2.030   3.395 -10.980  1.00  0.00     0.200 A 
ATOM     70  F   UNL     1       3.203   4.095 -12.905  1.00  0.00    -0.200 F 
ATOM     71  F   UNL     1       1.818   2.191 -11.529  1.00  0.00    -0.200 F 
ENDBRANCH  47  61
BRANCH  48  72
ATOM     72  C   UNL     1       4.081  14.697  -5.375  1.00  0.00     0.064 A 
ATOM     73  C   UNL     1       3.066  15.215  -4.561  1.00  0.00     0.173 A 
ATOM     74  C   UNL     1       5.291  15.402  -5.444  1.00  0.00     0.173 A 
ATOM     75  F   UNL     1       1.885  14.584  -4.479  1.00  0.00    -0.203 F 
ATOM     76  C   UNL     1       3.257  16.389  -3.835  1.00  0.00     0.198 A 
ATOM     77  C   UNL     1       5.490  16.562  -4.700  1.00  0.00     0.198 A 
ATOM     78  F   UNL     1       6.293  14.942  -6.208  1.00  0.00    -0.203 F 
ATOM     79  F   UNL     1       2.267  16.872  -3.073  1.00  0.00    -0.200 F 
ATOM     80  C   UNL     1       4.473  17.055  -3.897  1.00  0.00     0.200 A 
ATOM     81  F   UNL     1       6.670  17.194  -4.750  1.00  0.00    -0.200 F 
ATOM     82  F   UNL     1       4.664  18.171  -3.180  1.00  0.00    -0.200 F 
ENDBRANCH  48  72
BRANCH  60  83
ATOM     83  C   UNL     1       0.223  12.681 -10.821  1.00  0.00     0.064 A 
ATOM     84  C   UNL     1       0.720  13.517 -11.832  1.00  0.00     0.173 A 
ATOM     85  C   UNL     1      -1.167  12.516 -10.725  1.00  0.00     0.173 A 
ATOM     86  F   UNL     1       2.041  13.717 -11.953  1.00  0.00    -0.203 F 
ATOM     87  C   UNL     1      -0.144  14.174 -12.703  1.00  0.00     0.198 A 
ATOM     88  C   UNL     1      -2.026  13.156 -11.613  1.00  0.00     0.198 A 
ATOM     89  F   UNL     1      -1.689  11.723  -9.778  1.00  0.00    -0.203 F 
ATOM     90  F   UNL     1       0.349  14.996 -13.639  1.00  0.00    -0.200 F 
ATOM     91  C   UNL     1      -1.515  13.988 -12.598  1.00  0.00     0.200 A 
ATOM     92  F   UNL     1      -3.349  12.968 -11.516  1.00  0.00    -0.200 F 
ATOM     93  F   UNL     1      -2.344  14.617 -13.442  1.00  0.00    -0.200 F 
ENDBRANCH  60  83
ENDBRANCH  34  35
ENDBRANCH  26  29
ENDBRANCH  24  25
ENDBRANCH  23  24
ENDBRANCH  22  23
ENDBRANCH   1  22
TORSDOF 15
