REMARK SMILES CC[NH2+][C@@]1(C(=O)NCCCCCCNC(=O)c2ccc(-c3c4nc(c(-c5c(F)c(F)c(F)c(F)c5F)c5ccc([nH]5)c(-c5c(F)c(F)c(F)c(F)c5F)c5nc(c(-c6c(F)c(F)c(F)c(F)c6F)c6ccc3[nH]6)C=C5)C=C4)cc2)CC[C@@H](SCc2cc(C)cc(C)c2)C1
REMARK SMILES IDX 10 1 9 2 8 3 7 4 5 5 6 6 4 8 80 9 93 10 81 11 82 12 3 13
REMARK SMILES IDX 2 16 1 17 83 18 84 19 85 20 86 21 92 22 87 23 90 24 88 25
REMARK SMILES IDX 89 26 91 27 11 28 12 29 13 30 14 31 15 32 16 34 17 35 18 36
REMARK SMILES IDX 79 37 19 38 78 39 20 40 21 41 22 42 72 43 23 44 77 45 71 46
REMARK SMILES IDX 73 47 24 48 76 49 70 50 69 51 25 53 57 54 37 55 56 56 38 57
REMARK SMILES IDX 41 58 55 59 74 60 39 61 40 62 54 64 75 65 42 66 26 67 27 68
REMARK SMILES IDX 35 69 28 70 29 71 33 72 36 73 30 74 31 75 34 76 32 77 58 78
REMARK SMILES IDX 59 79 67 80 60 81 61 82 65 83 68 84 62 85 63 86 66 87 64 88
REMARK SMILES IDX 43 89 44 90 52 91 45 92 46 93 50 94 53 95 47 96 48 97 51 98
REMARK SMILES IDX 49 99
REMARK H PARENT 7 7 3 14 3 15 14 33 73 52 41 63
REMARK Flexibility Score: inf
ROOT
ATOM      1  C   UNL     1      -3.385   0.653  -7.635  1.00  0.00     0.002 C 
ENDROOT
BRANCH   1   2
ATOM      2  C   UNL     1      -1.917   0.588  -7.221  1.00  0.00     0.021 C 
BRANCH   2   3
ATOM      3  C   UNL     1      -1.632   1.324  -5.919  1.00  0.00     0.116 C 
BRANCH   3   4
ATOM      4  N   UNL     1      -1.715   0.463  -4.775  1.00  0.00    -0.351 N 
ATOM      5  C   UNL     1      -0.803   0.095  -3.838  1.00  0.00     0.281 C 
ATOM      6  O   UNL     1      -1.227  -0.772  -3.060  1.00  0.00    -0.268 OA
ATOM      7  H   UNL     1      -2.604   0.062  -4.644  1.00  0.00     0.163 HD
BRANCH   5   8
ATOM      8  C   UNL     1       0.672   0.695  -3.720  1.00  0.00     0.176 C 
ATOM      9  C   UNL     1       0.762   2.230  -3.779  1.00  0.00     0.080 C 
ATOM     10  C   UNL     1       1.610   0.197  -4.851  1.00  0.00     0.093 C 
ATOM     11  C   UNL     1       1.340   2.638  -5.134  1.00  0.00     0.022 C 
ATOM     12  C   UNL     1       1.806   1.359  -5.829  1.00  0.00     0.054 C 
BRANCH   8  13
ATOM     13  N   UNL     1       1.250   0.188  -2.433  1.00  0.00    -0.334 N 
ATOM     14  H   UNL     1       1.137  -0.825  -2.415  1.00  0.00     0.347 HD
ATOM     15  H   UNL     1       2.223   0.493  -2.423  1.00  0.00     0.347 HD
BRANCH  13  16
ATOM     16  C   UNL     1       0.645   0.732  -1.215  1.00  0.00     0.257 C 
ATOM     17  C   UNL     1       1.137  -0.057  -0.011  1.00  0.00     0.071 C 
ENDBRANCH  13  16
ENDBRANCH   8  13
BRANCH  12  18
ATOM     18  S   UNL     1       3.406   1.447  -6.726  1.00  0.00    -0.154 SA
BRANCH  18  19
ATOM     19  C   UNL     1       4.651   1.738  -5.421  1.00  0.00     0.105 C 
BRANCH  19  20
ATOM     20  C   UNL     1       4.537   3.070  -4.727  1.00  0.00    -0.038 A 
ATOM     21  C   UNL     1       4.611   4.278  -5.443  1.00  0.00     0.008 A 
ATOM     22  C   UNL     1       4.275   3.113  -3.350  1.00  0.00     0.008 A 
ATOM     23  C   UNL     1       4.358   5.504  -4.812  1.00  0.00    -0.051 A 
ATOM     24  C   UNL     1       3.998   4.327  -2.710  1.00  0.00    -0.051 A 
ATOM     25  C   UNL     1       4.356   6.775  -5.611  1.00  0.00     0.044 C 
ATOM     26  C   UNL     1       4.042   5.516  -3.448  1.00  0.00     0.006 A 
ATOM     27  C   UNL     1       3.622   4.356  -1.258  1.00  0.00     0.044 C 
ENDBRANCH  19  20
ENDBRANCH  18  19
ENDBRANCH  12  18
ENDBRANCH   5   8
ENDBRANCH   3   4
ENDBRANCH   2   3
ENDBRANCH   1   2
BRANCH   1  28
ATOM     28  C   UNL     1      -3.939   2.075  -7.794  1.00  0.00     0.002 C 
BRANCH  28  29
ATOM     29  C   UNL     1      -3.124   2.989  -8.714  1.00  0.00     0.021 C 
BRANCH  29  30
ATOM     30  C   UNL     1      -2.952   2.453 -10.130  1.00  0.00     0.116 C 
BRANCH  30  31
ATOM     31  N   UNL     1      -4.235   2.210 -10.772  1.00  0.00    -0.352 N 
ATOM     32  C   UNL     1      -4.729   2.725 -11.941  1.00  0.00     0.251 C 
ATOM     33  H   UNL     1      -4.833   1.588 -10.298  1.00  0.00     0.163 HD
ATOM     34  O   UNL     1      -5.918   2.607 -12.224  1.00  0.00    -0.269 OA
BRANCH  32  35
ATOM     35  C   UNL     1      -3.816   3.431 -12.857  1.00  0.00     0.039 A 
ATOM     36  C   UNL     1      -4.211   4.651 -13.410  1.00  0.00     0.014 A 
ATOM     37  C   UNL     1      -2.566   2.884 -13.159  1.00  0.00     0.014 A 
ATOM     38  C   UNL     1      -3.324   5.352 -14.228  1.00  0.00     0.010 A 
ATOM     39  C   UNL     1      -1.657   3.620 -13.906  1.00  0.00     0.010 A 
ATOM     40  C   UNL     1      -2.030   4.857 -14.455  1.00  0.00    -0.014 A 
BRANCH  40  41
ATOM     41  C   UNL     1      -1.047   5.598 -15.281  1.00  0.00     0.031 A 
ATOM     42  C   UNL     1      -0.533   4.985 -16.553  1.00  0.00     0.074 A 
ATOM     43  C   UNL     1      -0.556   6.774 -14.844  1.00  0.00     0.049 A 
ATOM     44  N   UNL     1       0.414   5.405 -17.352  1.00  0.00    -0.248 NA
ATOM     45  C   UNL     1      -1.146   3.712 -16.966  1.00  0.00     0.031 C 
ATOM     46  C   UNL     1      -0.955   7.451 -13.609  1.00  0.00     0.029 A 
ATOM     47  N   UNL     1       0.399   7.599 -15.382  1.00  0.00    -0.354 N 
ATOM     48  C   UNL     1       0.526   4.438 -18.343  1.00  0.00     0.074 A 
ATOM     49  C   UNL     1      -0.413   3.387 -18.019  1.00  0.00     0.031 C 
ATOM     50  C   UNL     1      -0.264   8.596 -13.493  1.00  0.00     0.029 A 
ATOM     51  C   UNL     1       0.661   8.710 -14.617  1.00  0.00     0.049 A 
ATOM     52  H   UNL     1       0.853   7.413 -16.235  1.00  0.00     0.167 HD
ATOM     53  C   UNL     1       1.326   4.440 -19.435  1.00  0.00     0.037 A 
ATOM     54  C   UNL     1       1.558   9.698 -14.796  1.00  0.00     0.037 A 
ATOM     55  C   UNL     1       2.237   5.504 -19.763  1.00  0.00     0.049 A 
ATOM     56  C   UNL     1       2.453   9.662 -16.008  1.00  0.00     0.074 A 
ATOM     57  C   UNL     1       3.045   5.634 -20.879  1.00  0.00     0.029 A 
ATOM     58  N   UNL     1       2.463   6.621 -18.972  1.00  0.00    -0.354 N 
ATOM     59  N   UNL     1       2.505   8.778 -16.974  1.00  0.00    -0.248 NA
ATOM     60  C   UNL     1       3.413  10.765 -16.155  1.00  0.00     0.031 C 
ATOM     61  C   UNL     1       3.805   6.798 -20.733  1.00  0.00     0.029 A 
ATOM     62  C   UNL     1       3.421   7.430 -19.562  1.00  0.00     0.049 A 
ATOM     63  H   UNL     1       2.011   6.811 -18.118  1.00  0.00     0.167 HD
ATOM     64  C   UNL     1       3.469   9.237 -17.862  1.00  0.00     0.074 A 
ATOM     65  C   UNL     1       3.974  10.481 -17.322  1.00  0.00     0.031 C 
ATOM     66  C   UNL     1       3.896   8.679 -19.021  1.00  0.00     0.037 A 
BRANCH  53  67
ATOM     67  C   UNL     1       1.259   3.252 -20.352  1.00  0.00     0.064 A 
ATOM     68  C   UNL     1       0.126   2.984 -21.135  1.00  0.00     0.173 A 
ATOM     69  C   UNL     1       2.362   2.393 -20.481  1.00  0.00     0.173 A 
ATOM     70  F   UNL     1      -0.959   3.767 -21.043  1.00  0.00    -0.203 F 
ATOM     71  C   UNL     1       0.088   1.884 -21.988  1.00  0.00     0.198 A 
ATOM     72  C   UNL     1       2.333   1.315 -21.361  1.00  0.00     0.198 A 
ATOM     73  F   UNL     1       3.473   2.606 -19.761  1.00  0.00    -0.203 F 
ATOM     74  F   UNL     1      -1.025   1.619 -22.686  1.00  0.00    -0.200 F 
ATOM     75  C   UNL     1       1.193   1.056 -22.107  1.00  0.00     0.200 A 
ATOM     76  F   UNL     1       3.409   0.525 -21.486  1.00  0.00    -0.200 F 
ATOM     77  F   UNL     1       1.159   0.004 -22.937  1.00  0.00    -0.200 F 
ENDBRANCH  53  67
BRANCH  54  78
ATOM     78  C   UNL     1       1.648  10.814 -13.818  1.00  0.00     0.064 A 
ATOM     79  C   UNL     1       1.278  12.117 -14.179  1.00  0.00     0.173 A 
ATOM     80  C   UNL     1       2.117  10.609 -12.512  1.00  0.00     0.173 A 
ATOM     81  F   UNL     1       0.841  12.368 -15.422  1.00  0.00    -0.203 F 
ATOM     82  C   UNL     1       1.400  13.176 -13.282  1.00  0.00     0.198 A 
ATOM     83  C   UNL     1       2.208  11.663 -11.605  1.00  0.00     0.198 A 
ATOM     84  F   UNL     1       2.478   9.381 -12.111  1.00  0.00    -0.203 F 
ATOM     85  F   UNL     1       1.092  14.420 -13.673  1.00  0.00    -0.200 F 
ATOM     86  C   UNL     1       1.861  12.948 -11.995  1.00  0.00     0.200 A 
ATOM     87  F   UNL     1       2.638  11.435 -10.357  1.00  0.00    -0.200 F 
ATOM     88  F   UNL     1       1.978  13.966 -11.132  1.00  0.00    -0.200 F 
ENDBRANCH  54  78
BRANCH  66  89
ATOM     89  C   UNL     1       4.917   9.434 -19.822  1.00  0.00     0.064 A 
ATOM     90  C   UNL     1       6.250   9.550 -19.404  1.00  0.00     0.173 A 
ATOM     91  C   UNL     1       4.566   9.995 -21.060  1.00  0.00     0.173 A 
ATOM     92  F   UNL     1       6.634   9.044 -18.222  1.00  0.00    -0.203 F 
ATOM     93  C   UNL     1       7.189  10.217 -20.186  1.00  0.00     0.198 A 
ATOM     94  C   UNL     1       5.514  10.631 -21.855  1.00  0.00     0.198 A 
ATOM     95  F   UNL     1       3.305   9.906 -21.510  1.00  0.00    -0.203 F 
ATOM     96  F   UNL     1       8.448  10.355 -19.747  1.00  0.00    -0.200 F 
ATOM     97  C   UNL     1       6.823  10.747 -21.415  1.00  0.00     0.200 A 
ATOM     98  F   UNL     1       5.162  11.126 -23.050  1.00  0.00    -0.200 F 
ATOM     99  F   UNL     1       7.733  11.374 -22.173  1.00  0.00    -0.200 F 
ENDBRANCH  66  89
ENDBRANCH  40  41
ENDBRANCH  32  35
ENDBRANCH  30  31
ENDBRANCH  29  30
ENDBRANCH  28  29
ENDBRANCH   1  28
TORSDOF 18
