REMARK SMILES C[N@H+]1[C@H]2CC[C@@H]1CN(c1nc3c(cc1C(=O)NCCCCCCNC(=O)c1ccc(-c4c5nc(c(-c6c(F)c(F)c(F)c(F)c6F)c6ccc([nH]6)c(-c6c(F)c(F)c(F)c(F)c6F)c6nc(c(-c7c(F)c(F)c(F)c(F)c7F)c7ccc4[nH]7)C=C6)C=C5)cc1)CCC3)CC2
REMARK SMILES IDX 20 1 19 2 18 3 17 4 15 5 16 6 14 8 9 9 10 10 11 11 13 12
REMARK SMILES IDX 12 13 92 14 90 15 91 16 8 17 7 18 6 19 1 20 2 21 3 22 4 24
REMARK SMILES IDX 5 26 93 27 94 28 21 30 22 31 23 32 24 33 25 34 26 36 27 37
REMARK SMILES IDX 28 38 89 39 29 40 88 41 30 42 31 43 32 44 82 45 33 46 87 47
REMARK SMILES IDX 81 48 83 49 34 50 86 51 80 52 79 53 35 55 67 56 47 57 66 58
REMARK SMILES IDX 48 59 51 60 65 61 84 62 49 63 50 64 64 66 85 67 52 68 36 69
REMARK SMILES IDX 37 70 45 71 38 72 39 73 43 74 46 75 40 76 41 77 44 78 42 79
REMARK SMILES IDX 68 80 69 81 77 82 70 83 71 84 75 85 78 86 72 87 73 88 76 89
REMARK SMILES IDX 74 90 53 91 54 92 62 93 55 94 56 95 60 96 63 97 57 98 58 99
REMARK SMILES IDX 61 100 59 101
REMARK H PARENT 17 7 2 23 24 35 83 54 51 65
REMARK Flexibility Score: 90.00
ROOT
ATOM      1  C   UNL     1       0.432  -1.001   0.342  1.00  0.00     0.002 C 
ENDROOT
BRANCH   1   2
ATOM      2  C   UNL     1       0.683   0.203   1.692  1.00  0.00     0.021 C 
BRANCH   2   3
ATOM      3  C   UNL     1      -0.647   1.696   2.570  1.00  0.00     0.116 C 
BRANCH   3   4
ATOM      4  N   UNL     1      -2.220   1.659   2.898  1.00  0.00    -0.352 N 
ATOM      5  C   UNL     1      -3.011   2.687   3.317  1.00  0.00     0.255 C 
ATOM      6  O   UNL     1      -4.221   2.502   3.430  1.00  0.00    -0.269 OA
ATOM      7  H   UNL     1      -2.666   0.789   2.782  1.00  0.00     0.163 HD
BRANCH   5   8
ATOM      8  C   UNL     1      -2.407   3.958   3.722  1.00  0.00     0.082 A 
ATOM      9  C   UNL     1      -1.413   4.689   3.028  1.00  0.00     0.141 A 
ATOM     10  N   UNL     1      -0.895   5.817   3.587  1.00  0.00    -0.235 NA
ATOM     11  C   UNL     1      -1.339   6.169   4.806  1.00  0.00     0.046 A 
ATOM     12  C   UNL     1      -2.821   4.343   5.007  1.00  0.00     0.023 A 
ATOM     13  C   UNL     1      -2.250   5.455   5.558  1.00  0.00    -0.025 A 
ATOM     14  C   UNL     1      -0.980   7.447   5.501  1.00  0.00     0.057 C 
ATOM     15  C   UNL     1      -2.505   6.073   6.885  1.00  0.00     0.038 C 
ATOM     16  C   UNL     1      -1.394   7.132   6.946  1.00  0.00     0.011 C 
BRANCH   9  17
ATOM     17  N   UNL     1      -0.781   4.287   1.853  1.00  0.00    -0.350 N 
BRANCH  17  18
ATOM     18  C   UNL     1       0.732   3.964   2.071  1.00  0.00     0.183 C 
BRANCH  18  19
ATOM     19  C   UNL     1       1.256   2.322   2.174  1.00  0.00     0.203 C 
ATOM     20  C   UNL     1       1.737   1.521  -0.224  1.00  0.00     0.333 C 
ATOM     21  N   UNL     1       0.517   1.898   0.553  1.00  0.00    -0.331 N 
ATOM     22  C   UNL     1      -1.016   0.836   0.905  1.00  0.00     0.186 CG0
ATOM     23  H   UNL     1       0.049   2.555  -0.071  1.00  0.00     0.348 HD
ATOM     24  C   UNL     1      -0.815  -0.125   2.760  1.00  0.00     0.071 C 
ATOM     25  G   UNL     1      -2.021   2.186   0.430  1.00  0.00     0.000 G0
ATOM     26  C   UNL     1       0.801   0.906   3.552  1.00  0.00     0.073 C 
ENDBRANCH  18  19
ENDBRANCH  17  18
BRANCH  17  27
ATOM     27  C   UNL     1      -1.560   3.776   0.626  1.00  0.00     0.124 C 
BRANCH  27  28
ATOM     28  C   UNL     1      -2.021   2.186   0.430  1.00  0.00     0.086 CG0
ATOM     29  G   UNL     1      -1.016   0.836   0.905  1.00  0.00     0.000 G0
ENDBRANCH  27  28
ENDBRANCH  17  27
ENDBRANCH   9  17
ENDBRANCH   5   8
ENDBRANCH   3   4
ENDBRANCH   2   3
ENDBRANCH   1   2
BRANCH   1  30
ATOM     30  C   UNL     1      -0.127  -0.935  -1.176  1.00  0.00     0.002 C 
BRANCH  30  31
ATOM     31  C   UNL     1      -0.075   0.227  -2.223  1.00  0.00     0.021 C 
BRANCH  31  32
ATOM     32  C   UNL     1       1.170   0.410  -3.107  1.00  0.00     0.116 C 
BRANCH  32  33
ATOM     33  N   UNL     1       1.753  -0.837  -3.542  1.00  0.00    -0.352 N 
ATOM     34  C   UNL     1       2.775  -1.000  -4.430  1.00  0.00     0.251 C 
ATOM     35  H   UNL     1       1.371  -1.659  -3.157  1.00  0.00     0.163 HD
ATOM     36  O   UNL     1       3.141  -2.110  -4.794  1.00  0.00    -0.269 OA
BRANCH  34  37
ATOM     37  C   UNL     1       3.415   0.204  -4.969  1.00  0.00     0.039 A 
ATOM     38  C   UNL     1       3.148   0.557  -6.291  1.00  0.00     0.014 A 
ATOM     39  C   UNL     1       4.269   0.962  -4.163  1.00  0.00     0.014 A 
ATOM     40  C   UNL     1       3.774   1.673  -6.831  1.00  0.00     0.010 A 
ATOM     41  C   UNL     1       4.867   2.099  -4.695  1.00  0.00     0.010 A 
ATOM     42  C   UNL     1       4.652   2.433  -6.042  1.00  0.00    -0.014 A 
BRANCH  42  43
ATOM     43  C   UNL     1       5.466   3.493  -6.670  1.00  0.00     0.031 A 
ATOM     44  C   UNL     1       6.920   3.225  -6.923  1.00  0.00     0.074 A 
ATOM     45  C   UNL     1       4.901   4.658  -7.029  1.00  0.00     0.049 A 
ATOM     46  N   UNL     1       7.829   4.008  -7.442  1.00  0.00    -0.248 NA
ATOM     47  C   UNL     1       7.422   1.897  -6.530  1.00  0.00     0.031 C 
ATOM     48  C   UNL     1       3.493   5.003  -6.846  1.00  0.00     0.029 A 
ATOM     49  N   UNL     1       5.447   5.764  -7.626  1.00  0.00    -0.354 N 
ATOM     50  C   UNL     1       9.003   3.268  -7.440  1.00  0.00     0.074 A 
ATOM     51  C   UNL     1       8.711   1.999  -6.812  1.00  0.00     0.031 C 
ATOM     52  C   UNL     1       3.280   6.235  -7.336  1.00  0.00     0.029 A 
ATOM     53  C   UNL     1       4.544   6.777  -7.830  1.00  0.00     0.049 A 
ATOM     54  H   UNL     1       6.395   5.826  -7.884  1.00  0.00     0.167 HD
ATOM     55  C   UNL     1      10.209   3.610  -7.947  1.00  0.00     0.037 A 
ATOM     56  C   UNL     1       4.728   8.005  -8.351  1.00  0.00     0.037 A 
ATOM     57  C   UNL     1      10.482   4.874  -8.576  1.00  0.00     0.049 A 
ATOM     58  C   UNL     1       6.103   8.389  -8.833  1.00  0.00     0.074 A 
ATOM     59  C   UNL     1      11.665   5.319  -9.136  1.00  0.00     0.029 A 
ATOM     60  N   UNL     1       9.556   5.897  -8.726  1.00  0.00    -0.354 N 
ATOM     61  N   UNL     1       7.202   7.673  -8.865  1.00  0.00    -0.248 NA
ATOM     62  C   UNL     1       6.261   9.752  -9.356  1.00  0.00     0.031 C 
ATOM     63  C   UNL     1      11.474   6.635  -9.565  1.00  0.00     0.029 A 
ATOM     64  C   UNL     1      10.152   6.987  -9.337  1.00  0.00     0.049 A 
ATOM     65  H   UNL     1       8.614   5.854  -8.440  1.00  0.00     0.167 HD
ATOM     66  C   UNL     1       8.175   8.488  -9.429  1.00  0.00     0.074 A 
ATOM     67  C   UNL     1       7.526   9.742  -9.754  1.00  0.00     0.031 C 
ATOM     68  C   UNL     1       9.488   8.228  -9.649  1.00  0.00     0.037 A 
BRANCH  55  69
ATOM     69  C   UNL     1      11.321   2.608  -7.842  1.00  0.00     0.064 A 
ATOM     70  C   UNL     1      11.310   1.415  -8.581  1.00  0.00     0.173 A 
ATOM     71  C   UNL     1      12.440   2.869  -7.036  1.00  0.00     0.173 A 
ATOM     72  F   UNL     1      10.256   1.108  -9.353  1.00  0.00    -0.203 F 
ATOM     73  C   UNL     1      12.369   0.515  -8.506  1.00  0.00     0.198 A 
ATOM     74  C   UNL     1      13.513   1.984  -6.991  1.00  0.00     0.198 A 
ATOM     75  F   UNL     1      12.501   3.993  -6.307  1.00  0.00    -0.203 F 
ATOM     76  F   UNL     1      12.317  -0.638  -9.188  1.00  0.00    -0.200 F 
ATOM     77  C   UNL     1      13.475   0.806  -7.722  1.00  0.00     0.200 A 
ATOM     78  F   UNL     1      14.588   2.274  -6.245  1.00  0.00    -0.200 F 
ATOM     79  F   UNL     1      14.504  -0.051  -7.668  1.00  0.00    -0.200 F 
ENDBRANCH  55  69
BRANCH  56  80
ATOM     80  C   UNL     1       3.581   8.943  -8.460  1.00  0.00     0.064 A 
ATOM     81  C   UNL     1       3.084   9.332  -9.712  1.00  0.00     0.173 A 
ATOM     82  C   UNL     1       2.949   9.464  -7.320  1.00  0.00     0.173 A 
ATOM     83  F   UNL     1       3.667   8.880 -10.832  1.00  0.00    -0.203 F 
ATOM     84  C   UNL     1       2.011  10.213  -9.820  1.00  0.00     0.198 A 
ATOM     85  C   UNL     1       1.855  10.319  -7.429  1.00  0.00     0.198 A 
ATOM     86  F   UNL     1       3.384   9.126  -6.097  1.00  0.00    -0.203 F 
ATOM     87  F   UNL     1       1.585  10.601 -11.030  1.00  0.00    -0.200 F 
ATOM     88  C   UNL     1       1.391  10.699  -8.679  1.00  0.00     0.200 A 
ATOM     89  F   UNL     1       1.249  10.772  -6.323  1.00  0.00    -0.200 F 
ATOM     90  F   UNL     1       0.350  11.537  -8.784  1.00  0.00    -0.200 F 
ENDBRANCH  56  80
BRANCH  68  91
ATOM     91  C   UNL     1      10.314   9.318 -10.274  1.00  0.00     0.064 A 
ATOM     92  C   UNL     1      10.616  10.498  -9.580  1.00  0.00     0.173 A 
ATOM     93  C   UNL     1      10.862   9.154 -11.557  1.00  0.00     0.173 A 
ATOM     94  F   UNL     1      10.112  10.709  -8.354  1.00  0.00    -0.203 F 
ATOM     95  C   UNL     1      11.407  11.487 -10.157  1.00  0.00     0.198 A 
ATOM     96  C   UNL     1      11.688  10.126 -12.113  1.00  0.00     0.198 A 
ATOM     97  F   UNL     1      10.618   8.038 -12.261  1.00  0.00    -0.203 F 
ATOM     98  F   UNL     1      11.635  12.630  -9.495  1.00  0.00    -0.200 F 
ATOM     99  C   UNL     1      11.951  11.296 -11.418  1.00  0.00     0.200 A 
ATOM    100  F   UNL     1      12.233   9.928 -13.321  1.00  0.00    -0.200 F 
ATOM    101  F   UNL     1      12.727  12.242 -11.964  1.00  0.00    -0.200 F 
ENDBRANCH  68  91
ENDBRANCH  42  43
ENDBRANCH  34  37
ENDBRANCH  32  33
ENDBRANCH  31  32
ENDBRANCH  30  31
ENDBRANCH   1  30
TORSDOF 14
