REMARK SMILES Cc1c(CC(=O)NCCCCCCNC(=O)c2ccc(-c3c4nc(c(-c5c(F)c(F)c(F)c(F)c5F)c5ccc([nH]5)c(-c5c(F)c(F)c(F)c(F)c5F)c5nc(c(-c6c(F)c(F)c(F)c(F)c6F)c6ccc3[nH]6)C=C5)C=C4)cc2)cc(-c2ccc(S(C)(=O)=O)cc2)n1-c1ccccc1
REMARK SMILES IDX 10 1 9 2 8 3 7 4 5 5 6 6 4 8 3 9 1 10 2 11 92 12 80 13 81 14
REMARK SMILES IDX 93 15 94 16 98 17 95 18 97 19 96 20 82 21 83 22 91 23 84 24
REMARK SMILES IDX 90 25 85 26 86 27 87 28 88 29 89 30 11 31 12 32 13 33 14 34
REMARK SMILES IDX 15 35 16 37 17 38 18 39 79 40 19 41 78 42 20 43 21 44 22 45
REMARK SMILES IDX 72 46 23 47 77 48 71 49 73 50 24 51 76 52 70 53 69 54 25 56
REMARK SMILES IDX 57 57 37 58 56 59 38 60 41 61 55 62 74 63 39 64 40 65 54 67
REMARK SMILES IDX 75 68 42 69 26 70 27 71 35 72 28 73 29 74 33 75 36 76 30 77
REMARK SMILES IDX 31 78 34 79 32 80 58 81 59 82 67 83 60 84 61 85 65 86 68 87
REMARK SMILES IDX 62 88 63 89 66 90 64 91 43 92 44 93 52 94 45 95 46 96 50 97
REMARK SMILES IDX 53 98 47 99 48 100 51 101 49 102
REMARK H PARENT 7 7 14 36 73 55 41 66
REMARK Flexibility Score: inf
ROOT
ATOM      1  C   UNL     1       4.676  -1.022  -4.043  1.00  0.00     0.002 C 
ENDROOT
BRANCH   1   2
ATOM      2  C   UNL     1       3.153  -0.853  -3.984  1.00  0.00     0.021 C 
BRANCH   2   3
ATOM      3  C   UNL     1       2.363  -2.162  -4.024  1.00  0.00     0.116 C 
BRANCH   3   4
ATOM      4  N   UNL     1       2.374  -2.837  -2.738  1.00  0.00    -0.356 N 
ATOM      5  C   UNL     1       1.410  -2.872  -1.768  1.00  0.00     0.224 C 
ATOM      6  O   UNL     1       1.663  -3.468  -0.718  1.00  0.00    -0.275 OA
ATOM      7  H   UNL     1       3.195  -3.341  -2.534  1.00  0.00     0.163 HD
BRANCH   5   8
ATOM      8  C   UNL     1       0.046  -2.248  -2.006  1.00  0.00     0.137 C 
BRANCH   8   9
ATOM      9  C   UNL     1       0.085  -0.759  -2.135  1.00  0.00    -0.017 A 
ATOM     10  C   UNL     1       1.076  -0.040   0.148  1.00  0.00     0.065 C 
ATOM     11  C   UNL     1       0.573   0.185  -1.238  1.00  0.00     0.024 A 
ATOM     12  N   UNL     1       0.463   1.447  -1.820  1.00  0.00    -0.314 N 
ATOM     13  C   UNL     1      -0.419  -0.050  -3.244  1.00  0.00     0.033 A 
ATOM     14  C   UNL     1      -0.141   1.285  -3.064  1.00  0.00     0.053 A 
BRANCH  12  15
ATOM     15  C   UNL     1       0.914   2.688  -1.273  1.00  0.00     0.046 A 
ATOM     16  C   UNL     1       0.097   3.827  -1.340  1.00  0.00     0.026 A 
ATOM     17  C   UNL     1       2.205   2.791  -0.744  1.00  0.00     0.026 A 
ATOM     18  C   UNL     1       0.574   5.059  -0.889  1.00  0.00     0.002 A 
ATOM     19  C   UNL     1       2.679   4.030  -0.305  1.00  0.00     0.002 A 
ATOM     20  C   UNL     1       1.867   5.161  -0.378  1.00  0.00     0.000 A 
ENDBRANCH  12  15
BRANCH  14  21
ATOM     21  C   UNL     1      -0.354   2.332  -4.045  1.00  0.00    -0.001 A 
ATOM     22  C   UNL     1       0.721   3.097  -4.515  1.00  0.00     0.011 A 
ATOM     23  C   UNL     1      -1.656   2.561  -4.509  1.00  0.00     0.011 A 
ATOM     24  C   UNL     1       0.478   4.149  -5.380  1.00  0.00     0.021 A 
ATOM     25  C   UNL     1      -1.906   3.609  -5.373  1.00  0.00     0.021 A 
ATOM     26  C   UNL     1      -0.842   4.410  -5.762  1.00  0.00     0.067 A 
BRANCH  26  27
ATOM     27  S   UNL     1      -1.181   5.841  -6.718  1.00  0.00     0.175 S 
ATOM     28  C   UNL     1      -0.479   7.128  -5.690  1.00  0.00     0.163 C 
ATOM     29  O   UNL     1      -0.427   5.634  -7.936  1.00  0.00    -0.224 OA
ATOM     30  O   UNL     1      -2.613   6.046  -6.753  1.00  0.00    -0.224 OA
ENDBRANCH  26  27
ENDBRANCH  14  21
ENDBRANCH   8   9
ENDBRANCH   5   8
ENDBRANCH   3   4
ENDBRANCH   2   3
ENDBRANCH   1   2
BRANCH   1  31
ATOM     31  C   UNL     1       5.253  -1.524  -5.374  1.00  0.00     0.002 C 
BRANCH  31  32
ATOM     32  C   UNL     1       4.721  -0.882  -6.671  1.00  0.00     0.021 C 
BRANCH  32  33
ATOM     33  C   UNL     1       4.594   0.654  -6.712  1.00  0.00     0.116 C 
BRANCH  33  34
ATOM     34  N   UNL     1       5.661   1.318  -7.435  1.00  0.00    -0.352 N 
ATOM     35  C   UNL     1       5.691   2.605  -7.935  1.00  0.00     0.251 C 
ATOM     36  H   UNL     1       6.471   0.780  -7.590  1.00  0.00     0.163 HD
ATOM     37  O   UNL     1       6.765   3.064  -8.322  1.00  0.00    -0.269 OA
BRANCH  35  38
ATOM     38  C   UNL     1       4.461   3.450  -8.076  1.00  0.00     0.039 A 
ATOM     39  C   UNL     1       3.579   3.188  -9.115  1.00  0.00     0.014 A 
ATOM     40  C   UNL     1       4.331   4.681  -7.404  1.00  0.00     0.014 A 
ATOM     41  C   UNL     1       2.599   4.148  -9.470  1.00  0.00     0.010 A 
ATOM     42  C   UNL     1       3.370   5.674  -7.801  1.00  0.00     0.010 A 
ATOM     43  C   UNL     1       2.505   5.453  -8.881  1.00  0.00    -0.014 A 
BRANCH  43  44
ATOM     44  C   UNL     1       1.882   6.549  -9.796  1.00  0.00     0.031 A 
ATOM     45  C   UNL     1       2.628   6.435 -11.073  1.00  0.00     0.074 A 
ATOM     46  C   UNL     1       1.009   7.615  -9.740  1.00  0.00     0.049 A 
ATOM     47  N   UNL     1       3.932   6.526 -11.087  1.00  0.00    -0.248 NA
ATOM     48  C   UNL     1       2.024   5.931 -12.302  1.00  0.00     0.031 C 
ATOM     49  C   UNL     1       0.418   8.205  -8.547  1.00  0.00     0.029 A 
ATOM     50  N   UNL     1       0.397   8.412 -10.732  1.00  0.00    -0.354 N 
ATOM     51  C   UNL     1       4.275   6.443 -12.411  1.00  0.00     0.074 A 
ATOM     52  C   UNL     1       3.123   5.827 -13.054  1.00  0.00     0.031 C 
ATOM     53  C   UNL     1      -0.623   9.025  -8.839  1.00  0.00     0.029 A 
ATOM     54  C   UNL     1      -0.697   9.210 -10.279  1.00  0.00     0.049 A 
ATOM     55  H   UNL     1       0.703   8.416 -11.668  1.00  0.00     0.167 HD
ATOM     56  C   UNL     1       5.058   7.457 -12.879  1.00  0.00     0.037 A 
ATOM     57  C   UNL     1      -1.538  10.063 -10.960  1.00  0.00     0.037 A 
ATOM     58  C   UNL     1       4.344   8.345 -13.752  1.00  0.00     0.049 A 
ATOM     59  C   UNL     1      -0.790  10.522 -12.132  1.00  0.00     0.074 A 
ATOM     60  C   UNL     1       3.508   8.155 -14.832  1.00  0.00     0.029 A 
ATOM     61  N   UNL     1       4.094   9.616 -13.283  1.00  0.00    -0.354 N 
ATOM     62  N   UNL     1       0.120  11.443 -12.035  1.00  0.00    -0.248 NA
ATOM     63  C   UNL     1      -1.053  10.035 -13.479  1.00  0.00     0.031 C 
ATOM     64  C   UNL     1       2.487   9.126 -14.696  1.00  0.00     0.029 A 
ATOM     65  C   UNL     1       2.851  10.031 -13.708  1.00  0.00     0.049 A 
ATOM     66  H   UNL     1       4.710  10.146 -12.728  1.00  0.00     0.167 HD
ATOM     67  C   UNL     1       0.868  11.246 -13.147  1.00  0.00     0.074 A 
ATOM     68  C   UNL     1      -0.032  10.628 -14.101  1.00  0.00     0.031 C 
ATOM     69  C   UNL     1       2.201  11.086 -12.963  1.00  0.00     0.037 A 
BRANCH  56  70
ATOM     70  C   UNL     1       6.133   7.879 -11.920  1.00  0.00     0.064 A 
ATOM     71  C   UNL     1       7.442   7.438 -12.132  1.00  0.00     0.173 A 
ATOM     72  C   UNL     1       5.864   8.568 -10.720  1.00  0.00     0.173 A 
ATOM     73  F   UNL     1       7.766   6.821 -13.278  1.00  0.00    -0.203 F 
ATOM     74  C   UNL     1       8.427   7.627 -11.162  1.00  0.00     0.198 A 
ATOM     75  C   UNL     1       6.834   8.709  -9.733  1.00  0.00     0.198 A 
ATOM     76  F   UNL     1       4.654   9.110 -10.499  1.00  0.00    -0.203 F 
ATOM     77  F   UNL     1       9.681   7.217 -11.397  1.00  0.00    -0.200 F 
ATOM     78  C   UNL     1       8.115   8.232  -9.952  1.00  0.00     0.200 A 
ATOM     79  F   UNL     1       6.525   9.306  -8.572  1.00  0.00    -0.200 F 
ATOM     80  F   UNL     1       9.053   8.375  -9.006  1.00  0.00    -0.200 F 
ENDBRANCH  56  70
BRANCH  57  81
ATOM     81  C   UNL     1      -2.823  10.849 -10.774  1.00  0.00     0.064 A 
ATOM     82  C   UNL     1      -2.986  12.133 -11.378  1.00  0.00     0.173 A 
ATOM     83  C   UNL     1      -4.017  10.231 -10.383  1.00  0.00     0.173 A 
ATOM     84  F   UNL     1      -1.931  12.869 -11.751  1.00  0.00    -0.203 F 
ATOM     85  C   UNL     1      -4.233  12.682 -11.691  1.00  0.00     0.198 A 
ATOM     86  C   UNL     1      -5.276  10.806 -10.663  1.00  0.00     0.198 A 
ATOM     87  F   UNL     1      -3.990   9.019  -9.815  1.00  0.00    -0.203 F 
ATOM     88  F   UNL     1      -4.306  13.828 -12.384  1.00  0.00    -0.200 F 
ATOM     89  C   UNL     1      -5.382  12.007 -11.350  1.00  0.00     0.200 A 
ATOM     90  F   UNL     1      -6.399  10.155 -10.327  1.00  0.00    -0.200 F 
ATOM     91  F   UNL     1      -6.579  12.494 -11.709  1.00  0.00    -0.200 F 
ENDBRANCH  57  81
BRANCH  69  92
ATOM     92  C   UNL     1       2.857  11.903 -11.850  1.00  0.00     0.064 A 
ATOM     93  C   UNL     1       2.407  12.058 -10.514  1.00  0.00     0.173 A 
ATOM     94  C   UNL     1       4.008  12.633 -12.185  1.00  0.00     0.173 A 
ATOM     95  F   UNL     1       1.415  11.318  -9.999  1.00  0.00    -0.203 F 
ATOM     96  C   UNL     1       3.000  12.965  -9.630  1.00  0.00     0.198 A 
ATOM     97  C   UNL     1       4.638  13.488 -11.280  1.00  0.00     0.198 A 
ATOM     98  F   UNL     1       4.550  12.501 -13.405  1.00  0.00    -0.203 F 
ATOM     99  F   UNL     1       2.492  13.137  -8.399  1.00  0.00    -0.200 F 
ATOM    100  C   UNL     1       4.117  13.679 -10.014  1.00  0.00     0.200 A 
ATOM    101  F   UNL     1       5.760  14.124 -11.642  1.00  0.00    -0.200 F 
ATOM    102  F   UNL     1       4.703  14.531  -9.161  1.00  0.00    -0.200 F 
ENDBRANCH  69  92
ENDBRANCH  43  44
ENDBRANCH  35  38
ENDBRANCH  33  34
ENDBRANCH  32  33
ENDBRANCH  31  32
ENDBRANCH   1  31
TORSDOF 17
