REMARK SMILES COc1ccc([C@H]2CC(c3ccccc3)=NN2C(=O)CCCC(=O)NCCCCCCNC(=O)c2ccc(-c3c4nc(c(-c5c(F)c(F)c(F)c(F)c5F)c5ccc([nH]5)c(-c5c(F)c(F)c(F)c(F)c5F)c5nc(c(-c6c(F)c(F)c(F)c(F)c6F)c6ccc3[nH]6)C=C5)C=C4)cc2)cc1
REMARK SMILES IDX 26 1 25 2 23 3 24 4 22 6 21 7 20 8 18 9 19 10 17 11 7 12
REMARK SMILES IDX 8 13 9 14 16 15 6 16 3 17 4 18 99 19 5 20 98 21 2 22 1 23
REMARK SMILES IDX 10 24 11 25 15 26 12 27 14 28 13 29 27 30 28 31 29 32 30 33
REMARK SMILES IDX 31 34 32 35 33 36 34 38 35 39 36 40 97 41 37 42 96 43 38 44
REMARK SMILES IDX 39 45 40 46 90 47 41 48 95 49 89 50 91 51 42 52 94 53 88 54
REMARK SMILES IDX 87 55 43 57 75 58 55 59 74 60 56 61 59 62 73 63 92 64 57 65
REMARK SMILES IDX 58 66 72 68 93 69 60 70 44 71 45 72 53 73 46 74 47 75 51 76
REMARK SMILES IDX 54 77 48 78 49 79 52 80 50 81 76 82 77 83 85 84 78 85 79 86
REMARK SMILES IDX 83 87 86 88 80 89 81 90 84 91 82 92 61 93 62 94 70 95 63 96
REMARK SMILES IDX 64 97 68 98 71 99 65 100 66 101 69 102 67 103
REMARK H PARENT 25 5 32 37 91 56 59 67
REMARK Flexibility Score: inf
ROOT
ATOM      1  C   UNL     1       0.194  -4.770  -6.595  1.00  0.00     0.116 C 
ENDROOT
BRANCH   1   2
ATOM      2  N   UNL     1      -0.835  -4.116  -5.836  1.00  0.00    -0.356 N 
ATOM      3  C   UNL     1      -1.014  -4.068  -4.493  1.00  0.00     0.220 C 
ATOM      4  O   UNL     1      -2.159  -3.815  -4.107  1.00  0.00    -0.275 OA
ATOM      5  H   UNL     1      -1.508  -3.632  -6.368  1.00  0.00     0.163 HD
BRANCH   3   6
ATOM      6  C   UNL     1       0.140  -4.068  -3.506  1.00  0.00     0.100 C 
BRANCH   6   7
ATOM      7  C   UNL     1       1.201  -5.109  -3.270  1.00  0.00     0.020 C 
BRANCH   7   8
ATOM      8  C   UNL     1       2.379  -5.312  -4.215  1.00  0.00     0.103 C 
BRANCH   8   9
ATOM      9  C   UNL     1       3.457  -4.336  -4.753  1.00  0.00     0.243 C 
ATOM     10  O   UNL     1       4.607  -4.824  -4.737  1.00  0.00    -0.273 OA
BRANCH   9  11
ATOM     11  N   UNL     1       3.261  -3.128  -5.414  1.00  0.00    -0.225 N 
ATOM     12  C   UNL     1       2.217  -2.058  -5.434  1.00  0.00     0.147 C 
ATOM     13  C   UNL     1       2.688  -1.047  -6.476  1.00  0.00     0.091 C 
ATOM     14  C   UNL     1       3.980  -1.671  -6.873  1.00  0.00     0.071 C 
ATOM     15  N   UNL     1       4.276  -2.797  -6.313  1.00  0.00    -0.174 NA
BRANCH  12  16
ATOM     16  C   UNL     1       1.965  -1.343  -4.116  1.00  0.00    -0.023 A 
ATOM     17  C   UNL     1       1.193  -0.715  -1.517  1.00  0.00     0.118 A 
ATOM     18  C   UNL     1       0.267  -0.595  -2.547  1.00  0.00     0.047 A 
ATOM     19  C   UNL     1       2.527  -1.018  -1.787  1.00  0.00     0.047 A 
ATOM     20  C   UNL     1       0.664  -0.853  -3.857  1.00  0.00     0.010 A 
ATOM     21  C   UNL     1       2.919  -1.323  -3.092  1.00  0.00     0.010 A 
BRANCH  17  22
ATOM     22  O   UNL     1       0.723  -0.717  -0.233  1.00  0.00    -0.497 OA
ATOM     23  C   UNL     1       1.061   0.486   0.445  1.00  0.00     0.278 C 
ENDBRANCH  17  22
ENDBRANCH  12  16
BRANCH  14  24
ATOM     24  C   UNL     1       4.849  -1.012  -7.849  1.00  0.00    -0.002 A 
ATOM     25  C   UNL     1       5.071  -1.595  -9.097  1.00  0.00     0.010 A 
ATOM     26  C   UNL     1       5.472   0.184  -7.491  1.00  0.00     0.010 A 
ATOM     27  C   UNL     1       5.921  -0.960 -10.003  1.00  0.00     0.001 A 
ATOM     28  C   UNL     1       6.332   0.804  -8.395  1.00  0.00     0.001 A 
ATOM     29  C   UNL     1       6.553   0.235  -9.650  1.00  0.00     0.000 A 
ENDBRANCH  14  24
ENDBRANCH   9  11
ENDBRANCH   8   9
ENDBRANCH   7   8
ENDBRANCH   6   7
ENDBRANCH   3   6
ENDBRANCH   1   2
BRANCH   1  30
ATOM     30  C   UNL     1      -0.168  -6.236  -6.771  1.00  0.00     0.021 C 
BRANCH  30  31
ATOM     31  C   UNL     1      -1.231  -6.404  -7.860  1.00  0.00     0.002 C 
BRANCH  31  32
ATOM     32  C   UNL     1      -0.745  -5.988  -9.255  1.00  0.00     0.002 C 
BRANCH  32  33
ATOM     33  C   UNL     1       0.540  -6.688  -9.700  1.00  0.00     0.021 C 
BRANCH  33  34
ATOM     34  C   UNL     1       0.471  -8.205  -9.590  1.00  0.00     0.116 C 
BRANCH  34  35
ATOM     35  N   UNL     1      -0.671  -8.733 -10.322  1.00  0.00    -0.352 N 
ATOM     36  C   UNL     1      -0.689  -9.699 -11.286  1.00  0.00     0.251 C 
ATOM     37  H   UNL     1      -1.545  -8.341 -10.092  1.00  0.00     0.163 HD
ATOM     38  O   UNL     1      -1.675  -9.861 -12.002  1.00  0.00    -0.269 OA
BRANCH  36  39
ATOM     39  C   UNL     1       0.502 -10.543 -11.453  1.00  0.00     0.039 A 
ATOM     40  C   UNL     1       1.014 -10.749 -12.733  1.00  0.00     0.014 A 
ATOM     41  C   UNL     1       1.120 -11.101 -10.329  1.00  0.00     0.014 A 
ATOM     42  C   UNL     1       2.178 -11.498 -12.884  1.00  0.00     0.010 A 
ATOM     43  C   UNL     1       2.323 -11.774 -10.475  1.00  0.00     0.010 A 
ATOM     44  C   UNL     1       2.851 -11.995 -11.755  1.00  0.00    -0.014 A 
BRANCH  44  45
ATOM     45  C   UNL     1       4.103 -12.770 -11.899  1.00  0.00     0.031 A 
ATOM     46  C   UNL     1       4.143 -14.209 -11.474  1.00  0.00     0.074 A 
ATOM     47  C   UNL     1       5.210 -12.157 -12.356  1.00  0.00     0.049 A 
ATOM     48  N   UNL     1       5.148 -15.046 -11.481  1.00  0.00    -0.248 NA
ATOM     49  C   UNL     1       2.895 -14.776 -10.938  1.00  0.00     0.031 C 
ATOM     50  C   UNL     1       5.297 -10.746 -12.735  1.00  0.00     0.029 A 
ATOM     51  N   UNL     1       6.475 -12.639 -12.566  1.00  0.00    -0.354 N 
ATOM     52  C   UNL     1       4.659 -16.226 -10.937  1.00  0.00     0.074 A 
ATOM     53  C   UNL     1       3.287 -15.981 -10.555  1.00  0.00     0.031 C 
ATOM     54  C   UNL     1       6.544 -10.481 -13.152  1.00  0.00     0.029 A 
ATOM     55  C   UNL     1       7.352 -11.690 -13.031  1.00  0.00     0.049 A 
ATOM     56  H   UNL     1       6.731 -13.575 -12.400  1.00  0.00     0.167 HD
ATOM     57  C   UNL     1       5.295 -17.412 -10.793  1.00  0.00     0.037 A 
ATOM     58  C   UNL     1       8.664 -11.787 -13.316  1.00  0.00     0.037 A 
ATOM     59  C   UNL     1       6.656 -17.645 -11.197  1.00  0.00     0.049 A 
ATOM     60  C   UNL     1       9.346 -13.118 -13.158  1.00  0.00     0.074 A 
ATOM     61  C   UNL     1       7.373 -18.827 -11.173  1.00  0.00     0.029 A 
ATOM     62  N   UNL     1       7.510 -16.668 -11.691  1.00  0.00    -0.354 N 
ATOM     63  N   UNL     1       8.851 -14.256 -12.732  1.00  0.00    -0.248 NA
ATOM     64  C   UNL     1      10.764 -13.183 -13.530  1.00  0.00     0.031 C 
ATOM     65  C   UNL     1       8.680 -18.552 -11.588  1.00  0.00     0.029 A 
ATOM     66  C   UNL     1       8.759 -17.214 -11.940  1.00  0.00     0.049 A 
ATOM     67  H   UNL     1       7.265 -15.726 -11.841  1.00  0.00     0.167 HD
ATOM     68  C   UNL     1       9.887 -15.176 -12.805  1.00  0.00     0.074 A 
ATOM     69  C   UNL     1      11.034 -14.466 -13.336  1.00  0.00     0.031 C 
ATOM     70  C   UNL     1       9.890 -16.489 -12.465  1.00  0.00     0.037 A 
BRANCH  57  71
ATOM     71  C   UNL     1       4.529 -18.539 -10.160  1.00  0.00     0.064 A 
ATOM     72  C   UNL     1       3.427 -19.136 -10.794  1.00  0.00     0.173 A 
ATOM     73  C   UNL     1       4.913 -19.042  -8.908  1.00  0.00     0.173 A 
ATOM     74  F   UNL     1       3.008 -18.687 -11.987  1.00  0.00    -0.203 F 
ATOM     75  C   UNL     1       2.717 -20.166 -10.181  1.00  0.00     0.198 A 
ATOM     76  C   UNL     1       4.223 -20.096  -8.315  1.00  0.00     0.198 A 
ATOM     77  F   UNL     1       5.961 -18.514  -8.259  1.00  0.00    -0.203 F 
ATOM     78  F   UNL     1       1.631 -20.677 -10.778  1.00  0.00    -0.200 F 
ATOM     79  C   UNL     1       3.120 -20.650  -8.946  1.00  0.00     0.200 A 
ATOM     80  F   UNL     1       4.624 -20.573  -7.128  1.00  0.00    -0.200 F 
ATOM     81  F   UNL     1       2.439 -21.644  -8.359  1.00  0.00    -0.200 F 
ENDBRANCH  57  71
BRANCH  58  82
ATOM     82  C   UNL     1       9.402 -10.590 -13.795  1.00  0.00     0.064 A 
ATOM     83  C   UNL     1       9.864 -10.503 -15.115  1.00  0.00     0.173 A 
ATOM     84  C   UNL     1       9.642  -9.498 -12.947  1.00  0.00     0.173 A 
ATOM     85  F   UNL     1       9.673 -11.526 -15.960  1.00  0.00    -0.203 F 
ATOM     86  C   UNL     1      10.553  -9.378 -15.564  1.00  0.00     0.198 A 
ATOM     87  C   UNL     1      10.303  -8.361 -13.405  1.00  0.00     0.198 A 
ATOM     88  F   UNL     1       9.212  -9.527 -11.677  1.00  0.00    -0.203 F 
ATOM     89  F   UNL     1      11.019  -9.337 -16.820  1.00  0.00    -0.200 F 
ATOM     90  C   UNL     1      10.765  -8.305 -14.711  1.00  0.00     0.200 A 
ATOM     91  F   UNL     1      10.488  -7.318 -12.584  1.00  0.00    -0.200 F 
ATOM     92  F   UNL     1      11.417  -7.218 -15.147  1.00  0.00    -0.200 F 
ENDBRANCH  58  82
BRANCH  70  93
ATOM     93  C   UNL     1      11.165 -17.252 -12.682  1.00  0.00     0.064 A 
ATOM     94  C   UNL     1      12.303 -17.030 -11.893  1.00  0.00     0.173 A 
ATOM     95  C   UNL     1      11.233 -18.251 -13.667  1.00  0.00     0.173 A 
ATOM     96  F   UNL     1      12.295 -16.077 -10.949  1.00  0.00    -0.203 F 
ATOM     97  C   UNL     1      13.471 -17.759 -12.101  1.00  0.00     0.198 A 
ATOM     98  C   UNL     1      12.391 -19.002 -13.847  1.00  0.00     0.198 A 
ATOM     99  F   UNL     1      10.171 -18.510 -14.443  1.00  0.00    -0.203 F 
ATOM    100  F   UNL     1      14.563 -17.492 -11.371  1.00  0.00    -0.200 F 
ATOM    101  C   UNL     1      13.511 -18.750 -13.070  1.00  0.00     0.200 A 
ATOM    102  F   UNL     1      12.421 -19.971 -14.772  1.00  0.00    -0.200 F 
ATOM    103  F   UNL     1      14.633 -19.457 -13.261  1.00  0.00    -0.200 F 
ENDBRANCH  70  93
ENDBRANCH  44  45
ENDBRANCH  36  39
ENDBRANCH  34  35
ENDBRANCH  33  34
ENDBRANCH  32  33
ENDBRANCH  31  32
ENDBRANCH  30  31
ENDBRANCH   1  30
TORSDOF 20
