REMARK SMILES CC[C@@H](C(=O)NCCCCCCNC(=O)c1ccc(-c2c3nc(c(-c4c(F)c(F)c(F)c(F)c4F)c4ccc([nH]4)c(-c4c(F)c(F)c(F)c(F)c4F)c4nc(c(-c5c(F)c(F)c(F)c(F)c5F)c5ccc2[nH]5)C=C4)C=C3)cc1)[N@@H+]1CCc2ccc(N)cc2C1
REMARK SMILES IDX 9 1 8 2 7 3 6 4 4 5 5 6 3 8 2 9 1 10 79 11 80 12 89 13 81 15
REMARK SMILES IDX 88 16 82 17 87 18 83 19 85 20 84 21 86 22 10 25 11 26 12 27
REMARK SMILES IDX 13 28 14 29 15 31 16 32 17 33 78 34 18 35 77 36 19 37 20 38
REMARK SMILES IDX 21 39 71 40 22 41 76 42 70 43 72 44 23 45 75 46 69 47 68 48
REMARK SMILES IDX 24 50 56 51 36 52 55 53 37 54 40 55 54 56 73 57 38 58 39 59
REMARK SMILES IDX 53 61 74 62 41 63 25 64 26 65 34 66 27 67 28 68 32 69 35 70
REMARK SMILES IDX 29 71 30 72 33 73 31 74 57 75 58 76 66 77 59 78 60 79 64 80
REMARK SMILES IDX 67 81 61 82 62 83 65 84 63 85 42 86 43 87 51 88 44 89 45 90
REMARK SMILES IDX 49 91 52 92 46 93 47 94 50 95 48 96
REMARK H PARENT 6 7 79 14 86 23 86 24 13 30 72 49 40 60
REMARK Flexibility Score: inf
ROOT
ATOM      1  C   UNL     1       1.672   1.190   3.578  1.00  0.00     0.002 C 
ENDROOT
BRANCH   1   2
ATOM      2  C   UNL     1       2.054   1.276   2.093  1.00  0.00     0.021 C 
BRANCH   2   3
ATOM      3  C   UNL     1       2.974   0.153   1.596  1.00  0.00     0.116 C 
BRANCH   3   4
ATOM      4  N   UNL     1       2.149  -0.940   1.129  1.00  0.00    -0.351 N 
ATOM      5  C   UNL     1       2.421  -1.755   0.055  1.00  0.00     0.278 C 
ATOM      6  O   UNL     1       3.544  -1.846  -0.435  1.00  0.00    -0.268 OA
ATOM      7  H   UNL     1       1.318  -1.117   1.625  1.00  0.00     0.163 HD
BRANCH   5   8
ATOM      8  C   UNL     1       1.149  -2.360  -0.626  1.00  0.00     0.274 C 
BRANCH   8   9
ATOM      9  C   UNL     1       0.289  -1.224  -1.249  1.00  0.00     0.072 C 
ATOM     10  C   UNL     1       1.042   0.038  -1.676  1.00  0.00     0.011 C 
ENDBRANCH   8   9
BRANCH   8  11
ATOM     11  N   UNL     1       0.408  -3.398   0.162  1.00  0.00    -0.321 N 
ATOM     12  C   UNL     1      -0.948  -3.780  -0.334  1.00  0.00     0.267 C 
ATOM     13  C   UNL     1       0.441  -3.358   1.617  1.00  0.00     0.300 C 
ATOM     14  H   UNL     1       1.048  -4.157  -0.071  1.00  0.00     0.349 HD
ATOM     15  C   UNL     1      -1.934  -4.363   0.752  1.00  0.00     0.097 C 
ATOM     16  C   UNL     1      -0.803  -2.721   2.180  1.00  0.00     0.012 A 
ATOM     17  C   UNL     1      -1.999  -3.383   1.902  1.00  0.00    -0.033 A 
ATOM     18  C   UNL     1      -0.859  -1.513   2.862  1.00  0.00     0.035 A 
ATOM     19  C   UNL     1      -3.151  -3.039   2.606  1.00  0.00     0.006 A 
ATOM     20  C   UNL     1      -2.055  -1.025   3.380  1.00  0.00     0.032 A 
ATOM     21  C   UNL     1      -3.159  -1.872   3.381  1.00  0.00     0.026 A 
BRANCH  20  22
ATOM     22  N   UNL     1      -2.087   0.222   3.987  1.00  0.00    -0.399 N 
ATOM     23  H   UNL     1      -2.933   0.570   4.354  1.00  0.00     0.156 HD
ATOM     24  H   UNL     1      -1.265   0.760   4.052  1.00  0.00     0.156 HD
ENDBRANCH  20  22
ENDBRANCH   8  11
ENDBRANCH   5   8
ENDBRANCH   3   4
ENDBRANCH   2   3
ENDBRANCH   1   2
BRANCH   1  25
ATOM     25  C   UNL     1       2.755   1.562   4.587  1.00  0.00     0.002 C 
BRANCH  25  26
ATOM     26  C   UNL     1       3.503   2.853   4.284  1.00  0.00     0.021 C 
BRANCH  26  27
ATOM     27  C   UNL     1       2.609   4.060   4.034  1.00  0.00     0.116 C 
BRANCH  27  28
ATOM     28  N   UNL     1       2.013   4.584   5.252  1.00  0.00    -0.352 N 
ATOM     29  C   UNL     1       2.139   5.850   5.772  1.00  0.00     0.251 C 
ATOM     30  H   UNL     1       1.452   3.958   5.764  1.00  0.00     0.163 HD
ATOM     31  O   UNL     1       1.681   6.139   6.873  1.00  0.00    -0.269 OA
BRANCH  29  32
ATOM     32  C   UNL     1       2.875   6.859   4.986  1.00  0.00     0.039 A 
ATOM     33  C   UNL     1       4.006   7.460   5.541  1.00  0.00     0.014 A 
ATOM     34  C   UNL     1       2.493   7.129   3.669  1.00  0.00     0.014 A 
ATOM     35  C   UNL     1       4.800   8.290   4.748  1.00  0.00     0.010 A 
ATOM     36  C   UNL     1       3.323   7.898   2.862  1.00  0.00     0.010 A 
ATOM     37  C   UNL     1       4.483   8.487   3.394  1.00  0.00    -0.014 A 
BRANCH  37  38
ATOM     38  C   UNL     1       5.324   9.332   2.510  1.00  0.00     0.031 A 
ATOM     39  C   UNL     1       4.741  10.589   1.928  1.00  0.00     0.074 A 
ATOM     40  C   UNL     1       6.560   8.931   2.158  1.00  0.00     0.049 A 
ATOM     41  N   UNL     1       5.229  11.384   1.012  1.00  0.00    -0.248 NA
ATOM     42  C   UNL     1       3.411  10.982   2.421  1.00  0.00     0.031 C 
ATOM     43  C   UNL     1       7.224   7.715   2.628  1.00  0.00     0.029 A 
ATOM     44  N   UNL     1       7.472   9.497   1.302  1.00  0.00    -0.354 N 
ATOM     45  C   UNL     1       4.253  12.347   0.793  1.00  0.00     0.074 A 
ATOM     46  C   UNL     1       3.130  12.016   1.643  1.00  0.00     0.031 C 
ATOM     47  C   UNL     1       8.440   7.631   2.062  1.00  0.00     0.029 A 
ATOM     48  C   UNL     1       8.626   8.765   1.161  1.00  0.00     0.049 A 
ATOM     49  H   UNL     1       7.314  10.348   0.833  1.00  0.00     0.167 HD
ATOM     50  C   UNL     1       4.298  13.420  -0.031  1.00  0.00     0.037 A 
ATOM     51  C   UNL     1       9.703   8.979   0.381  1.00  0.00     0.037 A 
ATOM     52  C   UNL     1       5.435  13.773  -0.835  1.00  0.00     0.049 A 
ATOM     53  C   UNL     1       9.738  10.193  -0.509  1.00  0.00     0.074 A 
ATOM     54  C   UNL     1       5.603  14.873  -1.656  1.00  0.00     0.029 A 
ATOM     55  N   UNL     1       6.606  13.033  -0.909  1.00  0.00    -0.354 N 
ATOM     56  N   UNL     1       8.827  11.121  -0.676  1.00  0.00    -0.248 NA
ATOM     57  C   UNL     1      10.951  10.392  -1.316  1.00  0.00     0.031 C 
ATOM     58  C   UNL     1       6.867  14.785  -2.250  1.00  0.00     0.029 A 
ATOM     59  C   UNL     1       7.499  13.650  -1.768  1.00  0.00     0.049 A 
ATOM     60  H   UNL     1       6.776  12.194  -0.423  1.00  0.00     0.167 HD
ATOM     61  C   UNL     1       9.368  12.029  -1.577  1.00  0.00     0.074 A 
ATOM     62  C   UNL     1      10.687  11.542  -1.921  1.00  0.00     0.031 C 
ATOM     63  C   UNL     1       8.819  13.164  -2.073  1.00  0.00     0.037 A 
BRANCH  50  64
ATOM     64  C   UNL     1       3.079  14.290  -0.098  1.00  0.00     0.064 A 
ATOM     65  C   UNL     1       2.708  15.120   0.971  1.00  0.00     0.173 A 
ATOM     66  C   UNL     1       2.284  14.313  -1.254  1.00  0.00     0.173 A 
ATOM     67  F   UNL     1       3.427  15.123   2.104  1.00  0.00    -0.203 F 
ATOM     68  C   UNL     1       1.570  15.918   0.896  1.00  0.00     0.198 A 
ATOM     69  C   UNL     1       1.163  15.133  -1.336  1.00  0.00     0.198 A 
ATOM     70  F   UNL     1       2.598  13.540  -2.305  1.00  0.00    -0.203 F 
ATOM     71  F   UNL     1       1.207  16.664   1.949  1.00  0.00    -0.200 F 
ATOM     72  C   UNL     1       0.802  15.929  -0.259  1.00  0.00     0.200 A 
ATOM     73  F   UNL     1       0.428  15.151  -2.456  1.00  0.00    -0.200 F 
ATOM     74  F   UNL     1      -0.291  16.700  -0.331  1.00  0.00    -0.200 F 
ENDBRANCH  50  64
BRANCH  51  75
ATOM     75  C   UNL     1      10.849   8.035   0.422  1.00  0.00     0.064 A 
ATOM     76  C   UNL     1      12.064   8.409   1.013  1.00  0.00     0.173 A 
ATOM     77  C   UNL     1      10.758   6.748  -0.127  1.00  0.00     0.173 A 
ATOM     78  F   UNL     1      12.205   9.638   1.531  1.00  0.00    -0.203 F 
ATOM     79  C   UNL     1      13.150   7.537   1.039  1.00  0.00     0.198 A 
ATOM     80  C   UNL     1      11.838   5.868  -0.079  1.00  0.00     0.198 A 
ATOM     81  F   UNL     1       9.617   6.341  -0.701  1.00  0.00    -0.203 F 
ATOM     82  F   UNL     1      14.312   7.935   1.575  1.00  0.00    -0.200 F 
ATOM     83  C   UNL     1      13.035   6.266   0.497  1.00  0.00     0.200 A 
ATOM     84  F   UNL     1      11.720   4.637  -0.594  1.00  0.00    -0.200 F 
ATOM     85  F   UNL     1      14.080   5.427   0.525  1.00  0.00    -0.200 F 
ENDBRANCH  51  75
BRANCH  63  86
ATOM     86  C   UNL     1       9.659  13.994  -2.997  1.00  0.00     0.064 A 
ATOM     87  C   UNL     1       9.869  13.623  -4.331  1.00  0.00     0.173 A 
ATOM     88  C   UNL     1      10.192  15.215  -2.557  1.00  0.00     0.173 A 
ATOM     89  F   UNL     1       9.389  12.457  -4.791  1.00  0.00    -0.203 F 
ATOM     90  C   UNL     1      10.591  14.443  -5.194  1.00  0.00     0.198 A 
ATOM     91  C   UNL     1      10.894  16.043  -3.428  1.00  0.00     0.198 A 
ATOM     92  F   UNL     1      10.011  15.615  -1.290  1.00  0.00    -0.203 F 
ATOM     93  F   UNL     1      10.802  14.059  -6.460  1.00  0.00    -0.200 F 
ATOM     94  C   UNL     1      11.095  15.655  -4.744  1.00  0.00     0.200 A 
ATOM     95  F   UNL     1      11.369  17.219  -2.996  1.00  0.00    -0.200 F 
ATOM     96  F   UNL     1      11.776  16.450  -5.581  1.00  0.00    -0.200 F 
ENDBRANCH  63  86
ENDBRANCH  37  38
ENDBRANCH  29  32
ENDBRANCH  27  28
ENDBRANCH  26  27
ENDBRANCH  25  26
ENDBRANCH   1  25
TORSDOF 16
