REMARK SMILES Cc1cc(C(=O)NCCCCCCNC(=O)c2ccc(-c3c4nc(c(-c5c(F)c(F)c(F)c(F)c5F)c5ccc([nH]5)c(-c5c(F)c(F)c(F)c(F)c5F)c5nc(c(-c6c(F)c(F)c(F)c(F)c6F)c6ccc3[nH]6)C=C5)C=C4)cc2)ccc1NC(=O)c1ccc(=O)n(CCOc2ccccc2)n1
REMARK SMILES IDX 8 1 7 2 5 3 6 4 4 6 1 7 2 8 3 9 82 10 81 11 80 12 83 13
REMARK SMILES IDX 84 14 85 16 86 17 87 18 101 19 88 20 91 21 89 22 90 23 92 24
REMARK SMILES IDX 93 25 94 26 95 27 96 28 100 29 97 30 99 31 98 32 9 33 10 34
REMARK SMILES IDX 11 35 12 36 13 37 14 38 15 39 16 41 17 42 18 43 79 44 19 45
REMARK SMILES IDX 78 46 20 47 21 48 22 49 72 50 23 51 77 52 71 53 73 54 24 55
REMARK SMILES IDX 76 56 70 57 69 58 25 60 57 61 37 62 56 63 38 64 41 65 55 66
REMARK SMILES IDX 74 67 39 68 40 69 54 71 75 72 42 73 26 74 27 75 35 76 28 77
REMARK SMILES IDX 29 78 33 79 36 80 30 81 31 82 34 83 32 84 58 85 59 86 67 87
REMARK SMILES IDX 60 88 61 89 65 90 68 91 62 92 63 93 66 94 64 95 43 96 44 97
REMARK SMILES IDX 52 98 45 99 46 100 50 101 53 102 47 103 48 104 51 105 49 106
REMARK H PARENT 7 5 83 15 14 40 73 59 41 70
REMARK Flexibility Score: inf
ROOT
ATOM      1  C   UNL     1      -3.800  -1.742   0.269  1.00  0.00     0.116 C 
ENDROOT
BRANCH   1   2
ATOM      2  N   UNL     1      -2.840  -2.816   0.045  1.00  0.00    -0.352 N 
ATOM      3  C   UNL     1      -1.470  -2.801  -0.093  1.00  0.00     0.251 C 
ATOM      4  O   UNL     1      -0.857  -3.867  -0.074  1.00  0.00    -0.269 OA
ATOM      5  H   UNL     1      -3.243  -3.712  -0.018  1.00  0.00     0.163 HD
BRANCH   3   6
ATOM      6  C   UNL     1      -0.705  -1.536  -0.226  1.00  0.00     0.040 A 
ATOM      7  C   UNL     1       2.746  -0.262   0.736  1.00  0.00     0.046 C 
ATOM      8  C   UNL     1       1.307  -0.220   0.297  1.00  0.00    -0.027 A 
ATOM      9  C   UNL     1       0.586  -1.439   0.312  1.00  0.00     0.019 A 
ATOM     10  C   UNL     1       0.672   0.928  -0.200  1.00  0.00     0.044 A 
ATOM     11  C   UNL     1      -0.487   0.740  -0.953  1.00  0.00     0.027 A 
ATOM     12  C   UNL     1      -1.182  -0.468  -0.965  1.00  0.00     0.016 A 
BRANCH  10  13
ATOM     13  N   UNL     1       1.185   2.218   0.073  1.00  0.00    -0.320 N 
ATOM     14  C   UNL     1       0.519   3.430   0.200  1.00  0.00     0.276 C 
ATOM     15  H   UNL     1       2.162   2.264   0.190  1.00  0.00     0.170 HD
ATOM     16  O   UNL     1       1.108   4.477   0.444  1.00  0.00    -0.267 OA
BRANCH  14  17
ATOM     17  C   UNL     1      -0.989   3.471   0.047  1.00  0.00     0.149 A 
ATOM     18  C   UNL     1      -1.468   3.880  -1.289  1.00  0.00     0.042 A 
ATOM     19  N   UNL     1      -1.758   3.107   1.031  1.00  0.00    -0.164 NA
ATOM     20  C   UNL     1      -2.668   3.402  -1.623  1.00  0.00     0.076 A 
ATOM     21  N   UNL     1      -3.088   2.870   0.694  1.00  0.00    -0.226 N 
ATOM     22  C   UNL     1      -3.463   2.644  -0.625  1.00  0.00     0.266 A 
ATOM     23  O   UNL     1      -4.407   1.954  -0.998  1.00  0.00    -0.268 OA
BRANCH  21  24
ATOM     24  C   UNL     1      -4.037   2.647   1.786  1.00  0.00     0.190 C 
BRANCH  24  25
ATOM     25  C   UNL     1      -4.768   3.942   2.192  1.00  0.00     0.253 C 
BRANCH  25  26
ATOM     26  O   UNL     1      -5.981   4.130   1.430  1.00  0.00    -0.492 OA
BRANCH  26  27
ATOM     27  C   UNL     1      -5.888   5.188   0.569  1.00  0.00     0.119 A 
ATOM     28  C   UNL     1      -6.085   6.497   0.994  1.00  0.00     0.046 A 
ATOM     29  C   UNL     1      -5.665   4.926  -0.778  1.00  0.00     0.046 A 
ATOM     30  C   UNL     1      -5.943   7.546   0.079  1.00  0.00     0.004 A 
ATOM     31  C   UNL     1      -5.456   5.967  -1.678  1.00  0.00     0.004 A 
ATOM     32  C   UNL     1      -5.589   7.282  -1.247  1.00  0.00     0.000 A 
ENDBRANCH  26  27
ENDBRANCH  25  26
ENDBRANCH  24  25
ENDBRANCH  21  24
ENDBRANCH  14  17
ENDBRANCH  10  13
ENDBRANCH   3   6
ENDBRANCH   1   2
BRANCH   1  33
ATOM     33  C   UNL     1      -4.792  -1.600  -0.891  1.00  0.00     0.021 C 
BRANCH  33  34
ATOM     34  C   UNL     1      -5.869  -2.693  -0.979  1.00  0.00     0.002 C 
BRANCH  34  35
ATOM     35  C   UNL     1      -6.756  -2.898   0.261  1.00  0.00     0.002 C 
BRANCH  35  36
ATOM     36  C   UNL     1      -7.378  -1.637   0.869  1.00  0.00     0.021 C 
BRANCH  36  37
ATOM     37  C   UNL     1      -8.465  -0.993   0.014  1.00  0.00     0.116 C 
BRANCH  37  38
ATOM     38  N   UNL     1      -9.825  -1.323   0.428  1.00  0.00    -0.352 N 
ATOM     39  C   UNL     1     -11.037  -1.014  -0.178  1.00  0.00     0.251 C 
ATOM     40  H   UNL     1      -9.894  -1.843   1.261  1.00  0.00     0.163 HD
ATOM     41  O   UNL     1     -12.083  -1.337   0.334  1.00  0.00    -0.269 OA
BRANCH  39  42
ATOM     42  C   UNL     1     -11.026  -0.391  -1.528  1.00  0.00     0.039 A 
ATOM     43  C   UNL     1     -11.843  -0.951  -2.518  1.00  0.00     0.014 A 
ATOM     44  C   UNL     1     -10.106   0.599  -1.858  1.00  0.00     0.014 A 
ATOM     45  C   UNL     1     -11.563  -0.697  -3.860  1.00  0.00     0.010 A 
ATOM     46  C   UNL     1      -9.765   0.778  -3.184  1.00  0.00     0.010 A 
ATOM     47  C   UNL     1     -10.447   0.075  -4.181  1.00  0.00    -0.014 A 
BRANCH  47  48
ATOM     48  C   UNL     1      -9.845   0.104  -5.511  1.00  0.00     0.031 A 
ATOM     49  C   UNL     1      -9.997   1.282  -6.389  1.00  0.00     0.074 A 
ATOM     50  C   UNL     1      -9.056  -0.925  -5.893  1.00  0.00     0.049 A 
ATOM     51  N   UNL     1      -9.798   1.266  -7.665  1.00  0.00    -0.248 NA
ATOM     52  C   UNL     1     -10.422   2.582  -5.889  1.00  0.00     0.031 C 
ATOM     53  C   UNL     1      -8.150  -0.977  -7.037  1.00  0.00     0.029 A 
ATOM     54  N   UNL     1      -9.091  -2.247  -5.418  1.00  0.00    -0.354 N 
ATOM     55  C   UNL     1      -9.838   2.564  -8.117  1.00  0.00     0.074 A 
ATOM     56  C   UNL     1     -10.262   3.344  -6.976  1.00  0.00     0.031 C 
ATOM     57  C   UNL     1      -7.966  -2.261  -7.380  1.00  0.00     0.029 A 
ATOM     58  C   UNL     1      -8.861  -3.055  -6.558  1.00  0.00     0.049 A 
ATOM     59  H   UNL     1      -9.242  -2.546  -4.492  1.00  0.00     0.167 HD
ATOM     60  C   UNL     1      -9.413   2.845  -9.383  1.00  0.00     0.037 A 
ATOM     61  C   UNL     1      -9.835  -3.888  -7.027  1.00  0.00     0.037 A 
ATOM     62  C   UNL     1      -9.067   1.633 -10.120  1.00  0.00     0.049 A 
ATOM     63  C   UNL     1     -10.292  -3.598  -8.442  1.00  0.00     0.074 A 
ATOM     64  C   UNL     1      -7.883   0.961 -10.376  1.00  0.00     0.029 A 
ATOM     65  N   UNL     1     -10.083   0.765 -10.472  1.00  0.00    -0.354 N 
ATOM     66  N   UNL     1      -9.917  -2.562  -9.139  1.00  0.00    -0.248 NA
ATOM     67  C   UNL     1     -11.298  -4.404  -9.137  1.00  0.00     0.031 C 
ATOM     68  C   UNL     1      -8.207  -0.338 -10.862  1.00  0.00     0.029 A 
ATOM     69  C   UNL     1      -9.584  -0.448 -10.902  1.00  0.00     0.049 A 
ATOM     70  H   UNL     1     -11.042   0.985 -10.424  1.00  0.00     0.167 HD
ATOM     71  C   UNL     1     -10.630  -2.525 -10.306  1.00  0.00     0.074 A 
ATOM     72  C   UNL     1     -11.482  -3.696 -10.264  1.00  0.00     0.031 C 
ATOM     73  C   UNL     1     -10.510  -1.518 -11.214  1.00  0.00     0.037 A 
BRANCH  60  74
ATOM     74  C   UNL     1      -9.113   4.236  -9.886  1.00  0.00     0.064 A 
ATOM     75  C   UNL     1      -8.091   4.453 -10.836  1.00  0.00     0.173 A 
ATOM     76  C   UNL     1      -9.765   5.400  -9.442  1.00  0.00     0.173 A 
ATOM     77  F   UNL     1      -7.449   3.434 -11.420  1.00  0.00    -0.203 F 
ATOM     78  C   UNL     1      -7.682   5.734 -11.216  1.00  0.00     0.198 A 
ATOM     79  C   UNL     1      -9.315   6.682  -9.773  1.00  0.00     0.198 A 
ATOM     80  F   UNL     1     -10.890   5.332  -8.718  1.00  0.00    -0.203 F 
ATOM     81  F   UNL     1      -6.703   5.877 -12.121  1.00  0.00    -0.200 F 
ATOM     82  C   UNL     1      -8.265   6.849 -10.653  1.00  0.00     0.200 A 
ATOM     83  F   UNL     1      -9.909   7.756  -9.231  1.00  0.00    -0.200 F 
ATOM     84  F   UNL     1      -7.835   8.076 -10.973  1.00  0.00    -0.200 F 
ENDBRANCH  60  74
BRANCH  61  85
ATOM     85  C   UNL     1     -10.714  -4.416  -5.949  1.00  0.00     0.064 A 
ATOM     86  C   UNL     1     -10.127  -5.154  -4.902  1.00  0.00     0.173 A 
ATOM     87  C   UNL     1     -12.005  -3.917  -5.745  1.00  0.00     0.173 A 
ATOM     88  F   UNL     1      -8.890  -5.658  -5.046  1.00  0.00    -0.203 F 
ATOM     89  C   UNL     1     -10.752  -5.274  -3.663  1.00  0.00     0.198 A 
ATOM     90  C   UNL     1     -12.638  -4.061  -4.510  1.00  0.00     0.198 A 
ATOM     91  F   UNL     1     -12.613  -3.192  -6.694  1.00  0.00    -0.203 F 
ATOM     92  F   UNL     1     -10.114  -5.875  -2.648  1.00  0.00    -0.200 F 
ATOM     93  C   UNL     1     -11.997  -4.705  -3.461  1.00  0.00     0.200 A 
ATOM     94  F   UNL     1     -13.834  -3.490  -4.308  1.00  0.00    -0.200 F 
ATOM     95  F   UNL     1     -12.563  -4.740  -2.247  1.00  0.00    -0.200 F 
ENDBRANCH  61  85
BRANCH  73  96
ATOM     96  C   UNL     1     -11.280  -1.490 -12.493  1.00  0.00     0.064 A 
ATOM     97  C   UNL     1     -11.277  -2.576 -13.379  1.00  0.00     0.173 A 
ATOM     98  C   UNL     1     -11.943  -0.323 -12.919  1.00  0.00     0.173 A 
ATOM     99  F   UNL     1     -10.639  -3.713 -13.063  1.00  0.00    -0.203 F 
ATOM    100  C   UNL     1     -11.923  -2.507 -14.614  1.00  0.00     0.198 A 
ATOM    101  C   UNL     1     -12.549  -0.242 -14.170  1.00  0.00     0.198 A 
ATOM    102  F   UNL     1     -12.034   0.752 -12.122  1.00  0.00    -0.203 F 
ATOM    103  F   UNL     1     -11.934  -3.579 -15.419  1.00  0.00    -0.200 F 
ATOM    104  C   UNL     1     -12.546  -1.337 -15.014  1.00  0.00     0.200 A 
ATOM    105  F   UNL     1     -13.137   0.900 -14.551  1.00  0.00    -0.200 F 
ATOM    106  F   UNL     1     -13.146  -1.265 -16.210  1.00  0.00    -0.200 F 
ENDBRANCH  73  96
ENDBRANCH  47  48
ENDBRANCH  39  42
ENDBRANCH  37  38
ENDBRANCH  36  37
ENDBRANCH  35  36
ENDBRANCH  34  35
ENDBRANCH  33  34
ENDBRANCH   1  33
TORSDOF 19
