REMARK SMILES O=C(C[C@H]1C[C@H]2CC[C@@H](C1)N2C(=O)NCc1ncn[nH]1)NCCCCCCNC(=O)c1ccc(-c2c3nc(c(-c4c(F)c(F)c(F)c(F)c4F)c4ccc([nH]4)c(-c4c(F)c(F)c(F)c(F)c4F)c4nc(c(-c5c(F)c(F)c(F)c(F)c5F)c5ccc2[nH]5)C=C4)C=C3)cc1
REMARK SMILES IDX 23 1 22 2 21 3 1 4 2 5 3 7 4 8 5 9 10 10 6 11 9 12 7 13
REMARK SMILES IDX 11 14 8 15 12 16 13 17 14 18 15 20 16 21 17 22 20 23 18 24
REMARK SMILES IDX 19 25 24 27 25 28 26 29 27 30 28 31 29 32 30 34 31 35 32 36
REMARK SMILES IDX 93 37 33 38 92 39 34 40 35 41 36 42 86 43 37 44 91 45 85 46
REMARK SMILES IDX 87 47 38 48 90 49 84 50 83 51 39 53 71 54 51 55 70 56 52 57
REMARK SMILES IDX 55 58 69 59 88 60 53 61 54 62 68 64 89 65 56 66 40 67 41 68
REMARK SMILES IDX 49 69 42 70 43 71 47 72 50 73 44 74 45 75 48 76 46 77 72 78
REMARK SMILES IDX 73 79 81 80 74 81 75 82 79 83 82 84 76 85 77 86 80 87 78 88
REMARK SMILES IDX 57 89 58 90 66 91 59 92 60 93 64 94 67 95 61 96 62 97 65 98
REMARK SMILES IDX 63 99
REMARK H PARENT 21 6 14 19 20 26 28 33 87 52 55 63
REMARK Flexibility Score: inf
ROOT
ATOM      1  C   UNL     1       2.656  -0.308  -3.542  1.00  0.00     0.021 C 
ENDROOT
BRANCH   1   2
ATOM      2  C   UNL     1       2.133  -1.136  -2.366  1.00  0.00     0.116 C 
BRANCH   2   3
ATOM      3  N   UNL     1       2.789  -0.727  -1.144  1.00  0.00    -0.356 N 
ATOM      4  O   UNL     1       0.890  -0.155   0.015  1.00  0.00    -0.275 OA
ATOM      5  C   UNL     1       2.111  -0.168  -0.092  1.00  0.00     0.220 C 
ATOM      6  H   UNL     1       3.762  -0.855  -1.064  1.00  0.00     0.163 HD
BRANCH   5   7
ATOM      7  C   UNL     1       3.012   0.518   0.910  1.00  0.00     0.103 C 
BRANCH   7   8
ATOM      8  C   UNL     1       3.904  -0.424   1.739  1.00  0.00     0.002 C 
ATOM      9  C   UNL     1       4.894   0.392   2.614  1.00  0.00     0.029 C 
ATOM     10  C   UNL     1       3.117  -1.467   2.576  1.00  0.00     0.029 C 
ATOM     11  C   UNL     1       4.398   0.652   4.052  1.00  0.00     0.087 C 
ATOM     12  C   UNL     1       2.803  -1.016   4.016  1.00  0.00     0.087 C 
ATOM     13  C   UNL     1       3.064   1.397   4.108  1.00  0.00     0.027 C 
ATOM     14  N   UNL     1       4.064  -0.640   4.640  1.00  0.00    -0.319 N 
ATOM     15  C   UNL     1       2.002   0.290   4.068  1.00  0.00     0.027 C 
BRANCH  14  16
ATOM     16  C   UNL     1       4.930  -1.230   5.490  1.00  0.00     0.318 C 
ATOM     17  O   UNL     1       6.014  -0.703   5.765  1.00  0.00    -0.249 OA
ATOM     18  N   UNL     1       4.722  -2.406   6.090  1.00  0.00    -0.331 N 
ATOM     19  H   UNL     1       5.502  -2.675   6.627  1.00  0.00     0.165 HD
BRANCH  18  20
ATOM     20  C   UNL     1       3.667  -3.392   6.169  1.00  0.00     0.194 C 
BRANCH  20  21
ATOM     21  C   UNL     1       4.134  -4.689   5.620  1.00  0.00     0.143 A 
ATOM     22  N   UNL     1       3.728  -5.898   5.955  1.00  0.00    -0.218 NA
ATOM     23  N   UNL     1       5.077  -4.801   4.636  1.00  0.00    -0.262 N 
ATOM     24  C   UNL     1       4.457  -6.713   5.138  1.00  0.00     0.246 A 
ATOM     25  N   UNL     1       5.293  -6.085   4.309  1.00  0.00    -0.162 NA
ATOM     26  H   UNL     1       5.538  -4.037   4.220  1.00  0.00     0.192 HD
ENDBRANCH  20  21
ENDBRANCH  18  20
ENDBRANCH  14  16
ENDBRANCH   7   8
ENDBRANCH   5   7
ENDBRANCH   2   3
ENDBRANCH   1   2
BRANCH   1  27
ATOM     27  C   UNL     1       4.169  -0.433  -3.776  1.00  0.00     0.002 C 
BRANCH  27  28
ATOM     28  C   UNL     1       4.676  -1.864  -3.982  1.00  0.00     0.002 C 
BRANCH  28  29
ATOM     29  C   UNL     1       4.001  -2.621  -5.126  1.00  0.00     0.021 C 
BRANCH  29  30
ATOM     30  C   UNL     1       4.124  -1.946  -6.486  1.00  0.00     0.116 C 
BRANCH  30  31
ATOM     31  N   UNL     1       5.502  -1.883  -6.948  1.00  0.00    -0.352 N 
ATOM     32  C   UNL     1       6.032  -2.298  -8.146  1.00  0.00     0.251 C 
ATOM     33  H   UNL     1       6.144  -1.489  -6.315  1.00  0.00     0.163 HD
ATOM     34  O   UNL     1       7.243  -2.340  -8.311  1.00  0.00    -0.269 OA
BRANCH  32  35
ATOM     35  C   UNL     1       5.122  -2.721  -9.233  1.00  0.00     0.039 A 
ATOM     36  C   UNL     1       5.387  -3.910  -9.915  1.00  0.00     0.014 A 
ATOM     37  C   UNL     1       4.001  -1.954  -9.562  1.00  0.00     0.014 A 
ATOM     38  C   UNL     1       4.490  -4.366 -10.883  1.00  0.00     0.010 A 
ATOM     39  C   UNL     1       3.070  -2.447 -10.471  1.00  0.00     0.010 A 
ATOM     40  C   UNL     1       3.304  -3.658 -11.141  1.00  0.00    -0.014 A 
BRANCH  40  41
ATOM     41  C   UNL     1       2.293  -4.163 -12.106  1.00  0.00     0.031 A 
ATOM     42  C   UNL     1       1.965  -3.363 -13.337  1.00  0.00     0.074 A 
ATOM     43  C   UNL     1       1.617  -5.298 -11.835  1.00  0.00     0.049 A 
ATOM     44  N   UNL     1       1.046  -3.579 -14.245  1.00  0.00    -0.248 NA
ATOM     45  C   UNL     1       2.756  -2.143 -13.566  1.00  0.00     0.031 C 
ATOM     46  C   UNL     1       1.817  -6.143 -10.656  1.00  0.00     0.029 A 
ATOM     47  N   UNL     1       0.611  -5.928 -12.526  1.00  0.00    -0.354 N 
ATOM     48  C   UNL     1       1.132  -2.514 -15.131  1.00  0.00     0.074 A 
ATOM     49  C   UNL     1       2.164  -1.631 -14.636  1.00  0.00     0.031 C 
ATOM     50  C   UNL     1       0.975  -7.187 -10.715  1.00  0.00     0.029 A 
ATOM     51  C   UNL     1       0.143  -7.063 -11.907  1.00  0.00     0.049 A 
ATOM     52  H   UNL     1       0.259  -5.599 -13.384  1.00  0.00     0.167 HD
ATOM     53  C   UNL     1       0.423  -2.302 -16.265  1.00  0.00     0.037 A 
ATOM     54  C   UNL     1      -0.858  -7.896 -12.253  1.00  0.00     0.037 A 
ATOM     55  C   UNL     1      -0.574  -3.205 -16.776  1.00  0.00     0.049 A 
ATOM     56  C   UNL     1      -1.637  -7.622 -13.514  1.00  0.00     0.074 A 
ATOM     57  C   UNL     1      -1.282  -3.121 -17.962  1.00  0.00     0.029 A 
ATOM     58  N   UNL     1      -1.007  -4.353 -16.131  1.00  0.00    -0.354 N 
ATOM     59  N   UNL     1      -1.485  -6.659 -14.390  1.00  0.00    -0.248 NA
ATOM     60  C   UNL     1      -2.726  -8.556 -13.837  1.00  0.00     0.031 C 
ATOM     61  C   UNL     1      -2.191  -4.182 -18.003  1.00  0.00     0.029 A 
ATOM     62  C   UNL     1      -2.000  -4.965 -16.877  1.00  0.00     0.049 A 
ATOM     63  H   UNL     1      -0.661  -4.683 -15.270  1.00  0.00     0.167 HD
ATOM     64  C   UNL     1      -2.426  -6.896 -15.384  1.00  0.00     0.074 A 
ATOM     65  C   UNL     1      -3.137  -8.099 -15.010  1.00  0.00     0.031 C 
ATOM     66  C   UNL     1      -2.680  -6.179 -16.506  1.00  0.00     0.037 A 
BRANCH  53  67
ATOM     67  C   UNL     1       0.688  -1.045 -17.042  1.00  0.00     0.064 A 
ATOM     68  C   UNL     1       1.877  -0.856 -17.761  1.00  0.00     0.173 A 
ATOM     69  C   UNL     1      -0.300  -0.053 -17.135  1.00  0.00     0.173 A 
ATOM     70  F   UNL     1       2.858  -1.769 -17.698  1.00  0.00    -0.203 F 
ATOM     71  C   UNL     1       2.073   0.287 -18.533  1.00  0.00     0.198 A 
ATOM     72  C   UNL     1      -0.114   1.073 -17.932  1.00  0.00     0.198 A 
ATOM     73  F   UNL     1      -1.458  -0.188 -16.471  1.00  0.00    -0.203 F 
ATOM     74  F   UNL     1       3.230   0.462 -19.185  1.00  0.00    -0.200 F 
ATOM     75  C   UNL     1       1.073   1.244 -18.627  1.00  0.00     0.200 A 
ATOM     76  F   UNL     1      -1.088   1.988 -18.035  1.00  0.00    -0.200 F 
ATOM     77  F   UNL     1       1.255   2.332 -19.388  1.00  0.00    -0.200 F 
ENDBRANCH  53  67
BRANCH  54  78
ATOM     78  C   UNL     1      -1.192  -9.073 -11.405  1.00  0.00     0.064 A 
ATOM     79  C   UNL     1      -1.019 -10.380 -11.885  1.00  0.00     0.173 A 
ATOM     80  C   UNL     1      -1.742  -8.920 -10.123  1.00  0.00     0.173 A 
ATOM     81  F   UNL     1      -0.517 -10.580 -13.113  1.00  0.00    -0.203 F 
ATOM     82  C   UNL     1      -1.422 -11.483 -11.136  1.00  0.00     0.198 A 
ATOM     83  C   UNL     1      -2.110 -10.026  -9.360  1.00  0.00     0.198 A 
ATOM     84  F   UNL     1      -1.925  -7.694  -9.612  1.00  0.00    -0.203 F 
ATOM     85  F   UNL     1      -1.313 -12.716 -11.652  1.00  0.00    -0.200 F 
ATOM     86  C   UNL     1      -1.965 -11.306  -9.873  1.00  0.00     0.200 A 
ATOM     87  F   UNL     1      -2.621  -9.851  -8.134  1.00  0.00    -0.200 F 
ATOM     88  F   UNL     1      -2.362 -12.367  -9.157  1.00  0.00    -0.200 F 
ENDBRANCH  54  78
BRANCH  66  89
ATOM     89  C   UNL     1      -3.725  -6.706 -17.447  1.00  0.00     0.064 A 
ATOM     90  C   UNL     1      -5.090  -6.682 -17.126  1.00  0.00     0.173 A 
ATOM     91  C   UNL     1      -3.356  -7.194 -18.710  1.00  0.00     0.173 A 
ATOM     92  F   UNL     1      -5.495  -6.240 -15.926  1.00  0.00    -0.203 F 
ATOM     93  C   UNL     1      -6.044  -7.150 -18.026  1.00  0.00     0.198 A 
ATOM     94  C   UNL     1      -4.315  -7.627 -19.621  1.00  0.00     0.198 A 
ATOM     95  F   UNL     1      -2.064  -7.231 -19.070  1.00  0.00    -0.203 F 
ATOM     96  F   UNL     1      -7.339  -7.163 -17.680  1.00  0.00    -0.200 F 
ATOM     97  C   UNL     1      -5.657  -7.612 -19.276  1.00  0.00     0.200 A 
ATOM     98  F   UNL     1      -3.939  -8.055 -20.834  1.00  0.00    -0.200 F 
ATOM     99  F   UNL     1      -6.578  -8.048 -20.146  1.00  0.00    -0.200 F 
ENDBRANCH  66  89
ENDBRANCH  40  41
ENDBRANCH  32  35
ENDBRANCH  30  31
ENDBRANCH  29  30
ENDBRANCH  28  29
ENDBRANCH  27  28
ENDBRANCH   1  27
TORSDOF 17
