REMARK SMILES C/C(=N\Nc1ccccc1C(=O)NCCCCCCNC(=O)c1ccc(-c2c3nc(c(-c4c(F)c(F)c(F)c(F)c4F)c4ccc([nH]4)c(-c4c(F)c(F)c(F)c(F)c4F)c4nc(c(-c5c(F)c(F)c(F)c(F)c5F)c5ccc2[nH]5)C=C4)C=C3)cc1)c1ccc(S(C)(=O)=O)cc1
REMARK SMILES IDX 15 1 14 2 13 3 11 4 12 5 10 7 5 8 6 9 7 10 9 11 8 12 4 13
REMARK SMILES IDX 3 15 1 16 2 17 86 18 87 19 95 20 88 21 94 22 89 23 90 24
REMARK SMILES IDX 91 25 92 26 93 27 16 28 17 29 18 30 19 31 20 32 21 33 22 35
REMARK SMILES IDX 23 36 24 37 85 38 25 39 84 40 26 41 27 42 28 43 78 44 29 45
REMARK SMILES IDX 83 46 77 47 79 48 30 49 82 50 76 51 75 52 31 54 63 55 43 56
REMARK SMILES IDX 62 57 44 58 47 59 61 60 80 61 45 62 46 63 60 65 81 66 48 67
REMARK SMILES IDX 32 68 33 69 41 70 34 71 35 72 39 73 42 74 36 75 37 76 40 77
REMARK SMILES IDX 38 78 64 79 65 80 73 81 66 82 67 83 71 84 74 85 68 86 69 87
REMARK SMILES IDX 72 88 70 89 49 90 50 91 58 92 51 93 52 94 56 95 59 96 53 97
REMARK SMILES IDX 54 98 57 99 55 100
REMARK H PARENT 13 6 4 14 20 34 79 53 47 64
REMARK Flexibility Score: inf
ROOT
ATOM      1  C   UNL     1      -3.477   2.443  -0.193  1.00  0.00     0.021 C 
ENDROOT
BRANCH   1   2
ATOM      2  C   UNL     1      -2.250   1.637  -0.615  1.00  0.00     0.116 C 
BRANCH   2   3
ATOM      3  N   UNL     1      -1.925   0.559   0.298  1.00  0.00    -0.352 N 
ATOM      4  C   UNL     1      -1.075  -0.508   0.126  1.00  0.00     0.253 C 
ATOM      5  O   UNL     1      -0.906  -1.275   1.076  1.00  0.00    -0.269 OA
ATOM      6  H   UNL     1      -2.381   0.596   1.171  1.00  0.00     0.163 HD
BRANCH   4   7
ATOM      7  C   UNL     1      -0.453  -0.839  -1.185  1.00  0.00     0.064 A 
ATOM      8  C   UNL     1       0.229   0.054  -2.026  1.00  0.00     0.069 A 
ATOM      9  C   UNL     1       0.629  -0.413  -3.302  1.00  0.00     0.028 A 
ATOM     10  C   UNL     1       0.480  -1.747  -3.681  1.00  0.00     0.002 A 
ATOM     11  C   UNL     1      -0.555  -2.197  -1.560  1.00  0.00     0.016 A 
ATOM     12  C   UNL     1      -0.074  -2.651  -2.789  1.00  0.00     0.001 A 
BRANCH   8  13
ATOM     13  N   UNL     1       0.750   1.318  -1.675  1.00  0.00    -0.277 N 
ATOM     14  H   UNL     1       1.026   1.902  -2.417  1.00  0.00     0.190 HD
BRANCH  13  15
ATOM     15  N   UNL     1       0.908   1.811  -0.430  1.00  0.00    -0.180 NA
ATOM     16  C   UNL     1       2.411  -0.084   0.282  1.00  0.00     0.069 C 
ATOM     17  C   UNL     1       1.669   1.220   0.447  1.00  0.00     0.065 C 
BRANCH  17  18
ATOM     18  C   UNL     1       1.836   1.918   1.748  1.00  0.00    -0.002 A 
ATOM     19  C   UNL     1       0.703   2.277   2.483  1.00  0.00     0.011 A 
ATOM     20  C   UNL     1       3.105   2.326   2.166  1.00  0.00     0.011 A 
ATOM     21  C   UNL     1       0.823   3.100   3.603  1.00  0.00     0.021 A 
ATOM     22  C   UNL     1       3.235   3.125   3.303  1.00  0.00     0.021 A 
ATOM     23  C   UNL     1       2.090   3.537   3.995  1.00  0.00     0.067 A 
BRANCH  23  24
ATOM     24  S   UNL     1       2.255   4.593   5.416  1.00  0.00     0.175 S 
ATOM     25  C   UNL     1       1.961   6.218   4.767  1.00  0.00     0.163 C 
ATOM     26  O   UNL     1       1.168   4.265   6.324  1.00  0.00    -0.224 OA
ATOM     27  O   UNL     1       3.633   4.527   5.850  1.00  0.00    -0.224 OA
ENDBRANCH  23  24
ENDBRANCH  17  18
ENDBRANCH  13  15
ENDBRANCH   8  13
ENDBRANCH   4   7
ENDBRANCH   2   3
ENDBRANCH   1   2
BRANCH   1  28
ATOM     28  C   UNL     1      -3.356   3.190   1.144  1.00  0.00     0.002 C 
BRANCH  28  29
ATOM     29  C   UNL     1      -2.171   4.147   1.297  1.00  0.00     0.002 C 
BRANCH  29  30
ATOM     30  C   UNL     1      -2.009   5.228   0.238  1.00  0.00     0.021 C 
BRANCH  30  31
ATOM     31  C   UNL     1      -3.243   6.072  -0.012  1.00  0.00     0.116 C 
BRANCH  31  32
ATOM     32  N   UNL     1      -3.724   6.756   1.180  1.00  0.00    -0.352 N 
ATOM     33  C   UNL     1      -4.043   8.082   1.347  1.00  0.00     0.251 C 
ATOM     34  H   UNL     1      -3.834   6.190   1.978  1.00  0.00     0.163 HD
ATOM     35  O   UNL     1      -4.315   8.529   2.455  1.00  0.00    -0.269 OA
BRANCH  33  36
ATOM     36  C   UNL     1      -4.014   8.977   0.172  1.00  0.00     0.039 A 
ATOM     37  C   UNL     1      -3.351  10.203   0.265  1.00  0.00     0.014 A 
ATOM     38  C   UNL     1      -4.583   8.569  -1.036  1.00  0.00     0.014 A 
ATOM     39  C   UNL     1      -3.182  10.980  -0.882  1.00  0.00     0.010 A 
ATOM     40  C   UNL     1      -4.322   9.290  -2.192  1.00  0.00     0.010 A 
ATOM     41  C   UNL     1      -3.623  10.505  -2.128  1.00  0.00    -0.014 A 
BRANCH  41  42
ATOM     42  C   UNL     1      -3.394  11.258  -3.386  1.00  0.00     0.031 A 
ATOM     43  C   UNL     1      -4.576  11.703  -4.202  1.00  0.00     0.074 A 
ATOM     44  C   UNL     1      -2.141  11.448  -3.842  1.00  0.00     0.049 A 
ATOM     45  N   UNL     1      -4.609  12.223  -5.401  1.00  0.00    -0.248 NA
ATOM     46  C   UNL     1      -5.905  11.493  -3.602  1.00  0.00     0.031 C 
ATOM     47  C   UNL     1      -0.916  11.025  -3.160  1.00  0.00     0.029 A 
ATOM     48  N   UNL     1      -1.690  12.028  -5.002  1.00  0.00    -0.354 N 
ATOM     49  C   UNL     1      -5.955  12.375  -5.707  1.00  0.00     0.074 A 
ATOM     50  C   UNL     1      -6.708  11.836  -4.597  1.00  0.00     0.031 C 
ATOM     51  C   UNL     1       0.145  11.376  -3.904  1.00  0.00     0.029 A 
ATOM     52  C   UNL     1      -0.323  12.001  -5.137  1.00  0.00     0.049 A 
ATOM     53  H   UNL     1      -2.290  12.426  -5.673  1.00  0.00     0.167 HD
ATOM     54  C   UNL     1      -6.511  12.939  -6.804  1.00  0.00     0.037 A 
ATOM     55  C   UNL     1       0.461  12.416  -6.151  1.00  0.00     0.037 A 
ATOM     56  C   UNL     1      -5.753  13.505  -7.887  1.00  0.00     0.049 A 
ATOM     57  C   UNL     1      -0.183  13.029  -7.367  1.00  0.00     0.074 A 
ATOM     58  C   UNL     1      -6.216  14.155  -9.016  1.00  0.00     0.029 A 
ATOM     59  N   UNL     1      -4.368  13.486  -7.972  1.00  0.00    -0.354 N 
ATOM     60  N   UNL     1      -1.455  13.222  -7.621  1.00  0.00    -0.248 NA
ATOM     61  C   UNL     1       0.716  13.483  -8.437  1.00  0.00     0.031 C 
ATOM     62  C   UNL     1      -5.114  14.482  -9.811  1.00  0.00     0.029 A 
ATOM     63  C   UNL     1      -3.961  14.094  -9.148  1.00  0.00     0.049 A 
ATOM     64  H   UNL     1      -3.765  13.099  -7.297  1.00  0.00     0.167 HD
ATOM     65  C   UNL     1      -1.507  13.854  -8.857  1.00  0.00     0.074 A 
ATOM     66  C   UNL     1      -0.138  14.015  -9.300  1.00  0.00     0.031 C 
ATOM     67  C   UNL     1      -2.591  14.266  -9.559  1.00  0.00     0.037 A 
BRANCH  54  68
ATOM     68  C   UNL     1      -8.011  12.973  -6.885  1.00  0.00     0.064 A 
ATOM     69  C   UNL     1      -8.780  13.768  -6.021  1.00  0.00     0.173 A 
ATOM     70  C   UNL     1      -8.687  12.221  -7.858  1.00  0.00     0.173 A 
ATOM     71  F   UNL     1      -8.185  14.496  -5.064  1.00  0.00    -0.203 F 
ATOM     72  C   UNL     1     -10.169  13.783  -6.106  1.00  0.00     0.198 A 
ATOM     73  C   UNL     1     -10.075  12.267  -7.964  1.00  0.00     0.198 A 
ATOM     74  F   UNL     1      -8.002  11.447  -8.713  1.00  0.00    -0.203 F 
ATOM     75  F   UNL     1     -10.884  14.505  -5.232  1.00  0.00    -0.200 F 
ATOM     76  C   UNL     1     -10.815  13.040  -7.082  1.00  0.00     0.200 A 
ATOM     77  F   UNL     1     -10.696  11.560  -8.918  1.00  0.00    -0.200 F 
ATOM     78  F   UNL     1     -12.152  13.062  -7.169  1.00  0.00    -0.200 F 
ENDBRANCH  54  68
BRANCH  55  79
ATOM     79  C   UNL     1       1.939  12.285  -6.055  1.00  0.00     0.064 A 
ATOM     80  C   UNL     1       2.756  13.419  -5.947  1.00  0.00     0.173 A 
ATOM     81  C   UNL     1       2.567  11.030  -6.075  1.00  0.00     0.173 A 
ATOM     82  F   UNL     1       2.206  14.642  -5.943  1.00  0.00    -0.203 F 
ATOM     83  C   UNL     1       4.144  13.306  -5.888  1.00  0.00     0.198 A 
ATOM     84  C   UNL     1       3.953  10.916  -5.984  1.00  0.00     0.198 A 
ATOM     85  F   UNL     1       1.832   9.912  -6.170  1.00  0.00    -0.203 F 
ATOM     86  F   UNL     1       4.902  14.409  -5.836  1.00  0.00    -0.200 F 
ATOM     87  C   UNL     1       4.741  12.054  -5.900  1.00  0.00     0.200 A 
ATOM     88  F   UNL     1       4.524   9.704  -5.979  1.00  0.00    -0.200 F 
ATOM     89  F   UNL     1       6.075  11.945  -5.839  1.00  0.00    -0.200 F 
ENDBRANCH  55  79
BRANCH  67  90
ATOM     90  C   UNL     1      -2.348  14.984 -10.854  1.00  0.00     0.064 A 
ATOM     91  C   UNL     1      -1.899  14.313 -12.000  1.00  0.00     0.173 A 
ATOM     92  C   UNL     1      -2.642  16.352 -10.965  1.00  0.00     0.173 A 
ATOM     93  F   UNL     1      -1.591  13.008 -11.942  1.00  0.00    -0.203 F 
ATOM     94  C   UNL     1      -1.739  14.989 -13.207  1.00  0.00     0.198 A 
ATOM     95  C   UNL     1      -2.512  17.017 -12.180  1.00  0.00     0.198 A 
ATOM     96  F   UNL     1      -3.082  17.038  -9.899  1.00  0.00    -0.203 F 
ATOM     97  F   UNL     1      -1.273  14.337 -14.281  1.00  0.00    -0.200 F 
ATOM     98  C   UNL     1      -2.056  16.337 -13.299  1.00  0.00     0.200 A 
ATOM     99  F   UNL     1      -2.836  18.314 -12.271  1.00  0.00    -0.200 F 
ATOM    100  F   UNL     1      -1.919  16.980 -14.466  1.00  0.00    -0.200 F 
ENDBRANCH  67  90
ENDBRANCH  41  42
ENDBRANCH  33  36
ENDBRANCH  31  32
ENDBRANCH  30  31
ENDBRANCH  29  30
ENDBRANCH  28  29
ENDBRANCH   1  28
TORSDOF 17
