REMARK SMILES COc1cc(OC(F)(F)F)cc2c1O[C@@H](C(F)(F)F)C(C(=O)NCCCCCCNC(=O)c1ccc(-c3c4nc(c(-c5c(F)c(F)c(F)c(F)c5F)c5ccc([nH]5)c(-c5c(F)c(F)c(F)c(F)c5F)c5nc(c(-c6c(F)c(F)c(F)c(F)c6F)c6ccc3[nH]6)C=C5)C=C4)cc1)=C2
REMARK SMILES IDX 26 1 25 2 24 3 23 4 21 5 22 6 20 8 3 9 4 10 13 11 5 12 12 13
REMARK SMILES IDX 14 14 11 15 96 16 15 17 2 18 1 19 6 20 7 21 8 22 9 23 10 24
REMARK SMILES IDX 16 25 17 26 18 27 19 28 27 29 28 30 29 31 30 32 31 33 32 35
REMARK SMILES IDX 33 36 34 37 95 38 35 39 94 40 36 41 37 42 38 43 88 44 39 45
REMARK SMILES IDX 93 46 87 47 89 48 40 49 92 50 86 51 85 52 41 54 73 55 53 56
REMARK SMILES IDX 72 57 54 58 57 59 71 60 90 61 55 62 56 63 70 65 91 66 58 67
REMARK SMILES IDX 42 68 43 69 51 70 44 71 45 72 49 73 52 74 46 75 47 76 50 77
REMARK SMILES IDX 48 78 74 79 75 80 83 81 76 82 77 83 81 84 84 85 78 86 79 87
REMARK SMILES IDX 82 88 80 89 59 90 60 91 68 92 61 93 62 94 66 95 69 96 63 97
REMARK SMILES IDX 64 98 67 99 65 100
REMARK H PARENT 23 7 30 34 89 53 57 64
REMARK Flexibility Score: inf
ROOT
ATOM      1  C   UNL     1       7.177  -7.177   3.340  1.00  0.00     0.002 C 
ENDROOT
BRANCH   1   2
ATOM      2  C   UNL     1       5.849  -6.406   3.308  1.00  0.00     0.021 C 
BRANCH   2   3
ATOM      3  C   UNL     1       6.024  -4.899   3.532  1.00  0.00     0.116 C 
BRANCH   3   4
ATOM      4  N   UNL     1       6.516  -4.287   2.310  1.00  0.00    -0.352 N 
ATOM      5  C   UNL     1       5.891  -3.694   1.262  1.00  0.00     0.251 C 
ATOM      6  O   UNL     1       6.542  -3.492   0.240  1.00  0.00    -0.270 OA
ATOM      7  H   UNL     1       7.497  -4.307   2.226  1.00  0.00     0.163 HD
BRANCH   5   8
ATOM      8  C   UNL     1       4.492  -3.201   1.336  1.00  0.00     0.067 C 
ATOM      9  C   UNL     1       0.731  -1.362   1.746  1.00  0.00     0.165 A 
ATOM     10  C   UNL     1      -0.275  -2.015   2.471  1.00  0.00     0.097 A 
ATOM     11  C   UNL     1       1.979  -1.974   1.567  1.00  0.00     0.170 A 
ATOM     12  C   UNL     1      -0.061  -3.291   2.986  1.00  0.00     0.134 A 
ATOM     13  C   UNL     1       2.193  -3.261   2.063  1.00  0.00     0.025 A 
ATOM     14  O   UNL     1       2.991  -1.246   1.014  1.00  0.00    -0.471 OA
ATOM     15  C   UNL     1       1.172  -3.914   2.765  1.00  0.00     0.059 A 
ATOM     16  C   UNL     1       3.511  -3.873   1.956  1.00  0.00     0.026 C 
ATOM     17  C   UNL     1       4.172  -1.945   0.534  1.00  0.00     0.314 C 
BRANCH   9  18
ATOM     18  O   UNL     1       0.398  -0.099   1.326  1.00  0.00    -0.493 OA
ATOM     19  C   UNL     1       0.822   0.223   0.003  1.00  0.00     0.278 C 
ENDBRANCH   9  18
BRANCH  12  20
ATOM     20  O   UNL     1      -0.937  -4.027   3.730  1.00  0.00    -0.406 OA
BRANCH  20  21
ATOM     21  C   UNL     1      -2.222  -3.479   3.978  1.00  0.00     0.573 C 
ATOM     22  F   UNL     1      -2.135  -2.318   4.661  1.00  0.00    -0.132 F 
ATOM     23  F   UNL     1      -2.892  -3.280   2.824  1.00  0.00    -0.132 F 
ATOM     24  F   UNL     1      -2.926  -4.356   4.729  1.00  0.00    -0.132 F 
ENDBRANCH  20  21
ENDBRANCH  12  20
BRANCH  17  25
ATOM     25  C   UNL     1       5.292  -0.886   0.397  1.00  0.00     0.429 C 
ATOM     26  F   UNL     1       6.162  -1.168  -0.597  1.00  0.00    -0.167 F 
ATOM     27  F   UNL     1       4.765   0.328   0.077  1.00  0.00    -0.167 F 
ATOM     28  F   UNL     1       5.989  -0.719   1.543  1.00  0.00    -0.167 F 
ENDBRANCH  17  25
ENDBRANCH   5   8
ENDBRANCH   3   4
ENDBRANCH   2   3
ENDBRANCH   1   2
BRANCH   1  29
ATOM     29  C   UNL     1       7.891  -7.168   4.697  1.00  0.00     0.002 C 
BRANCH  29  30
ATOM     30  C   UNL     1       7.050  -7.675   5.870  1.00  0.00     0.021 C 
BRANCH  30  31
ATOM     31  C   UNL     1       6.584  -9.121   5.729  1.00  0.00     0.116 C 
BRANCH  31  32
ATOM     32  N   UNL     1       7.701 -10.050   5.766  1.00  0.00    -0.352 N 
ATOM     33  C   UNL     1       7.904 -11.131   6.586  1.00  0.00     0.251 C 
ATOM     34  H   UNL     1       8.413  -9.880   5.108  1.00  0.00     0.163 HD
ATOM     35  O   UNL     1       9.003 -11.672   6.637  1.00  0.00    -0.269 OA
BRANCH  33  36
ATOM     36  C   UNL     1       6.794 -11.641   7.419  1.00  0.00     0.039 A 
ATOM     37  C   UNL     1       7.051 -11.993   8.746  1.00  0.00     0.014 A 
ATOM     38  C   UNL     1       5.513 -11.801   6.884  1.00  0.00     0.014 A 
ATOM     39  C   UNL     1       6.013 -12.467   9.550  1.00  0.00     0.010 A 
ATOM     40  C   UNL     1       4.465 -12.210   7.705  1.00  0.00     0.010 A 
ATOM     41  C   UNL     1       4.707 -12.559   9.042  1.00  0.00    -0.014 A 
BRANCH  41  42
ATOM     42  C   UNL     1       3.587 -13.041   9.888  1.00  0.00     0.031 A 
ATOM     43  C   UNL     1       2.891 -14.331   9.551  1.00  0.00     0.074 A 
ATOM     44  C   UNL     1       3.161 -12.291  10.922  1.00  0.00     0.049 A 
ATOM     45  N   UNL     1       1.857 -14.891  10.128  1.00  0.00    -0.248 NA
ATOM     46  C   UNL     1       3.408 -15.080   8.394  1.00  0.00     0.031 C 
ATOM     47  C   UNL     1       3.727 -11.002  11.322  1.00  0.00     0.029 A 
ATOM     48  N   UNL     1       2.146 -12.501  11.821  1.00  0.00    -0.354 N 
ATOM     49  C   UNL     1       1.589 -16.038   9.393  1.00  0.00     0.074 A 
ATOM     50  C   UNL     1       2.538 -16.074   8.302  1.00  0.00     0.031 C 
ATOM     51  C   UNL     1       3.069 -10.548  12.401  1.00  0.00     0.029 A 
ATOM     52  C   UNL     1       2.013 -11.495  12.747  1.00  0.00     0.049 A 
ATOM     53  H   UNL     1       1.567 -13.297  11.805  1.00  0.00     0.167 HD
ATOM     54  C   UNL     1       0.649 -16.986   9.621  1.00  0.00     0.037 A 
ATOM     55  C   UNL     1       1.136 -11.354  13.759  1.00  0.00     0.037 A 
ATOM     56  C   UNL     1      -0.264 -16.968  10.734  1.00  0.00     0.049 A 
ATOM     57  C   UNL     1       0.108 -12.429  13.993  1.00  0.00     0.074 A 
ATOM     58  C   UNL     1      -1.200 -17.920  11.097  1.00  0.00     0.029 A 
ATOM     59  N   UNL     1      -0.354 -15.943  11.664  1.00  0.00    -0.354 N 
ATOM     60  N   UNL     1      -0.086 -13.547  13.338  1.00  0.00    -0.248 NA
ATOM     61  C   UNL     1      -0.820 -12.223  15.114  1.00  0.00     0.031 C 
ATOM     62  C   UNL     1      -1.889 -17.450  12.220  1.00  0.00     0.029 A 
ATOM     63  C   UNL     1      -1.346 -16.229  12.587  1.00  0.00     0.049 A 
ATOM     64  H   UNL     1       0.205 -15.132  11.667  1.00  0.00     0.167 HD
ATOM     65  C   UNL     1      -1.127 -14.195  13.989  1.00  0.00     0.074 A 
ATOM     66  C   UNL     1      -1.518 -13.349  15.097  1.00  0.00     0.031 C 
ATOM     67  C   UNL     1      -1.707 -15.385  13.697  1.00  0.00     0.037 A 
BRANCH  54  68
ATOM     68  C   UNL     1       0.558 -18.129   8.652  1.00  0.00     0.064 A 
ATOM     69  C   UNL     1       1.548 -19.121   8.586  1.00  0.00     0.173 A 
ATOM     70  C   UNL     1      -0.560 -18.261   7.815  1.00  0.00     0.173 A 
ATOM     71  F   UNL     1       2.642 -19.035   9.357  1.00  0.00    -0.203 F 
ATOM     72  C   UNL     1       1.433 -20.189   7.700  1.00  0.00     0.198 A 
ATOM     73  C   UNL     1      -0.685 -19.346   6.952  1.00  0.00     0.198 A 
ATOM     74  F   UNL     1      -1.538 -17.343   7.842  1.00  0.00    -0.203 F 
ATOM     75  F   UNL     1       2.412 -21.101   7.622  1.00  0.00    -0.200 F 
ATOM     76  C   UNL     1       0.314 -20.306   6.890  1.00  0.00     0.200 A 
ATOM     77  F   UNL     1      -1.775 -19.464   6.179  1.00  0.00    -0.200 F 
ATOM     78  F   UNL     1       0.200 -21.341   6.046  1.00  0.00    -0.200 F 
ENDBRANCH  54  68
BRANCH  55  79
ATOM     79  C   UNL     1       1.206 -10.168  14.652  1.00  0.00     0.064 A 
ATOM     80  C   UNL     1       1.595 -10.302  15.992  1.00  0.00     0.173 A 
ATOM     81  C   UNL     1       0.863  -8.886  14.198  1.00  0.00     0.173 A 
ATOM     82  F   UNL     1       1.913 -11.511  16.479  1.00  0.00    -0.203 F 
ATOM     83  C   UNL     1       1.611  -9.205  16.851  1.00  0.00     0.198 A 
ATOM     84  C   UNL     1       0.908  -7.785  15.050  1.00  0.00     0.198 A 
ATOM     85  F   UNL     1       0.489  -8.703  12.923  1.00  0.00    -0.203 F 
ATOM     86  F   UNL     1       1.934  -9.372  18.141  1.00  0.00    -0.200 F 
ATOM     87  C   UNL     1       1.271  -7.947  16.379  1.00  0.00     0.200 A 
ATOM     88  F   UNL     1       0.591  -6.568  14.587  1.00  0.00    -0.200 F 
ATOM     89  F   UNL     1       1.283  -6.893  17.206  1.00  0.00    -0.200 F 
ENDBRANCH  55  79
BRANCH  67  90
ATOM     90  C   UNL     1      -2.788 -15.868  14.619  1.00  0.00     0.064 A 
ATOM     91  C   UNL     1      -4.056 -15.269  14.648  1.00  0.00     0.173 A 
ATOM     92  C   UNL     1      -2.561 -16.968  15.460  1.00  0.00     0.173 A 
ATOM     93  F   UNL     1      -4.318 -14.205  13.874  1.00  0.00    -0.203 F 
ATOM     94  C   UNL     1      -5.047 -15.736  15.507  1.00  0.00     0.198 A 
ATOM     95  C   UNL     1      -3.564 -17.452  16.294  1.00  0.00     0.198 A 
ATOM     96  F   UNL     1      -1.368 -17.581  15.463  1.00  0.00    -0.203 F 
ATOM     97  F   UNL     1      -6.234 -15.116  15.556  1.00  0.00    -0.200 F 
ATOM     98  C   UNL     1      -4.803 -16.831  16.323  1.00  0.00     0.200 A 
ATOM     99  F   UNL     1      -3.331 -18.518  17.071  1.00  0.00    -0.200 F 
ATOM    100  F   UNL     1      -5.761 -17.282  17.145  1.00  0.00    -0.200 F 
ENDBRANCH  67  90
ENDBRANCH  41  42
ENDBRANCH  33  36
ENDBRANCH  31  32
ENDBRANCH  30  31
ENDBRANCH  29  30
ENDBRANCH   1  29
TORSDOF 17
