REMARK SMILES O=C(CNC(=O)Nc1cccc2c1CCCC2)NCCCCCCNC(=O)c1ccc(-c2c3nc(c(-c4c(F)c(F)c(F)c(F)c4F)c4ccc([nH]4)c(-c4c(F)c(F)c(F)c(F)c4F)c4nc(c(-c5c(F)c(F)c(F)c(F)c5F)c5ccc2[nH]5)C=C4)C=C3)cc1
REMARK SMILES IDX 21 1 20 2 19 3 18 4 1 5 2 6 3 8 4 9 5 10 6 12 7 13 8 15 9 16
REMARK SMILES IDX 13 17 10 18 12 19 14 20 11 21 17 22 15 23 16 24 22 25 23 26
REMARK SMILES IDX 24 27 25 28 26 29 27 31 28 32 29 33 90 34 30 35 89 36 31 37
REMARK SMILES IDX 32 38 33 39 83 40 34 41 88 42 82 43 84 44 35 45 87 46 81 47
REMARK SMILES IDX 80 48 36 50 68 51 48 52 67 53 49 54 52 55 66 56 85 57 50 58
REMARK SMILES IDX 51 59 65 61 86 62 53 63 37 64 38 65 46 66 39 67 40 68 44 69
REMARK SMILES IDX 47 70 41 71 42 72 45 73 43 74 69 75 70 76 78 77 71 78 72 79
REMARK SMILES IDX 76 80 79 81 73 82 74 83 77 84 75 85 54 86 55 87 63 88 56 89
REMARK SMILES IDX 57 90 61 91 64 92 58 93 59 94 62 95 60 96
REMARK H PARENT 18 7 4 11 7 14 25 30 84 49 52 60
REMARK Flexibility Score: inf
ROOT
ATOM      1  C   UNL     1       4.188   3.739  -0.224  1.00  0.00     0.002 C 
ENDROOT
BRANCH   1   2
ATOM      2  C   UNL     1       2.665   3.557  -0.172  1.00  0.00     0.021 C 
BRANCH   2   3
ATOM      3  C   UNL     1       2.094   2.633  -1.251  1.00  0.00     0.116 C 
BRANCH   3   4
ATOM      4  N   UNL     1       2.659   1.309  -1.149  1.00  0.00    -0.355 N 
ATOM      5  O   UNL     1       0.681   0.247  -0.671  1.00  0.00    -0.273 OA
ATOM      6  C   UNL     1       1.902   0.216  -0.799  1.00  0.00     0.239 C 
ATOM      7  H   UNL     1       3.617   1.185  -1.335  1.00  0.00     0.163 HD
BRANCH   6   8
ATOM      8  C   UNL     1       2.734  -0.952  -0.295  1.00  0.00     0.217 C 
BRANCH   8   9
ATOM      9  N   UNL     1       3.999  -1.183  -0.985  1.00  0.00    -0.329 N 
ATOM     10  C   UNL     1       5.269  -1.380  -0.594  1.00  0.00     0.319 C 
ATOM     11  H   UNL     1       3.899  -1.198  -1.964  1.00  0.00     0.165 HD
ATOM     12  O   UNL     1       6.104  -1.559  -1.487  1.00  0.00    -0.248 OA
ATOM     13  N   UNL     1       5.716  -1.300   0.677  1.00  0.00    -0.308 N 
ATOM     14  H   UNL     1       6.689  -1.422   0.768  1.00  0.00     0.171 HD
BRANCH  13  15
ATOM     15  C   UNL     1       5.056  -1.077   1.890  1.00  0.00     0.046 A 
ATOM     16  C   UNL     1       5.431   0.077   2.588  1.00  0.00     0.026 A 
ATOM     17  C   UNL     1       4.035  -1.910   2.385  1.00  0.00    -0.021 A 
ATOM     18  C   UNL     1       4.688   0.504   3.683  1.00  0.00     0.002 A 
ATOM     19  C   UNL     1       3.223  -1.416   3.427  1.00  0.00    -0.043 A 
ATOM     20  C   UNL     1       3.808  -3.296   1.815  1.00  0.00     0.038 C 
ATOM     21  C   UNL     1       3.565  -0.218   4.076  1.00  0.00     0.004 A 
ATOM     22  C   UNL     1       1.957  -2.127   3.837  1.00  0.00     0.036 C 
ATOM     23  C   UNL     1       2.608  -4.046   2.398  1.00  0.00     0.005 C 
ATOM     24  C   UNL     1       1.477  -3.097   2.760  1.00  0.00     0.005 C 
ENDBRANCH  13  15
ENDBRANCH   8   9
ENDBRANCH   6   8
ENDBRANCH   3   4
ENDBRANCH   2   3
ENDBRANCH   1   2
BRANCH   1  25
ATOM     25  C   UNL     1       4.758   4.123  -1.593  1.00  0.00     0.002 C 
BRANCH  25  26
ATOM     26  C   UNL     1       4.117   5.348  -2.248  1.00  0.00     0.021 C 
BRANCH  26  27
ATOM     27  C   UNL     1       4.200   6.629  -1.429  1.00  0.00     0.116 C 
BRANCH  27  28
ATOM     28  N   UNL     1       5.567   7.098  -1.273  1.00  0.00    -0.352 N 
ATOM     29  C   UNL     1       6.104   8.328  -1.562  1.00  0.00     0.251 C 
ATOM     30  H   UNL     1       6.199   6.438  -0.907  1.00  0.00     0.163 HD
ATOM     31  O   UNL     1       7.317   8.498  -1.526  1.00  0.00    -0.269 OA
BRANCH  29  32
ATOM     32  C   UNL     1       5.217   9.448  -1.948  1.00  0.00     0.039 A 
ATOM     33  C   UNL     1       5.571  10.240  -3.043  1.00  0.00     0.014 A 
ATOM     34  C   UNL     1       4.043   9.717  -1.238  1.00  0.00     0.014 A 
ATOM     35  C   UNL     1       4.714  11.257  -3.469  1.00  0.00     0.010 A 
ATOM     36  C   UNL     1       3.156  10.683  -1.705  1.00  0.00     0.010 A 
ATOM     37  C   UNL     1       3.482  11.461  -2.826  1.00  0.00    -0.014 A 
BRANCH  37  38
ATOM     38  C   UNL     1       2.514  12.469  -3.328  1.00  0.00     0.031 A 
ATOM     39  C   UNL     1       2.145  13.656  -2.485  1.00  0.00     0.074 A 
ATOM     40  C   UNL     1       1.909  12.273  -4.515  1.00  0.00     0.049 A 
ATOM     41  N   UNL     1       1.274  14.604  -2.725  1.00  0.00    -0.248 NA
ATOM     42  C   UNL     1       2.825  13.779  -1.188  1.00  0.00     0.031 C 
ATOM     43  C   UNL     1       2.138  11.129  -5.399  1.00  0.00     0.029 A 
ATOM     44  N   UNL     1       0.966  13.021  -5.175  1.00  0.00    -0.354 N 
ATOM     45  C   UNL     1       1.295  15.427  -1.608  1.00  0.00     0.074 A 
ATOM     46  C   UNL     1       2.223  14.837  -0.666  1.00  0.00     0.031 C 
ATOM     47  C   UNL     1       1.367  11.257  -6.490  1.00  0.00     0.029 A 
ATOM     48  C   UNL     1       0.566  12.472  -6.368  1.00  0.00     0.049 A 
ATOM     49  H   UNL     1       0.611  13.870  -4.825  1.00  0.00     0.167 HD
ATOM     50  C   UNL     1       0.621  16.584  -1.397  1.00  0.00     0.037 A 
ATOM     51  C   UNL     1      -0.351  12.893  -7.259  1.00  0.00     0.037 A 
ATOM     52  C   UNL     1      -0.291  17.174  -2.341  1.00  0.00     0.049 A 
ATOM     53  C   UNL     1      -1.090  14.177  -7.003  1.00  0.00     0.074 A 
ATOM     54  C   UNL     1      -0.971  18.376  -2.250  1.00  0.00     0.029 A 
ATOM     55  N   UNL     1      -0.659  16.599  -3.549  1.00  0.00    -0.354 N 
ATOM     56  N   UNL     1      -1.004  14.990  -5.979  1.00  0.00    -0.248 NA
ATOM     57  C   UNL     1      -2.050  14.604  -8.031  1.00  0.00     0.031 C 
ATOM     58  C   UNL     1      -1.786  18.505  -3.380  1.00  0.00     0.029 A 
ATOM     59  C   UNL     1      -1.578  17.407  -4.200  1.00  0.00     0.049 A 
ATOM     60  H   UNL     1      -0.317  15.742  -3.894  1.00  0.00     0.167 HD
ATOM     61  C   UNL     1      -1.884  16.031  -6.242  1.00  0.00     0.074 A 
ATOM     62  C   UNL     1      -2.479  15.756  -7.534  1.00  0.00     0.031 C 
ATOM     63  C   UNL     1      -2.173  17.115  -5.480  1.00  0.00     0.037 A 
BRANCH  50  64
ATOM     64  C   UNL     1       0.849  17.283  -0.087  1.00  0.00     0.064 A 
ATOM     65  C   UNL     1       2.078  17.888   0.220  1.00  0.00     0.173 A 
ATOM     66  C   UNL     1      -0.175  17.359   0.870  1.00  0.00     0.173 A 
ATOM     67  F   UNL     1       3.093  17.836  -0.655  1.00  0.00    -0.203 F 
ATOM     68  C   UNL     1       2.286  18.507   1.450  1.00  0.00     0.198 A 
ATOM     69  C   UNL     1       0.027  18.006   2.086  1.00  0.00     0.198 A 
ATOM     70  F   UNL     1      -1.371  16.803   0.626  1.00  0.00    -0.203 F 
ATOM     71  F   UNL     1       3.487  19.024   1.743  1.00  0.00    -0.200 F 
ATOM     72  C   UNL     1       1.259  18.570   2.380  1.00  0.00     0.200 A 
ATOM     73  F   UNL     1      -0.970  18.078   2.979  1.00  0.00    -0.200 F 
ATOM     74  F   UNL     1       1.461  19.165   3.563  1.00  0.00    -0.200 F 
ENDBRANCH  50  64
BRANCH  51  75
ATOM     75  C   UNL     1      -0.600  12.093  -8.485  1.00  0.00     0.064 A 
ATOM     76  C   UNL     1      -0.167  12.544  -9.739  1.00  0.00     0.173 A 
ATOM     77  C   UNL     1      -1.246  10.850  -8.423  1.00  0.00     0.173 A 
ATOM     78  F   UNL     1       0.438  13.736  -9.850  1.00  0.00    -0.203 F 
ATOM     79  C   UNL     1      -0.378  11.784 -10.888  1.00  0.00     0.198 A 
ATOM     80  C   UNL     1      -1.433  10.080  -9.568  1.00  0.00     0.198 A 
ATOM     81  F   UNL     1      -1.673  10.373  -7.245  1.00  0.00    -0.203 F 
ATOM     82  F   UNL     1       0.018  12.252 -12.079  1.00  0.00    -0.200 F 
ATOM     83  C   UNL     1      -1.004  10.549 -10.800  1.00  0.00     0.200 A 
ATOM     84  F   UNL     1      -2.024   8.880  -9.477  1.00  0.00    -0.200 F 
ATOM     85  F   UNL     1      -1.194   9.813 -11.903  1.00  0.00    -0.200 F 
ENDBRANCH  51  75
BRANCH  63  86
ATOM     86  C   UNL     1      -3.174  18.090  -6.028  1.00  0.00     0.064 A 
ATOM     87  C   UNL     1      -4.541  17.782  -6.087  1.00  0.00     0.173 A 
ATOM     88  C   UNL     1      -2.767  19.360  -6.465  1.00  0.00     0.173 A 
ATOM     89  F   UNL     1      -4.978  16.575  -5.697  1.00  0.00    -0.203 F 
ATOM     90  C   UNL     1      -5.461  18.701  -6.584  1.00  0.00     0.198 A 
ATOM     91  C   UNL     1      -3.693  20.287  -6.935  1.00  0.00     0.198 A 
ATOM     92  F   UNL     1      -1.471  19.706  -6.425  1.00  0.00    -0.203 F 
ATOM     93  F   UNL     1      -6.756  18.369  -6.673  1.00  0.00    -0.200 F 
ATOM     94  C   UNL     1      -5.038  19.955  -7.000  1.00  0.00     0.200 A 
ATOM     95  F   UNL     1      -3.284  21.502  -7.325  1.00  0.00    -0.200 F 
ATOM     96  F   UNL     1      -5.926  20.841  -7.472  1.00  0.00    -0.200 F 
ENDBRANCH  63  86
ENDBRANCH  37  38
ENDBRANCH  29  32
ENDBRANCH  27  28
ENDBRANCH  26  27
ENDBRANCH  25  26
ENDBRANCH   1  25
TORSDOF 15
