REMARK SMILES C=Cc1cc(Cl)cc2c1O[C@H](C(F)(F)F)C(C(=O)NCCCCCCNC(=O)c1ccc(-c3c4nc(c(-c5c(F)c(F)c(F)c(F)c5F)c5ccc([nH]5)c(-c5c(F)c(F)c(F)c(F)c5F)c5nc(c(-c6c(F)c(F)c(F)c(F)c6F)c6ccc3[nH]6)C=C5)C=C4)cc1)=C2
REMARK SMILES IDX 23 1 22 2 21 3 20 4 19 5 17 6 18 7 16 9 3 10 4 11 9 12 5 13
REMARK SMILES IDX 8 14 10 15 6 16 7 17 92 18 11 19 2 20 1 21 12 22 13 23 14 24
REMARK SMILES IDX 15 25 24 26 25 27 26 28 27 29 28 31 29 32 30 33 91 34 31 35
REMARK SMILES IDX 90 36 32 37 33 38 34 39 84 40 35 41 89 42 83 43 85 44 36 45
REMARK SMILES IDX 88 46 82 47 81 48 37 50 69 51 49 52 68 53 50 54 53 55 67 56
REMARK SMILES IDX 86 57 51 58 52 59 66 61 87 62 54 63 38 64 39 65 47 66 40 67
REMARK SMILES IDX 41 68 45 69 48 70 42 71 43 72 46 73 44 74 70 75 71 76 79 77
REMARK SMILES IDX 72 78 73 79 77 80 80 81 74 82 75 83 78 84 76 85 55 86 56 87
REMARK SMILES IDX 64 88 57 89 58 90 62 91 65 92 59 93 60 94 63 95 61 96
REMARK H PARENT 19 8 26 30 85 49 53 60
REMARK Flexibility Score: inf
ROOT
ATOM      1  C   UNL     1      -1.838  10.260  -1.746  1.00  0.00     0.002 C 
ENDROOT
BRANCH   1   2
ATOM      2  C   UNL     1      -2.307   9.148  -2.695  1.00  0.00     0.002 C 
BRANCH   2   3
ATOM      3  C   UNL     1      -1.771   7.745  -2.391  1.00  0.00     0.021 C 
BRANCH   3   4
ATOM      4  C   UNL     1      -2.068   7.252  -0.977  1.00  0.00     0.116 C 
BRANCH   4   5
ATOM      5  N   UNL     1      -3.395   6.673  -0.871  1.00  0.00    -0.352 N 
ATOM      6  C   UNL     1      -3.936   5.480  -0.531  1.00  0.00     0.251 C 
ATOM      7  O   UNL     1      -5.171   5.444  -0.548  1.00  0.00    -0.270 OA
ATOM      8  H   UNL     1      -4.091   7.326  -1.111  1.00  0.00     0.163 HD
BRANCH   6   9
ATOM      9  C   UNL     1      -3.171   4.252  -0.156  1.00  0.00     0.067 C 
ATOM     10  C   UNL     1      -1.173   0.625   0.660  1.00  0.00     0.018 A 
ATOM     11  C   UNL     1      -1.928  -0.512   0.969  1.00  0.00     0.032 A 
ATOM     12  C   UNL     1      -1.843   1.827   0.368  1.00  0.00     0.135 A 
ATOM     13  C   UNL     1      -3.322  -0.449   0.959  1.00  0.00     0.042 A 
ATOM     14  C   UNL     1      -3.240   1.886   0.347  1.00  0.00     0.019 A 
ATOM     15  O   UNL     1      -1.074   2.910   0.041  1.00  0.00    -0.475 OA
ATOM     16  Cl  UNL     1      -4.239  -1.857   1.332  1.00  0.00    -0.084 Cl
ATOM     17  C   UNL     1      -3.981   0.739   0.645  1.00  0.00     0.032 A 
ATOM     18  C   UNL     1      -3.903   3.129  -0.030  1.00  0.00     0.025 C 
ATOM     19  C   UNL     1      -1.695   4.218   0.108  1.00  0.00     0.314 C 
BRANCH  10  20
ATOM     20  C   UNL     1       0.297   0.584   0.691  1.00  0.00     0.004 C 
ATOM     21  C   UNL     1       1.029  -0.353   0.077  1.00  0.00     0.009 C 
ENDBRANCH  10  20
BRANCH  19  22
ATOM     22  C   UNL     1      -1.309   4.885   1.440  1.00  0.00     0.429 C 
ATOM     23  F   UNL     1       0.028   5.111   1.488  1.00  0.00    -0.167 F 
ATOM     24  F   UNL     1      -1.904   6.088   1.612  1.00  0.00    -0.167 F 
ATOM     25  F   UNL     1      -1.631   4.127   2.511  1.00  0.00    -0.167 F 
ENDBRANCH  19  22
ENDBRANCH   6   9
ENDBRANCH   4   5
ENDBRANCH   3   4
ENDBRANCH   2   3
ENDBRANCH   1   2
BRANCH   1  26
ATOM     26  C   UNL     1      -0.333  10.312  -1.473  1.00  0.00     0.021 C 
BRANCH  26  27
ATOM     27  C   UNL     1       0.542  10.471  -2.711  1.00  0.00     0.116 C 
BRANCH  27  28
ATOM     28  N   UNL     1       0.329  11.739  -3.390  1.00  0.00    -0.352 N 
ATOM     29  C   UNL     1       1.251  12.674  -3.794  1.00  0.00     0.251 C 
ATOM     30  H   UNL     1      -0.610  11.959  -3.588  1.00  0.00     0.163 HD
ATOM     31  O   UNL     1       0.885  13.761  -4.228  1.00  0.00    -0.269 OA
BRANCH  29  32
ATOM     32  C   UNL     1       2.695  12.377  -3.672  1.00  0.00     0.039 A 
ATOM     33  C   UNL     1       3.208  11.148  -4.091  1.00  0.00     0.014 A 
ATOM     34  C   UNL     1       3.540  13.338  -3.110  1.00  0.00     0.014 A 
ATOM     35  C   UNL     1       4.528  10.819  -3.803  1.00  0.00     0.010 A 
ATOM     36  C   UNL     1       4.887  13.034  -2.893  1.00  0.00     0.010 A 
ATOM     37  C   UNL     1       5.380  11.755  -3.193  1.00  0.00    -0.014 A 
BRANCH  37  38
ATOM     38  C   UNL     1       6.778  11.369  -2.871  1.00  0.00     0.031 A 
ATOM     39  C   UNL     1       7.235  11.264  -1.441  1.00  0.00     0.074 A 
ATOM     40  C   UNL     1       7.621  11.052  -3.873  1.00  0.00     0.049 A 
ATOM     41  N   UNL     1       8.410  10.922  -0.973  1.00  0.00    -0.248 NA
ATOM     42  C   UNL     1       6.248  11.585  -0.398  1.00  0.00     0.031 C 
ATOM     43  C   UNL     1       7.288  11.102  -5.297  1.00  0.00     0.029 A 
ATOM     44  N   UNL     1       8.916  10.601  -3.849  1.00  0.00    -0.354 N 
ATOM     45  C   UNL     1       8.307  11.002   0.410  1.00  0.00     0.074 A 
ATOM     46  C   UNL     1       6.965  11.450   0.709  1.00  0.00     0.031 C 
ATOM     47  C   UNL     1       8.331  10.647  -6.008  1.00  0.00     0.029 A 
ATOM     48  C   UNL     1       9.425  10.330  -5.095  1.00  0.00     0.049 A 
ATOM     49  H   UNL     1       9.431  10.482  -3.018  1.00  0.00     0.167 HD
ATOM     50  C   UNL     1       9.245  10.711   1.343  1.00  0.00     0.037 A 
ATOM     51  C   UNL     1      10.641   9.885  -5.465  1.00  0.00     0.037 A 
ATOM     52  C   UNL     1      10.572  10.239   1.044  1.00  0.00     0.049 A 
ATOM     53  C   UNL     1      11.674   9.612  -4.409  1.00  0.00     0.074 A 
ATOM     54  C   UNL     1      11.585   9.901   1.925  1.00  0.00     0.029 A 
ATOM     55  N   UNL     1      11.068  10.034  -0.234  1.00  0.00    -0.354 N 
ATOM     56  N   UNL     1      11.562   9.690  -3.106  1.00  0.00    -0.248 NA
ATOM     57  C   UNL     1      13.005   9.200  -4.875  1.00  0.00     0.031 C 
ATOM     58  C   UNL     1      12.706   9.526   1.179  1.00  0.00     0.029 A 
ATOM     59  C   UNL     1      12.379   9.591  -0.165  1.00  0.00     0.049 A 
ATOM     60  H   UNL     1      10.564  10.181  -1.067  1.00  0.00     0.167 HD
ATOM     61  C   UNL     1      12.801   9.330  -2.595  1.00  0.00     0.074 A 
ATOM     62  C   UNL     1      13.644   9.011  -3.728  1.00  0.00     0.031 C 
ATOM     63  C   UNL     1      13.204   9.277  -1.303  1.00  0.00     0.037 A 
BRANCH  50  64
ATOM     64  C   UNL     1       8.879  10.893   2.787  1.00  0.00     0.064 A 
ATOM     65  C   UNL     1       8.027   9.994   3.445  1.00  0.00     0.173 A 
ATOM     66  C   UNL     1       9.451  11.929   3.541  1.00  0.00     0.173 A 
ATOM     67  F   UNL     1       7.447   8.993   2.766  1.00  0.00    -0.203 F 
ATOM     68  C   UNL     1       7.754  10.132   4.804  1.00  0.00     0.198 A 
ATOM     69  C   UNL     1       9.194  12.050   4.904  1.00  0.00     0.198 A 
ATOM     70  F   UNL     1      10.277  12.811   2.960  1.00  0.00    -0.203 F 
ATOM     71  F   UNL     1       6.917   9.276   5.407  1.00  0.00    -0.200 F 
ATOM     72  C   UNL     1       8.345  11.152   5.534  1.00  0.00     0.200 A 
ATOM     73  F   UNL     1       9.775  13.029   5.611  1.00  0.00    -0.200 F 
ATOM     74  F   UNL     1       8.094  11.272   6.845  1.00  0.00    -0.200 F 
ENDBRANCH  50  64
BRANCH  51  75
ATOM     75  C   UNL     1      10.938   9.668  -6.903  1.00  0.00     0.064 A 
ATOM     76  C   UNL     1      11.104   8.375  -7.416  1.00  0.00     0.173 A 
ATOM     77  C   UNL     1      11.035  10.745  -7.798  1.00  0.00     0.173 A 
ATOM     78  F   UNL     1      11.040   7.316  -6.596  1.00  0.00    -0.203 F 
ATOM     79  C   UNL     1      11.361   8.167  -8.769  1.00  0.00     0.198 A 
ATOM     80  C   UNL     1      11.265  10.534  -9.155  1.00  0.00     0.198 A 
ATOM     81  F   UNL     1      10.881  12.001  -7.355  1.00  0.00    -0.203 F 
ATOM     82  F   UNL     1      11.546   6.922  -9.230  1.00  0.00    -0.200 F 
ATOM     83  C   UNL     1      11.432   9.245  -9.639  1.00  0.00     0.200 A 
ATOM     84  F   UNL     1      11.317  11.577  -9.994  1.00  0.00    -0.200 F 
ATOM     85  F   UNL     1      11.666   9.043 -10.943  1.00  0.00    -0.200 F 
ENDBRANCH  51  75
BRANCH  63  86
ATOM     86  C   UNL     1      14.617   8.851  -1.038  1.00  0.00     0.064 A 
ATOM     87  C   UNL     1      15.695   9.711  -1.284  1.00  0.00     0.173 A 
ATOM     88  C   UNL     1      14.888   7.596  -0.472  1.00  0.00     0.173 A 
ATOM     89  F   UNL     1      15.486  10.915  -1.837  1.00  0.00    -0.203 F 
ATOM     90  C   UNL     1      16.999   9.326  -0.983  1.00  0.00     0.198 A 
ATOM     91  C   UNL     1      16.190   7.224  -0.150  1.00  0.00     0.198 A 
ATOM     92  F   UNL     1      13.888   6.740  -0.212  1.00  0.00    -0.203 F 
ATOM     93  F   UNL     1      18.019  10.151  -1.255  1.00  0.00    -0.200 F 
ATOM     94  C   UNL     1      17.244   8.087  -0.409  1.00  0.00     0.200 A 
ATOM     95  F   UNL     1      16.424   6.032   0.417  1.00  0.00    -0.200 F 
ATOM     96  F   UNL     1      18.498   7.724  -0.108  1.00  0.00    -0.200 F 
ENDBRANCH  63  86
ENDBRANCH  37  38
ENDBRANCH  29  32
ENDBRANCH  27  28
ENDBRANCH  26  27
ENDBRANCH   1  26
TORSDOF 15
