REMARK SMILES O=C(Nc1c(F)cc(F)cc1F)N[C@H]1C=C[C@H](C(=O)NCCCCCCNC(=O)c2ccc(-c3c4nc(c(-c5c(F)c(F)c(F)c(F)c5F)c5ccc([nH]5)c(-c5c(F)c(F)c(F)c(F)c5F)c5nc(c(-c6c(F)c(F)c(F)c(F)c6F)c6ccc3[nH]6)C=C5)C=C4)cc2)C1
REMARK SMILES IDX 23 1 22 2 21 3 20 4 18 5 19 6 17 8 14 9 15 10 93 11 16 12
REMARK SMILES IDX 13 13 1 14 2 15 3 16 4 19 5 20 11 21 6 22 7 23 10 24 12 25
REMARK SMILES IDX 8 26 9 27 24 28 25 29 26 30 27 31 28 32 29 34 30 35 31 36
REMARK SMILES IDX 92 37 32 38 91 39 33 40 34 41 35 42 85 43 36 44 90 45 84 46
REMARK SMILES IDX 86 47 37 48 89 49 83 50 82 51 38 53 70 54 50 55 69 56 51 57
REMARK SMILES IDX 54 58 68 59 87 60 52 61 53 62 67 64 88 65 55 66 39 67 40 68
REMARK SMILES IDX 48 69 41 70 42 71 46 72 49 73 43 74 44 75 47 76 45 77 71 78
REMARK SMILES IDX 72 79 80 80 73 81 74 82 78 83 81 84 75 85 76 86 79 87 77 88
REMARK SMILES IDX 56 89 57 90 65 91 58 92 59 93 63 94 66 95 60 96 61 97 64 98
REMARK SMILES IDX 62 99
REMARK H PARENT 20 7 3 17 13 18 27 33 86 52 54 63
REMARK Flexibility Score: inf
ROOT
ATOM      1  C   UNL     1       0.626   9.007   0.043  1.00  0.00     0.002 C 
ENDROOT
BRANCH   1   2
ATOM      2  C   UNL     1       1.817   8.053  -0.114  1.00  0.00     0.021 C 
BRANCH   2   3
ATOM      3  C   UNL     1       2.303   7.422   1.191  1.00  0.00     0.116 C 
BRANCH   3   4
ATOM      4  N   UNL     1       1.288   6.565   1.772  1.00  0.00    -0.356 N 
ATOM      5  C   UNL     1       1.265   5.218   1.969  1.00  0.00     0.227 C 
ATOM      6  O   UNL     1       0.221   4.723   2.400  1.00  0.00    -0.274 OA
ATOM      7  H   UNL     1       0.478   7.036   2.074  1.00  0.00     0.163 HD
BRANCH   5   8
ATOM      8  C   UNL     1       2.506   4.374   1.677  1.00  0.00     0.103 C 
ATOM      9  C   UNL     1       2.036   1.969   1.466  1.00  0.00     0.107 C 
ATOM     10  C   UNL     1       2.639   2.308   2.790  1.00  0.00    -0.006 C 
ATOM     11  C   UNL     1       2.192   3.269   0.661  1.00  0.00     0.047 C 
ATOM     12  C   UNL     1       2.903   3.613   2.907  1.00  0.00    -0.016 C 
BRANCH   9  13
ATOM     13  N   UNL     1       2.823   0.909   0.892  1.00  0.00    -0.332 N 
ATOM     14  O   UNL     1       1.126  -0.097  -0.228  1.00  0.00    -0.248 OA
ATOM     15  C   UNL     1       2.322  -0.021   0.049  1.00  0.00     0.319 C 
ATOM     16  N   UNL     1       3.199  -0.822  -0.617  1.00  0.00    -0.303 N 
ATOM     17  H   UNL     1       2.769  -1.397  -1.290  1.00  0.00     0.172 HD
ATOM     18  H   UNL     1       3.778   0.859   1.126  1.00  0.00     0.165 HD
BRANCH  16  19
ATOM     19  C   UNL     1       4.597  -0.998  -0.541  1.00  0.00     0.115 A 
ATOM     20  C   UNL     1       5.403  -0.725   0.569  1.00  0.00     0.152 A 
ATOM     21  C   UNL     1       5.230  -1.498  -1.687  1.00  0.00     0.152 A 
ATOM     22  F   UNL     1       4.870  -0.327   1.732  1.00  0.00    -0.204 F 
ATOM     23  C   UNL     1       6.786  -0.882   0.523  1.00  0.00     0.081 A 
ATOM     24  C   UNL     1       6.612  -1.647  -1.759  1.00  0.00     0.081 A 
ATOM     25  F   UNL     1       4.495  -1.797  -2.770  1.00  0.00    -0.204 F 
ATOM     26  C   UNL     1       7.378  -1.327  -0.649  1.00  0.00     0.129 A 
ATOM     27  F   UNL     1       8.710  -1.453  -0.707  1.00  0.00    -0.207 F 
ENDBRANCH  16  19
ENDBRANCH   9  13
ENDBRANCH   5   8
ENDBRANCH   3   4
ENDBRANCH   2   3
ENDBRANCH   1   2
BRANCH   1  28
ATOM     28  C   UNL     1       0.836  10.167   1.021  1.00  0.00     0.002 C 
BRANCH  28  29
ATOM     29  C   UNL     1       2.062  11.041   0.747  1.00  0.00     0.021 C 
BRANCH  29  30
ATOM     30  C   UNL     1       2.093  11.691  -0.633  1.00  0.00     0.116 C 
BRANCH  30  31
ATOM     31  N   UNL     1       1.004  12.635  -0.828  1.00  0.00    -0.352 N 
ATOM     32  C   UNL     1       1.044  13.938  -1.254  1.00  0.00     0.251 C 
ATOM     33  H   UNL     1       0.105  12.287  -0.624  1.00  0.00     0.163 HD
ATOM     34  O   UNL     1       0.033  14.637  -1.197  1.00  0.00    -0.269 OA
BRANCH  32  35
ATOM     35  C   UNL     1       2.306  14.520  -1.757  1.00  0.00     0.039 A 
ATOM     36  C   UNL     1       2.672  15.801  -1.335  1.00  0.00     0.014 A 
ATOM     37  C   UNL     1       3.124  13.816  -2.645  1.00  0.00     0.014 A 
ATOM     38  C   UNL     1       3.888  16.348  -1.750  1.00  0.00     0.010 A 
ATOM     39  C   UNL     1       4.369  14.332  -3.001  1.00  0.00     0.010 A 
ATOM     40  C   UNL     1       4.765  15.601  -2.555  1.00  0.00    -0.014 A 
BRANCH  40  41
ATOM     41  C   UNL     1       6.105  16.130  -2.917  1.00  0.00     0.031 A 
ATOM     42  C   UNL     1       6.450  16.419  -4.351  1.00  0.00     0.074 A 
ATOM     43  C   UNL     1       7.030  16.304  -1.953  1.00  0.00     0.049 A 
ATOM     44  N   UNL     1       7.580  16.841  -4.860  1.00  0.00    -0.248 NA
ATOM     45  C   UNL     1       5.395  16.181  -5.349  1.00  0.00     0.031 C 
ATOM     46  C   UNL     1       6.830  16.018  -0.532  1.00  0.00     0.029 A 
ATOM     47  N   UNL     1       8.323  16.760  -2.020  1.00  0.00    -0.354 N 
ATOM     48  C   UNL     1       7.373  16.916  -6.231  1.00  0.00     0.074 A 
ATOM     49  C   UNL     1       6.030  16.441  -6.483  1.00  0.00     0.031 C 
ATOM     50  C   UNL     1       7.945  16.338   0.143  1.00  0.00     0.029 A 
ATOM     51  C   UNL     1       8.953  16.812  -0.801  1.00  0.00     0.049 A 
ATOM     52  H   UNL     1       8.758  17.025  -2.863  1.00  0.00     0.167 HD
ATOM     53  C   UNL     1       8.219  17.367  -7.188  1.00  0.00     0.037 A 
ATOM     54  C   UNL     1      10.203  17.196  -0.477  1.00  0.00     0.037 A 
ATOM     55  C   UNL     1       9.547  17.859  -6.931  1.00  0.00     0.049 A 
ATOM     56  C   UNL     1      11.129  17.673  -1.563  1.00  0.00     0.074 A 
ATOM     57  C   UNL     1      10.460  18.384  -7.829  1.00  0.00     0.029 A 
ATOM     58  N   UNL     1      10.153  17.888  -5.683  1.00  0.00    -0.354 N 
ATOM     59  N   UNL     1      10.902  17.793  -2.849  1.00  0.00    -0.248 NA
ATOM     60  C   UNL     1      12.483  18.071  -1.154  1.00  0.00     0.031 C 
ATOM     61  C   UNL     1      11.635  18.684  -7.134  1.00  0.00     0.029 A 
ATOM     62  C   UNL     1      11.437  18.398  -5.793  1.00  0.00     0.049 A 
ATOM     63  H   UNL     1       9.733  17.590  -4.844  1.00  0.00     0.167 HD
ATOM     64  C   UNL     1      12.073  18.295  -3.398  1.00  0.00     0.074 A 
ATOM     65  C   UNL     1      13.003  18.478  -2.304  1.00  0.00     0.031 C 
ATOM     66  C   UNL     1      12.353  18.574  -4.695  1.00  0.00     0.037 A 
BRANCH  53  67
ATOM     67  C   UNL     1       7.733  17.367  -8.609  1.00  0.00     0.064 A 
ATOM     68  C   UNL     1       8.310  16.515  -9.563  1.00  0.00     0.173 A 
ATOM     69  C   UNL     1       6.744  18.263  -9.044  1.00  0.00     0.173 A 
ATOM     70  F   UNL     1       9.264  15.643  -9.202  1.00  0.00    -0.203 F 
ATOM     71  C   UNL     1       7.925  16.570 -10.900  1.00  0.00     0.198 A 
ATOM     72  C   UNL     1       6.340  18.294 -10.377  1.00  0.00     0.198 A 
ATOM     73  F   UNL     1       6.153  19.093  -8.171  1.00  0.00    -0.203 F 
ATOM     74  F   UNL     1       8.515  15.769 -11.799  1.00  0.00    -0.200 F 
ATOM     75  C   UNL     1       6.938  17.455 -11.305  1.00  0.00     0.200 A 
ATOM     76  F   UNL     1       5.369  19.134 -10.761  1.00  0.00    -0.200 F 
ATOM     77  F   UNL     1       6.561  17.499 -12.590  1.00  0.00    -0.200 F 
ENDBRANCH  53  67
BRANCH  54  78
ATOM     78  C   UNL     1      10.636  17.176   0.945  1.00  0.00     0.064 A 
ATOM     79  C   UNL     1      10.814  15.971   1.640  1.00  0.00     0.173 A 
ATOM     80  C   UNL     1      10.855  18.371   1.645  1.00  0.00     0.173 A 
ATOM     81  F   UNL     1      10.613  14.800   1.017  1.00  0.00    -0.203 F 
ATOM     82  C   UNL     1      11.176  15.962   2.985  1.00  0.00     0.198 A 
ATOM     83  C   UNL     1      11.245  18.361   2.982  1.00  0.00     0.198 A 
ATOM     84  F   UNL     1      10.717  19.548   1.018  1.00  0.00    -0.203 F 
ATOM     85  F   UNL     1      11.305  14.797   3.635  1.00  0.00    -0.200 F 
ATOM     86  C   UNL     1      11.396  17.157   3.654  1.00  0.00     0.200 A 
ATOM     87  F   UNL     1      11.481  19.516   3.617  1.00  0.00    -0.200 F 
ATOM     88  F   UNL     1      11.758  17.148   4.944  1.00  0.00    -0.200 F 
ENDBRANCH  54  78
BRANCH  66  89
ATOM     89  C   UNL     1      13.717  19.116  -5.009  1.00  0.00     0.064 A 
ATOM     90  C   UNL     1      13.875  20.443  -5.441  1.00  0.00     0.173 A 
ATOM     91  C   UNL     1      14.859  18.305  -4.950  1.00  0.00     0.173 A 
ATOM     92  F   UNL     1      12.813  21.258  -5.523  1.00  0.00    -0.203 F 
ATOM     93  C   UNL     1      15.124  20.931  -5.815  1.00  0.00     0.198 A 
ATOM     94  C   UNL     1      16.112  18.805  -5.296  1.00  0.00     0.198 A 
ATOM     95  F   UNL     1      14.763  17.034  -4.532  1.00  0.00    -0.203 F 
ATOM     96  F   UNL     1      15.244  22.190  -6.258  1.00  0.00    -0.200 F 
ATOM     97  C   UNL     1      16.241  20.114  -5.738  1.00  0.00     0.200 A 
ATOM     98  F   UNL     1      17.195  18.023  -5.196  1.00  0.00    -0.200 F 
ATOM     99  F   UNL     1      17.445  20.588  -6.086  1.00  0.00    -0.200 F 
ENDBRANCH  66  89
ENDBRANCH  40  41
ENDBRANCH  32  35
ENDBRANCH  30  31
ENDBRANCH  29  30
ENDBRANCH  28  29
ENDBRANCH   1  28
TORSDOF 15
