REMARK SMILES COc1cc(NC(=O)c2ccc([N+](=O)[O-])cc2)c(C(=O)NCCCCCCNC(=O)c2ccc(-c3c4nc(c(-c5c(F)c(F)c(F)c(F)c5F)c5ccc([nH]5)c(-c5c(F)c(F)c(F)c(F)c5F)c5nc(c(-c6c(F)c(F)c(F)c(F)c6F)c6ccc3[nH]6)C=C5)C=C4)cc2)cc1OC
REMARK SMILES IDX 24 1 23 2 22 3 21 4 19 5 20 6 18 8 3 9 4 10 95 11 5 12 94 13
REMARK SMILES IDX 2 14 1 15 96 16 97 17 6 18 7 19 8 21 9 22 10 23 17 24 11 25
REMARK SMILES IDX 16 26 12 27 13 28 14 29 15 30 25 31 26 32 27 33 28 34 29 35
REMARK SMILES IDX 30 37 31 38 32 39 93 40 33 41 92 42 34 43 35 44 36 45 86 46
REMARK SMILES IDX 37 47 91 48 85 49 87 50 38 51 90 52 84 53 83 54 39 56 71 57
REMARK SMILES IDX 51 58 70 59 52 60 55 61 69 62 88 63 53 64 54 65 68 67 89 68
REMARK SMILES IDX 56 69 40 70 41 71 49 72 42 73 43 74 47 75 50 76 44 77 45 78
REMARK SMILES IDX 48 79 46 80 72 81 73 82 81 83 74 84 75 85 79 86 82 87 76 88
REMARK SMILES IDX 77 89 80 90 78 91 57 92 58 93 66 94 59 95 60 96 64 97 67 98
REMARK SMILES IDX 61 99 62 100 65 101 63 102
REMARK H PARENT 21 7 6 20 28 36 87 55 55 66
REMARK Flexibility Score: inf
ROOT
ATOM      1  C   UNL     1       5.899   7.641  -0.810  1.00  0.00     0.002 C 
ENDROOT
BRANCH   1   2
ATOM      2  C   UNL     1       5.220   6.269  -0.735  1.00  0.00     0.021 C 
BRANCH   2   3
ATOM      3  C   UNL     1       4.038   6.236   0.240  1.00  0.00     0.116 C 
BRANCH   3   4
ATOM      4  N   UNL     1       2.854   6.758  -0.413  1.00  0.00    -0.352 N 
ATOM      5  C   UNL     1       1.832   6.177  -1.118  1.00  0.00     0.253 C 
ATOM      6  O   UNL     1       1.022   6.952  -1.631  1.00  0.00    -0.269 OA
ATOM      7  H   UNL     1       2.766   7.735  -0.334  1.00  0.00     0.163 HD
BRANCH   5   8
ATOM      8  C   UNL     1       1.611   4.697  -1.241  1.00  0.00     0.067 A 
ATOM      9  C   UNL     1       1.177   1.915  -1.276  1.00  0.00     0.162 A 
ATOM     10  C   UNL     1       0.132   2.807  -1.559  1.00  0.00     0.077 A 
ATOM     11  C   UNL     1       2.464   2.398  -1.084  1.00  0.00     0.161 A 
ATOM     12  C   UNL     1       0.307   4.199  -1.507  1.00  0.00     0.058 A 
ATOM     13  C   UNL     1       2.668   3.781  -1.123  1.00  0.00     0.066 A 
BRANCH   9  14
ATOM     14  O   UNL     1       0.919   0.572  -1.327  1.00  0.00    -0.493 OA
ATOM     15  C   UNL     1       0.137   0.141  -0.209  1.00  0.00     0.278 C 
ENDBRANCH   9  14
BRANCH  11  16
ATOM     16  O   UNL     1       3.614   1.684  -0.891  1.00  0.00    -0.493 OA
ATOM     17  C   UNL     1       3.494   0.393  -0.307  1.00  0.00     0.278 C 
ENDBRANCH  11  16
BRANCH  12  18
ATOM     18  N   UNL     1      -0.744   5.120  -1.773  1.00  0.00    -0.321 N 
ATOM     19  C   UNL     1      -2.096   5.016  -1.997  1.00  0.00     0.255 C 
ATOM     20  H   UNL     1      -0.429   6.052  -1.802  1.00  0.00     0.170 HD
ATOM     21  O   UNL     1      -2.753   5.970  -2.405  1.00  0.00    -0.269 OA
BRANCH  19  22
ATOM     22  C   UNL     1      -2.811   3.764  -1.730  1.00  0.00     0.040 A 
ATOM     23  C   UNL     1      -3.380   3.073  -2.807  1.00  0.00     0.021 A 
ATOM     24  C   UNL     1      -2.857   3.250  -0.428  1.00  0.00     0.021 A 
ATOM     25  C   UNL     1      -3.906   1.798  -2.600  1.00  0.00     0.086 A 
ATOM     26  C   UNL     1      -3.380   1.975  -0.218  1.00  0.00     0.086 A 
ATOM     27  C   UNL     1      -3.872   1.243  -1.311  1.00  0.00     0.269 A 
BRANCH  27  28
ATOM     28  N   UNL     1      -4.290  -0.149  -1.113  1.00  0.00     0.062 N 
ATOM     29  O   UNL     1      -4.931  -0.693  -2.021  1.00  0.00    -0.258 OA
ATOM     30  O   UNL     1      -3.942  -0.703  -0.060  1.00  0.00    -0.258 OA
ENDBRANCH  27  28
ENDBRANCH  19  22
ENDBRANCH  12  18
ENDBRANCH   5   8
ENDBRANCH   3   4
ENDBRANCH   2   3
ENDBRANCH   1   2
BRANCH   1  31
ATOM     31  C   UNL     1       6.606   8.075   0.480  1.00  0.00     0.002 C 
BRANCH  31  32
ATOM     32  C   UNL     1       7.647   7.084   1.010  1.00  0.00     0.021 C 
BRANCH  32  33
ATOM     33  C   UNL     1       8.804   6.818   0.051  1.00  0.00     0.116 C 
BRANCH  33  34
ATOM     34  N   UNL     1       9.617   8.008  -0.149  1.00  0.00    -0.352 N 
ATOM     35  C   UNL     1      10.957   8.188   0.068  1.00  0.00     0.251 C 
ATOM     36  H   UNL     1       9.135   8.796  -0.490  1.00  0.00     0.163 HD
ATOM     37  O   UNL     1      11.437   9.321   0.074  1.00  0.00    -0.269 OA
BRANCH  35  38
ATOM     38  C   UNL     1      11.831   7.021   0.306  1.00  0.00     0.039 A 
ATOM     39  C   UNL     1      12.784   7.085   1.326  1.00  0.00     0.014 A 
ATOM     40  C   UNL     1      11.727   5.877  -0.490  1.00  0.00     0.014 A 
ATOM     41  C   UNL     1      13.599   5.981   1.581  1.00  0.00     0.010 A 
ATOM     42  C   UNL     1      12.494   4.754  -0.192  1.00  0.00     0.010 A 
ATOM     43  C   UNL     1      13.441   4.797   0.842  1.00  0.00    -0.014 A 
BRANCH  43  44
ATOM     44  C   UNL     1      14.258   3.595   1.138  1.00  0.00     0.031 A 
ATOM     45  C   UNL     1      15.240   3.079   0.123  1.00  0.00     0.074 A 
ATOM     46  C   UNL     1      14.070   2.933   2.295  1.00  0.00     0.049 A 
ATOM     47  N   UNL     1      15.996   2.011   0.170  1.00  0.00    -0.248 NA
ATOM     48  C   UNL     1      15.370   3.852  -1.122  1.00  0.00     0.031 C 
ATOM     49  C   UNL     1      13.113   3.308   3.337  1.00  0.00     0.029 A 
ATOM     50  N   UNL     1      14.666   1.798   2.785  1.00  0.00    -0.354 N 
ATOM     51  C   UNL     1      16.678   1.977  -1.039  1.00  0.00     0.074 A 
ATOM     52  C   UNL     1      16.210   3.102  -1.820  1.00  0.00     0.031 C 
ATOM     53  C   UNL     1      13.200   2.432   4.350  1.00  0.00     0.029 A 
ATOM     54  C   UNL     1      14.193   1.415   4.016  1.00  0.00     0.049 A 
ATOM     55  H   UNL     1      15.367   1.305   2.300  1.00  0.00     0.167 HD
ATOM     56  C   UNL     1      17.624   1.100  -1.450  1.00  0.00     0.037 A 
ATOM     57  C   UNL     1      14.519   0.359   4.784  1.00  0.00     0.037 A 
ATOM     58  C   UNL     1      18.105  -0.002  -0.658  1.00  0.00     0.049 A 
ATOM     59  C   UNL     1      15.575  -0.599   4.304  1.00  0.00     0.074 A 
ATOM     60  C   UNL     1      19.106  -0.909  -0.959  1.00  0.00     0.029 A 
ATOM     61  N   UNL     1      17.616  -0.346   0.593  1.00  0.00    -0.354 N 
ATOM     62  N   UNL     1      16.262  -0.582   3.189  1.00  0.00    -0.248 NA
ATOM     63  C   UNL     1      15.905  -1.720   5.195  1.00  0.00     0.031 C 
ATOM     64  C   UNL     1      19.193  -1.829   0.092  1.00  0.00     0.029 A 
ATOM     65  C   UNL     1      18.280  -1.466   1.069  1.00  0.00     0.049 A 
ATOM     66  H   UNL     1      16.903   0.134   1.073  1.00  0.00     0.167 HD
ATOM     67  C   UNL     1      17.123  -1.669   3.254  1.00  0.00     0.074 A 
ATOM     68  C   UNL     1      16.882  -2.316   4.527  1.00  0.00     0.031 C 
ATOM     69  C   UNL     1      18.030  -2.094   2.341  1.00  0.00     0.037 A 
BRANCH  56  70
ATOM     70  C   UNL     1      18.208   1.299  -2.818  1.00  0.00     0.064 A 
ATOM     71  C   UNL     1      19.061   2.376  -3.104  1.00  0.00     0.173 A 
ATOM     72  C   UNL     1      17.946   0.380  -3.846  1.00  0.00     0.173 A 
ATOM     73  F   UNL     1      19.335   3.289  -2.160  1.00  0.00    -0.203 F 
ATOM     74  C   UNL     1      19.606   2.541  -4.375  1.00  0.00     0.198 A 
ATOM     75  C   UNL     1      18.516   0.532  -5.107  1.00  0.00     0.198 A 
ATOM     76  F   UNL     1      17.142  -0.671  -3.625  1.00  0.00    -0.203 F 
ATOM     77  F   UNL     1      20.380   3.603  -4.637  1.00  0.00    -0.200 F 
ATOM     78  C   UNL     1      19.340   1.616  -5.373  1.00  0.00     0.200 A 
ATOM     79  F   UNL     1      18.268  -0.370  -6.067  1.00  0.00    -0.200 F 
ATOM     80  F   UNL     1      19.872   1.772  -6.593  1.00  0.00    -0.200 F 
ENDBRANCH  56  70
BRANCH  57  81
ATOM     81  C   UNL     1      13.856   0.166   6.099  1.00  0.00     0.064 A 
ATOM     82  C   UNL     1      14.565   0.345   7.295  1.00  0.00     0.173 A 
ATOM     83  C   UNL     1      12.505  -0.201   6.190  1.00  0.00     0.173 A 
ATOM     84  F   UNL     1      15.864   0.676   7.258  1.00  0.00    -0.203 F 
ATOM     85  C   UNL     1      13.955   0.143   8.531  1.00  0.00     0.198 A 
ATOM     86  C   UNL     1      11.889  -0.375   7.428  1.00  0.00     0.198 A 
ATOM     87  F   UNL     1      11.780  -0.378   5.076  1.00  0.00    -0.203 F 
ATOM     88  F   UNL     1      14.669   0.277   9.657  1.00  0.00    -0.200 F 
ATOM     89  C   UNL     1      12.616  -0.211   8.597  1.00  0.00     0.200 A 
ATOM     90  F   UNL     1      10.591  -0.703   7.487  1.00  0.00    -0.200 F 
ATOM     91  F   UNL     1      12.029  -0.401   9.786  1.00  0.00    -0.200 F 
ENDBRANCH  57  81
BRANCH  69  92
ATOM     92  C   UNL     1      18.850  -3.299   2.699  1.00  0.00     0.064 A 
ATOM     93  C   UNL     1      18.294  -4.586   2.723  1.00  0.00     0.173 A 
ATOM     94  C   UNL     1      20.217  -3.167   2.986  1.00  0.00     0.173 A 
ATOM     95  F   UNL     1      16.988  -4.762   2.471  1.00  0.00    -0.203 F 
ATOM     96  C   UNL     1      19.072  -5.694   3.047  1.00  0.00     0.198 A 
ATOM     97  C   UNL     1      20.998  -4.281   3.281  1.00  0.00     0.198 A 
ATOM     98  F   UNL     1      20.798  -1.958   2.970  1.00  0.00    -0.203 F 
ATOM     99  F   UNL     1      18.509  -6.909   3.111  1.00  0.00    -0.200 F 
ATOM    100  C   UNL     1      20.423  -5.542   3.318  1.00  0.00     0.200 A 
ATOM    101  F   UNL     1      22.306  -4.133   3.530  1.00  0.00    -0.200 F 
ATOM    102  F   UNL     1      21.171  -6.611   3.624  1.00  0.00    -0.200 F 
ENDBRANCH  69  92
ENDBRANCH  43  44
ENDBRANCH  35  38
ENDBRANCH  33  34
ENDBRANCH  32  33
ENDBRANCH  31  32
ENDBRANCH   1  31
TORSDOF 18
