REMARK SMILES CC(C)[NH2+][C@@]1(C(=O)NCCCCCCNC(=O)c2ccc(-c3c4nc(c(-c5c(F)c(F)c(F)c(F)c5F)c5ccc([nH]5)c(-c5c(F)c(F)c(F)c(F)c5F)c5nc(c(-c6c(F)c(F)c(F)c(F)c6F)c6ccc3[nH]6)C=C5)C=C4)cc2)CC[C@@H](Sc2cccc(Br)c2)C1
REMARK SMILES IDX 11 1 10 2 9 3 8 4 6 5 7 6 5 8 81 9 92 10 82 11 83 12 4 13
REMARK SMILES IDX 2 16 1 17 3 18 84 19 85 20 86 21 91 22 87 23 89 24 88 25
REMARK SMILES IDX 90 26 12 27 13 28 14 29 15 30 16 31 17 33 18 34 19 35 80 36
REMARK SMILES IDX 20 37 79 38 21 39 22 40 23 41 73 42 24 43 78 44 72 45 74 46
REMARK SMILES IDX 25 47 77 48 71 49 70 50 26 52 58 53 38 54 57 55 39 56 42 57
REMARK SMILES IDX 56 58 75 59 40 60 41 61 55 63 76 64 43 65 27 66 28 67 36 68
REMARK SMILES IDX 29 69 30 70 34 71 37 72 31 73 32 74 35 75 33 76 59 77 60 78
REMARK SMILES IDX 68 79 61 80 62 81 66 82 69 83 63 84 64 85 67 86 65 87 44 88
REMARK SMILES IDX 45 89 53 90 46 91 47 92 51 93 54 94 48 95 49 96 52 97 50 98
REMARK H PARENT 8 7 4 14 4 15 15 32 74 51 42 62
REMARK Flexibility Score: inf
ROOT
ATOM      1  C   UNL     1      -2.836  -6.245   4.484  1.00  0.00     0.002 C 
ENDROOT
BRANCH   1   2
ATOM      2  C   UNL     1      -2.320  -5.921   3.078  1.00  0.00     0.021 C 
BRANCH   2   3
ATOM      3  C   UNL     1      -3.171  -4.891   2.339  1.00  0.00     0.116 C 
BRANCH   3   4
ATOM      4  N   UNL     1      -2.723  -3.545   2.590  1.00  0.00    -0.351 N 
ATOM      5  C   UNL     1      -2.018  -2.660   1.845  1.00  0.00     0.281 C 
ATOM      6  O   UNL     1      -1.958  -1.518   2.327  1.00  0.00    -0.268 OA
ATOM      7  H   UNL     1      -2.978  -3.201   3.476  1.00  0.00     0.163 HD
BRANCH   5   8
ATOM      8  C   UNL     1      -1.364  -2.963   0.435  1.00  0.00     0.176 C 
ATOM      9  C   UNL     1      -2.465  -3.177  -0.627  1.00  0.00     0.080 C 
ATOM     10  C   UNL     1      -0.468  -4.212   0.357  1.00  0.00     0.094 C 
ATOM     11  C   UNL     1      -2.374  -4.608  -1.155  1.00  0.00     0.022 C 
ATOM     12  C   UNL     1      -1.214  -5.283  -0.436  1.00  0.00     0.058 C 
BRANCH   8  13
ATOM     13  N   UNL     1      -0.678  -1.696   0.028  1.00  0.00    -0.332 N 
ATOM     14  H   UNL     1      -0.747  -1.639  -0.989  1.00  0.00     0.347 HD
ATOM     15  H   UNL     1      -1.161  -0.985   0.576  1.00  0.00     0.347 HD
BRANCH  13  16
ATOM     16  C   UNL     1       0.733  -1.474   0.367  1.00  0.00     0.176 C 
ATOM     17  C   UNL     1       1.066  -0.025  -0.017  1.00  0.00     0.075 C 
ATOM     18  C   UNL     1       1.123  -1.699   1.829  1.00  0.00     0.075 C 
ENDBRANCH  13  16
ENDBRANCH   8  13
BRANCH  12  19
ATOM     19  S   UNL     1      -0.141  -6.375  -1.456  1.00  0.00    -0.122 SA
BRANCH  19  20
ATOM     20  C   UNL     1       0.182  -5.368  -2.891  1.00  0.00     0.009 A 
ATOM     21  C   UNL     1      -0.480  -5.655  -4.091  1.00  0.00     0.015 A 
ATOM     22  C   UNL     1       1.107  -4.323  -2.851  1.00  0.00     0.030 A 
ATOM     23  C   UNL     1      -0.258  -4.873  -5.226  1.00  0.00     0.002 A 
ATOM     24  C   UNL     1       1.319  -3.540  -3.985  1.00  0.00     0.019 A 
ATOM     25  C   UNL     1       0.638  -3.806  -5.171  1.00  0.00     0.016 A 
ATOM     26  Br  UNL     1       2.543  -2.101  -3.906  1.00  0.00    -0.051 Br
ENDBRANCH  19  20
ENDBRANCH  12  19
ENDBRANCH   5   8
ENDBRANCH   3   4
ENDBRANCH   2   3
ENDBRANCH   1   2
BRANCH   1  27
ATOM     27  C   UNL     1      -4.247  -6.846   4.535  1.00  0.00     0.002 C 
BRANCH  27  28
ATOM     28  C   UNL     1      -4.469  -8.071   3.644  1.00  0.00     0.021 C 
BRANCH  28  29
ATOM     29  C   UNL     1      -3.556  -9.254   3.955  1.00  0.00     0.116 C 
BRANCH  29  30
ATOM     30  N   UNL     1      -3.756  -9.745   5.308  1.00  0.00    -0.352 N 
ATOM     31  C   UNL     1      -4.166 -10.980   5.740  1.00  0.00     0.251 C 
ATOM     32  H   UNL     1      -3.570  -9.093   6.022  1.00  0.00     0.163 HD
ATOM     33  O   UNL     1      -4.516 -11.142   6.904  1.00  0.00    -0.269 OA
BRANCH  31  34
ATOM     34  C   UNL     1      -4.189 -12.122   4.802  1.00  0.00     0.039 A 
ATOM     35  C   UNL     1      -5.280 -12.995   4.826  1.00  0.00     0.014 A 
ATOM     36  C   UNL     1      -3.119 -12.355   3.933  1.00  0.00     0.014 A 
ATOM     37  C   UNL     1      -5.321 -14.077   3.945  1.00  0.00     0.010 A 
ATOM     38  C   UNL     1      -3.189 -13.396   3.012  1.00  0.00     0.010 A 
ATOM     39  C   UNL     1      -4.286 -14.271   3.015  1.00  0.00    -0.014 A 
BRANCH  39  40
ATOM     40  C   UNL     1      -4.327 -15.392   2.045  1.00  0.00     0.031 A 
ATOM     41  C   UNL     1      -3.313 -16.498   2.129  1.00  0.00     0.074 A 
ATOM     42  C   UNL     1      -5.236 -15.379   1.052  1.00  0.00     0.049 A 
ATOM     43  N   UNL     1      -3.138 -17.523   1.334  1.00  0.00    -0.248 NA
ATOM     44  C   UNL     1      -2.352 -16.428   3.241  1.00  0.00     0.031 C 
ATOM     45  C   UNL     1      -6.244 -14.338   0.845  1.00  0.00     0.029 A 
ATOM     46  N   UNL     1      -5.452 -16.262   0.025  1.00  0.00    -0.354 N 
ATOM     47  C   UNL     1      -2.042 -18.209   1.841  1.00  0.00     0.074 A 
ATOM     48  C   UNL     1      -1.561 -17.458   2.980  1.00  0.00     0.031 C 
ATOM     49  C   UNL     1      -6.984 -14.653  -0.231  1.00  0.00     0.029 A 
ATOM     50  C   UNL     1      -6.481 -15.896  -0.807  1.00  0.00     0.049 A 
ATOM     51  H   UNL     1      -4.919 -17.080  -0.103  1.00  0.00     0.167 HD
ATOM     52  C   UNL     1      -1.500 -19.372   1.407  1.00  0.00     0.037 A 
ATOM     53  C   UNL     1      -6.959 -16.496  -1.913  1.00  0.00     0.037 A 
ATOM     54  C   UNL     1      -1.996 -20.128   0.287  1.00  0.00     0.049 A 
ATOM     55  C   UNL     1      -6.335 -17.783  -2.378  1.00  0.00     0.074 A 
ATOM     56  C   UNL     1      -1.553 -21.345  -0.200  1.00  0.00     0.029 A 
ATOM     57  N   UNL     1      -3.050 -19.733  -0.525  1.00  0.00    -0.354 N 
ATOM     58  N   UNL     1      -5.338 -18.455  -1.857  1.00  0.00    -0.248 NA
ATOM     59  C   UNL     1      -6.908 -18.397  -3.584  1.00  0.00     0.031 C 
ATOM     60  C   UNL     1      -2.313 -21.667  -1.330  1.00  0.00     0.029 A 
ATOM     61  C   UNL     1      -3.259 -20.673  -1.520  1.00  0.00     0.049 A 
ATOM     62  H   UNL     1      -3.572 -18.906  -0.410  1.00  0.00     0.167 HD
ATOM     63  C   UNL     1      -5.180 -19.582  -2.651  1.00  0.00     0.074 A 
ATOM     64  C   UNL     1      -6.194 -19.509  -3.683  1.00  0.00     0.031 C 
ATOM     65  C   UNL     1      -4.278 -20.587  -2.536  1.00  0.00     0.037 A 
BRANCH  52  66
ATOM     66  C   UNL     1      -0.308 -19.899   2.152  1.00  0.00     0.064 A 
ATOM     67  C   UNL     1      -0.421 -20.410   3.454  1.00  0.00     0.173 A 
ATOM     68  C   UNL     1       0.960 -19.918   1.549  1.00  0.00     0.173 A 
ATOM     69  F   UNL     1      -1.608 -20.404   4.080  1.00  0.00    -0.203 F 
ATOM     70  C   UNL     1       0.694 -20.888   4.137  1.00  0.00     0.198 A 
ATOM     71  C   UNL     1       2.067 -20.424   2.224  1.00  0.00     0.198 A 
ATOM     72  F   UNL     1       1.123 -19.447   0.304  1.00  0.00    -0.203 F 
ATOM     73  F   UNL     1       0.569 -21.321   5.400  1.00  0.00    -0.200 F 
ATOM     74  C   UNL     1       1.935 -20.900   3.521  1.00  0.00     0.200 A 
ATOM     75  F   UNL     1       3.264 -20.447   1.623  1.00  0.00    -0.200 F 
ATOM     76  F   UNL     1       3.007 -21.364   4.178  1.00  0.00    -0.200 F 
ENDBRANCH  52  66
BRANCH  53  77
ATOM     77  C   UNL     1      -8.111 -15.900  -2.637  1.00  0.00     0.064 A 
ATOM     78  C   UNL     1      -9.371 -16.514  -2.606  1.00  0.00     0.173 A 
ATOM     79  C   UNL     1      -7.983 -14.708  -3.364  1.00  0.00     0.173 A 
ATOM     80  F   UNL     1      -9.537 -17.666  -1.939  1.00  0.00    -0.203 F 
ATOM     81  C   UNL     1     -10.455 -15.967  -3.288  1.00  0.00     0.198 A 
ATOM     82  C   UNL     1      -9.074 -14.148  -4.025  1.00  0.00     0.198 A 
ATOM     83  F   UNL     1      -6.800 -14.079  -3.419  1.00  0.00    -0.203 F 
ATOM     84  F   UNL     1     -11.639 -16.595  -3.274  1.00  0.00    -0.200 F 
ATOM     85  C   UNL     1     -10.307 -14.782  -3.992  1.00  0.00     0.200 A 
ATOM     86  F   UNL     1      -8.931 -12.995  -4.692  1.00  0.00    -0.200 F 
ATOM     87  F   UNL     1     -11.352 -14.252  -4.643  1.00  0.00    -0.200 F 
ENDBRANCH  53  77
BRANCH  65  88
ATOM     88  C   UNL     1      -4.367 -21.705  -3.532  1.00  0.00     0.064 A 
ATOM     89  C   UNL     1      -3.969 -21.535  -4.866  1.00  0.00     0.173 A 
ATOM     90  C   UNL     1      -4.821 -22.972  -3.136  1.00  0.00     0.173 A 
ATOM     91  F   UNL     1      -3.543 -20.337  -5.295  1.00  0.00    -0.203 F 
ATOM     92  C   UNL     1      -4.045 -22.587  -5.774  1.00  0.00     0.198 A 
ATOM     93  C   UNL     1      -4.869 -24.030  -4.040  1.00  0.00     0.198 A 
ATOM     94  F   UNL     1      -5.208 -23.187  -1.870  1.00  0.00    -0.203 F 
ATOM     95  F   UNL     1      -3.703 -22.390  -7.055  1.00  0.00    -0.200 F 
ATOM     96  C   UNL     1      -4.488 -23.835  -5.359  1.00  0.00     0.200 A 
ATOM     97  F   UNL     1      -5.286 -25.237  -3.635  1.00  0.00    -0.200 F 
ATOM     98  F   UNL     1      -4.554 -24.848  -6.233  1.00  0.00    -0.200 F 
ENDBRANCH  65  88
ENDBRANCH  39  40
ENDBRANCH  31  34
ENDBRANCH  29  30
ENDBRANCH  28  29
ENDBRANCH  27  28
ENDBRANCH   1  27
TORSDOF 17
