REMARK SMILES C[C@H](Sc1ccc(N)c(Cl)c1)C(=O)NCCCCCCNC(=O)c1ccc(-c2c3nc(c(-c4c(F)c(F)c(F)c(F)c4F)c4ccc([nH]4)c(-c4c(F)c(F)c(F)c(F)c4F)c4nc(c(-c5c(F)c(F)c(F)c(F)c5F)c5ccc2[nH]5)C=C4)C=C3)cc1
REMARK SMILES IDX 17 1 16 2 15 3 14 4 12 5 13 6 2 8 1 9 3 10 4 11 5 12 11 13
REMARK SMILES IDX 6 14 9 15 7 16 10 17 8 18 18 21 19 22 20 23 21 24 22 25
REMARK SMILES IDX 23 27 24 28 25 29 86 30 26 31 85 32 27 33 28 34 29 35 79 36
REMARK SMILES IDX 30 37 84 38 78 39 80 40 31 41 83 42 77 43 76 44 32 46 64 47
REMARK SMILES IDX 44 48 63 49 45 50 48 51 62 52 81 53 46 54 47 55 61 57 82 58
REMARK SMILES IDX 49 59 33 60 34 61 42 62 35 63 36 64 40 65 43 66 37 67 38 68
REMARK SMILES IDX 41 69 39 70 65 71 66 72 74 73 67 74 68 75 72 76 75 77 69 78
REMARK SMILES IDX 70 79 73 80 71 81 50 82 51 83 59 84 52 85 53 86 57 87 60 88
REMARK SMILES IDX 54 89 55 90 58 91 56 92
REMARK H PARENT 14 7 8 19 8 20 21 26 80 45 48 56
REMARK Flexibility Score: inf
ROOT
ATOM      1  C   UNL     1      -3.215   2.411  -1.497  1.00  0.00     0.002 C 
ENDROOT
BRANCH   1   2
ATOM      2  C   UNL     1      -1.730   2.113  -1.263  1.00  0.00     0.021 C 
BRANCH   2   3
ATOM      3  C   UNL     1      -1.349   2.131   0.215  1.00  0.00     0.116 C 
BRANCH   3   4
ATOM      4  N   UNL     1      -1.591   0.850   0.827  1.00  0.00    -0.355 N 
ATOM      5  C   UNL     1      -0.706  -0.095   1.247  1.00  0.00     0.233 C 
ATOM      6  O   UNL     1      -1.190  -1.170   1.619  1.00  0.00    -0.274 OA
ATOM      7  H   UNL     1      -2.539   0.624   0.963  1.00  0.00     0.163 HD
BRANCH   5   8
ATOM      8  C   UNL     1       0.800   0.164   1.376  1.00  0.00     0.137 C 
ATOM      9  C   UNL     1       1.145   1.166   2.463  1.00  0.00     0.030 C 
BRANCH   8  10
ATOM     10  S   UNL     1       1.718   0.169  -0.230  1.00  0.00    -0.113 SA
BRANCH  10  11
ATOM     11  C   UNL     1       1.934   1.826  -0.862  1.00  0.00     0.010 A 
ATOM     12  C   UNL     1       2.029   3.000  -0.116  1.00  0.00     0.017 A 
ATOM     13  C   UNL     1       2.051   1.936  -2.256  1.00  0.00     0.037 A 
ATOM     14  C   UNL     1       2.103   4.256  -0.738  1.00  0.00     0.028 A 
ATOM     15  C   UNL     1       2.173   3.186  -2.877  1.00  0.00     0.065 A 
ATOM     16  C   UNL     1       2.192   4.370  -2.125  1.00  0.00     0.050 A 
ATOM     17  Cl  UNL     1       2.301   3.241  -4.602  1.00  0.00    -0.082 Cl
BRANCH  16  18
ATOM     18  N   UNL     1       2.156   5.630  -2.715  1.00  0.00    -0.398 N 
ATOM     19  H   UNL     1       2.171   6.437  -2.152  1.00  0.00     0.156 HD
ATOM     20  H   UNL     1       2.115   5.713  -3.695  1.00  0.00     0.156 HD
ENDBRANCH  16  18
ENDBRANCH  10  11
ENDBRANCH   8  10
ENDBRANCH   5   8
ENDBRANCH   3   4
ENDBRANCH   2   3
ENDBRANCH   1   2
BRANCH   1  21
ATOM     21  C   UNL     1      -3.670   3.793  -1.010  1.00  0.00     0.002 C 
BRANCH  21  22
ATOM     22  C   UNL     1      -2.864   4.969  -1.569  1.00  0.00     0.021 C 
BRANCH  22  23
ATOM     23  C   UNL     1      -2.903   5.080  -3.088  1.00  0.00     0.116 C 
BRANCH  23  24
ATOM     24  N   UNL     1      -4.258   5.299  -3.573  1.00  0.00    -0.352 N 
ATOM     25  C   UNL     1      -4.750   6.323  -4.343  1.00  0.00     0.251 C 
ATOM     26  H   UNL     1      -4.916   4.615  -3.311  1.00  0.00     0.163 HD
ATOM     27  O   UNL     1      -5.957   6.487  -4.467  1.00  0.00    -0.269 OA
BRANCH  25  28
ATOM     28  C   UNL     1      -3.806   7.236  -5.017  1.00  0.00     0.039 A 
ATOM     29  C   UNL     1      -4.043   8.611  -4.979  1.00  0.00     0.014 A 
ATOM     30  C   UNL     1      -2.689   6.728  -5.687  1.00  0.00     0.014 A 
ATOM     31  C   UNL     1      -3.126   9.484  -5.567  1.00  0.00     0.010 A 
ATOM     32  C   UNL     1      -1.740   7.600  -6.203  1.00  0.00     0.010 A 
ATOM     33  C   UNL     1      -1.952   8.987  -6.156  1.00  0.00    -0.014 A 
BRANCH  33  34
ATOM     34  C   UNL     1      -0.937   9.891  -6.750  1.00  0.00     0.031 A 
ATOM     35  C   UNL     1      -0.637   9.808  -8.222  1.00  0.00     0.074 A 
ATOM     36  C   UNL     1      -0.235  10.725  -5.958  1.00  0.00     0.049 A 
ATOM     37  N   UNL     1       0.291  10.418  -8.914  1.00  0.00    -0.248 NA
ATOM     38  C   UNL     1      -1.474   8.894  -9.018  1.00  0.00     0.031 C 
ATOM     39  C   UNL     1      -0.412  10.870  -4.512  1.00  0.00     0.029 A 
ATOM     40  N   UNL     1       0.785  11.595  -6.255  1.00  0.00    -0.354 N 
ATOM     41  C   UNL     1       0.164   9.946 -10.214  1.00  0.00     0.074 A 
ATOM     42  C   UNL     1      -0.898   8.965 -10.210  1.00  0.00     0.031 C 
ATOM     43  C   UNL     1       0.457  11.785  -4.052  1.00  0.00     0.029 A 
ATOM     44  C   UNL     1       1.285  12.254  -5.158  1.00  0.00     0.049 A 
ATOM     45  H   UNL     1       1.125  11.735  -7.169  1.00  0.00     0.167 HD
ATOM     46  C   UNL     1       0.860  10.314 -11.315  1.00  0.00     0.037 A 
ATOM     47  C   UNL     1       2.310  13.123  -5.056  1.00  0.00     0.037 A 
ATOM     48  C   UNL     1       1.890  11.318 -11.319  1.00  0.00     0.049 A 
ATOM     49  C   UNL     1       3.076  13.500  -6.299  1.00  0.00     0.074 A 
ATOM     50  C   UNL     1       2.607  11.809 -12.396  1.00  0.00     0.029 A 
ATOM     51  N   UNL     1       2.351  11.981 -10.193  1.00  0.00    -0.354 N 
ATOM     52  N   UNL     1       2.900  13.099  -7.535  1.00  0.00    -0.248 NA
ATOM     53  C   UNL     1       4.181  14.454  -6.134  1.00  0.00     0.031 C 
ATOM     54  C   UNL     1       3.544  12.727 -11.913  1.00  0.00     0.029 A 
ATOM     55  C   UNL     1       3.363  12.859 -10.546  1.00  0.00     0.049 A 
ATOM     56  H   UNL     1       2.011  11.848  -9.279  1.00  0.00     0.167 HD
ATOM     57  C   UNL     1       3.837  13.785  -8.296  1.00  0.00     0.074 A 
ATOM     58  C   UNL     1       4.575  14.633  -7.386  1.00  0.00     0.031 C 
ATOM     59  C   UNL     1       4.065  13.720  -9.630  1.00  0.00     0.037 A 
BRANCH  46  60
ATOM     60  C   UNL     1       0.536   9.637 -12.615  1.00  0.00     0.064 A 
ATOM     61  C   UNL     1      -0.668   9.878 -13.293  1.00  0.00     0.173 A 
ATOM     62  C   UNL     1       1.478   8.796 -13.228  1.00  0.00     0.173 A 
ATOM     63  F   UNL     1      -1.606  10.665 -12.746  1.00  0.00    -0.203 F 
ATOM     64  C   UNL     1      -0.922   9.292 -14.530  1.00  0.00     0.198 A 
ATOM     65  C   UNL     1       1.233   8.238 -14.479  1.00  0.00     0.198 A 
ATOM     66  F   UNL     1       2.647   8.537 -12.624  1.00  0.00    -0.203 F 
ATOM     67  F   UNL     1      -2.093   9.510 -15.145  1.00  0.00    -0.200 F 
ATOM     68  C   UNL     1       0.033   8.483 -15.128  1.00  0.00     0.200 A 
ATOM     69  F   UNL     1       2.164   7.470 -15.062  1.00  0.00    -0.200 F 
ATOM     70  F   UNL     1      -0.205   7.938 -16.329  1.00  0.00    -0.200 F 
ENDBRANCH  46  60
BRANCH  47  71
ATOM     71  C   UNL     1       2.683  13.701  -3.737  1.00  0.00     0.064 A 
ATOM     72  C   UNL     1       2.549  15.075  -3.487  1.00  0.00     0.173 A 
ATOM     73  C   UNL     1       3.227  12.906  -2.717  1.00  0.00     0.173 A 
ATOM     74  F   UNL     1       2.052  15.882  -4.436  1.00  0.00    -0.203 F 
ATOM     75  C   UNL     1       2.985  15.637  -2.289  1.00  0.00     0.198 A 
ATOM     76  C   UNL     1       3.628  13.464  -1.504  1.00  0.00     0.198 A 
ATOM     77  F   UNL     1       3.369  11.585  -2.896  1.00  0.00    -0.203 F 
ATOM     78  F   UNL     1       2.913  16.963  -2.108  1.00  0.00    -0.200 F 
ATOM     79  C   UNL     1       3.522  14.831  -1.298  1.00  0.00     0.200 A 
ATOM     80  F   UNL     1       4.130  12.678  -0.542  1.00  0.00    -0.200 F 
ATOM     81  F   UNL     1       3.950  15.372  -0.149  1.00  0.00    -0.200 F 
ENDBRANCH  47  71
BRANCH  59  82
ATOM     82  C   UNL     1       5.106  14.637 -10.205  1.00  0.00     0.064 A 
ATOM     83  C   UNL     1       6.475  14.444  -9.973  1.00  0.00     0.173 A 
ATOM     84  C   UNL     1       4.725  15.689 -11.053  1.00  0.00     0.173 A 
ATOM     85  F   UNL     1       6.891  13.462  -9.159  1.00  0.00    -0.203 F 
ATOM     86  C   UNL     1       7.423  15.286 -10.549  1.00  0.00     0.198 A 
ATOM     87  C   UNL     1       5.677  16.505 -11.656  1.00  0.00     0.198 A 
ATOM     88  F   UNL     1       3.428  15.911 -11.315  1.00  0.00    -0.203 F 
ATOM     89  F   UNL     1       8.724  15.112 -10.276  1.00  0.00    -0.200 F 
ATOM     90  C   UNL     1       7.024  16.308 -11.398  1.00  0.00     0.200 A 
ATOM     91  F   UNL     1       5.290  17.480 -12.490  1.00  0.00    -0.200 F 
ATOM     92  F   UNL     1       7.940  17.106 -11.965  1.00  0.00    -0.200 F 
ENDBRANCH  59  82
ENDBRANCH  33  34
ENDBRANCH  25  28
ENDBRANCH  23  24
ENDBRANCH  22  23
ENDBRANCH  21  22
ENDBRANCH   1  21
TORSDOF 16
