REMARK SMILES O=C(NCCCCCCNC(=O)c1ccsc1NC(=O)c1cc2c(F)cccc2s1)c1ccc(-c2c3nc(c(-c4c(F)c(F)c(F)c(F)c4F)c4ccc([nH]4)c(-c4c(F)c(F)c(F)c(F)c4F)c4nc(c(-c5c(F)c(F)c(F)c(F)c5F)c5ccc2[nH]5)C=C4)C=C3)cc1
REMARK SMILES IDX 6 1 5 2 4 3 3 4 1 5 2 6 31 8 32 9 93 10 33 11 92 12 34 13
REMARK SMILES IDX 35 14 36 15 86 16 37 17 91 18 85 19 87 20 38 21 90 22 84 23
REMARK SMILES IDX 83 24 39 26 71 27 51 28 70 29 52 30 55 31 69 32 88 33 53 34
REMARK SMILES IDX 54 35 68 37 89 38 56 39 40 40 41 41 49 42 42 43 43 44 47 45
REMARK SMILES IDX 50 46 44 47 45 48 48 49 46 50 72 51 73 52 81 53 74 54 75 55
REMARK SMILES IDX 79 56 82 57 76 58 77 59 80 60 78 61 57 62 58 63 66 64 59 65
REMARK SMILES IDX 60 66 64 67 67 68 61 69 62 70 65 71 63 72 7 73 8 74 9 75
REMARK SMILES IDX 10 76 11 77 12 79 13 80 14 81 17 82 15 83 16 84 18 85 19 86
REMARK SMILES IDX 20 88 21 89 22 90 30 91 23 92 29 93 24 94 28 95 25 96 26 97
REMARK SMILES IDX 27 98
REMARK H PARENT 3 7 87 25 55 36 10 78 18 87
REMARK Flexibility Score: inf
ROOT
ATOM      1  C   UNL     1       4.209  -2.116   3.033  1.00  0.00     0.002 C 
ENDROOT
BRANCH   1   2
ATOM      2  C   UNL     1       4.760  -0.966   2.184  1.00  0.00     0.021 C 
BRANCH   2   3
ATOM      3  C   UNL     1       4.627  -1.175   0.675  1.00  0.00     0.116 C 
BRANCH   3   4
ATOM      4  N   UNL     1       3.264  -1.176   0.183  1.00  0.00    -0.352 N 
ATOM      5  O   UNL     1       1.276  -0.529  -0.574  1.00  0.00    -0.269 OA
ATOM      6  C   UNL     1       2.336  -0.195  -0.043  1.00  0.00     0.251 C 
ATOM      7  H   UNL     1       2.934  -2.077  -0.036  1.00  0.00     0.163 HD
BRANCH   6   8
ATOM      8  C   UNL     1       2.504   1.218   0.386  1.00  0.00     0.039 A 
ATOM      9  C   UNL     1       3.731   1.839   0.604  1.00  0.00     0.014 A 
ATOM     10  C   UNL     1       1.324   1.960   0.582  1.00  0.00     0.014 A 
ATOM     11  C   UNL     1       3.783   3.124   1.123  1.00  0.00     0.010 A 
ATOM     12  C   UNL     1       1.369   3.267   1.061  1.00  0.00     0.010 A 
ATOM     13  C   UNL     1       2.603   3.833   1.364  1.00  0.00    -0.014 A 
BRANCH  13  14
ATOM     14  C   UNL     1       2.754   5.225   1.770  1.00  0.00     0.031 A 
ATOM     15  C   UNL     1       3.429   6.094   0.764  1.00  0.00     0.074 A 
ATOM     16  C   UNL     1       2.271   5.744   2.914  1.00  0.00     0.049 A 
ATOM     17  N   UNL     1       4.528   6.765   0.890  1.00  0.00    -0.248 NA
ATOM     18  C   UNL     1       2.844   6.144  -0.585  1.00  0.00     0.031 C 
ATOM     19  C   UNL     1       1.348   5.128   3.867  1.00  0.00     0.029 A 
ATOM     20  N   UNL     1       2.453   6.999   3.417  1.00  0.00    -0.354 N 
ATOM     21  C   UNL     1       4.698   7.449  -0.312  1.00  0.00     0.074 A 
ATOM     22  C   UNL     1       3.703   6.941  -1.220  1.00  0.00     0.031 C 
ATOM     23  C   UNL     1       0.893   6.077   4.717  1.00  0.00     0.029 A 
ATOM     24  C   UNL     1       1.589   7.325   4.450  1.00  0.00     0.049 A 
ATOM     25  H   UNL     1       3.138   7.619   3.076  1.00  0.00     0.167 HD
ATOM     26  C   UNL     1       5.517   8.532  -0.410  1.00  0.00     0.037 A 
ATOM     27  C   UNL     1       1.412   8.555   4.990  1.00  0.00     0.037 A 
ATOM     28  C   UNL     1       6.504   8.546   0.635  1.00  0.00     0.049 A 
ATOM     29  C   UNL     1       2.615   9.364   4.677  1.00  0.00     0.074 A 
ATOM     30  C   UNL     1       7.536   7.712   1.016  1.00  0.00     0.029 A 
ATOM     31  N   UNL     1       6.325   9.413   1.682  1.00  0.00    -0.354 N 
ATOM     32  N   UNL     1       3.798   9.159   5.184  1.00  0.00    -0.248 NA
ATOM     33  C   UNL     1       2.579  10.221   3.501  1.00  0.00     0.031 C 
ATOM     34  C   UNL     1       7.599   7.819   2.437  1.00  0.00     0.029 A 
ATOM     35  C   UNL     1       6.619   8.731   2.831  1.00  0.00     0.049 A 
ATOM     36  H   UNL     1       6.038  10.352   1.618  1.00  0.00     0.167 HD
ATOM     37  C   UNL     1       4.678   9.504   4.171  1.00  0.00     0.074 A 
ATOM     38  C   UNL     1       3.882  10.266   3.217  1.00  0.00     0.031 C 
ATOM     39  C   UNL     1       5.898   8.903   4.069  1.00  0.00     0.037 A 
BRANCH  26  40
ATOM     40  C   UNL     1       5.190   9.762  -1.226  1.00  0.00     0.064 A 
ATOM     41  C   UNL     1       6.144  10.797  -1.325  1.00  0.00     0.173 A 
ATOM     42  C   UNL     1       3.883  10.102  -1.639  1.00  0.00     0.173 A 
ATOM     43  F   UNL     1       7.415  10.595  -0.944  1.00  0.00    -0.203 F 
ATOM     44  C   UNL     1       5.793  12.091  -1.717  1.00  0.00     0.198 A 
ATOM     45  C   UNL     1       3.549  11.381  -2.082  1.00  0.00     0.198 A 
ATOM     46  F   UNL     1       2.855   9.254  -1.526  1.00  0.00    -0.203 F 
ATOM     47  F   UNL     1       6.703  13.073  -1.662  1.00  0.00    -0.200 F 
ATOM     48  C   UNL     1       4.494  12.384  -2.087  1.00  0.00     0.200 A 
ATOM     49  F   UNL     1       2.280  11.649  -2.419  1.00  0.00    -0.200 F 
ATOM     50  F   UNL     1       4.139  13.638  -2.397  1.00  0.00    -0.200 F 
ENDBRANCH  26  40
BRANCH  27  51
ATOM     51  C   UNL     1       0.161   9.172   5.492  1.00  0.00     0.064 A 
ATOM     52  C   UNL     1       0.195  10.356   6.248  1.00  0.00     0.173 A 
ATOM     53  C   UNL     1      -1.099   8.784   4.996  1.00  0.00     0.173 A 
ATOM     54  F   UNL     1       1.360  10.820   6.723  1.00  0.00    -0.203 F 
ATOM     55  C   UNL     1      -0.954  11.124   6.461  1.00  0.00     0.198 A 
ATOM     56  C   UNL     1      -2.247   9.545   5.219  1.00  0.00     0.198 A 
ATOM     57  F   UNL     1      -1.228   7.713   4.200  1.00  0.00    -0.203 F 
ATOM     58  F   UNL     1      -0.867  12.287   7.122  1.00  0.00    -0.200 F 
ATOM     59  C   UNL     1      -2.171  10.724   5.936  1.00  0.00     0.200 A 
ATOM     60  F   UNL     1      -3.412   9.164   4.676  1.00  0.00    -0.200 F 
ATOM     61  F   UNL     1      -3.259  11.494   6.081  1.00  0.00    -0.200 F 
ENDBRANCH  27  51
BRANCH  39  62
ATOM     62  C   UNL     1       6.402   8.132   5.252  1.00  0.00     0.064 A 
ATOM     63  C   UNL     1       5.793   6.966   5.746  1.00  0.00     0.173 A 
ATOM     64  C   UNL     1       7.639   8.499   5.800  1.00  0.00     0.173 A 
ATOM     65  F   UNL     1       4.660   6.497   5.206  1.00  0.00    -0.203 F 
ATOM     66  C   UNL     1       6.384   6.223   6.766  1.00  0.00     0.198 A 
ATOM     67  C   UNL     1       8.244   7.735   6.793  1.00  0.00     0.198 A 
ATOM     68  F   UNL     1       8.292   9.573   5.327  1.00  0.00    -0.203 F 
ATOM     69  F   UNL     1       5.785   5.113   7.223  1.00  0.00    -0.200 F 
ATOM     70  C   UNL     1       7.613   6.602   7.280  1.00  0.00     0.200 A 
ATOM     71  F   UNL     1       9.457   8.076   7.250  1.00  0.00    -0.200 F 
ATOM     72  F   UNL     1       8.207   5.856   8.223  1.00  0.00    -0.200 F 
ENDBRANCH  39  62
ENDBRANCH  13  14
ENDBRANCH   6   8
ENDBRANCH   3   4
ENDBRANCH   2   3
ENDBRANCH   1   2
BRANCH   1  73
ATOM     73  C   UNL     1       4.758  -3.506   2.692  1.00  0.00     0.002 C 
BRANCH  73  74
ATOM     74  C   UNL     1       6.284  -3.617   2.683  1.00  0.00     0.021 C 
BRANCH  74  75
ATOM     75  C   UNL     1       6.939  -3.318   4.028  1.00  0.00     0.116 C 
BRANCH  75  76
ATOM     76  N   UNL     1       6.651  -4.358   5.007  1.00  0.00    -0.352 N 
ATOM     77  C   UNL     1       7.519  -5.270   5.564  1.00  0.00     0.254 C 
ATOM     78  H   UNL     1       5.716  -4.416   5.309  1.00  0.00     0.163 HD
ATOM     79  O   UNL     1       7.093  -6.274   6.117  1.00  0.00    -0.269 OA
BRANCH  77  80
ATOM     80  C   UNL     1       8.939  -4.998   5.419  1.00  0.00     0.074 A 
ATOM     81  C   UNL     1       9.562  -3.726   5.706  1.00  0.00     0.028 A 
ATOM     82  C   UNL     1       9.876  -5.945   5.028  1.00  0.00     0.108 A 
ATOM     83  C   UNL     1      10.864  -3.677   5.284  1.00  0.00     0.068 A 
ATOM     84  S   UNL     1      11.317  -5.157   4.611  1.00  0.00    -0.126 S 
BRANCH  82  85
ATOM     85  N   UNL     1       9.676  -7.311   4.832  1.00  0.00    -0.312 N 
ATOM     86  C   UNL     1      10.545  -8.376   4.596  1.00  0.00     0.266 C 
ATOM     87  H   UNL     1       8.729  -7.578   4.866  1.00  0.00     0.171 HD
ATOM     88  O   UNL     1      10.047  -9.477   4.355  1.00  0.00    -0.268 OA
BRANCH  86  89
ATOM     89  C   UNL     1      11.969  -8.195   4.742  1.00  0.00     0.094 A 
ATOM     90  C   UNL     1      12.742  -8.239   5.887  1.00  0.00     0.037 A 
ATOM     91  S   UNL     1      12.959  -7.862   3.384  1.00  0.00    -0.130 S 
ATOM     92  C   UNL     1      13.884  -7.374   5.735  1.00  0.00     0.029 A 
ATOM     93  C   UNL     1      13.999  -6.931   4.412  1.00  0.00     0.038 A 
ATOM     94  C   UNL     1      14.720  -6.780   6.702  1.00  0.00     0.131 A 
ATOM     95  C   UNL     1      14.784  -5.815   4.069  1.00  0.00     0.020 A 
ATOM     96  F   UNL     1      14.699  -7.212   7.971  1.00  0.00    -0.206 F 
ATOM     97  C   UNL     1      15.450  -5.634   6.390  1.00  0.00     0.040 A 
ATOM     98  C   UNL     1      15.437  -5.127   5.095  1.00  0.00     0.005 A 
ENDBRANCH  86  89
ENDBRANCH  82  85
ENDBRANCH  77  80
ENDBRANCH  75  76
ENDBRANCH  74  75
ENDBRANCH  73  74
ENDBRANCH   1  73
TORSDOF 15
