REMARK SMILES CCCC(=O)N(c1cc2sc(=O)oc2c2ccccc12)S(=O)(=O)c1ccc(C(=O)NCCCCCCNC(=O)c2ccc(-c3c4nc(c(-c5c(F)c(F)c(F)c(F)c5F)c5ccc([nH]5)c(-c5c(F)c(F)c(F)c(F)c5F)c5nc(c(-c6c(F)c(F)c(F)c(F)c6F)c6ccc3[nH]6)C=C5)C=C4)cc2)cc1
REMARK SMILES IDX 32 1 31 2 30 3 28 4 29 5 27 7 24 8 25 9 104 10 26 11 103 12
REMARK SMILES IDX 21 13 22 14 23 15 6 16 4 17 5 18 3 19 2 20 1 21 7 22 8 23
REMARK SMILES IDX 20 24 9 25 15 26 19 27 10 28 14 29 16 30 18 31 11 32 13 33
REMARK SMILES IDX 17 34 12 35 33 36 34 37 35 38 36 39 37 40 38 41 39 43 40 44
REMARK SMILES IDX 41 45 102 46 42 47 101 48 43 49 44 50 45 51 95 52 46 53
REMARK SMILES IDX 100 54 94 55 96 56 47 57 99 58 93 59 92 60 48 62 80 63 60 64
REMARK SMILES IDX 79 65 61 66 64 67 78 68 97 69 62 70 63 71 77 73 98 74 65 75
REMARK SMILES IDX 49 76 50 77 58 78 51 79 52 80 56 81 59 82 53 83 54 84 57 85
REMARK SMILES IDX 55 86 81 87 82 88 90 89 83 90 84 91 88 92 91 93 85 94 86 95
REMARK SMILES IDX 89 96 87 97 66 98 67 99 75 100 68 101 69 102 73 103 76 104
REMARK SMILES IDX 70 105 71 106 74 107 72 108
REMARK H PARENT 30 6 37 42 96 61 64 72
REMARK Flexibility Score: inf
ROOT
ATOM      1  C   UNL     1       0.399   6.236  -4.942  1.00  0.00     0.021 C 
ENDROOT
BRANCH   1   2
ATOM      2  C   UNL     1       1.318   6.204  -3.733  1.00  0.00     0.116 C 
BRANCH   2   3
ATOM      3  N   UNL     1       1.446   7.455  -2.999  1.00  0.00    -0.352 N 
ATOM      4  C   UNL     1       1.473   7.729  -1.641  1.00  0.00     0.251 C 
ATOM      5  O   UNL     1       1.615   8.896  -1.277  1.00  0.00    -0.269 OA
ATOM      6  H   UNL     1       1.528   8.251  -3.572  1.00  0.00     0.163 HD
BRANCH   4   7
ATOM      7  C   UNL     1       1.270   6.671  -0.607  1.00  0.00     0.039 A 
ATOM      8  C   UNL     1       0.499   4.619   1.173  1.00  0.00     0.088 A 
ATOM      9  C   UNL     1       0.400   5.963   1.562  1.00  0.00     0.023 A 
ATOM     10  C   UNL     1       0.981   4.345  -0.092  1.00  0.00     0.023 A 
ATOM     11  C   UNL     1       0.730   6.986   0.649  1.00  0.00     0.015 A 
ATOM     12  C   UNL     1       1.539   5.342  -0.876  1.00  0.00     0.015 A 
BRANCH   8  13
ATOM     13  S   UNL     1       0.002   3.328   2.320  1.00  0.00     0.270 S 
ATOM     14  O   UNL     1      -1.423   3.224   2.149  1.00  0.00    -0.201 OA
ATOM     15  O   UNL     1       0.592   3.740   3.590  1.00  0.00    -0.201 OA
BRANCH  13  16
ATOM     16  N   UNL     1       0.711   1.812   1.967  1.00  0.00    -0.202 N 
BRANCH  16  17
ATOM     17  C   UNL     1       0.429   0.695   2.819  1.00  0.00     0.241 C 
ATOM     18  O   UNL     1      -0.580   0.652   3.516  1.00  0.00    -0.273 OA
BRANCH  17  19
ATOM     19  C   UNL     1       1.435  -0.452   2.895  1.00  0.00     0.101 C 
BRANCH  19  20
ATOM     20  C   UNL     1       1.116  -1.627   1.971  1.00  0.00     0.006 C 
ATOM     21  C   UNL     1       2.291  -1.999   1.072  1.00  0.00     0.004 C 
ENDBRANCH  19  20
ENDBRANCH  17  19
ENDBRANCH  16  17
BRANCH  16  22
ATOM     22  C   UNL     1       1.618   1.616   0.880  1.00  0.00     0.070 A 
ATOM     23  C   UNL     1       2.897   2.182   0.976  1.00  0.00     0.051 A 
ATOM     24  C   UNL     1       1.183   0.934  -0.313  1.00  0.00     0.010 A 
ATOM     25  C   UNL     1       3.697   2.172  -0.151  1.00  0.00     0.080 A 
ATOM     26  C   UNL     1       2.078   0.840  -1.411  1.00  0.00     0.028 A 
ATOM     27  C   UNL     1      -0.111   0.384  -0.486  1.00  0.00     0.011 A 
ATOM     28  S   UNL     1       5.173   3.081  -0.405  1.00  0.00    -0.052 S 
ATOM     29  C   UNL     1       3.296   1.528  -1.319  1.00  0.00     0.157 A 
ATOM     30  C   UNL     1       1.712   0.107  -2.559  1.00  0.00     0.013 A 
ATOM     31  C   UNL     1      -0.455  -0.348  -1.625  1.00  0.00     0.001 A 
ATOM     32  C   UNL     1       5.078   2.660  -2.118  1.00  0.00     0.396 A 
ATOM     33  O   UNL     1       4.105   1.716  -2.447  1.00  0.00    -0.413 OA
ATOM     34  C   UNL     1       0.466  -0.510  -2.650  1.00  0.00     0.001 A 
ATOM     35  O   UNL     1       5.788   3.197  -2.953  1.00  0.00    -0.233 OA
ENDBRANCH  16  22
ENDBRANCH  13  16
ENDBRANCH   8  13
ENDBRANCH   4   7
ENDBRANCH   2   3
ENDBRANCH   1   2
BRANCH   1  36
ATOM     36  C   UNL     1       0.871   7.047  -6.142  1.00  0.00     0.002 C 
BRANCH  36  37
ATOM     37  C   UNL     1       2.217   6.648  -6.761  1.00  0.00     0.002 C 
BRANCH  37  38
ATOM     38  C   UNL     1       2.441   5.154  -7.015  1.00  0.00     0.021 C 
BRANCH  38  39
ATOM     39  C   UNL     1       1.313   4.449  -7.765  1.00  0.00     0.116 C 
BRANCH  39  40
ATOM     40  N   UNL     1       1.338   4.655  -9.205  1.00  0.00    -0.352 N 
ATOM     41  C   UNL     1       2.023   3.958 -10.173  1.00  0.00     0.251 C 
ATOM     42  H   UNL     1       0.785   5.400  -9.534  1.00  0.00     0.163 HD
ATOM     43  O   UNL     1       1.969   4.287 -11.352  1.00  0.00    -0.269 OA
BRANCH  41  44
ATOM     44  C   UNL     1       2.884   2.839  -9.756  1.00  0.00     0.039 A 
ATOM     45  C   UNL     1       2.346   1.773  -9.032  1.00  0.00     0.014 A 
ATOM     46  C   UNL     1       4.256   2.925 -10.004  1.00  0.00     0.014 A 
ATOM     47  C   UNL     1       3.202   0.895  -8.387  1.00  0.00     0.010 A 
ATOM     48  C   UNL     1       5.111   2.007  -9.405  1.00  0.00     0.010 A 
ATOM     49  C   UNL     1       4.585   1.034  -8.545  1.00  0.00    -0.014 A 
BRANCH  49  50
ATOM     50  C   UNL     1       5.426   0.097  -7.793  1.00  0.00     0.031 A 
ATOM     51  C   UNL     1       6.136  -0.888  -8.657  1.00  0.00     0.074 A 
ATOM     52  C   UNL     1       5.997   0.463  -6.626  1.00  0.00     0.049 A 
ATOM     53  N   UNL     1       7.265  -0.623  -9.244  1.00  0.00    -0.248 NA
ATOM     54  C   UNL     1       5.481  -2.101  -9.145  1.00  0.00     0.031 C 
ATOM     55  C   UNL     1       6.473   1.820  -6.331  1.00  0.00     0.029 A 
ATOM     56  N   UNL     1       6.477  -0.304  -5.588  1.00  0.00    -0.354 N 
ATOM     57  C   UNL     1       7.435  -1.570 -10.236  1.00  0.00     0.074 A 
ATOM     58  C   UNL     1       6.322  -2.486 -10.117  1.00  0.00     0.031 C 
ATOM     59  C   UNL     1       7.329   1.758  -5.293  1.00  0.00     0.029 A 
ATOM     60  C   UNL     1       7.345   0.401  -4.758  1.00  0.00     0.049 A 
ATOM     61  H   UNL     1       6.233  -1.247  -5.448  1.00  0.00     0.167 HD
ATOM     62  C   UNL     1       8.459  -1.523 -11.126  1.00  0.00     0.037 A 
ATOM     63  C   UNL     1       8.389  -0.152  -4.085  1.00  0.00     0.037 A 
ATOM     64  C   UNL     1       9.357  -0.420 -10.979  1.00  0.00     0.049 A 
ATOM     65  C   UNL     1       9.366  -0.366  -5.213  1.00  0.00     0.074 A 
ATOM     66  C   UNL     1       9.506   0.828 -11.542  1.00  0.00     0.029 A 
ATOM     67  N   UNL     1      10.312  -0.488  -9.993  1.00  0.00    -0.354 N 
ATOM     68  N   UNL     1      10.118   0.559  -5.750  1.00  0.00    -0.248 NA
ATOM     69  C   UNL     1       9.229  -1.580  -6.021  1.00  0.00     0.031 C 
ATOM     70  C   UNL     1      10.237   1.594 -10.583  1.00  0.00     0.029 A 
ATOM     71  C   UNL     1      10.444   0.774  -9.474  1.00  0.00     0.049 A 
ATOM     72  H   UNL     1      10.808  -1.292  -9.712  1.00  0.00     0.167 HD
ATOM     73  C   UNL     1      10.297   0.162  -7.077  1.00  0.00     0.074 A 
ATOM     74  C   UNL     1       9.780  -1.186  -7.163  1.00  0.00     0.031 C 
ATOM     75  C   UNL     1      10.655   1.026  -8.069  1.00  0.00     0.037 A 
BRANCH  62  76
ATOM     76  C   UNL     1       8.752  -2.550 -12.138  1.00  0.00     0.064 A 
ATOM     77  C   UNL     1       9.815  -3.429 -11.890  1.00  0.00     0.173 A 
ATOM     78  C   UNL     1       8.178  -2.540 -13.412  1.00  0.00     0.173 A 
ATOM     79  F   UNL     1      10.393  -3.453 -10.678  1.00  0.00    -0.203 F 
ATOM     80  C   UNL     1      10.322  -4.241 -12.896  1.00  0.00     0.198 A 
ATOM     81  C   UNL     1       8.685  -3.361 -14.419  1.00  0.00     0.198 A 
ATOM     82  F   UNL     1       7.168  -1.705 -13.695  1.00  0.00    -0.203 F 
ATOM     83  F   UNL     1      11.371  -5.035 -12.644  1.00  0.00    -0.200 F 
ATOM     84  C   UNL     1       9.765  -4.198 -14.164  1.00  0.00     0.200 A 
ATOM     85  F   UNL     1       8.151  -3.320 -15.648  1.00  0.00    -0.200 F 
ATOM     86  F   UNL     1      10.278  -4.953 -15.145  1.00  0.00    -0.200 F 
ENDBRANCH  62  76
BRANCH  63  87
ATOM     87  C   UNL     1       8.001  -1.176  -3.067  1.00  0.00     0.064 A 
ATOM     88  C   UNL     1       7.047  -0.799  -2.095  1.00  0.00     0.173 A 
ATOM     89  C   UNL     1       8.470  -2.490  -2.977  1.00  0.00     0.173 A 
ATOM     90  F   UNL     1       6.644   0.475  -2.012  1.00  0.00    -0.203 F 
ATOM     91  C   UNL     1       6.487  -1.708  -1.200  1.00  0.00     0.198 A 
ATOM     92  C   UNL     1       7.902  -3.410  -2.088  1.00  0.00     0.198 A 
ATOM     93  F   UNL     1       9.474  -2.921  -3.750  1.00  0.00    -0.203 F 
ATOM     94  F   UNL     1       5.538  -1.303  -0.344  1.00  0.00    -0.200 F 
ATOM     95  C   UNL     1       6.895  -3.026  -1.219  1.00  0.00     0.200 A 
ATOM     96  F   UNL     1       8.320  -4.684  -2.098  1.00  0.00    -0.200 F 
ATOM     97  F   UNL     1       6.324  -3.920  -0.401  1.00  0.00    -0.200 F 
ENDBRANCH  63  87
BRANCH  75  98
ATOM     98  C   UNL     1      11.012   2.398  -7.617  1.00  0.00     0.064 A 
ATOM     99  C   UNL     1      12.240   2.638  -6.991  1.00  0.00     0.173 A 
ATOM    100  C   UNL     1      10.151   3.486  -7.830  1.00  0.00     0.173 A 
ATOM    101  F   UNL     1      13.097   1.628  -6.773  1.00  0.00    -0.203 F 
ATOM    102  C   UNL     1      12.605   3.926  -6.613  1.00  0.00     0.198 A 
ATOM    103  C   UNL     1      10.529   4.775  -7.472  1.00  0.00     0.198 A 
ATOM    104  F   UNL     1       8.952   3.310  -8.409  1.00  0.00    -0.203 F 
ATOM    105  F   UNL     1      13.789   4.139  -6.023  1.00  0.00    -0.200 F 
ATOM    106  C   UNL     1      11.756   4.994  -6.865  1.00  0.00     0.200 A 
ATOM    107  F   UNL     1       9.716   5.808  -7.735  1.00  0.00    -0.200 F 
ATOM    108  F   UNL     1      12.127   6.239  -6.535  1.00  0.00    -0.200 F 
ENDBRANCH  75  98
ENDBRANCH  49  50
ENDBRANCH  41  44
ENDBRANCH  39  40
ENDBRANCH  38  39
ENDBRANCH  37  38
ENDBRANCH  36  37
ENDBRANCH   1  36
TORSDOF 19
