REMARK SMILES CCc1nc(COC)cc(N2CCCC[C@H]2C(=O)NCCCCCCNC(=O)c2ccc(-c3c4nc(c(-c5c(F)c(F)c(F)c(F)c5F)c5ccc([nH]5)c(-c5c(F)c(F)c(F)c(F)c5F)c5nc(c(-c6c(F)c(F)c(F)c(F)c6F)c6ccc3[nH]6)C=C5)C=C4)cc2)n1
REMARK SMILES IDX 22 1 21 2 20 3 19 4 17 5 18 6 16 8 11 9 12 10 13 11 15 12
REMARK SMILES IDX 14 13 10 14 3 15 4 16 92 17 5 18 9 19 2 20 1 21 6 22 7 23
REMARK SMILES IDX 8 24 23 25 24 26 25 27 26 28 27 29 28 31 29 32 30 33 91 34
REMARK SMILES IDX 31 35 90 36 32 37 33 38 34 39 84 40 35 41 89 42 83 43 85 44
REMARK SMILES IDX 36 45 88 46 82 47 81 48 37 50 69 51 49 52 68 53 50 54 53 55
REMARK SMILES IDX 67 56 86 57 51 58 52 59 66 61 87 62 54 63 38 64 39 65 47 66
REMARK SMILES IDX 40 67 41 68 45 69 48 70 42 71 43 72 46 73 44 74 70 75 71 76
REMARK SMILES IDX 79 77 72 78 73 79 77 80 80 81 74 82 75 83 78 84 76 85 55 86
REMARK SMILES IDX 56 87 64 88 57 89 58 90 62 91 65 92 59 93 60 94 63 95 61 96
REMARK H PARENT 19 7 26 30 85 49 53 60
REMARK Flexibility Score: inf
ROOT
ATOM      1  C   UNL     1      -0.363  -0.518  -9.286  1.00  0.00     0.002 C 
ENDROOT
BRANCH   1   2
ATOM      2  C   UNL     1       0.060   0.059  -7.935  1.00  0.00     0.021 C 
BRANCH   2   3
ATOM      3  C   UNL     1       0.605  -0.956  -6.938  1.00  0.00     0.116 C 
BRANCH   3   4
ATOM      4  N   UNL     1       1.888  -1.496  -7.328  1.00  0.00    -0.354 N 
ATOM      5  C   UNL     1       2.907  -2.017  -6.592  1.00  0.00     0.242 C 
ATOM      6  O   UNL     1       3.775  -2.605  -7.253  1.00  0.00    -0.273 OA
ATOM      7  H   UNL     1       2.053  -1.485  -8.298  1.00  0.00     0.163 HD
BRANCH   5   8
ATOM      8  C   UNL     1       3.103  -1.808  -5.066  1.00  0.00     0.173 C 
ATOM      9  N   UNL     1       1.904  -1.477  -4.279  1.00  0.00    -0.344 N 
ATOM     10  C   UNL     1       0.959  -2.543  -3.941  1.00  0.00     0.119 C 
ATOM     11  C   UNL     1       1.664  -3.755  -3.349  1.00  0.00     0.022 C 
ATOM     12  C   UNL     1       3.795  -3.036  -4.437  1.00  0.00     0.035 C 
ATOM     13  C   UNL     1       2.823  -4.197  -4.234  1.00  0.00     0.004 C 
BRANCH   9  14
ATOM     14  C   UNL     1       1.774  -0.235  -3.674  1.00  0.00     0.133 A 
ATOM     15  C   UNL     1       1.027   1.057  -1.914  1.00  0.00     0.130 A 
ATOM     16  N   UNL     1       1.320   2.218  -2.519  1.00  0.00    -0.235 NA
ATOM     17  N   UNL     1       1.184  -0.158  -2.473  1.00  0.00    -0.216 NA
ATOM     18  C   UNL     1       1.863   2.140  -3.747  1.00  0.00     0.072 A 
ATOM     19  C   UNL     1       2.160   0.924  -4.333  1.00  0.00     0.073 A 
BRANCH  15  20
ATOM     20  C   UNL     1       0.430   1.136  -0.535  1.00  0.00     0.074 C 
ATOM     21  C   UNL     1       0.943   0.045   0.394  1.00  0.00     0.012 C 
ENDBRANCH  15  20
BRANCH  18  22
ATOM     22  C   UNL     1       2.094   3.428  -4.510  1.00  0.00     0.216 C 
BRANCH  22  23
ATOM     23  O   UNL     1       0.918   4.236  -4.650  1.00  0.00    -0.378 OA
ATOM     24  C   UNL     1      -0.070   3.659  -5.490  1.00  0.00     0.195 C 
ENDBRANCH  22  23
ENDBRANCH  18  22
ENDBRANCH   9  14
ENDBRANCH   5   8
ENDBRANCH   3   4
ENDBRANCH   2   3
ENDBRANCH   1   2
BRANCH   1  25
ATOM     25  C   UNL     1      -1.316  -1.715  -9.236  1.00  0.00     0.002 C 
BRANCH  25  26
ATOM     26  C   UNL     1      -2.569  -1.551  -8.371  1.00  0.00     0.021 C 
BRANCH  26  27
ATOM     27  C   UNL     1      -3.404  -0.306  -8.642  1.00  0.00     0.116 C 
BRANCH  27  28
ATOM     28  N   UNL     1      -3.853  -0.213 -10.017  1.00  0.00    -0.352 N 
ATOM     29  C   UNL     1      -5.081   0.143 -10.512  1.00  0.00     0.251 C 
ATOM     30  H   UNL     1      -3.177  -0.440 -10.695  1.00  0.00     0.163 HD
ATOM     31  O   UNL     1      -5.304   0.051 -11.715  1.00  0.00    -0.269 OA
BRANCH  29  32
ATOM     32  C   UNL     1      -6.150   0.618  -9.604  1.00  0.00     0.039 A 
ATOM     33  C   UNL     1      -7.456   0.172  -9.830  1.00  0.00     0.014 A 
ATOM     34  C   UNL     1      -5.892   1.524  -8.571  1.00  0.00     0.014 A 
ATOM     35  C   UNL     1      -8.495   0.614  -9.009  1.00  0.00     0.010 A 
ATOM     36  C   UNL     1      -6.916   1.908  -7.708  1.00  0.00     0.010 A 
ATOM     37  C   UNL     1      -8.232   1.476  -7.933  1.00  0.00    -0.014 A 
BRANCH  37  38
ATOM     38  C   UNL     1      -9.334   1.974  -7.073  1.00  0.00     0.031 A 
ATOM     39  C   UNL     1      -9.694   3.435  -7.085  1.00  0.00     0.074 A 
ATOM     40  C   UNL     1      -9.992   1.122  -6.264  1.00  0.00     0.049 A 
ATOM     41  N   UNL     1     -10.609   4.070  -6.396  1.00  0.00    -0.248 NA
ATOM     42  C   UNL     1      -8.902   4.303  -7.969  1.00  0.00     0.031 C 
ATOM     43  C   UNL     1      -9.705  -0.306  -6.128  1.00  0.00     0.029 A 
ATOM     44  N   UNL     1     -11.037   1.336  -5.401  1.00  0.00    -0.354 N 
ATOM     45  C   UNL     1     -10.490   5.407  -6.751  1.00  0.00     0.074 A 
ATOM     46  C   UNL     1      -9.380   5.502  -7.673  1.00  0.00     0.031 C 
ATOM     47  C   UNL     1     -10.569  -0.846  -5.253  1.00  0.00     0.029 A 
ATOM     48  C   UNL     1     -11.453   0.202  -4.749  1.00  0.00     0.049 A 
ATOM     49  H   UNL     1     -11.449   2.220  -5.262  1.00  0.00     0.167 HD
ATOM     50  C   UNL     1     -11.253   6.457  -6.364  1.00  0.00     0.037 A 
ATOM     51  C   UNL     1     -12.442   0.028  -3.853  1.00  0.00     0.037 A 
ATOM     52  C   UNL     1     -12.377   6.355  -5.472  1.00  0.00     0.049 A 
ATOM     53  C   UNL     1     -13.296   1.205  -3.464  1.00  0.00     0.074 A 
ATOM     54  C   UNL     1     -13.242   7.350  -5.052  1.00  0.00     0.029 A 
ATOM     55  N   UNL     1     -12.794   5.180  -4.864  1.00  0.00    -0.354 N 
ATOM     56  N   UNL     1     -13.214   2.454  -3.854  1.00  0.00    -0.248 NA
ATOM     57  C   UNL     1     -14.394   0.942  -2.523  1.00  0.00     0.031 C 
ATOM     58  C   UNL     1     -14.164   6.783  -4.164  1.00  0.00     0.029 A 
ATOM     59  C   UNL     1     -13.901   5.426  -4.068  1.00  0.00     0.049 A 
ATOM     60  H   UNL     1     -12.367   4.301  -4.981  1.00  0.00     0.167 HD
ATOM     61  C   UNL     1     -14.266   3.117  -3.238  1.00  0.00     0.074 A 
ATOM     62  C   UNL     1     -14.981   2.128  -2.457  1.00  0.00     0.031 C 
ATOM     63  C   UNL     1     -14.611   4.426  -3.312  1.00  0.00     0.037 A 
BRANCH  50  64
ATOM     64  C   UNL     1     -10.898   7.809  -6.914  1.00  0.00     0.064 A 
ATOM     65  C   UNL     1     -11.094   8.128  -8.267  1.00  0.00     0.173 A 
ATOM     66  C   UNL     1     -10.375   8.806  -6.075  1.00  0.00     0.173 A 
ATOM     67  F   UNL     1     -11.578   7.207  -9.114  1.00  0.00    -0.203 F 
ATOM     68  C   UNL     1     -10.751   9.382  -8.766  1.00  0.00     0.198 A 
ATOM     69  C   UNL     1     -10.062  10.069  -6.572  1.00  0.00     0.198 A 
ATOM     70  F   UNL     1     -10.172   8.556  -4.773  1.00  0.00    -0.203 F 
ATOM     71  F   UNL     1     -10.896   9.644 -10.072  1.00  0.00    -0.200 F 
ATOM     72  C   UNL     1     -10.241  10.353  -7.917  1.00  0.00     0.200 A 
ATOM     73  F   UNL     1      -9.581  11.010  -5.748  1.00  0.00    -0.200 F 
ATOM     74  F   UNL     1      -9.915  11.560  -8.398  1.00  0.00    -0.200 F 
ENDBRANCH  50  64
BRANCH  51  75
ATOM     75  C   UNL     1     -12.711  -1.323  -3.297  1.00  0.00     0.064 A 
ATOM     76  C   UNL     1     -13.868  -2.031  -3.655  1.00  0.00     0.173 A 
ATOM     77  C   UNL     1     -11.827  -1.931  -2.395  1.00  0.00     0.173 A 
ATOM     78  F   UNL     1     -14.753  -1.482  -4.500  1.00  0.00    -0.203 F 
ATOM     79  C   UNL     1     -14.142  -3.285  -3.114  1.00  0.00     0.198 A 
ATOM     80  C   UNL     1     -12.088  -3.197  -1.875  1.00  0.00     0.198 A 
ATOM     81  F   UNL     1     -10.704  -1.299  -2.026  1.00  0.00    -0.203 F 
ATOM     82  F   UNL     1     -15.277  -3.918  -3.437  1.00  0.00    -0.200 F 
ATOM     83  C   UNL     1     -13.250  -3.869  -2.228  1.00  0.00     0.200 A 
ATOM     84  F   UNL     1     -11.217  -3.765  -1.030  1.00  0.00    -0.200 F 
ATOM     85  F   UNL     1     -13.512  -5.076  -1.708  1.00  0.00    -0.200 F 
ENDBRANCH  51  75
BRANCH  63  86
ATOM     86  C   UNL     1     -15.845   4.852  -2.572  1.00  0.00     0.064 A 
ATOM     87  C   UNL     1     -15.879   4.928  -1.172  1.00  0.00     0.173 A 
ATOM     88  C   UNL     1     -17.003   5.210  -3.279  1.00  0.00     0.173 A 
ATOM     89  F   UNL     1     -14.802   4.582  -0.451  1.00  0.00    -0.203 F 
ATOM     90  C   UNL     1     -17.039   5.312  -0.505  1.00  0.00     0.198 A 
ATOM     91  C   UNL     1     -18.152   5.623  -2.610  1.00  0.00     0.198 A 
ATOM     92  F   UNL     1     -17.020   5.163  -4.620  1.00  0.00    -0.203 F 
ATOM     93  F   UNL     1     -17.067   5.323   0.834  1.00  0.00    -0.200 F 
ATOM     94  C   UNL     1     -18.172   5.665  -1.224  1.00  0.00     0.200 A 
ATOM     95  F   UNL     1     -19.241   5.976  -3.307  1.00  0.00    -0.200 F 
ATOM     96  F   UNL     1     -19.288   6.035  -0.580  1.00  0.00    -0.200 F 
ENDBRANCH  63  86
ENDBRANCH  37  38
ENDBRANCH  29  32
ENDBRANCH  27  28
ENDBRANCH  26  27
ENDBRANCH  25  26
ENDBRANCH   1  25
TORSDOF 17
