REMARK SMILES CC(=O)Nc1nc(C[N@@H+]2CCO[C@@H](CC(=O)NCCCCCCNC(=O)c3ccc(-c4c5nc(c(-c6c(F)c(F)c(F)c(F)c6F)c6ccc([nH]6)c(-c6c(F)c(F)c(F)c(F)c6F)c6nc(c(-c7c(F)c(F)c(F)c(F)c7F)c7ccc4[nH]7)C=C6)C=C5)cc3)C2)cs1
REMARK SMILES IDX 19 1 18 2 17 3 15 4 16 5 14 7 13 8 9 9 10 10 90 11 11 13
REMARK SMILES IDX 12 14 8 15 7 16 5 17 6 18 92 19 91 20 4 21 1 22 2 23 3 24
REMARK SMILES IDX 20 26 21 27 22 28 23 29 24 30 25 31 26 33 27 34 28 35 89 36
REMARK SMILES IDX 29 37 88 38 30 39 31 40 32 41 82 42 33 43 87 44 81 45 83 46
REMARK SMILES IDX 34 47 86 48 80 49 79 50 35 52 67 53 47 54 66 55 48 56 51 57
REMARK SMILES IDX 65 58 84 59 49 60 50 61 64 63 85 64 52 65 36 66 37 67 45 68
REMARK SMILES IDX 38 69 39 70 43 71 46 72 40 73 41 74 44 75 42 76 68 77 69 78
REMARK SMILES IDX 77 79 70 80 71 81 75 82 78 83 72 84 73 85 76 86 74 87 53 88
REMARK SMILES IDX 54 89 62 90 55 91 56 92 60 93 63 94 57 95 58 96 61 97 59 98
REMARK H PARENT 17 6 9 12 4 25 24 32 83 51 51 62
REMARK Flexibility Score: inf
ROOT
ATOM      1  C   UNL     1       7.796   0.782  -1.649  1.00  0.00     0.021 C 
ENDROOT
BRANCH   1   2
ATOM      2  C   UNL     1       7.742   0.534  -3.160  1.00  0.00     0.116 C 
BRANCH   2   3
ATOM      3  N   UNL     1       6.519  -0.163  -3.524  1.00  0.00    -0.356 N 
ATOM      4  C   UNL     1       5.426   0.277  -4.213  1.00  0.00     0.222 C 
ATOM      5  O   UNL     1       4.451  -0.468  -4.308  1.00  0.00    -0.275 OA
ATOM      6  H   UNL     1       6.471  -1.100  -3.227  1.00  0.00     0.163 HD
BRANCH   4   7
ATOM      7  C   UNL     1       5.419   1.651  -4.843  1.00  0.00     0.138 C 
BRANCH   7   8
ATOM      8  C   UNL     1       4.721   2.713  -3.989  1.00  0.00     0.182 C 
ATOM      9  N   UNL     1       4.957   4.016  -1.789  1.00  0.00    -0.326 N 
ATOM     10  C   UNL     1       4.830   5.226  -2.601  1.00  0.00     0.291 C 
ATOM     11  C   UNL     1       5.351   2.853  -2.587  1.00  0.00     0.295 C 
ATOM     12  H   UNL     1       5.743   4.223  -1.173  1.00  0.00     0.348 HD
ATOM     13  C   UNL     1       4.215   5.024  -3.996  1.00  0.00     0.222 C 
ATOM     14  O   UNL     1       4.849   3.958  -4.707  1.00  0.00    -0.366 OA
BRANCH   9  15
ATOM     15  C   UNL     1       3.939   3.770  -0.765  1.00  0.00     0.320 C 
BRANCH  15  16
ATOM     16  C   UNL     1       2.613   3.349  -1.316  1.00  0.00     0.108 A 
ATOM     17  C   UNL     1       1.130   1.837  -1.925  1.00  0.00     0.189 A 
ATOM     18  N   UNL     1       2.252   2.005  -1.273  1.00  0.00    -0.219 NA
ATOM     19  S   UNL     1       0.423   3.231  -2.601  1.00  0.00    -0.105 S 
ATOM     20  C   UNL     1       1.649   4.176  -1.867  1.00  0.00     0.098 A 
BRANCH  17  21
ATOM     21  N   UNL     1       0.429   0.691  -2.148  1.00  0.00    -0.302 N 
ATOM     22  C   UNL     1       1.245  -0.440  -0.097  1.00  0.00     0.114 C 
ATOM     23  C   UNL     1       0.527  -0.454  -1.421  1.00  0.00     0.223 C 
ATOM     24  O   UNL     1      -0.053  -1.469  -1.815  1.00  0.00    -0.275 OA
ATOM     25  H   UNL     1      -0.203   0.692  -2.902  1.00  0.00     0.172 HD
ENDBRANCH  17  21
ENDBRANCH  15  16
ENDBRANCH   9  15
ENDBRANCH   7   8
ENDBRANCH   4   7
ENDBRANCH   2   3
ENDBRANCH   1   2
BRANCH   1  26
ATOM     26  C   UNL     1       8.512  -0.310  -0.857  1.00  0.00     0.002 C 
BRANCH  26  27
ATOM     27  C   UNL     1      10.025  -0.373  -1.080  1.00  0.00     0.002 C 
BRANCH  27  28
ATOM     28  C   UNL     1      10.779   0.939  -0.844  1.00  0.00     0.021 C 
BRANCH  28  29
ATOM     29  C   UNL     1      10.541   1.584   0.520  1.00  0.00     0.116 C 
BRANCH  29  30
ATOM     30  N   UNL     1      10.974   0.724   1.609  1.00  0.00    -0.352 N 
ATOM     31  C   UNL     1      11.972   0.916   2.530  1.00  0.00     0.251 C 
ATOM     32  H   UNL     1      10.476  -0.121   1.700  1.00  0.00     0.163 HD
ATOM     33  O   UNL     1      12.353  -0.012   3.235  1.00  0.00    -0.269 OA
BRANCH  31  34
ATOM     34  C   UNL     1      12.600   2.247   2.669  1.00  0.00     0.039 A 
ATOM     35  C   UNL     1      13.991   2.334   2.758  1.00  0.00     0.014 A 
ATOM     36  C   UNL     1      11.816   3.402   2.740  1.00  0.00     0.014 A 
ATOM     37  C   UNL     1      14.600   3.585   2.866  1.00  0.00     0.010 A 
ATOM     38  C   UNL     1      12.426   4.652   2.780  1.00  0.00     0.010 A 
ATOM     39  C   UNL     1      13.824   4.755   2.850  1.00  0.00    -0.014 A 
BRANCH  39  40
ATOM     40  C   UNL     1      14.456   6.097   2.916  1.00  0.00     0.031 A 
ATOM     41  C   UNL     1      14.218   6.985   4.105  1.00  0.00     0.074 A 
ATOM     42  C   UNL     1      15.191   6.538   1.878  1.00  0.00     0.049 A 
ATOM     43  N   UNL     1      14.623   8.212   4.317  1.00  0.00    -0.248 NA
ATOM     44  C   UNL     1      13.392   6.431   5.188  1.00  0.00     0.031 C 
ATOM     45  C   UNL     1      15.456   5.787   0.651  1.00  0.00     0.029 A 
ATOM     46  N   UNL     1      15.841   7.731   1.685  1.00  0.00    -0.354 N 
ATOM     47  C   UNL     1      14.090   8.579   5.546  1.00  0.00     0.074 A 
ATOM     48  C   UNL     1      13.290   7.466   6.008  1.00  0.00     0.031 C 
ATOM     49  C   UNL     1      16.229   6.527  -0.160  1.00  0.00     0.029 A 
ATOM     50  C   UNL     1      16.484   7.818   0.474  1.00  0.00     0.049 A 
ATOM     51  H   UNL     1      15.846   8.457   2.350  1.00  0.00     0.167 HD
ATOM     52  C   UNL     1      14.271   9.730   6.236  1.00  0.00     0.037 A 
ATOM     53  C   UNL     1      17.193   8.827  -0.066  1.00  0.00     0.037 A 
ATOM     54  C   UNL     1      15.089  10.825   5.782  1.00  0.00     0.049 A 
ATOM     55  C   UNL     1      17.376  10.097   0.720  1.00  0.00     0.074 A 
ATOM     56  C   UNL     1      15.387  12.008   6.435  1.00  0.00     0.029 A 
ATOM     57  N   UNL     1      15.739  10.869   4.557  1.00  0.00    -0.354 N 
ATOM     58  N   UNL     1      16.924  10.407   1.910  1.00  0.00    -0.248 NA
ATOM     59  C   UNL     1      18.175  11.156   0.087  1.00  0.00     0.031 C 
ATOM     60  C   UNL     1      16.180  12.788   5.586  1.00  0.00     0.029 A 
ATOM     61  C   UNL     1      16.418  12.070   4.425  1.00  0.00     0.049 A 
ATOM     62  H   UNL     1      15.721  10.153   3.882  1.00  0.00     0.167 HD
ATOM     63  C   UNL     1      17.403  11.681   2.181  1.00  0.00     0.074 A 
ATOM     64  C   UNL     1      18.194  12.082   1.036  1.00  0.00     0.031 C 
ATOM     65  C   UNL     1      17.205  12.450   3.280  1.00  0.00     0.037 A 
BRANCH  52  66
ATOM     66  C   UNL     1      13.571   9.864   7.557  1.00  0.00     0.064 A 
ATOM     67  C   UNL     1      13.952   9.103   8.673  1.00  0.00     0.173 A 
ATOM     68  C   UNL     1      12.525  10.785   7.719  1.00  0.00     0.173 A 
ATOM     69  F   UNL     1      14.939   8.200   8.569  1.00  0.00    -0.203 F 
ATOM     70  C   UNL     1      13.291   9.236   9.891  1.00  0.00     0.198 A 
ATOM     71  C   UNL     1      11.887  10.937   8.948  1.00  0.00     0.198 A 
ATOM     72  F   UNL     1      12.124  11.543   6.687  1.00  0.00    -0.203 F 
ATOM     73  F   UNL     1      13.638   8.460  10.928  1.00  0.00    -0.200 F 
ATOM     74  C   UNL     1      12.264  10.157  10.030  1.00  0.00     0.200 A 
ATOM     75  F   UNL     1      10.903  11.837   9.083  1.00  0.00    -0.200 F 
ATOM     76  F   UNL     1      11.632  10.287  11.204  1.00  0.00    -0.200 F 
ENDBRANCH  52  66
BRANCH  53  77
ATOM     77  C   UNL     1      17.806   8.665  -1.409  1.00  0.00     0.064 A 
ATOM     78  C   UNL     1      19.196   8.557  -1.556  1.00  0.00     0.173 A 
ATOM     79  C   UNL     1      17.021   8.613  -2.570  1.00  0.00     0.173 A 
ATOM     80  F   UNL     1      19.989   8.622  -0.477  1.00  0.00    -0.203 F 
ATOM     81  C   UNL     1      19.779   8.420  -2.814  1.00  0.00     0.198 A 
ATOM     82  C   UNL     1      17.603   8.448  -3.825  1.00  0.00     0.198 A 
ATOM     83  F   UNL     1      15.686   8.707  -2.483  1.00  0.00    -0.203 F 
ATOM     84  F   UNL     1      21.112   8.362  -2.929  1.00  0.00    -0.200 F 
ATOM     85  C   UNL     1      18.981   8.360  -3.947  1.00  0.00     0.200 A 
ATOM     86  F   UNL     1      16.828   8.376  -4.916  1.00  0.00    -0.200 F 
ATOM     87  F   UNL     1      19.542   8.223  -5.156  1.00  0.00    -0.200 F 
ENDBRANCH  53  77
BRANCH  65  88
ATOM     88  C   UNL     1      17.880  13.791   3.311  1.00  0.00     0.064 A 
ATOM     89  C   UNL     1      17.443  14.853   2.507  1.00  0.00     0.173 A 
ATOM     90  C   UNL     1      18.953  14.025   4.185  1.00  0.00     0.173 A 
ATOM     91  F   UNL     1      16.431  14.675   1.643  1.00  0.00    -0.203 F 
ATOM     92  C   UNL     1      18.070  16.095   2.559  1.00  0.00     0.198 A 
ATOM     93  C   UNL     1      19.558  15.277   4.256  1.00  0.00     0.198 A 
ATOM     94  F   UNL     1      19.405  13.044   4.979  1.00  0.00    -0.203 F 
ATOM     95  F   UNL     1      17.666  17.083   1.749  1.00  0.00    -0.200 F 
ATOM     96  C   UNL     1      19.121  16.308   3.439  1.00  0.00     0.200 A 
ATOM     97  F   UNL     1      20.565  15.484   5.116  1.00  0.00    -0.200 F 
ATOM     98  F   UNL     1      19.719  17.506   3.494  1.00  0.00    -0.200 F 
ENDBRANCH  65  88
ENDBRANCH  39  40
ENDBRANCH  31  34
ENDBRANCH  29  30
ENDBRANCH  28  29
ENDBRANCH  27  28
ENDBRANCH  26  27
ENDBRANCH   1  26
TORSDOF 17
