REMARK SMILES O=C(NCCCCCCNC(=O)c1ccc(-c2c3nc(c(-c4c(F)c(F)c(F)c(F)c4F)c4ccc([nH]4)c(-c4c(F)c(F)c(F)c(F)c4F)c4nc(c(-c5c(F)c(F)c(F)c(F)c5F)c5ccc2[nH]5)C=C4)C=C3)cc1)C1=N[C@@H]2NC=NN2[C@@H]([C@H]2C=NN=C2c2ccc(F)cc2)C1
REMARK SMILES IDX 6 1 5 2 4 3 3 4 1 5 2 6 76 8 77 9 96 10 78 11 83 12 79 13
REMARK SMILES IDX 82 14 80 15 81 17 84 18 85 19 88 20 86 21 87 22 89 23 90 24
REMARK SMILES IDX 95 25 91 26 94 27 92 28 93 29 7 30 8 31 9 32 10 33 11 34
REMARK SMILES IDX 12 36 13 37 14 38 75 39 15 40 74 41 16 42 17 43 18 44 68 45
REMARK SMILES IDX 19 46 73 47 67 48 69 49 20 50 72 51 66 52 65 53 21 55 53 56
REMARK SMILES IDX 33 57 52 58 34 59 37 60 51 61 70 62 35 63 36 64 50 66 71 67
REMARK SMILES IDX 38 68 22 69 23 70 31 71 24 72 25 73 29 74 32 75 26 76 27 77
REMARK SMILES IDX 30 78 28 79 54 80 55 81 63 82 56 83 57 84 61 85 64 86 58 87
REMARK SMILES IDX 59 88 62 89 60 90 39 91 40 92 48 93 41 94 42 95 46 96 49 97
REMARK SMILES IDX 43 98 44 99 47 100 45 101
REMARK H PARENT 3 7 79 16 10 35 69 54 37 65
REMARK Flexibility Score: inf
ROOT
ATOM      1  C   UNL     1      12.911  -0.191   6.044  1.00  0.00     0.002 C 
ENDROOT
BRANCH   1   2
ATOM      2  C   UNL     1      12.055  -0.995   5.065  1.00  0.00     0.021 C 
BRANCH   2   3
ATOM      3  C   UNL     1      10.577  -0.631   4.937  1.00  0.00     0.116 C 
BRANCH   3   4
ATOM      4  N   UNL     1      10.303   0.734   4.545  1.00  0.00    -0.351 N 
ATOM      5  O   UNL     1       9.105   2.527   3.925  1.00  0.00    -0.268 OA
ATOM      6  C   UNL     1       9.178   1.302   3.986  1.00  0.00     0.265 C 
ATOM      7  H   UNL     1      11.044   1.363   4.704  1.00  0.00     0.163 HD
BRANCH   6   8
ATOM      8  C   UNL     1       8.052   0.472   3.337  1.00  0.00     0.106 C 
ATOM      9  N   UNL     1       7.580   0.932   2.230  1.00  0.00    -0.237 NA
ATOM     10  C   UNL     1       7.538  -0.765   4.018  1.00  0.00     0.090 C 
ATOM     11  C   UNL     1       6.712   0.114   1.424  1.00  0.00     0.319 C 
ATOM     12  C   UNL     1       6.370  -1.400   3.260  1.00  0.00     0.127 C 
ATOM     13  N   UNL     1       5.388   0.577   1.122  1.00  0.00    -0.335 N 
ATOM     14  N   UNL     1       6.520  -1.310   1.789  1.00  0.00    -0.249 NA
ATOM     15  C   UNL     1       4.697  -0.570   0.871  1.00  0.00     0.217 C 
ATOM     16  H   UNL     1       5.058   1.504   1.102  1.00  0.00     0.165 HD
ATOM     17  N   UNL     1       5.306  -1.693   1.158  1.00  0.00    -0.164 NA
BRANCH  12  18
ATOM     18  C   UNL     1       6.080  -2.868   3.627  1.00  0.00     0.109 C 
ATOM     19  C   UNL     1       7.254  -3.770   3.463  1.00  0.00     0.120 C 
ATOM     20  C   UNL     1       5.882  -3.073   5.094  1.00  0.00     0.081 C 
ATOM     21  N   UNL     1       7.645  -4.306   4.574  1.00  0.00    -0.162 NA
ATOM     22  N   UNL     1       6.780  -3.853   5.618  1.00  0.00    -0.155 NA
BRANCH  20  23
ATOM     23  C   UNL     1       4.832  -2.366   5.846  1.00  0.00    -0.001 A 
ATOM     24  C   UNL     1       3.657  -1.930   5.219  1.00  0.00     0.013 A 
ATOM     25  C   UNL     1       5.087  -2.036   7.181  1.00  0.00     0.013 A 
ATOM     26  C   UNL     1       2.758  -1.127   5.921  1.00  0.00     0.040 A 
ATOM     27  C   UNL     1       4.186  -1.230   7.876  1.00  0.00     0.040 A 
ATOM     28  C   UNL     1       3.036  -0.776   7.239  1.00  0.00     0.123 A 
ATOM     29  F   UNL     1       2.188   0.021   7.900  1.00  0.00    -0.207 F 
ENDBRANCH  20  23
ENDBRANCH  12  18
ENDBRANCH   6   8
ENDBRANCH   3   4
ENDBRANCH   2   3
ENDBRANCH   1   2
BRANCH   1  30
ATOM     30  C   UNL     1      12.441  -0.137   7.498  1.00  0.00     0.002 C 
BRANCH  30  31
ATOM     31  C   UNL     1      12.151  -1.478   8.175  1.00  0.00     0.021 C 
BRANCH  31  32
ATOM     32  C   UNL     1      13.268  -2.517   8.119  1.00  0.00     0.116 C 
BRANCH  32  33
ATOM     33  N   UNL     1      14.481  -2.095   8.800  1.00  0.00    -0.352 N 
ATOM     34  C   UNL     1      15.218  -2.743   9.759  1.00  0.00     0.251 C 
ATOM     35  H   UNL     1      14.825  -1.212   8.534  1.00  0.00     0.163 HD
ATOM     36  O   UNL     1      16.153  -2.161  10.311  1.00  0.00    -0.269 OA
BRANCH  34  37
ATOM     37  C   UNL     1      14.883  -4.127  10.164  1.00  0.00     0.039 A 
ATOM     38  C   UNL     1      14.882  -4.448  11.524  1.00  0.00     0.014 A 
ATOM     39  C   UNL     1      14.581  -5.110   9.218  1.00  0.00     0.014 A 
ATOM     40  C   UNL     1      14.511  -5.730  11.938  1.00  0.00     0.010 A 
ATOM     41  C   UNL     1      14.137  -6.365   9.635  1.00  0.00     0.010 A 
ATOM     42  C   UNL     1      14.095  -6.689  10.999  1.00  0.00    -0.014 A 
BRANCH  42  43
ATOM     43  C   UNL     1      13.607  -8.027  11.430  1.00  0.00     0.031 A 
ATOM     44  C   UNL     1      14.343  -9.274  11.023  1.00  0.00     0.074 A 
ATOM     45  C   UNL     1      12.467  -8.123  12.143  1.00  0.00     0.049 A 
ATOM     46  N   UNL     1      14.036 -10.528  11.244  1.00  0.00    -0.248 NA
ATOM     47  C   UNL     1      15.577  -9.089  10.244  1.00  0.00     0.031 C 
ATOM     48  C   UNL     1      11.636  -6.994  12.563  1.00  0.00     0.029 A 
ATOM     49  N   UNL     1      11.802  -9.222  12.630  1.00  0.00    -0.354 N 
ATOM     50  C   UNL     1      15.032 -11.276  10.631  1.00  0.00     0.074 A 
ATOM     51  C   UNL     1      15.920 -10.341   9.976  1.00  0.00     0.031 C 
ATOM     52  C   UNL     1      10.584  -7.455  13.257  1.00  0.00     0.029 A 
ATOM     53  C   UNL     1      10.639  -8.913  13.294  1.00  0.00     0.049 A 
ATOM     54  H   UNL     1      12.128 -10.144  12.514  1.00  0.00     0.167 HD
ATOM     55  C   UNL     1      15.206 -12.620  10.635  1.00  0.00     0.037 A 
ATOM     56  C   UNL     1       9.713  -9.715  13.854  1.00  0.00     0.037 A 
ATOM     57  C   UNL     1      14.325 -13.550  11.294  1.00  0.00     0.049 A 
ATOM     58  C   UNL     1       9.915 -11.207  13.819  1.00  0.00     0.074 A 
ATOM     59  C   UNL     1      14.437 -14.926  11.388  1.00  0.00     0.029 A 
ATOM     60  N   UNL     1      13.164 -13.197  11.968  1.00  0.00    -0.354 N 
ATOM     61  N   UNL     1      10.896 -11.898  13.293  1.00  0.00    -0.248 NA
ATOM     62  C   UNL     1       8.883 -12.031  14.465  1.00  0.00     0.031 C 
ATOM     63  C   UNL     1      13.317 -15.412  12.071  1.00  0.00     0.029 A 
ATOM     64  C   UNL     1      12.540 -14.333  12.461  1.00  0.00     0.049 A 
ATOM     65  H   UNL     1      12.833 -12.277  12.080  1.00  0.00     0.167 HD
ATOM     66  C   UNL     1      10.617 -13.230  13.570  1.00  0.00     0.074 A 
ATOM     67  C   UNL     1       9.385 -13.249  14.328  1.00  0.00     0.031 C 
ATOM     68  C   UNL     1      11.319 -14.338  13.225  1.00  0.00     0.037 A 
BRANCH  55  69
ATOM     69  C   UNL     1      16.401 -13.171   9.910  1.00  0.00     0.064 A 
ATOM     70  C   UNL     1      17.706 -12.960  10.380  1.00  0.00     0.173 A 
ATOM     71  C   UNL     1      16.239 -13.960   8.761  1.00  0.00     0.173 A 
ATOM     72  F   UNL     1      17.919 -12.206  11.469  1.00  0.00    -0.203 F 
ATOM     73  C   UNL     1      18.805 -13.495   9.713  1.00  0.00     0.198 A 
ATOM     74  C   UNL     1      17.338 -14.522   8.116  1.00  0.00     0.198 A 
ATOM     75  F   UNL     1      15.014 -14.201   8.272  1.00  0.00    -0.203 F 
ATOM     76  F   UNL     1      20.045 -13.240  10.155  1.00  0.00    -0.200 F 
ATOM     77  C   UNL     1      18.620 -14.283   8.587  1.00  0.00     0.200 A 
ATOM     78  F   UNL     1      17.157 -15.297   7.038  1.00  0.00    -0.200 F 
ATOM     79  F   UNL     1      19.678 -14.808   7.954  1.00  0.00    -0.200 F 
ENDBRANCH  55  69
BRANCH  56  80
ATOM     80  C   UNL     1       8.508  -9.126  14.501  1.00  0.00     0.064 A 
ATOM     81  C   UNL     1       8.306  -9.229  15.884  1.00  0.00     0.173 A 
ATOM     82  C   UNL     1       7.524  -8.470  13.747  1.00  0.00     0.173 A 
ATOM     83  F   UNL     1       9.207  -9.864  16.648  1.00  0.00    -0.203 F 
ATOM     84  C   UNL     1       7.152  -8.727  16.483  1.00  0.00     0.198 A 
ATOM     85  C   UNL     1       6.387  -7.938  14.352  1.00  0.00     0.198 A 
ATOM     86  F   UNL     1       7.670  -8.339  12.420  1.00  0.00    -0.203 F 
ATOM     87  F   UNL     1       6.956  -8.893  17.799  1.00  0.00    -0.200 F 
ATOM     88  C   UNL     1       6.196  -8.077  15.718  1.00  0.00     0.200 A 
ATOM     89  F   UNL     1       5.475  -7.295  13.610  1.00  0.00    -0.200 F 
ATOM     90  F   UNL     1       5.087  -7.595  16.294  1.00  0.00    -0.200 F 
ENDBRANCH  56  80
BRANCH  68  91
ATOM     91  C   UNL     1      10.797 -15.664  13.704  1.00  0.00     0.064 A 
ATOM     92  C   UNL     1       9.622 -16.228  13.186  1.00  0.00     0.173 A 
ATOM     93  C   UNL     1      11.506 -16.397  14.668  1.00  0.00     0.173 A 
ATOM     94  F   UNL     1       8.898 -15.563  12.273  1.00  0.00    -0.203 F 
ATOM     95  C   UNL     1       9.160 -17.462  13.638  1.00  0.00     0.198 A 
ATOM     96  C   UNL     1      11.061 -17.646  15.091  1.00  0.00     0.198 A 
ATOM     97  F   UNL     1      12.641 -15.908  15.191  1.00  0.00    -0.203 F 
ATOM     98  F   UNL     1       8.006 -17.956  13.169  1.00  0.00    -0.200 F 
ATOM     99  C   UNL     1       9.884 -18.173  14.583  1.00  0.00     0.200 A 
ATOM    100  F   UNL     1      11.772 -18.339  15.992  1.00  0.00    -0.200 F 
ATOM    101  F   UNL     1       9.443 -19.365  15.010  1.00  0.00    -0.200 F 
ENDBRANCH  68  91
ENDBRANCH  42  43
ENDBRANCH  34  37
ENDBRANCH  32  33
ENDBRANCH  31  32
ENDBRANCH  30  31
ENDBRANCH   1  30
TORSDOF 15
