REMARK SMILES O=C(NC1(C(=O)NCCCCCCNC(=O)c2ccc(-c3c4nc(c(-c5c(F)c(F)c(F)c(F)c5F)c5ccc([nH]5)c(-c5c(F)c(F)c(F)c(F)c5F)c5nc(c(-c6c(F)c(F)c(F)c(F)c6F)c6ccc3[nH]6)C=C5)C=C4)cc2)Cc2ccccc2C1)OCC1c2ccccc2-c2ccccc21
REMARK SMILES IDX 9 1 8 2 7 3 5 4 6 5 4 7 80 8 87 9 81 10 86 11 82 12 85 13
REMARK SMILES IDX 83 14 84 15 3 16 1 17 2 18 88 20 89 21 90 22 91 23 102 24
REMARK SMILES IDX 92 25 96 26 97 27 101 28 93 29 95 30 98 31 100 32 94 33
REMARK SMILES IDX 99 34 10 35 11 36 12 37 13 38 14 39 15 40 16 42 17 43 18 44
REMARK SMILES IDX 79 45 19 46 78 47 20 48 21 49 22 50 72 51 23 52 77 53 71 54
REMARK SMILES IDX 73 55 24 56 76 57 70 58 69 59 25 61 57 62 37 63 56 64 38 65
REMARK SMILES IDX 41 66 55 67 74 68 39 69 40 70 54 72 75 73 42 74 26 75 27 76
REMARK SMILES IDX 35 77 28 78 29 79 33 80 36 81 30 82 31 83 34 84 32 85 58 86
REMARK SMILES IDX 59 87 67 88 60 89 61 90 65 91 68 92 62 93 63 94 66 95 64 96
REMARK SMILES IDX 43 97 44 98 52 99 45 100 46 101 50 102 53 103 47 104 48 105
REMARK SMILES IDX 51 106 49 107
REMARK H PARENT 7 6 3 19 14 41 73 60 41 71
REMARK Flexibility Score: inf
ROOT
ATOM      1  C   UNL     1       8.222   1.829   0.749  1.00  0.00     0.021 C 
ENDROOT
BRANCH   1   2
ATOM      2  C   UNL     1       7.392   1.821   2.022  1.00  0.00     0.116 C 
BRANCH   2   3
ATOM      3  N   UNL     1       6.066   2.358   1.824  1.00  0.00    -0.354 N 
ATOM      4  C   UNL     1       4.835   1.792   1.886  1.00  0.00     0.246 C 
ATOM      5  O   UNL     1       3.908   2.606   2.031  1.00  0.00    -0.272 OA
ATOM      6  H   UNL     1       6.054   3.317   1.603  1.00  0.00     0.163 HD
BRANCH   4   7
ATOM      7  C   UNL     1       4.547   0.241   1.866  1.00  0.00     0.130 C 
ATOM      8  C   UNL     1       4.909  -0.392   3.240  1.00  0.00     0.075 C 
ATOM      9  C   UNL     1       5.309  -0.601   0.799  1.00  0.00     0.075 C 
ATOM     10  C   UNL     1       6.156  -1.184   2.938  1.00  0.00    -0.042 A 
ATOM     11  C   UNL     1       6.334  -1.346   1.566  1.00  0.00    -0.042 A 
ATOM     12  C   UNL     1       7.139  -1.623   3.807  1.00  0.00     0.004 A 
ATOM     13  C   UNL     1       7.418  -2.014   1.022  1.00  0.00     0.004 A 
ATOM     14  C   UNL     1       8.280  -2.236   3.270  1.00  0.00     0.000 A 
ATOM     15  C   UNL     1       8.409  -2.452   1.889  1.00  0.00     0.000 A 
BRANCH   7  16
ATOM     16  N   UNL     1       3.101   0.134   1.539  1.00  0.00    -0.306 N 
ATOM     17  O   UNL     1       1.516   0.152  -0.110  1.00  0.00    -0.225 OA
ATOM     18  C   UNL     1       2.641   0.439   0.283  1.00  0.00     0.408 C 
ATOM     19  H   UNL     1       2.466  -0.158   2.232  1.00  0.00     0.168 HD
BRANCH  18  20
ATOM     20  O   UNL     1       3.626   0.975  -0.477  1.00  0.00    -0.449 OA
BRANCH  20  21
ATOM     21  C   UNL     1       3.538   0.820  -1.889  1.00  0.00     0.248 C 
BRANCH  21  22
ATOM     22  C   UNL     1       4.640   1.610  -2.612  1.00  0.00     0.088 C 
ATOM     23  C   UNL     1       6.080   1.091  -2.676  1.00  0.00    -0.029 A 
ATOM     24  C   UNL     1       4.872   3.065  -2.214  1.00  0.00    -0.029 A 
ATOM     25  C   UNL     1       6.579  -0.202  -2.697  1.00  0.00     0.005 A 
ATOM     26  C   UNL     1       6.963   2.199  -2.758  1.00  0.00    -0.014 A 
ATOM     27  C   UNL     1       6.219   3.410  -2.475  1.00  0.00    -0.014 A 
ATOM     28  C   UNL     1       4.002   3.990  -1.663  1.00  0.00     0.005 A 
ATOM     29  C   UNL     1       7.966  -0.379  -2.806  1.00  0.00     0.000 A 
ATOM     30  C   UNL     1       8.329   2.021  -2.922  1.00  0.00     0.009 A 
ATOM     31  C   UNL     1       6.670   4.710  -2.307  1.00  0.00     0.009 A 
ATOM     32  C   UNL     1       4.471   5.290  -1.444  1.00  0.00     0.000 A 
ATOM     33  C   UNL     1       8.831   0.720  -2.939  1.00  0.00     0.001 A 
ATOM     34  C   UNL     1       5.780   5.657  -1.798  1.00  0.00     0.001 A 
ENDBRANCH  21  22
ENDBRANCH  20  21
ENDBRANCH  18  20
ENDBRANCH   7  16
ENDBRANCH   4   7
ENDBRANCH   2   3
ENDBRANCH   1   2
BRANCH   1  35
ATOM     35  C   UNL     1       9.015   3.125   0.568  1.00  0.00     0.002 C 
BRANCH  35  36
ATOM     36  C   UNL     1      10.158   3.313   1.575  1.00  0.00     0.002 C 
BRANCH  36  37
ATOM     37  C   UNL     1      11.184   2.177   1.621  1.00  0.00     0.021 C 
BRANCH  37  38
ATOM     38  C   UNL     1      11.809   1.825   0.275  1.00  0.00     0.116 C 
BRANCH  38  39
ATOM     39  N   UNL     1      12.574   2.932  -0.280  1.00  0.00    -0.352 N 
ATOM     40  C   UNL     1      13.920   3.026  -0.530  1.00  0.00     0.251 C 
ATOM     41  H   UNL     1      12.049   3.732  -0.508  1.00  0.00     0.163 HD
ATOM     42  O   UNL     1      14.427   4.106  -0.813  1.00  0.00    -0.269 OA
BRANCH  40  43
ATOM     43  C   UNL     1      14.769   1.820  -0.436  1.00  0.00     0.039 A 
ATOM     44  C   UNL     1      15.963   1.888   0.284  1.00  0.00     0.014 A 
ATOM     45  C   UNL     1      14.386   0.627  -1.057  1.00  0.00     0.014 A 
ATOM     46  C   UNL     1      16.742   0.740   0.440  1.00  0.00     0.010 A 
ATOM     47  C   UNL     1      15.127  -0.533  -0.842  1.00  0.00     0.010 A 
ATOM     48  C   UNL     1      16.311  -0.489  -0.089  1.00  0.00    -0.014 A 
BRANCH  48  49
ATOM     49  C   UNL     1      17.083  -1.735   0.150  1.00  0.00     0.031 A 
ATOM     50  C   UNL     1      17.723  -2.466  -0.996  1.00  0.00     0.074 A 
ATOM     51  C   UNL     1      17.162  -2.237   1.398  1.00  0.00     0.049 A 
ATOM     52  N   UNL     1      18.402  -3.587  -0.988  1.00  0.00    -0.248 NA
ATOM     53  C   UNL     1      17.559  -1.874  -2.333  1.00  0.00     0.031 C 
ATOM     54  C   UNL     1      16.543  -1.648   2.586  1.00  0.00     0.029 A 
ATOM     55  N   UNL     1      17.790  -3.362   1.874  1.00  0.00    -0.354 N 
ATOM     56  C   UNL     1      18.738  -3.835  -2.312  1.00  0.00     0.074 A 
ATOM     57  C   UNL     1      18.142  -2.781  -3.104  1.00  0.00     0.031 C 
ATOM     58  C   UNL     1      16.843  -2.400   3.657  1.00  0.00     0.029 A 
ATOM     59  C   UNL     1      17.642  -3.544   3.228  1.00  0.00     0.049 A 
ATOM     60  H   UNL     1      18.299  -3.979   1.300  1.00  0.00     0.167 HD
ATOM     61  C   UNL     1      19.496  -4.837  -2.818  1.00  0.00     0.037 A 
ATOM     62  C   UNL     1      18.096  -4.525   4.031  1.00  0.00     0.037 A 
ATOM     63  C   UNL     1      20.104  -5.874  -2.025  1.00  0.00     0.049 A 
ATOM     64  C   UNL     1      18.925  -5.634   3.441  1.00  0.00     0.074 A 
ATOM     65  C   UNL     1      20.936  -6.900  -2.438  1.00  0.00     0.029 A 
ATOM     66  N   UNL     1      19.939  -6.021  -0.656  1.00  0.00    -0.354 N 
ATOM     67  N   UNL     1      19.299  -5.816   2.198  1.00  0.00    -0.248 NA
ATOM     68  C   UNL     1      19.401  -6.670   4.368  1.00  0.00     0.031 C 
ATOM     69  C   UNL     1      21.233  -7.697  -1.328  1.00  0.00     0.029 A 
ATOM     70  C   UNL     1      20.633  -7.136  -0.212  1.00  0.00     0.049 A 
ATOM     71  H   UNL     1      19.408  -5.421  -0.083  1.00  0.00     0.167 HD
ATOM     72  C   UNL     1      20.077  -6.966   2.198  1.00  0.00     0.074 A 
ATOM     73  C   UNL     1      20.135  -7.431   3.568  1.00  0.00     0.031 C 
ATOM     74  C   UNL     1      20.688  -7.583   1.156  1.00  0.00     0.037 A 
BRANCH  61  75
ATOM     75  C   UNL     1      19.715  -4.861  -4.304  1.00  0.00     0.064 A 
ATOM     76  C   UNL     1      20.508  -3.897  -4.946  1.00  0.00     0.173 A 
ATOM     77  C   UNL     1      19.161  -5.882  -5.090  1.00  0.00     0.173 A 
ATOM     78  F   UNL     1      21.053  -2.893  -4.243  1.00  0.00    -0.203 F 
ATOM     79  C   UNL     1      20.714  -3.939  -6.323  1.00  0.00     0.198 A 
ATOM     80  C   UNL     1      19.395  -5.939  -6.462  1.00  0.00     0.198 A 
ATOM     81  F   UNL     1      18.400  -6.833  -4.527  1.00  0.00    -0.203 F 
ATOM     82  F   UNL     1      21.434  -2.979  -6.920  1.00  0.00    -0.200 F 
ATOM     83  C   UNL     1      20.164  -4.963  -7.078  1.00  0.00     0.200 A 
ATOM     84  F   UNL     1      18.875  -6.938  -7.188  1.00  0.00    -0.200 F 
ATOM     85  F   UNL     1      20.370  -5.007  -8.402  1.00  0.00    -0.200 F 
ENDBRANCH  61  75
BRANCH  62  86
ATOM     86  C   UNL     1      17.795  -4.494   5.487  1.00  0.00     0.064 A 
ATOM     87  C   UNL     1      18.810  -4.272   6.428  1.00  0.00     0.173 A 
ATOM     88  C   UNL     1      16.493  -4.695   5.968  1.00  0.00     0.173 A 
ATOM     89  F   UNL     1      20.075  -4.094   6.019  1.00  0.00    -0.203 F 
ATOM     90  C   UNL     1      18.539  -4.277   7.795  1.00  0.00     0.198 A 
ATOM     91  C   UNL     1      16.218  -4.669   7.334  1.00  0.00     0.198 A 
ATOM     92  F   UNL     1      15.484  -4.906   5.110  1.00  0.00    -0.203 F 
ATOM     93  F   UNL     1      19.538  -4.112   8.674  1.00  0.00    -0.200 F 
ATOM     94  C   UNL     1      17.243  -4.470   8.246  1.00  0.00     0.200 A 
ATOM     95  F   UNL     1      14.961  -4.840   7.765  1.00  0.00    -0.200 F 
ATOM     96  F   UNL     1      16.982  -4.472   9.561  1.00  0.00    -0.200 F 
ENDBRANCH  62  86
BRANCH  74  97
ATOM     97  C   UNL     1      21.502  -8.807   1.461  1.00  0.00     0.064 A 
ATOM     98  C   UNL     1      20.901 -10.020   1.829  1.00  0.00     0.173 A 
ATOM     99  C   UNL     1      22.901  -8.776   1.347  1.00  0.00     0.173 A 
ATOM    100  F   UNL     1      19.569 -10.099   1.966  1.00  0.00    -0.203 F 
ATOM    101  C   UNL     1      21.672 -11.149   2.097  1.00  0.00     0.198 A 
ATOM    102  C   UNL     1      23.666  -9.914   1.585  1.00  0.00     0.198 A 
ATOM    103  F   UNL     1      23.525  -7.643   0.993  1.00  0.00    -0.203 F 
ATOM    104  F   UNL     1      21.079 -12.283   2.496  1.00  0.00    -0.200 F 
ATOM    105  C   UNL     1      23.052 -11.097   1.968  1.00  0.00     0.200 A 
ATOM    106  F   UNL     1      24.997  -9.866   1.445  1.00  0.00    -0.200 F 
ATOM    107  F   UNL     1      23.791 -12.186   2.219  1.00  0.00    -0.200 F 
ENDBRANCH  74  97
ENDBRANCH  48  49
ENDBRANCH  40  43
ENDBRANCH  38  39
ENDBRANCH  37  38
ENDBRANCH  36  37
ENDBRANCH  35  36
ENDBRANCH   1  35
TORSDOF 17
