REMARK SMILES O=C(NCCCCCCNC(=O)[C@H]1C[C@H]2CCCC[C@@H]2[N@@H+]1Cc1ccno1)c1ccc(-c2c3nc(c(-c4c(F)c(F)c(F)c(F)c4F)c4ccc([nH]4)c(-c4c(F)c(F)c(F)c(F)c4F)c4nc(c(-c5c(F)c(F)c(F)c(F)c5F)c5ccc2[nH]5)C=C4)C=C3)cc1
REMARK SMILES IDX 6 1 5 2 4 3 3 4 1 5 2 6 28 8 29 9 90 10 30 11 89 12 31 13
REMARK SMILES IDX 32 14 33 15 83 16 34 17 88 18 82 19 84 20 35 21 87 22 81 23
REMARK SMILES IDX 80 24 36 26 68 27 48 28 67 29 49 30 52 31 66 32 85 33 50 34
REMARK SMILES IDX 51 35 65 37 86 38 53 39 37 40 38 41 46 42 39 43 40 44 44 45
REMARK SMILES IDX 47 46 41 47 42 48 45 49 43 50 69 51 70 52 78 53 71 54 72 55
REMARK SMILES IDX 76 56 79 57 73 58 74 59 77 60 75 61 54 62 55 63 63 64 56 65
REMARK SMILES IDX 57 66 61 67 64 68 58 69 59 70 62 71 60 72 7 73 8 74 9 75
REMARK SMILES IDX 10 76 11 77 12 79 13 80 14 81 21 82 15 83 20 84 16 86 19 87
REMARK SMILES IDX 17 88 18 89 22 90 23 91 24 92 27 93 25 94 26 95
REMARK H PARENT 3 7 84 25 52 36 10 78 21 85
REMARK Flexibility Score: inf
ROOT
ATOM      1  C   UNL     1       5.410  -0.867   2.575  1.00  0.00     0.002 C 
ENDROOT
BRANCH   1   2
ATOM      2  C   UNL     1       4.075  -1.405   3.091  1.00  0.00     0.021 C 
BRANCH   2   3
ATOM      3  C   UNL     1       2.921  -0.418   2.988  1.00  0.00     0.116 C 
BRANCH   3   4
ATOM      4  N   UNL     1       2.597  -0.096   1.608  1.00  0.00    -0.352 N 
ATOM      5  O   UNL     1       1.333  -0.089  -0.265  1.00  0.00    -0.269 OA
ATOM      6  C   UNL     1       1.398  -0.223   0.954  1.00  0.00     0.251 C 
ATOM      7  H   UNL     1       3.339   0.263   1.069  1.00  0.00     0.163 HD
BRANCH   6   8
ATOM      8  C   UNL     1       0.181  -0.538   1.728  1.00  0.00     0.039 A 
ATOM      9  C   UNL     1      -0.092   0.137   2.921  1.00  0.00     0.014 A 
ATOM     10  C   UNL     1      -0.698  -1.514   1.251  1.00  0.00     0.014 A 
ATOM     11  C   UNL     1      -1.173  -0.252   3.701  1.00  0.00     0.010 A 
ATOM     12  C   UNL     1      -1.834  -1.840   1.993  1.00  0.00     0.010 A 
ATOM     13  C   UNL     1      -2.069  -1.226   3.234  1.00  0.00    -0.014 A 
BRANCH  13  14
ATOM     14  C   UNL     1      -3.293  -1.523   4.017  1.00  0.00     0.031 A 
ATOM     15  C   UNL     1      -3.526  -2.879   4.614  1.00  0.00     0.074 A 
ATOM     16  C   UNL     1      -4.203  -0.543   4.176  1.00  0.00     0.049 A 
ATOM     17  N   UNL     1      -4.553  -3.311   5.301  1.00  0.00    -0.248 NA
ATOM     18  C   UNL     1      -2.477  -3.887   4.403  1.00  0.00     0.031 C 
ATOM     19  C   UNL     1      -4.087   0.807   3.621  1.00  0.00     0.029 A 
ATOM     20  N   UNL     1      -5.399  -0.527   4.846  1.00  0.00    -0.354 N 
ATOM     21  C   UNL     1      -4.285  -4.643   5.589  1.00  0.00     0.074 A 
ATOM     22  C   UNL     1      -3.011  -4.957   4.977  1.00  0.00     0.031 C 
ATOM     23  C   UNL     1      -5.154   1.527   3.991  1.00  0.00     0.029 A 
ATOM     24  C   UNL     1      -6.059   0.673   4.750  1.00  0.00     0.049 A 
ATOM     25  H   UNL     1      -5.749  -1.299   5.345  1.00  0.00     0.167 HD
ATOM     26  C   UNL     1      -5.036  -5.516   6.304  1.00  0.00     0.037 A 
ATOM     27  C   UNL     1      -7.274   1.038   5.196  1.00  0.00     0.037 A 
ATOM     28  C   UNL     1      -6.301  -5.187   6.912  1.00  0.00     0.049 A 
ATOM     29  C   UNL     1      -8.097   0.044   5.961  1.00  0.00     0.074 A 
ATOM     30  C   UNL     1      -7.114  -5.983   7.700  1.00  0.00     0.029 A 
ATOM     31  N   UNL     1      -6.946  -3.963   6.786  1.00  0.00    -0.354 N 
ATOM     32  N   UNL     1      -7.810  -1.196   6.275  1.00  0.00    -0.248 NA
ATOM     33  C   UNL     1      -9.410   0.497   6.435  1.00  0.00     0.031 C 
ATOM     34  C   UNL     1      -8.276  -5.264   7.999  1.00  0.00     0.029 A 
ATOM     35  C   UNL     1      -8.162  -3.996   7.452  1.00  0.00     0.049 A 
ATOM     36  H   UNL     1      -6.591  -3.186   6.296  1.00  0.00     0.167 HD
ATOM     37  C   UNL     1      -8.897  -1.668   6.996  1.00  0.00     0.074 A 
ATOM     38  C   UNL     1      -9.841  -0.572   7.089  1.00  0.00     0.031 C 
ATOM     39  C   UNL     1      -9.094  -2.898   7.530  1.00  0.00     0.037 A 
BRANCH  26  40
ATOM     40  C   UNL     1      -4.525  -6.923   6.443  1.00  0.00     0.064 A 
ATOM     41  C   UNL     1      -3.389  -7.229   7.208  1.00  0.00     0.173 A 
ATOM     42  C   UNL     1      -5.201  -7.987   5.824  1.00  0.00     0.173 A 
ATOM     43  F   UNL     1      -2.701  -6.252   7.816  1.00  0.00    -0.203 F 
ATOM     44  C   UNL     1      -2.930  -8.540   7.319  1.00  0.00     0.198 A 
ATOM     45  C   UNL     1      -4.758  -9.300   5.963  1.00  0.00     0.198 A 
ATOM     46  F   UNL     1      -6.298  -7.754   5.087  1.00  0.00    -0.203 F 
ATOM     47  F   UNL     1      -1.812  -8.801   8.011  1.00  0.00    -0.200 F 
ATOM     48  C   UNL     1      -3.617  -9.574   6.702  1.00  0.00     0.200 A 
ATOM     49  F   UNL     1      -5.433 -10.299   5.378  1.00  0.00    -0.200 F 
ATOM     50  F   UNL     1      -3.176 -10.835   6.812  1.00  0.00    -0.200 F 
ENDBRANCH  26  40
BRANCH  27  51
ATOM     51  C   UNL     1      -7.775   2.405   4.903  1.00  0.00     0.064 A 
ATOM     52  C   UNL     1      -7.918   3.359   5.918  1.00  0.00     0.173 A 
ATOM     53  C   UNL     1      -8.082   2.796   3.590  1.00  0.00     0.173 A 
ATOM     54  F   UNL     1      -7.651   3.028   7.190  1.00  0.00    -0.203 F 
ATOM     55  C   UNL     1      -8.358   4.649   5.634  1.00  0.00     0.198 A 
ATOM     56  C   UNL     1      -8.491   4.095   3.303  1.00  0.00     0.198 A 
ATOM     57  F   UNL     1      -7.952   1.922   2.581  1.00  0.00    -0.203 F 
ATOM     58  F   UNL     1      -8.519   5.534   6.628  1.00  0.00    -0.200 F 
ATOM     59  C   UNL     1      -8.636   5.019   4.326  1.00  0.00     0.200 A 
ATOM     60  F   UNL     1      -8.736   4.453   2.035  1.00  0.00    -0.200 F 
ATOM     61  F   UNL     1      -9.043   6.266   4.052  1.00  0.00    -0.200 F 
ENDBRANCH  27  51
BRANCH  39  62
ATOM     62  C   UNL     1     -10.372  -3.118   8.287  1.00  0.00     0.064 A 
ATOM     63  C   UNL     1     -11.610  -3.204   7.633  1.00  0.00     0.173 A 
ATOM     64  C   UNL     1     -10.352  -3.281   9.681  1.00  0.00     0.173 A 
ATOM     65  F   UNL     1     -11.685  -3.037   6.304  1.00  0.00    -0.203 F 
ATOM     66  C   UNL     1     -12.784  -3.424   8.350  1.00  0.00     0.198 A 
ATOM     67  C   UNL     1     -11.523  -3.532  10.390  1.00  0.00     0.198 A 
ATOM     68  F   UNL     1      -9.194  -3.210  10.353  1.00  0.00    -0.203 F 
ATOM     69  F   UNL     1     -13.961  -3.454   7.710  1.00  0.00    -0.200 F 
ATOM     70  C   UNL     1     -12.738  -3.596   9.725  1.00  0.00     0.200 A 
ATOM     71  F   UNL     1     -11.475  -3.712  11.717  1.00  0.00    -0.200 F 
ATOM     72  F   UNL     1     -13.867  -3.817  10.412  1.00  0.00    -0.200 F 
ENDBRANCH  39  62
ENDBRANCH  13  14
ENDBRANCH   6   8
ENDBRANCH   3   4
ENDBRANCH   2   3
ENDBRANCH   1   2
BRANCH   1  73
ATOM     73  C   UNL     1       5.878   0.436   3.232  1.00  0.00     0.002 C 
BRANCH  73  74
ATOM     74  C   UNL     1       5.926   0.411   4.765  1.00  0.00     0.021 C 
BRANCH  74  75
ATOM     75  C   UNL     1       6.798  -0.697   5.348  1.00  0.00     0.116 C 
BRANCH  75  76
ATOM     76  N   UNL     1       8.191  -0.493   5.002  1.00  0.00    -0.351 N 
ATOM     77  C   UNL     1       9.291  -0.394   5.802  1.00  0.00     0.278 C 
ATOM     78  H   UNL     1       8.371  -0.415   4.038  1.00  0.00     0.163 HD
ATOM     79  O   UNL     1      10.368  -0.132   5.259  1.00  0.00    -0.268 OA
BRANCH  77  80
ATOM     80  C   UNL     1       9.161  -0.649   7.310  1.00  0.00     0.275 C 
ATOM     81  C   UNL     1      10.112  -1.784   7.730  1.00  0.00     0.085 C 
ATOM     82  N   UNL     1       9.574   0.567   8.073  1.00  0.00    -0.316 N 
ATOM     83  C   UNL     1      10.706  -1.260   9.020  1.00  0.00     0.054 C 
ATOM     84  C   UNL     1      10.847   0.227   8.717  1.00  0.00     0.188 C 
ATOM     85  H   UNL     1       9.746   1.369   7.466  1.00  0.00     0.349 HD
ATOM     86  C   UNL     1      12.019  -1.873   9.467  1.00  0.00     0.010 C 
ATOM     87  C   UNL     1      11.363   1.014   9.921  1.00  0.00     0.065 C 
ATOM     88  C   UNL     1      12.509  -1.132  10.714  1.00  0.00     0.001 C 
ATOM     89  C   UNL     1      12.647   0.376  10.471  1.00  0.00     0.006 C 
BRANCH  82  90
ATOM     90  C   UNL     1       8.509   1.179   8.876  1.00  0.00     0.342 C 
BRANCH  90  91
ATOM     91  C   UNL     1       7.823   0.292   9.859  1.00  0.00     0.190 A 
ATOM     92  C   UNL     1       8.065  -0.106  11.154  1.00  0.00     0.075 A 
ATOM     93  O   UNL     1       6.673  -0.304   9.427  1.00  0.00    -0.355 OA
ATOM     94  C   UNL     1       7.046  -1.034  11.426  1.00  0.00     0.158 A 
ATOM     95  N   UNL     1       6.196  -1.158  10.406  1.00  0.00    -0.088 NA
ENDBRANCH  90  91
ENDBRANCH  82  90
ENDBRANCH  77  80
ENDBRANCH  75  76
ENDBRANCH  74  75
ENDBRANCH  73  74
ENDBRANCH   1  73
TORSDOF 15
