REMARK SMILES COc1ccc2c(c1)c(CC(=O)NCCCCCCNC(=O)c1ccc(-c3c4nc(c(-c5c(F)c(F)c(F)c(F)c5F)c5ccc([nH]5)c(-c5c(F)c(F)c(F)c(F)c5F)c5nc(c(-c6c(F)c(F)c(F)c(F)c6F)c6ccc3[nH]6)C=C5)C=C4)cc1)c(C)n2Cc1ccn(C(F)F)c(=O)c1
REMARK SMILES IDX 15 1 14 2 13 3 11 4 12 5 10 7 9 8 3 9 4 10 8 11 5 12 7 13
REMARK SMILES IDX 6 14 88 15 86 16 87 17 2 18 1 19 89 20 90 21 91 22 99 23
REMARK SMILES IDX 92 24 97 25 93 26 98 27 94 28 95 29 96 30 16 31 17 32 18 33
REMARK SMILES IDX 19 34 20 35 21 36 22 38 23 39 24 40 85 41 25 42 84 43 26 44
REMARK SMILES IDX 27 45 28 46 78 47 29 48 83 49 77 50 79 51 30 52 82 53 76 54
REMARK SMILES IDX 75 55 31 57 63 58 43 59 62 60 44 61 47 62 61 63 80 64 45 65
REMARK SMILES IDX 46 66 60 68 81 69 48 70 32 71 33 72 41 73 34 74 35 75 39 76
REMARK SMILES IDX 42 77 36 78 37 79 40 80 38 81 64 82 65 83 73 84 66 85 67 86
REMARK SMILES IDX 71 87 74 88 68 89 69 90 72 91 70 92 49 93 50 94 58 95 51 96
REMARK SMILES IDX 52 97 56 98 59 99 53 100 54 101 57 102 55 103
REMARK H PARENT 13 6 20 37 79 56 47 67
REMARK Flexibility Score: inf
ROOT
ATOM      1  C   UNL     1       0.630  -0.652   7.497  1.00  0.00     0.021 C 
ENDROOT
BRANCH   1   2
ATOM      2  C   UNL     1      -0.737  -1.323   7.643  1.00  0.00     0.116 C 
BRANCH   2   3
ATOM      3  N   UNL     1      -1.715  -0.748   6.740  1.00  0.00    -0.356 N 
ATOM      4  C   UNL     1      -2.291  -1.287   5.624  1.00  0.00     0.224 C 
ATOM      5  O   UNL     1      -3.075  -0.584   4.980  1.00  0.00    -0.275 OA
ATOM      6  H   UNL     1      -2.007   0.165   6.964  1.00  0.00     0.163 HD
BRANCH   4   7
ATOM      7  C   UNL     1      -2.042  -2.739   5.243  1.00  0.00     0.138 C 
BRANCH   7   8
ATOM      8  C   UNL     1      -0.605  -3.043   4.945  1.00  0.00    -0.010 A 
ATOM      9  C   UNL     1       0.976  -0.956   2.173  1.00  0.00     0.119 A 
ATOM     10  C   UNL     1       2.253  -1.496   2.288  1.00  0.00     0.048 A 
ATOM     11  C   UNL     1      -0.035  -1.372   3.039  1.00  0.00     0.057 A 
ATOM     12  C   UNL     1       2.544  -2.468   3.262  1.00  0.00     0.031 A 
ATOM     13  C   UNL     1       0.218  -2.380   3.992  1.00  0.00     0.007 A 
ATOM     14  C   UNL     1       1.507  -2.909   4.106  1.00  0.00     0.049 A 
ATOM     15  N   UNL     1       1.474  -3.835   5.145  1.00  0.00    -0.340 N 
ATOM     16  C   UNL     1       0.153  -4.071   5.491  1.00  0.00     0.020 A 
ATOM     17  C   UNL     1      -0.336  -5.194   6.339  1.00  0.00     0.065 C 
BRANCH   9  18
ATOM     18  O   UNL     1       0.630   0.038   1.299  1.00  0.00    -0.497 OA
ATOM     19  C   UNL     1       1.125  -0.132  -0.025  1.00  0.00     0.278 C 
ENDBRANCH   9  18
BRANCH  15  20
ATOM     20  C   UNL     1       2.650  -4.523   5.698  1.00  0.00     0.158 C 
BRANCH  20  21
ATOM     21  C   UNL     1       3.100  -4.032   7.067  1.00  0.00    -0.021 A 
ATOM     22  C   UNL     1       2.330  -4.390   8.244  1.00  0.00     0.024 A 
ATOM     23  C   UNL     1       4.257  -3.370   7.256  1.00  0.00     0.077 A 
ATOM     24  C   UNL     1       2.708  -4.008   9.470  1.00  0.00     0.095 A 
ATOM     25  C   UNL     1       4.732  -2.983   8.625  1.00  0.00     0.255 A 
ATOM     26  N   UNL     1       3.871  -3.295   9.669  1.00  0.00    -0.258 N 
ATOM     27  O   UNL     1       5.816  -2.438   8.736  1.00  0.00    -0.269 OA
BRANCH  26  28
ATOM     28  C   UNL     1       4.311  -3.011  11.014  1.00  0.00     0.451 C 
ATOM     29  F   UNL     1       5.250  -3.902  11.410  1.00  0.00    -0.185 F 
ATOM     30  F   UNL     1       4.838  -1.770  11.130  1.00  0.00    -0.185 F 
ENDBRANCH  26  28
ENDBRANCH  20  21
ENDBRANCH  15  20
ENDBRANCH   7   8
ENDBRANCH   4   7
ENDBRANCH   2   3
ENDBRANCH   1   2
BRANCH   1  31
ATOM     31  C   UNL     1       0.672   0.786   8.029  1.00  0.00     0.002 C 
BRANCH  31  32
ATOM     32  C   UNL     1       0.369   0.933   9.525  1.00  0.00     0.002 C 
BRANCH  32  33
ATOM     33  C   UNL     1       1.311   0.167  10.463  1.00  0.00     0.021 C 
BRANCH  33  34
ATOM     34  C   UNL     1       2.785   0.536  10.304  1.00  0.00     0.116 C 
BRANCH  34  35
ATOM     35  N   UNL     1       3.054   1.942  10.503  1.00  0.00    -0.352 N 
ATOM     36  C   UNL     1       3.431   2.714  11.564  1.00  0.00     0.251 C 
ATOM     37  H   UNL     1       2.940   2.468   9.678  1.00  0.00     0.163 HD
ATOM     38  O   UNL     1       3.736   3.881  11.301  1.00  0.00    -0.269 OA
BRANCH  36  39
ATOM     39  C   UNL     1       3.417   2.292  12.992  1.00  0.00     0.039 A 
ATOM     40  C   UNL     1       3.134   1.014  13.475  1.00  0.00     0.014 A 
ATOM     41  C   UNL     1       3.636   3.325  13.926  1.00  0.00     0.014 A 
ATOM     42  C   UNL     1       2.953   0.805  14.840  1.00  0.00     0.010 A 
ATOM     43  C   UNL     1       3.471   3.120  15.289  1.00  0.00     0.010 A 
ATOM     44  C   UNL     1       3.067   1.872  15.739  1.00  0.00    -0.014 A 
BRANCH  44  45
ATOM     45  C   UNL     1       2.858   1.608  17.161  1.00  0.00     0.031 A 
ATOM     46  C   UNL     1       3.806   0.611  17.729  1.00  0.00     0.074 A 
ATOM     47  C   UNL     1       1.950   2.258  17.922  1.00  0.00     0.049 A 
ATOM     48  N   UNL     1       3.528  -0.557  18.207  1.00  0.00    -0.248 NA
ATOM     49  C   UNL     1       5.248   0.886  17.636  1.00  0.00     0.031 C 
ATOM     50  C   UNL     1       1.152   3.433  17.555  1.00  0.00     0.029 A 
ATOM     51  N   UNL     1       1.599   2.054  19.229  1.00  0.00    -0.354 N 
ATOM     52  C   UNL     1       4.737  -1.089  18.653  1.00  0.00     0.074 A 
ATOM     53  C   UNL     1       5.773  -0.229  18.149  1.00  0.00     0.031 C 
ATOM     54  C   UNL     1       0.593   3.968  18.666  1.00  0.00     0.029 A 
ATOM     55  C   UNL     1       0.856   3.089  19.791  1.00  0.00     0.049 A 
ATOM     56  H   UNL     1       1.850   1.244  19.729  1.00  0.00     0.167 HD
ATOM     57  C   UNL     1       4.755  -2.051  19.617  1.00  0.00     0.037 A 
ATOM     58  C   UNL     1       0.500   3.216  21.095  1.00  0.00     0.037 A 
ATOM     59  C   UNL     1       3.455  -2.645  19.773  1.00  0.00     0.049 A 
ATOM     60  C   UNL     1       0.545   1.867  21.698  1.00  0.00     0.074 A 
ATOM     61  C   UNL     1       2.701  -3.602  19.133  1.00  0.00     0.029 A 
ATOM     62  N   UNL     1       2.610  -1.910  20.556  1.00  0.00    -0.354 N 
ATOM     63  N   UNL     1      -0.288   0.914  21.392  1.00  0.00    -0.248 NA
ATOM     64  C   UNL     1       1.728   1.458  22.447  1.00  0.00     0.031 C 
ATOM     65  C   UNL     1       1.338  -3.307  19.442  1.00  0.00     0.029 A 
ATOM     66  C   UNL     1       1.302  -2.206  20.293  1.00  0.00     0.049 A 
ATOM     67  H   UNL     1       2.906  -1.250  21.224  1.00  0.00     0.167 HD
ATOM     68  C   UNL     1       0.459  -0.236  21.526  1.00  0.00     0.074 A 
ATOM     69  C   UNL     1       1.605   0.133  22.346  1.00  0.00     0.031 C 
ATOM     70  C   UNL     1       0.261  -1.287  20.684  1.00  0.00     0.037 A 
BRANCH  57  71
ATOM     71  C   UNL     1       5.768  -2.119  20.743  1.00  0.00     0.064 A 
ATOM     72  C   UNL     1       5.734  -3.210  21.639  1.00  0.00     0.173 A 
ATOM     73  C   UNL     1       6.536  -1.014  21.168  1.00  0.00     0.173 A 
ATOM     74  F   UNL     1       5.008  -4.303  21.357  1.00  0.00    -0.203 F 
ATOM     75  C   UNL     1       6.372  -3.168  22.884  1.00  0.00     0.198 A 
ATOM     76  C   UNL     1       7.211  -0.995  22.389  1.00  0.00     0.198 A 
ATOM     77  F   UNL     1       6.569   0.134  20.482  1.00  0.00    -0.203 F 
ATOM     78  F   UNL     1       6.217  -4.182  23.747  1.00  0.00    -0.200 F 
ATOM     79  C   UNL     1       7.107  -2.060  23.259  1.00  0.00     0.200 A 
ATOM     80  F   UNL     1       7.893   0.102  22.747  1.00  0.00    -0.200 F 
ATOM     81  F   UNL     1       7.674  -1.994  24.471  1.00  0.00    -0.200 F 
ENDBRANCH  57  71
BRANCH  58  82
ATOM     82  C   UNL     1       0.353   4.419  21.950  1.00  0.00     0.064 A 
ATOM     83  C   UNL     1      -0.287   4.332  23.202  1.00  0.00     0.173 A 
ATOM     84  C   UNL     1       1.138   5.563  21.728  1.00  0.00     0.173 A 
ATOM     85  F   UNL     1      -1.041   3.263  23.502  1.00  0.00    -0.203 F 
ATOM     86  C   UNL     1      -0.085   5.289  24.200  1.00  0.00     0.198 A 
ATOM     87  C   UNL     1       1.335   6.522  22.725  1.00  0.00     0.198 A 
ATOM     88  F   UNL     1       1.817   5.714  20.582  1.00  0.00    -0.203 F 
ATOM     89  F   UNL     1      -0.633   5.118  25.411  1.00  0.00    -0.200 F 
ATOM     90  C   UNL     1       0.745   6.372  23.968  1.00  0.00     0.200 A 
ATOM     91  F   UNL     1       2.164   7.551  22.503  1.00  0.00    -0.200 F 
ATOM     92  F   UNL     1       1.014   7.240  24.953  1.00  0.00    -0.200 F 
ENDBRANCH  58  82
BRANCH  70  93
ATOM     93  C   UNL     1      -1.065  -1.382  20.003  1.00  0.00     0.064 A 
ATOM     94  C   UNL     1      -1.517  -0.496  19.012  1.00  0.00     0.173 A 
ATOM     95  C   UNL     1      -1.880  -2.475  20.322  1.00  0.00     0.173 A 
ATOM     96  F   UNL     1      -0.759   0.531  18.608  1.00  0.00    -0.203 F 
ATOM     97  C   UNL     1      -2.748  -0.688  18.389  1.00  0.00     0.198 A 
ATOM     98  C   UNL     1      -3.091  -2.684  19.674  1.00  0.00     0.198 A 
ATOM     99  F   UNL     1      -1.476  -3.369  21.238  1.00  0.00    -0.203 F 
ATOM    100  F   UNL     1      -3.169   0.172  17.449  1.00  0.00    -0.200 F 
ATOM    101  C   UNL     1      -3.529  -1.787  18.714  1.00  0.00     0.200 A 
ATOM    102  F   UNL     1      -3.821  -3.770  19.962  1.00  0.00    -0.200 F 
ATOM    103  F   UNL     1      -4.693  -1.996  18.083  1.00  0.00    -0.200 F 
ENDBRANCH  70  93
ENDBRANCH  44  45
ENDBRANCH  36  39
ENDBRANCH  34  35
ENDBRANCH  33  34
ENDBRANCH  32  33
ENDBRANCH  31  32
ENDBRANCH   1  31
TORSDOF 18
