REMARK SMILES CC[C@](C)(NC(=O)c1cccc2ncccc12)C(=O)NCCCCCCNC(=O)c1ccc(-c2c3nc(c(-c4c(F)c(F)c(F)c(F)c4F)c4ccc([nH]4)c(-c4c(F)c(F)c(F)c(F)c4F)c4nc(c(-c5c(F)c(F)c(F)c(F)c5F)c5ccc2[nH]5)C=C4)C=C3)cc1
REMARK SMILES IDX 23 1 22 2 21 3 20 4 18 5 19 6 3 8 4 9 2 10 1 11 5 12 6 13
REMARK SMILES IDX 7 15 8 16 9 17 17 18 10 19 12 20 16 21 11 22 13 23 15 24
REMARK SMILES IDX 14 25 24 26 25 27 26 28 27 29 28 30 29 32 30 33 31 34 92 35
REMARK SMILES IDX 32 36 91 37 33 38 34 39 35 40 85 41 36 42 90 43 84 44 86 45
REMARK SMILES IDX 37 46 89 47 83 48 82 49 38 51 70 52 50 53 69 54 51 55 54 56
REMARK SMILES IDX 68 57 87 58 52 59 53 60 67 62 88 63 55 64 39 65 40 66 48 67
REMARK SMILES IDX 41 68 42 69 46 70 49 71 43 72 44 73 47 74 45 75 71 76 72 77
REMARK SMILES IDX 80 78 73 79 74 80 78 81 81 82 75 83 76 84 79 85 77 86 56 87
REMARK SMILES IDX 57 88 65 89 58 90 59 91 63 92 66 93 60 94 61 95 64 96 62 97
REMARK H PARENT 20 7 5 14 27 31 86 50 54 61
REMARK Flexibility Score: inf
ROOT
ATOM      1  C   UNL     1       4.216   6.054   1.070  1.00  0.00     0.002 C 
ENDROOT
BRANCH   1   2
ATOM      2  C   UNL     1       2.701   5.857   0.998  1.00  0.00     0.021 C 
BRANCH   2   3
ATOM      3  C   UNL     1       2.148   5.160  -0.249  1.00  0.00     0.116 C 
BRANCH   3   4
ATOM      4  N   UNL     1       2.723   3.862  -0.570  1.00  0.00    -0.354 N 
ATOM      5  C   UNL     1       2.365   2.580  -0.229  1.00  0.00     0.245 C 
ATOM      6  O   UNL     1       3.042   1.668  -0.714  1.00  0.00    -0.272 OA
ATOM      7  H   UNL     1       3.522   3.913  -1.143  1.00  0.00     0.163 HD
BRANCH   5   8
ATOM      8  C   UNL     1       1.127   2.285   0.659  1.00  0.00     0.116 C 
ATOM      9  C   UNL     1       1.019   0.804   1.069  1.00  0.00     0.045 C 
BRANCH   8  10
ATOM     10  C   UNL     1      -0.100   2.583  -0.288  1.00  0.00     0.035 C 
ATOM     11  C   UNL     1       0.042   2.028  -1.717  1.00  0.00     0.007 C 
ENDBRANCH   8  10
BRANCH   8  12
ATOM     12  N   UNL     1       1.048   3.097   1.924  1.00  0.00    -0.338 N 
ATOM     13  C   UNL     1       1.762   3.151   3.127  1.00  0.00     0.252 C 
ATOM     14  H   UNL     1       0.313   3.752   1.899  1.00  0.00     0.164 HD
ATOM     15  O   UNL     1       1.118   3.608   4.075  1.00  0.00    -0.269 OA
BRANCH  13  16
ATOM     16  C   UNL     1       3.236   2.818   3.336  1.00  0.00     0.049 A 
ATOM     17  C   UNL     1       4.081   2.804   2.236  1.00  0.00     0.014 A 
ATOM     18  C   UNL     1       3.885   2.727   4.613  1.00  0.00     0.013 A 
ATOM     19  C   UNL     1       5.453   2.611   2.284  1.00  0.00     0.003 A 
ATOM     20  C   UNL     1       5.307   2.569   4.664  1.00  0.00     0.071 A 
ATOM     21  C   UNL     1       3.271   2.826   5.884  1.00  0.00     0.013 A 
ATOM     22  C   UNL     1       6.053   2.486   3.510  1.00  0.00     0.029 A 
ATOM     23  N   UNL     1       6.033   2.533   5.786  1.00  0.00    -0.256 NA
ATOM     24  C   UNL     1       4.028   2.811   7.058  1.00  0.00     0.021 A 
ATOM     25  C   UNL     1       5.394   2.669   6.957  1.00  0.00     0.112 A 
ENDBRANCH  13  16
ENDBRANCH   8  12
ENDBRANCH   5   8
ENDBRANCH   3   4
ENDBRANCH   2   3
ENDBRANCH   1   2
BRANCH   1  26
ATOM     26  C   UNL     1       4.843   6.780  -0.113  1.00  0.00     0.002 C 
BRANCH  26  27
ATOM     27  C   UNL     1       4.254   8.158  -0.385  1.00  0.00     0.021 C 
BRANCH  27  28
ATOM     28  C   UNL     1       4.333   9.111   0.800  1.00  0.00     0.116 C 
BRANCH  28  29
ATOM     29  N   UNL     1       5.707   9.439   1.149  1.00  0.00    -0.352 N 
ATOM     30  C   UNL     1       6.294  10.678   1.210  1.00  0.00     0.251 C 
ATOM     31  H   UNL     1       6.290   8.676   1.368  1.00  0.00     0.163 HD
ATOM     32  O   UNL     1       7.511  10.802   1.308  1.00  0.00    -0.269 OA
BRANCH  30  33
ATOM     33  C   UNL     1       5.429  11.869   1.133  1.00  0.00     0.039 A 
ATOM     34  C   UNL     1       5.727  12.872   0.210  1.00  0.00     0.014 A 
ATOM     35  C   UNL     1       4.286  11.951   1.935  1.00  0.00     0.014 A 
ATOM     36  C   UNL     1       4.839  13.935   0.049  1.00  0.00     0.010 A 
ATOM     37  C   UNL     1       3.362  12.962   1.708  1.00  0.00     0.010 A 
ATOM     38  C   UNL     1       3.633  13.969   0.770  1.00  0.00    -0.014 A 
BRANCH  38  39
ATOM     39  C   UNL     1       2.645  15.055   0.562  1.00  0.00     0.031 A 
ATOM     40  C   UNL     1       2.301  15.983   1.692  1.00  0.00     0.074 A 
ATOM     41  C   UNL     1       2.013  15.165  -0.622  1.00  0.00     0.049 A 
ATOM     42  N   UNL     1       1.432  16.962   1.725  1.00  0.00    -0.248 NA
ATOM     43  C   UNL     1       3.004  15.760   2.965  1.00  0.00     0.031 C 
ATOM     44  C   UNL     1       2.220  14.286  -1.774  1.00  0.00     0.029 A 
ATOM     45  N   UNL     1       1.061  16.056  -1.049  1.00  0.00    -0.354 N 
ATOM     46  C   UNL     1       1.479  17.461   3.020  1.00  0.00     0.074 A 
ATOM     47  C   UNL     1       2.406  16.633   3.760  1.00  0.00     0.031 C 
ATOM     48  C   UNL     1       1.440  14.698  -2.786  1.00  0.00     0.029 A 
ATOM     49  C   UNL     1       0.649  15.843  -2.342  1.00  0.00     0.049 A 
ATOM     50  H   UNL     1       0.708  16.779  -0.483  1.00  0.00     0.167 HD
ATOM     51  C   UNL     1       0.829  18.530   3.538  1.00  0.00     0.037 A 
ATOM     52  C   UNL     1      -0.268  16.493  -3.082  1.00  0.00     0.037 A 
ATOM     53  C   UNL     1      -0.085  19.354   2.790  1.00  0.00     0.049 A 
ATOM     54  C   UNL     1      -0.989  17.671  -2.484  1.00  0.00     0.074 A 
ATOM     55  C   UNL     1      -0.751  20.495   3.200  1.00  0.00     0.029 A 
ATOM     56  N   UNL     1      -0.470  19.115   1.478  1.00  0.00    -0.354 N 
ATOM     57  N   UNL     1      -0.878  18.187  -1.284  1.00  0.00    -0.248 NA
ATOM     58  C   UNL     1      -1.955  18.363  -3.348  1.00  0.00     0.031 C 
ATOM     59  C   UNL     1      -1.586  20.911   2.157  1.00  0.00     0.029 A 
ATOM     60  C   UNL     1      -1.390  20.070   1.073  1.00  0.00     0.049 A 
ATOM     61  H   UNL     1      -0.139  18.377   0.918  1.00  0.00     0.167 HD
ATOM     62  C   UNL     1      -1.738  19.276  -1.254  1.00  0.00     0.074 A 
ATOM     63  C   UNL     1      -2.352  19.356  -2.564  1.00  0.00     0.031 C 
ATOM     64  C   UNL     1      -1.995  20.133  -0.235  1.00  0.00     0.037 A 
BRANCH  51  65
ATOM     65  C   UNL     1       1.081  18.857   4.983  1.00  0.00     0.064 A 
ATOM     66  C   UNL     1       2.335  19.298   5.435  1.00  0.00     0.173 A 
ATOM     67  C   UNL     1       0.054  18.729   5.931  1.00  0.00     0.173 A 
ATOM     68  F   UNL     1       3.356  19.428   4.574  1.00  0.00    -0.203 F 
ATOM     69  C   UNL     1       2.564  19.553   6.785  1.00  0.00     0.198 A 
ATOM     70  C   UNL     1       0.277  19.022   7.275  1.00  0.00     0.198 A 
ATOM     71  F   UNL     1      -1.167  18.318   5.557  1.00  0.00    -0.203 F 
ATOM     72  F   UNL     1       3.790  19.903   7.200  1.00  0.00    -0.200 F 
ATOM     73  C   UNL     1       1.534  19.420   7.702  1.00  0.00     0.200 A 
ATOM     74  F   UNL     1      -0.725  18.908   8.158  1.00  0.00    -0.200 F 
ATOM     75  F   UNL     1       1.756  19.665   9.001  1.00  0.00    -0.200 F 
ENDBRANCH  51  65
BRANCH  52  76
ATOM     76  C   UNL     1      -0.531  16.055  -4.478  1.00  0.00     0.064 A 
ATOM     77  C   UNL     1      -0.141  16.845  -5.568  1.00  0.00     0.173 A 
ATOM     78  C   UNL     1      -1.157  14.829  -4.751  1.00  0.00     0.173 A 
ATOM     79  F   UNL     1       0.445  18.033  -5.359  1.00  0.00    -0.203 F 
ATOM     80  C   UNL     1      -0.377  16.431  -6.878  1.00  0.00     0.198 A 
ATOM     81  C   UNL     1      -1.365  14.403  -6.061  1.00  0.00     0.198 A 
ATOM     82  F   UNL     1      -1.543  14.033  -3.744  1.00  0.00    -0.203 F 
ATOM     83  F   UNL     1      -0.027  17.222  -7.901  1.00  0.00    -0.200 F 
ATOM     84  C   UNL     1      -0.981  15.207  -7.123  1.00  0.00     0.200 A 
ATOM     85  F   UNL     1      -1.932  13.212  -6.293  1.00  0.00    -0.200 F 
ATOM     86  F   UNL     1      -1.196  14.804  -8.383  1.00  0.00    -0.200 F 
ENDBRANCH  52  76
BRANCH  64  87
ATOM     87  C   UNL     1      -2.962  21.253  -0.503  1.00  0.00     0.064 A 
ATOM     88  C   UNL     1      -4.334  21.020  -0.673  1.00  0.00     0.173 A 
ATOM     89  C   UNL     1      -2.511  22.581  -0.547  1.00  0.00     0.173 A 
ATOM     90  F   UNL     1      -4.815  19.767  -0.654  1.00  0.00    -0.203 F 
ATOM     91  C   UNL     1      -5.215  22.073  -0.907  1.00  0.00     0.198 A 
ATOM     92  C   UNL     1      -3.400  23.634  -0.745  1.00  0.00     0.198 A 
ATOM     93  F   UNL     1      -1.210  22.861  -0.383  1.00  0.00    -0.203 F 
ATOM     94  F   UNL     1      -6.514  21.822  -1.120  1.00  0.00    -0.200 F 
ATOM     95  C   UNL     1      -4.749  23.379  -0.934  1.00  0.00     0.200 A 
ATOM     96  F   UNL     1      -2.949  24.896  -0.754  1.00  0.00    -0.200 F 
ATOM     97  F   UNL     1      -5.600  24.391  -1.149  1.00  0.00    -0.200 F 
ENDBRANCH  64  87
ENDBRANCH  38  39
ENDBRANCH  30  33
ENDBRANCH  28  29
ENDBRANCH  27  28
ENDBRANCH  26  27
ENDBRANCH   1  26
TORSDOF 16
