REMARK SMILES CC[C@@H](C)[C@@H](C)Nc1cccc(F)c1C(=O)NCCCCCCNC(=O)c1ccc(-c2c3nc(c(-c4c(F)c(F)c(F)c(F)c4F)c4ccc([nH]4)c(-c4c(F)c(F)c(F)c(F)c4F)c4nc(c(-c5c(F)c(F)c(F)c(F)c5F)c5ccc2[nH]5)C=C4)C=C3)cc1
REMARK SMILES IDX 19 1 18 2 17 3 15 4 16 5 14 7 8 8 9 9 10 10 12 11 11 12
REMARK SMILES IDX 13 13 7 14 5 16 6 17 3 18 4 19 2 20 1 21 20 22 21 23 22 24
REMARK SMILES IDX 23 25 24 26 25 27 26 29 27 30 28 31 89 32 29 33 88 34 30 35
REMARK SMILES IDX 31 36 32 37 82 38 33 39 87 40 81 41 83 42 34 43 86 44 80 45
REMARK SMILES IDX 79 46 35 48 67 49 47 50 66 51 48 52 51 53 65 54 84 55 49 56
REMARK SMILES IDX 50 57 64 59 85 60 52 61 36 62 37 63 45 64 38 65 39 66 43 67
REMARK SMILES IDX 46 68 40 69 41 70 44 71 42 72 68 73 69 74 77 75 70 76 71 77
REMARK SMILES IDX 75 78 78 79 72 80 73 81 76 82 74 83 53 84 54 85 62 86 55 87
REMARK SMILES IDX 56 88 60 89 63 90 57 91 58 92 61 93 59 94
REMARK H PARENT 17 6 7 15 24 28 83 47 51 58
REMARK Flexibility Score: inf
ROOT
ATOM      1  C   UNL     1       1.808  -9.931  -1.562  1.00  0.00     0.021 C 
ENDROOT
BRANCH   1   2
ATOM      2  C   UNL     1       0.757  -8.841  -1.375  1.00  0.00     0.116 C 
BRANCH   2   3
ATOM      3  N   UNL     1       1.343  -7.536  -1.166  1.00  0.00    -0.352 N 
ATOM      4  C   UNL     1       1.062  -6.295  -1.680  1.00  0.00     0.256 C 
ATOM      5  O   UNL     1       1.915  -5.437  -1.430  1.00  0.00    -0.269 OA
ATOM      6  H   UNL     1       2.092  -7.538  -0.528  1.00  0.00     0.163 HD
BRANCH   4   7
ATOM      7  C   UNL     1      -0.121  -5.961  -2.546  1.00  0.00     0.098 A 
ATOM      8  C   UNL     1      -0.098  -4.778  -3.334  1.00  0.00     0.050 A 
ATOM      9  C   UNL     1      -1.122  -4.565  -4.280  1.00  0.00     0.027 A 
ATOM     10  C   UNL     1      -2.194  -5.443  -4.407  1.00  0.00     0.005 A 
ATOM     11  C   UNL     1      -1.286  -6.735  -2.587  1.00  0.00     0.138 A 
ATOM     12  C   UNL     1      -2.295  -6.507  -3.526  1.00  0.00     0.040 A 
ATOM     13  F   UNL     1      -1.537  -7.685  -1.676  1.00  0.00    -0.206 F 
BRANCH   8  14
ATOM     14  N   UNL     1       0.852  -3.766  -3.131  1.00  0.00    -0.382 N 
ATOM     15  H   UNL     1       1.812  -3.985  -3.131  1.00  0.00     0.160 HD
BRANCH  14  16
ATOM     16  C   UNL     1       0.414  -2.378  -2.918  1.00  0.00     0.079 C 
ATOM     17  C   UNL     1       0.978  -1.547  -4.075  1.00  0.00     0.031 C 
BRANCH  16  18
ATOM     18  C   UNL     1       0.878  -1.863  -1.515  1.00  0.00     0.008 C 
ATOM     19  C   UNL     1       0.293  -2.719  -0.379  1.00  0.00     0.010 C 
BRANCH  18  20
ATOM     20  C   UNL     1       0.482  -0.382  -1.295  1.00  0.00     0.002 C 
ATOM     21  C   UNL     1       0.966   0.206   0.025  1.00  0.00     0.004 C 
ENDBRANCH  18  20
ENDBRANCH  16  18
ENDBRANCH  14  16
ENDBRANCH   8  14
ENDBRANCH   4   7
ENDBRANCH   2   3
ENDBRANCH   1   2
BRANCH   1  22
ATOM     22  C   UNL     1       2.720 -10.211  -0.365  1.00  0.00     0.002 C 
BRANCH  22  23
ATOM     23  C   UNL     1       2.025 -10.544   0.957  1.00  0.00     0.002 C 
BRANCH  23  24
ATOM     24  C   UNL     1       0.951 -11.631   0.895  1.00  0.00     0.021 C 
BRANCH  24  25
ATOM     25  C   UNL     1       1.386 -12.948   0.266  1.00  0.00     0.116 C 
BRANCH  25  26
ATOM     26  N   UNL     1       2.459 -13.595   1.000  1.00  0.00    -0.352 N 
ATOM     27  C   UNL     1       2.530 -14.876   1.490  1.00  0.00     0.251 C 
ATOM     28  H   UNL     1       3.250 -13.034   1.172  1.00  0.00     0.163 HD
ATOM     29  O   UNL     1       3.448 -15.207   2.230  1.00  0.00    -0.269 OA
BRANCH  27  30
ATOM     30  C   UNL     1       1.478 -15.857   1.142  1.00  0.00     0.039 A 
ATOM     31  C   UNL     1       0.948 -16.663   2.152  1.00  0.00     0.014 A 
ATOM     32  C   UNL     1       1.021 -15.988  -0.172  1.00  0.00     0.014 A 
ATOM     33  C   UNL     1      -0.081 -17.560   1.855  1.00  0.00     0.010 A 
ATOM     34  C   UNL     1      -0.056 -16.825  -0.452  1.00  0.00     0.010 A 
ATOM     35  C   UNL     1      -0.615 -17.624   0.557  1.00  0.00    -0.014 A 
BRANCH  35  36
ATOM     36  C   UNL     1      -1.749 -18.527   0.233  1.00  0.00     0.031 A 
ATOM     37  C   UNL     1      -1.559 -19.650  -0.750  1.00  0.00     0.074 A 
ATOM     38  C   UNL     1      -2.959 -18.308   0.785  1.00  0.00     0.049 A 
ATOM     39  N   UNL     1      -2.443 -20.491  -1.224  1.00  0.00    -0.248 NA
ATOM     40  C   UNL     1      -0.202 -19.842  -1.286  1.00  0.00     0.031 C 
ATOM     41  C   UNL     1      -3.273 -17.240   1.735  1.00  0.00     0.029 A 
ATOM     42  N   UNL     1      -4.152 -18.971   0.626  1.00  0.00    -0.354 N 
ATOM     43  C   UNL     1      -1.750 -21.305  -2.111  1.00  0.00     0.074 A 
ATOM     44  C   UNL     1      -0.388 -20.823  -2.157  1.00  0.00     0.031 C 
ATOM     45  C   UNL     1      -4.562 -17.340   2.099  1.00  0.00     0.029 A 
ATOM     46  C   UNL     1      -5.179 -18.446   1.373  1.00  0.00     0.049 A 
ATOM     47  H   UNL     1      -4.260 -19.749   0.033  1.00  0.00     0.167 HD
ATOM     48  C   UNL     1      -2.204 -22.378  -2.800  1.00  0.00     0.037 A 
ATOM     49  C   UNL     1      -6.474 -18.811   1.457  1.00  0.00     0.037 A 
ATOM     50  C   UNL     1      -3.555 -22.870  -2.732  1.00  0.00     0.049 A 
ATOM     51  C   UNL     1      -6.961 -19.978   0.640  1.00  0.00     0.074 A 
ATOM     52  C   UNL     1      -4.102 -23.966  -3.376  1.00  0.00     0.029 A 
ATOM     53  N   UNL     1      -4.567 -22.303  -1.973  1.00  0.00    -0.354 N 
ATOM     54  N   UNL     1      -6.288 -20.761  -0.168  1.00  0.00    -0.248 NA
ATOM     55  C   UNL     1      -8.389 -20.315   0.746  1.00  0.00     0.031 C 
ATOM     56  C   UNL     1      -5.457 -24.036  -3.044  1.00  0.00     0.029 A 
ATOM     57  C   UNL     1      -5.740 -23.019  -2.146  1.00  0.00     0.049 A 
ATOM     58  H   UNL     1      -4.467 -21.511  -1.397  1.00  0.00     0.167 HD
ATOM     59  C   UNL     1      -7.197 -21.702  -0.634  1.00  0.00     0.074 A 
ATOM     60  C   UNL     1      -8.469 -21.399  -0.014  1.00  0.00     0.031 C 
ATOM     61  C   UNL     1      -6.993 -22.724  -1.499  1.00  0.00     0.037 A 
BRANCH  48  62
ATOM     62  C   UNL     1      -1.235 -23.122  -3.670  1.00  0.00     0.064 A 
ATOM     63  C   UNL     1      -1.383 -23.125  -5.065  1.00  0.00     0.173 A 
ATOM     64  C   UNL     1      -0.222 -23.919  -3.115  1.00  0.00     0.173 A 
ATOM     65  F   UNL     1      -2.340 -22.386  -5.646  1.00  0.00    -0.203 F 
ATOM     66  C   UNL     1      -0.569 -23.918  -5.870  1.00  0.00     0.198 A 
ATOM     67  C   UNL     1       0.610 -24.687  -3.925  1.00  0.00     0.198 A 
ATOM     68  F   UNL     1      -0.032 -23.941  -1.787  1.00  0.00    -0.203 F 
ATOM     69  F   UNL     1      -0.759 -23.941  -7.197  1.00  0.00    -0.200 F 
ATOM     70  C   UNL     1       0.426 -24.697  -5.300  1.00  0.00     0.200 A 
ATOM     71  F   UNL     1       1.585 -25.422  -3.374  1.00  0.00    -0.200 F 
ATOM     72  F   UNL     1       1.208 -25.461  -6.075  1.00  0.00    -0.200 F 
ENDBRANCH  48  62
BRANCH  49  73
ATOM     73  C   UNL     1      -7.396 -18.083   2.370  1.00  0.00     0.064 A 
ATOM     74  C   UNL     1      -7.764 -16.750   2.135  1.00  0.00     0.173 A 
ATOM     75  C   UNL     1      -7.932 -18.716   3.501  1.00  0.00     0.173 A 
ATOM     76  F   UNL     1      -7.279 -16.096   1.070  1.00  0.00    -0.203 F 
ATOM     77  C   UNL     1      -8.621 -16.076   3.003  1.00  0.00     0.198 A 
ATOM     78  C   UNL     1      -8.814 -18.051   4.350  1.00  0.00     0.198 A 
ATOM     79  F   UNL     1      -7.628 -19.997   3.758  1.00  0.00    -0.203 F 
ATOM     80  F   UNL     1      -8.933 -14.793   2.770  1.00  0.00    -0.200 F 
ATOM     81  C   UNL     1      -9.153 -16.729   4.104  1.00  0.00     0.200 A 
ATOM     82  F   UNL     1      -9.348 -18.696   5.396  1.00  0.00    -0.200 F 
ATOM     83  F   UNL     1      -9.997 -16.088   4.924  1.00  0.00    -0.200 F 
ENDBRANCH  49  73
BRANCH  61  84
ATOM     84  C   UNL     1      -8.149 -23.633  -1.801  1.00  0.00     0.064 A 
ATOM     85  C   UNL     1      -8.130 -24.968  -1.366  1.00  0.00     0.173 A 
ATOM     86  C   UNL     1      -9.222 -23.218  -2.602  1.00  0.00     0.173 A 
ATOM     87  F   UNL     1      -7.120 -25.417  -0.605  1.00  0.00    -0.203 F 
ATOM     88  C   UNL     1      -9.130 -25.859  -1.742  1.00  0.00     0.198 A 
ATOM     89  C   UNL     1     -10.238 -24.104  -2.949  1.00  0.00     0.198 A 
ATOM     90  F   UNL     1      -9.291 -21.950  -3.034  1.00  0.00    -0.203 F 
ATOM     91  F   UNL     1      -9.065 -27.140  -1.353  1.00  0.00    -0.200 F 
ATOM     92  C   UNL     1     -10.184 -25.426  -2.531  1.00  0.00     0.200 A 
ATOM     93  F   UNL     1     -11.269 -23.679  -3.692  1.00  0.00    -0.200 F 
ATOM     94  F   UNL     1     -11.150 -26.283  -2.889  1.00  0.00    -0.200 F 
ENDBRANCH  61  84
ENDBRANCH  35  36
ENDBRANCH  27  30
ENDBRANCH  25  26
ENDBRANCH  24  25
ENDBRANCH  23  24
ENDBRANCH  22  23
ENDBRANCH   1  22
TORSDOF 17
