REMARK SMILES COc1cc([C@@H]2CC(=O)Nc3c(C(=O)NCCCCCCNC(=O)c4ccc(-c5c6nc(c(-c7c(F)c(F)c(F)c(F)c7F)c7ccc([nH]7)c(-c7c(F)c(F)c(F)c(F)c7F)c7nc(c(-c8c(F)c(F)c(F)c(F)c8F)c8ccc5[nH]8)C=C7)C=C6)cc4)cn(-c4ccc(F)cc4)c32)c(OC)c2c1OCO2
REMARK SMILES IDX 18 1 17 2 16 3 15 4 13 5 14 6 12 8 6 9 7 10 97 11 8 12 11 13
REMARK SMILES IDX 89 14 9 15 10 16 88 17 5 19 3 20 4 21 102 22 101 23 103 24
REMARK SMILES IDX 98 25 105 26 104 27 2 28 1 29 99 30 100 31 90 32 91 33 96 34
REMARK SMILES IDX 92 35 95 36 93 37 94 38 19 39 20 40 21 41 22 42 23 43 24 45
REMARK SMILES IDX 25 46 26 47 87 48 27 49 86 50 28 51 29 52 30 53 80 54 31 55
REMARK SMILES IDX 85 56 79 57 81 58 32 59 84 60 78 61 77 62 33 64 65 65 45 66
REMARK SMILES IDX 64 67 46 68 49 69 63 70 82 71 47 72 48 73 62 75 83 76 50 77
REMARK SMILES IDX 34 78 35 79 43 80 36 81 37 82 41 83 44 84 38 85 39 86 42 87
REMARK SMILES IDX 40 88 66 89 67 90 75 91 68 92 69 93 73 94 76 95 70 96 71 97
REMARK SMILES IDX 74 98 72 99 51 100 52 101 60 102 53 103 54 104 58 105 61 106
REMARK SMILES IDX 55 107 56 108 59 109 57 110
REMARK H PARENT 15 7 10 18 22 44 81 63 49 74
REMARK Flexibility Score: inf
ROOT
ATOM      1  C   UNL     1       1.135  -3.843  12.440  1.00  0.00     0.002 C 
ENDROOT
BRANCH   1   2
ATOM      2  C   UNL     1       0.724  -3.289  11.075  1.00  0.00     0.021 C 
BRANCH   2   3
ATOM      3  C   UNL     1       1.242  -4.120   9.894  1.00  0.00     0.116 C 
BRANCH   3   4
ATOM      4  N   UNL     1       0.256  -5.099   9.517  1.00  0.00    -0.352 N 
ATOM      5  C   UNL     1      -0.728  -5.112   8.568  1.00  0.00     0.254 C 
ATOM      6  O   UNL     1      -1.417  -6.137   8.544  1.00  0.00    -0.269 OA
ATOM      7  H   UNL     1       0.298  -5.925  10.050  1.00  0.00     0.163 HD
BRANCH   5   8
ATOM      8  C   UNL     1      -0.936  -4.051   7.577  1.00  0.00     0.081 A 
ATOM      9  C   UNL     1      -0.696  -0.894   5.593  1.00  0.00     0.082 C 
ATOM     10  C   UNL     1      -0.520   0.118   6.729  1.00  0.00     0.115 C 
ATOM     11  C   UNL     1      -0.948  -2.267   6.148  1.00  0.00     0.055 A 
ATOM     12  C   UNL     1       0.180  -0.434   7.949  1.00  0.00     0.225 C 
ATOM     13  C   UNL     1      -0.618  -2.668   7.428  1.00  0.00     0.076 A 
ATOM     14  N   UNL     1      -1.657  -3.288   5.556  1.00  0.00    -0.317 N 
ATOM     15  O   UNL     1       0.827   0.283   8.714  1.00  0.00    -0.275 OA
ATOM     16  N   UNL     1      -0.056  -1.742   8.276  1.00  0.00    -0.324 N 
ATOM     17  C   UNL     1      -1.677  -4.343   6.432  1.00  0.00     0.107 A 
ATOM     18  H   UNL     1       0.193  -2.041   9.181  1.00  0.00     0.170 HD
BRANCH   9  19
ATOM     19  C   UNL     1       0.454  -0.792   4.588  1.00  0.00     0.012 A 
ATOM     20  C   UNL     1       1.110   0.005   2.353  1.00  0.00     0.165 A 
ATOM     21  C   UNL     1       0.178  -0.087   3.385  1.00  0.00     0.059 A 
ATOM     22  C   UNL     1       2.353  -0.554   2.566  1.00  0.00     0.211 A 
ATOM     23  C   UNL     1       2.663  -1.201   3.750  1.00  0.00     0.211 A 
ATOM     24  O   UNL     1       3.408  -0.528   1.703  1.00  0.00    -0.449 OA
ATOM     25  C   UNL     1       1.742  -1.339   4.784  1.00  0.00     0.168 A 
ATOM     26  O   UNL     1       3.949  -1.661   3.739  1.00  0.00    -0.449 OA
ATOM     27  C   UNL     1       4.433  -1.153   2.487  1.00  0.00     0.468 C 
BRANCH  20  28
ATOM     28  O   UNL     1       0.697   0.686   1.247  1.00  0.00    -0.493 OA
ATOM     29  C   UNL     1       1.120   0.123   0.009  1.00  0.00     0.278 C 
ENDBRANCH  20  28
BRANCH  25  30
ATOM     30  O   UNL     1       1.964  -1.958   5.978  1.00  0.00    -0.492 OA
ATOM     31  C   UNL     1       3.279  -2.386   6.298  1.00  0.00     0.278 C 
ENDBRANCH  25  30
ENDBRANCH   9  19
BRANCH  14  32
ATOM     32  C   UNL     1      -2.357  -3.250   4.332  1.00  0.00     0.046 A 
ATOM     33  C   UNL     1      -1.700  -2.875   3.158  1.00  0.00     0.029 A 
ATOM     34  C   UNL     1      -3.727  -3.539   4.323  1.00  0.00     0.029 A 
ATOM     35  C   UNL     1      -2.429  -2.702   1.984  1.00  0.00     0.041 A 
ATOM     36  C   UNL     1      -4.452  -3.359   3.144  1.00  0.00     0.041 A 
ATOM     37  C   UNL     1      -3.800  -2.927   1.992  1.00  0.00     0.123 A 
ATOM     38  F   UNL     1      -4.505  -2.725   0.872  1.00  0.00    -0.207 F 
ENDBRANCH  14  32
ENDBRANCH   5   8
ENDBRANCH   3   4
ENDBRANCH   2   3
ENDBRANCH   1   2
BRANCH   1  39
ATOM     39  C   UNL     1       2.652  -3.879  12.678  1.00  0.00     0.002 C 
BRANCH  39  40
ATOM     40  C   UNL     1       3.402  -2.556  12.446  1.00  0.00     0.021 C 
BRANCH  40  41
ATOM     41  C   UNL     1       3.081  -1.499  13.491  1.00  0.00     0.116 C 
BRANCH  41  42
ATOM     42  N   UNL     1       3.545  -1.906  14.816  1.00  0.00    -0.352 N 
ATOM     43  C   UNL     1       3.400  -1.269  16.030  1.00  0.00     0.251 C 
ATOM     44  H   UNL     1       4.032  -2.761  14.846  1.00  0.00     0.163 HD
ATOM     45  O   UNL     1       4.129  -1.538  16.969  1.00  0.00    -0.269 OA
BRANCH  43  46
ATOM     46  C   UNL     1       2.339  -0.259  16.178  1.00  0.00     0.039 A 
ATOM     47  C   UNL     1       2.548   0.892  16.942  1.00  0.00     0.014 A 
ATOM     48  C   UNL     1       1.120  -0.482  15.543  1.00  0.00     0.014 A 
ATOM     49  C   UNL     1       1.538   1.847  17.002  1.00  0.00     0.010 A 
ATOM     50  C   UNL     1       0.193   0.522  15.469  1.00  0.00     0.010 A 
ATOM     51  C   UNL     1       0.370   1.659  16.246  1.00  0.00    -0.014 A 
BRANCH  51  52
ATOM     52  C   UNL     1      -0.637   2.703  16.153  1.00  0.00     0.031 A 
ATOM     53  C   UNL     1      -0.115   3.991  15.630  1.00  0.00     0.074 A 
ATOM     54  C   UNL     1      -1.957   2.469  16.320  1.00  0.00     0.049 A 
ATOM     55  N   UNL     1       0.028   5.093  16.286  1.00  0.00    -0.248 NA
ATOM     56  C   UNL     1       0.463   4.024  14.277  1.00  0.00     0.031 C 
ATOM     57  C   UNL     1      -2.636   1.185  16.529  1.00  0.00     0.029 A 
ATOM     58  N   UNL     1      -2.997   3.342  16.242  1.00  0.00    -0.354 N 
ATOM     59  C   UNL     1       0.523   6.021  15.376  1.00  0.00     0.074 A 
ATOM     60  C   UNL     1       0.948   5.268  14.225  1.00  0.00     0.031 C 
ATOM     61  C   UNL     1      -3.965   1.336  16.330  1.00  0.00     0.029 A 
ATOM     62  C   UNL     1      -4.250   2.747  16.143  1.00  0.00     0.049 A 
ATOM     63  H   UNL     1      -2.872   4.318  16.255  1.00  0.00     0.167 HD
ATOM     64  C   UNL     1       0.297   7.351  15.559  1.00  0.00     0.037 A 
ATOM     65  C   UNL     1      -5.427   3.378  15.899  1.00  0.00     0.037 A 
ATOM     66  C   UNL     1      -0.156   7.611  16.904  1.00  0.00     0.049 A 
ATOM     67  C   UNL     1      -5.229   4.812  16.229  1.00  0.00     0.074 A 
ATOM     68  C   UNL     1       0.377   7.418  18.164  1.00  0.00     0.029 A 
ATOM     69  N   UNL     1      -1.506   7.782  17.091  1.00  0.00    -0.354 N 
ATOM     70  N   UNL     1      -5.047   5.254  17.442  1.00  0.00    -0.248 NA
ATOM     71  C   UNL     1      -4.762   5.689  15.166  1.00  0.00     0.031 C 
ATOM     72  C   UNL     1      -0.724   7.005  18.971  1.00  0.00     0.029 A 
ATOM     73  C   UNL     1      -1.877   7.050  18.187  1.00  0.00     0.049 A 
ATOM     74  H   UNL     1      -2.102   8.335  16.535  1.00  0.00     0.167 HD
ATOM     75  C   UNL     1      -4.052   6.211  17.315  1.00  0.00     0.074 A 
ATOM     76  C   UNL     1      -3.981   6.501  15.884  1.00  0.00     0.031 C 
ATOM     77  C   UNL     1      -3.182   6.451  18.340  1.00  0.00     0.037 A 
BRANCH  64  78
ATOM     78  C   UNL     1       0.086   8.354  14.450  1.00  0.00     0.064 A 
ATOM     79  C   UNL     1      -0.046   9.718  14.787  1.00  0.00     0.173 A 
ATOM     80  C   UNL     1      -0.308   8.013  13.139  1.00  0.00     0.173 A 
ATOM     81  F   UNL     1       0.288  10.155  16.011  1.00  0.00    -0.203 F 
ATOM     82  C   UNL     1      -0.622  10.643  13.914  1.00  0.00     0.198 A 
ATOM     83  C   UNL     1      -0.831   8.951  12.250  1.00  0.00     0.198 A 
ATOM     84  F   UNL     1      -0.318   6.751  12.699  1.00  0.00    -0.203 F 
ATOM     85  F   UNL     1      -0.857  11.894  14.331  1.00  0.00    -0.200 F 
ATOM     86  C   UNL     1      -1.022  10.257  12.649  1.00  0.00     0.200 A 
ATOM     87  F   UNL     1      -1.232   8.553  11.034  1.00  0.00    -0.200 F 
ATOM     88  F   UNL     1      -1.637  11.124  11.834  1.00  0.00    -0.200 F 
ENDBRANCH  64  78
BRANCH  65  89
ATOM     89  C   UNL     1      -6.610   2.905  15.138  1.00  0.00     0.064 A 
ATOM     90  C   UNL     1      -7.836   3.590  15.209  1.00  0.00     0.173 A 
ATOM     91  C   UNL     1      -6.484   1.961  14.101  1.00  0.00     0.173 A 
ATOM     92  F   UNL     1      -8.028   4.534  16.141  1.00  0.00    -0.203 F 
ATOM     93  C   UNL     1      -8.856   3.374  14.275  1.00  0.00     0.198 A 
ATOM     94  C   UNL     1      -7.504   1.743  13.172  1.00  0.00     0.198 A 
ATOM     95  F   UNL     1      -5.331   1.305  13.905  1.00  0.00    -0.203 F 
ATOM     96  F   UNL     1      -9.982   4.099  14.334  1.00  0.00    -0.200 F 
ATOM     97  C   UNL     1      -8.683   2.461  13.249  1.00  0.00     0.200 A 
ATOM     98  F   UNL     1      -7.310   0.883  12.162  1.00  0.00    -0.200 F 
ATOM     99  F   UNL     1      -9.630   2.304  12.313  1.00  0.00    -0.200 F 
ENDBRANCH  65  89
BRANCH  77 100
ATOM    100  C   UNL     1      -3.507   5.869  19.688  1.00  0.00     0.064 A 
ATOM    101  C   UNL     1      -3.603   4.492  19.961  1.00  0.00     0.173 A 
ATOM    102  C   UNL     1      -3.589   6.746  20.777  1.00  0.00     0.173 A 
ATOM    103  F   UNL     1      -3.438   3.581  18.994  1.00  0.00    -0.203 F 
ATOM    104  C   UNL     1      -3.818   4.025  21.257  1.00  0.00     0.198 A 
ATOM    105  C   UNL     1      -3.763   6.276  22.075  1.00  0.00     0.198 A 
ATOM    106  F   UNL     1      -3.452   8.068  20.586  1.00  0.00    -0.203 F 
ATOM    107  F   UNL     1      -3.923   2.708  21.489  1.00  0.00    -0.200 F 
ATOM    108  C   UNL     1      -3.890   4.917  22.314  1.00  0.00     0.200 A 
ATOM    109  F   UNL     1      -3.781   7.141  23.098  1.00  0.00    -0.200 F 
ATOM    110  F   UNL     1      -4.056   4.468  23.565  1.00  0.00    -0.200 F 
ENDBRANCH  77 100
ENDBRANCH  51  52
ENDBRANCH  43  46
ENDBRANCH  41  42
ENDBRANCH  40  41
ENDBRANCH  39  40
ENDBRANCH   1  39
TORSDOF 17
