REMARK SMILES Cc1ccccc1-n1c(S[C@@H](C)C(=O)NCCCCCCNC(=O)c2ccc(-c3c4nc(c(-c5c(F)c(F)c(F)c(F)c5F)c5ccc([nH]5)c(-c5c(F)c(F)c(F)c(F)c5F)c5nc(c(-c6c(F)c(F)c(F)c(F)c6F)c6ccc3[nH]6)C=C5)C=C4)cc2)nc2sc3c(c2c1=O)C[C@@H](C(C)C)OC3
REMARK SMILES IDX 18 1 17 2 16 3 15 4 13 5 14 6 11 8 12 9 10 10 9 11 8 12
REMARK SMILES IDX 94 13 88 14 93 15 95 16 89 17 92 18 90 19 91 20 96 21 102 22
REMARK SMILES IDX 97 23 101 24 7 25 1 26 2 27 3 28 4 29 6 30 5 31 98 32 99 33
REMARK SMILES IDX 100 34 19 35 20 36 21 37 22 38 23 39 24 41 25 42 26 43 87 44
REMARK SMILES IDX 27 45 86 46 28 47 29 48 30 49 80 50 31 51 85 52 79 53 81 54
REMARK SMILES IDX 32 55 84 56 78 57 77 58 33 60 65 61 45 62 64 63 46 64 49 65
REMARK SMILES IDX 63 66 82 67 47 68 48 69 62 71 83 72 50 73 34 74 35 75 43 76
REMARK SMILES IDX 36 77 37 78 41 79 44 80 38 81 39 82 42 83 40 84 66 85 67 86
REMARK SMILES IDX 75 87 68 88 69 89 73 90 76 91 70 92 71 93 74 94 72 95 51 96
REMARK SMILES IDX 52 97 60 98 53 99 54 100 58 101 61 102 55 103 56 104 59 105
REMARK SMILES IDX 57 106
REMARK H PARENT 15 7 22 40 81 59 49 70
REMARK Flexibility Score: inf
ROOT
ATOM      1  C   UNL     1      -2.597   4.520  -0.560  1.00  0.00     0.002 C 
ENDROOT
BRANCH   1   2
ATOM      2  C   UNL     1      -1.254   4.527  -1.291  1.00  0.00     0.021 C 
BRANCH   2   3
ATOM      3  C   UNL     1      -0.397   3.268  -1.340  1.00  0.00     0.116 C 
BRANCH   3   4
ATOM      4  N   UNL     1      -0.986   2.121  -1.969  1.00  0.00    -0.355 N 
ATOM      5  C   UNL     1      -0.483   0.899  -2.280  1.00  0.00     0.233 C 
ATOM      6  O   UNL     1      -1.378   0.081  -2.555  1.00  0.00    -0.274 OA
ATOM      7  H   UNL     1      -1.930   2.242  -2.223  1.00  0.00     0.163 HD
BRANCH   5   8
ATOM      8  C   UNL     1       0.980   0.519  -2.548  1.00  0.00     0.140 C 
ATOM      9  C   UNL     1       1.142  -1.021  -2.608  1.00  0.00     0.030 C 
BRANCH   8  10
ATOM     10  S   UNL     1       2.463   1.058  -1.711  1.00  0.00    -0.074 SA
BRANCH  10  11
ATOM     11  C   UNL     1       2.243   2.117  -0.359  1.00  0.00     0.177 A 
ATOM     12  N   UNL     1       1.587   1.735   0.825  1.00  0.00    -0.255 N 
ATOM     13  C   UNL     1       1.454   2.646   1.885  1.00  0.00     0.267 A 
ATOM     14  N   UNL     1       2.808   3.274  -0.545  1.00  0.00    -0.212 NA
ATOM     15  C   UNL     1       2.047   3.949   1.657  1.00  0.00     0.081 A 
ATOM     16  O   UNL     1       0.848   2.411   2.942  1.00  0.00    -0.268 OA
ATOM     17  C   UNL     1       2.690   4.162   0.462  1.00  0.00     0.132 A 
ATOM     18  C   UNL     1       2.021   5.132   2.460  1.00  0.00    -0.014 A 
ATOM     19  S   UNL     1       3.318   5.745   0.336  1.00  0.00    -0.117 S 
ATOM     20  C   UNL     1       2.658   6.187   1.839  1.00  0.00     0.037 A 
ATOM     21  C   UNL     1       1.353   5.344   3.779  1.00  0.00     0.070 C 
ATOM     22  C   UNL     1       2.795   7.564   2.405  1.00  0.00     0.207 C 
ATOM     23  C   UNL     1       1.926   6.592   4.479  1.00  0.00     0.125 C 
ATOM     24  O   UNL     1       1.936   7.704   3.554  1.00  0.00    -0.372 OA
BRANCH  12  25
ATOM     25  C   UNL     1       0.914   0.484   0.962  1.00  0.00     0.054 A 
ATOM     26  C   UNL     1       3.093  -0.843   1.117  1.00  0.00     0.046 C 
ATOM     27  C   UNL     1       1.597  -0.740   1.025  1.00  0.00    -0.027 A 
ATOM     28  C   UNL     1       0.846  -1.929   0.998  1.00  0.00     0.005 A 
ATOM     29  C   UNL     1      -0.549  -1.903   0.944  1.00  0.00     0.000 A 
ATOM     30  C   UNL     1      -0.492   0.495   1.016  1.00  0.00     0.027 A 
ATOM     31  C   UNL     1      -1.221  -0.690   0.979  1.00  0.00     0.002 A 
ENDBRANCH  12  25
BRANCH  23  32
ATOM     32  C   UNL     1       3.295   6.370   5.167  1.00  0.00     0.012 C 
ATOM     33  C   UNL     1       3.708   7.627   5.938  1.00  0.00     0.010 C 
ATOM     34  C   UNL     1       3.270   5.168   6.116  1.00  0.00     0.010 C 
ENDBRANCH  23  32
ENDBRANCH  10  11
ENDBRANCH   8  10
ENDBRANCH   5   8
ENDBRANCH   3   4
ENDBRANCH   2   3
ENDBRANCH   1   2
BRANCH   1  35
ATOM     35  C   UNL     1      -2.611   4.363   0.958  1.00  0.00     0.002 C 
BRANCH  35  36
ATOM     36  C   UNL     1      -1.556   5.139   1.744  1.00  0.00     0.021 C 
BRANCH  36  37
ATOM     37  C   UNL     1      -1.429   6.650   1.479  1.00  0.00     0.116 C 
BRANCH  37  38
ATOM     38  N   UNL     1      -2.228   7.447   2.384  1.00  0.00    -0.352 N 
ATOM     39  C   UNL     1      -2.264   8.799   2.635  1.00  0.00     0.251 C 
ATOM     40  H   UNL     1      -2.866   6.924   2.920  1.00  0.00     0.163 HD
ATOM     41  O   UNL     1      -2.788   9.120   3.707  1.00  0.00    -0.269 OA
BRANCH  39  42
ATOM     42  C   UNL     1      -1.793   9.893   1.708  1.00  0.00     0.039 A 
ATOM     43  C   UNL     1      -2.079  11.210   2.118  1.00  0.00     0.014 A 
ATOM     44  C   UNL     1      -1.135   9.751   0.483  1.00  0.00     0.014 A 
ATOM     45  C   UNL     1      -1.745  12.331   1.330  1.00  0.00     0.010 A 
ATOM     46  C   UNL     1      -0.799  10.882  -0.315  1.00  0.00     0.010 A 
ATOM     47  C   UNL     1      -1.096  12.193   0.091  1.00  0.00    -0.014 A 
BRANCH  47  48
ATOM     48  C   UNL     1      -0.395  13.422  -0.431  1.00  0.00     0.031 A 
ATOM     49  C   UNL     1       1.063  13.331   0.058  1.00  0.00     0.074 A 
ATOM     50  C   UNL     1      -0.506  14.150  -1.599  1.00  0.00     0.049 A 
ATOM     51  N   UNL     1       1.851  12.412  -0.422  1.00  0.00    -0.248 NA
ATOM     52  C   UNL     1       1.698  14.030   1.179  1.00  0.00     0.031 C 
ATOM     53  C   UNL     1      -0.069  15.558  -1.669  1.00  0.00     0.029 A 
ATOM     54  N   UNL     1      -0.952  13.930  -2.936  1.00  0.00    -0.354 N 
ATOM     55  C   UNL     1       3.149  12.697  -0.018  1.00  0.00     0.074 A 
ATOM     56  C   UNL     1       2.970  13.564   1.129  1.00  0.00     0.031 C 
ATOM     57  C   UNL     1      -0.081  16.008  -2.943  1.00  0.00     0.029 A 
ATOM     58  C   UNL     1      -0.407  14.909  -3.851  1.00  0.00     0.049 A 
ATOM     59  H   UNL     1      -1.557  13.200  -3.203  1.00  0.00     0.167 HD
ATOM     60  C   UNL     1       4.192  12.439  -0.888  1.00  0.00     0.037 A 
ATOM     61  C   UNL     1       0.081  14.853  -5.150  1.00  0.00     0.037 A 
ATOM     62  C   UNL     1       3.620  12.283  -2.200  1.00  0.00     0.049 A 
ATOM     63  C   UNL     1       0.220  13.494  -5.788  1.00  0.00     0.074 A 
ATOM     64  C   UNL     1       3.003  13.356  -2.784  1.00  0.00     0.029 A 
ATOM     65  N   UNL     1       3.275  11.130  -2.903  1.00  0.00    -0.354 N 
ATOM     66  N   UNL     1       1.353  12.844  -5.772  1.00  0.00    -0.248 NA
ATOM     67  C   UNL     1      -0.806  12.740  -6.501  1.00  0.00     0.031 C 
ATOM     68  C   UNL     1       1.913  12.730  -3.309  1.00  0.00     0.029 A 
ATOM     69  C   UNL     1       2.191  11.452  -3.719  1.00  0.00     0.049 A 
ATOM     70  H   UNL     1       3.714  10.251  -2.836  1.00  0.00     0.167 HD
ATOM     71  C   UNL     1       0.978  11.519  -5.737  1.00  0.00     0.074 A 
ATOM     72  C   UNL     1      -0.184  11.549  -6.597  1.00  0.00     0.031 C 
ATOM     73  C   UNL     1       1.364  10.700  -4.678  1.00  0.00     0.037 A 
BRANCH  60  74
ATOM     74  C   UNL     1       5.641  12.849  -0.872  1.00  0.00     0.064 A 
ATOM     75  C   UNL     1       6.282  13.258  -2.083  1.00  0.00     0.173 A 
ATOM     76  C   UNL     1       6.473  12.701   0.234  1.00  0.00     0.173 A 
ATOM     77  F   UNL     1       5.600  13.501  -3.211  1.00  0.00    -0.203 F 
ATOM     78  C   UNL     1       7.655  13.417  -2.196  1.00  0.00     0.198 A 
ATOM     79  C   UNL     1       7.861  12.881   0.119  1.00  0.00     0.198 A 
ATOM     80  F   UNL     1       5.965  12.341   1.421  1.00  0.00    -0.203 F 
ATOM     81  F   UNL     1       8.194  13.737  -3.382  1.00  0.00    -0.200 F 
ATOM     82  C   UNL     1       8.450  13.212  -1.095  1.00  0.00     0.200 A 
ATOM     83  F   UNL     1       8.644  12.699   1.191  1.00  0.00    -0.200 F 
ATOM     84  F   UNL     1       9.780  13.325  -1.206  1.00  0.00    -0.200 F 
ENDBRANCH  60  74
BRANCH  61  85
ATOM     85  C   UNL     1       1.069  15.843  -5.756  1.00  0.00     0.064 A 
ATOM     86  C   UNL     1       0.655  16.885  -6.587  1.00  0.00     0.173 A 
ATOM     87  C   UNL     1       2.470  15.624  -5.716  1.00  0.00     0.173 A 
ATOM     88  F   UNL     1      -0.650  17.162  -6.708  1.00  0.00    -0.203 F 
ATOM     89  C   UNL     1       1.578  17.628  -7.348  1.00  0.00     0.198 A 
ATOM     90  C   UNL     1       3.383  16.335  -6.493  1.00  0.00     0.198 A 
ATOM     91  F   UNL     1       3.001  14.682  -4.944  1.00  0.00    -0.203 F 
ATOM     92  F   UNL     1       1.142  18.613  -8.146  1.00  0.00    -0.200 F 
ATOM     93  C   UNL     1       2.935  17.338  -7.318  1.00  0.00     0.200 A 
ATOM     94  F   UNL     1       4.687  16.021  -6.456  1.00  0.00    -0.200 F 
ATOM     95  F   UNL     1       3.802  18.015  -8.085  1.00  0.00    -0.200 F 
ENDBRANCH  61  85
BRANCH  73  96
ATOM     96  C   UNL     1       0.754   9.354  -4.349  1.00  0.00     0.064 A 
ATOM     97  C   UNL     1      -0.214   8.693  -5.131  1.00  0.00     0.173 A 
ATOM     98  C   UNL     1       1.143   8.636  -3.196  1.00  0.00     0.173 A 
ATOM     99  F   UNL     1      -0.896   9.288  -6.106  1.00  0.00    -0.203 F 
ATOM    100  C   UNL     1      -0.576   7.368  -4.926  1.00  0.00     0.198 A 
ATOM    101  C   UNL     1       0.757   7.316  -2.973  1.00  0.00     0.198 A 
ATOM    102  F   UNL     1       1.908   9.179  -2.241  1.00  0.00    -0.203 F 
ATOM    103  F   UNL     1      -1.461   6.787  -5.747  1.00  0.00    -0.200 F 
ATOM    104  C   UNL     1      -0.023   6.659  -3.895  1.00  0.00     0.200 A 
ATOM    105  F   UNL     1       1.155   6.686  -1.861  1.00  0.00    -0.200 F 
ATOM    106  F   UNL     1      -0.234   5.345  -3.811  1.00  0.00    -0.200 F 
ENDBRANCH  73  96
ENDBRANCH  47  48
ENDBRANCH  39  42
ENDBRANCH  37  38
ENDBRANCH  36  37
ENDBRANCH  35  36
ENDBRANCH   1  35
TORSDOF 17
