REMARK SMILES O=C(NCCCCCCNC(=O)c1nccnc1C(=O)N1CCC(Cc2ccccc2)CC1)c1ccc(-c2c3nc(c(-c4c(F)c(F)c(F)c(F)c4F)c4ccc([nH]4)c(-c4c(F)c(F)c(F)c(F)c4F)c4nc(c(-c5c(F)c(F)c(F)c(F)c5F)c5ccc2[nH]5)C=C4)C=C3)cc1
REMARK SMILES IDX 7 1 6 2 5 3 4 4 3 5 1 6 2 7 34 9 35 10 96 11 36 12 95 13
REMARK SMILES IDX 37 14 38 15 39 16 89 17 40 18 94 19 88 20 90 21 41 22 93 23
REMARK SMILES IDX 87 24 86 25 42 27 74 28 54 29 73 30 55 31 58 32 72 33 91 34
REMARK SMILES IDX 56 35 57 36 71 38 92 39 59 40 43 41 44 42 52 43 45 44 46 45
REMARK SMILES IDX 50 46 53 47 47 48 48 49 51 50 49 51 75 52 76 53 84 54 77 55
REMARK SMILES IDX 78 56 82 57 85 58 79 59 80 60 83 61 81 62 60 63 61 64 69 65
REMARK SMILES IDX 62 66 63 67 67 68 70 69 64 70 65 71 68 72 66 73 8 74 9 75
REMARK SMILES IDX 10 76 11 77 12 79 13 80 14 81 18 82 15 83 17 84 16 85 19 86
REMARK SMILES IDX 20 87 21 88 22 89 33 90 23 91 32 92 24 93 25 94 26 95 27 96
REMARK SMILES IDX 31 97 28 98 30 99 29 100
REMARK H PARENT 3 8 90 26 58 37 10 78
REMARK Flexibility Score: inf
ROOT
ATOM      1  C   UNL     1       4.786  -4.531  -0.311  1.00  0.00     0.002 C 
ENDROOT
BRANCH   1   2
ATOM      2  C   UNL     1       4.159  -3.902   0.937  1.00  0.00     0.002 C 
BRANCH   2   3
ATOM      3  C   UNL     1       4.596  -2.471   1.253  1.00  0.00     0.021 C 
BRANCH   3   4
ATOM      4  C   UNL     1       4.364  -1.461   0.138  1.00  0.00     0.116 C 
BRANCH   4   5
ATOM      5  N   UNL     1       2.953  -1.219  -0.111  1.00  0.00    -0.352 N 
ATOM      6  O   UNL     1       1.030  -0.040  -0.164  1.00  0.00    -0.269 OA
ATOM      7  C   UNL     1       2.256  -0.036  -0.086  1.00  0.00     0.251 C 
ATOM      8  H   UNL     1       2.420  -2.018  -0.329  1.00  0.00     0.163 HD
BRANCH   7   9
ATOM      9  C   UNL     1       2.978   1.248   0.056  1.00  0.00     0.039 A 
ATOM     10  C   UNL     1       4.134   1.508  -0.683  1.00  0.00     0.014 A 
ATOM     11  C   UNL     1       2.473   2.217   0.929  1.00  0.00     0.014 A 
ATOM     12  C   UNL     1       4.856   2.675  -0.453  1.00  0.00     0.010 A 
ATOM     13  C   UNL     1       3.156   3.425   1.099  1.00  0.00     0.010 A 
ATOM     14  C   UNL     1       4.368   3.652   0.429  1.00  0.00    -0.014 A 
BRANCH  14  15
ATOM     15  C   UNL     1       5.107   4.931   0.581  1.00  0.00     0.031 A 
ATOM     16  C   UNL     1       5.753   5.309   1.882  1.00  0.00     0.074 A 
ATOM     17  C   UNL     1       5.207   5.747  -0.486  1.00  0.00     0.049 A 
ATOM     18  N   UNL     1       6.453   6.377   2.176  1.00  0.00    -0.248 NA
ATOM     19  C   UNL     1       5.587   4.374   3.004  1.00  0.00     0.031 C 
ATOM     20  C   UNL     1       4.607   5.492  -1.797  1.00  0.00     0.029 A 
ATOM     21  N   UNL     1       5.858   6.943  -0.645  1.00  0.00    -0.354 N 
ATOM     22  C   UNL     1       6.796   6.252   3.515  1.00  0.00     0.074 A 
ATOM     23  C   UNL     1       6.206   5.016   3.986  1.00  0.00     0.031 C 
ATOM     24  C   UNL     1       4.954   6.476  -2.638  1.00  0.00     0.029 A 
ATOM     25  C   UNL     1       5.750   7.460  -1.913  1.00  0.00     0.049 A 
ATOM     26  H   UNL     1       6.354   7.389   0.079  1.00  0.00     0.167 HD
ATOM     27  C   UNL     1       7.543   7.089   4.277  1.00  0.00     0.037 A 
ATOM     28  C   UNL     1       6.228   8.605  -2.432  1.00  0.00     0.037 A 
ATOM     29  C   UNL     1       8.137   8.312   3.798  1.00  0.00     0.049 A 
ATOM     30  C   UNL     1       7.030   9.525  -1.559  1.00  0.00     0.074 A 
ATOM     31  C   UNL     1       8.948   9.203   4.480  1.00  0.00     0.029 A 
ATOM     32  N   UNL     1       7.978   8.820   2.517  1.00  0.00    -0.354 N 
ATOM     33  N   UNL     1       7.385   9.373  -0.306  1.00  0.00    -0.248 NA
ATOM     34  C   UNL     1       7.496  10.776  -2.171  1.00  0.00     0.031 C 
ATOM     35  C   UNL     1       9.239  10.273   3.627  1.00  0.00     0.029 A 
ATOM     36  C   UNL     1       8.652  10.026   2.397  1.00  0.00     0.049 A 
ATOM     37  H   UNL     1       7.462   8.387   1.798  1.00  0.00     0.167 HD
ATOM     38  C   UNL     1       8.124  10.501   0.019  1.00  0.00     0.074 A 
ATOM     39  C   UNL     1       8.186  11.318  -1.177  1.00  0.00     0.031 C 
ATOM     40  C   UNL     1       8.698  10.830   1.202  1.00  0.00     0.037 A 
BRANCH  27  41
ATOM     41  C   UNL     1       7.746   6.721   5.719  1.00  0.00     0.064 A 
ATOM     42  C   UNL     1       8.572   5.653   6.099  1.00  0.00     0.173 A 
ATOM     43  C   UNL     1       7.138   7.473   6.736  1.00  0.00     0.173 A 
ATOM     44  F   UNL     1       9.170   4.896   5.167  1.00  0.00    -0.203 F 
ATOM     45  C   UNL     1       8.759   5.334   7.442  1.00  0.00     0.198 A 
ATOM     46  C   UNL     1       7.348   7.168   8.079  1.00  0.00     0.198 A 
ATOM     47  F   UNL     1       6.344   8.510   6.428  1.00  0.00    -0.203 F 
ATOM     48  F   UNL     1       9.517   4.281   7.780  1.00  0.00    -0.200 F 
ATOM     49  C   UNL     1       8.152   6.095   8.431  1.00  0.00     0.200 A 
ATOM     50  F   UNL     1       6.771   7.912   9.032  1.00  0.00    -0.200 F 
ATOM     51  F   UNL     1       8.337   5.789   9.722  1.00  0.00    -0.200 F 
ENDBRANCH  27  41
BRANCH  28  52
ATOM     52  C   UNL     1       5.958   8.931  -3.855  1.00  0.00     0.064 A 
ATOM     53  C   UNL     1       6.985   8.899  -4.807  1.00  0.00     0.173 A 
ATOM     54  C   UNL     1       4.665   9.248  -4.296  1.00  0.00     0.173 A 
ATOM     55  F   UNL     1       8.240   8.618  -4.429  1.00  0.00    -0.203 F 
ATOM     56  C   UNL     1       6.729   9.178  -6.148  1.00  0.00     0.198 A 
ATOM     57  C   UNL     1       4.405   9.500  -5.640  1.00  0.00     0.198 A 
ATOM     58  F   UNL     1       3.648   9.286  -3.422  1.00  0.00    -0.203 F 
ATOM     59  F   UNL     1       7.733   9.170  -7.035  1.00  0.00    -0.200 F 
ATOM     60  C   UNL     1       5.438   9.470  -6.565  1.00  0.00     0.200 A 
ATOM     61  F   UNL     1       3.154   9.764  -6.041  1.00  0.00    -0.200 F 
ATOM     62  F   UNL     1       5.191   9.724  -7.857  1.00  0.00    -0.200 F 
ENDBRANCH  28  52
BRANCH  40  63
ATOM     63  C   UNL     1       9.458  12.123   1.252  1.00  0.00     0.064 A 
ATOM     64  C   UNL     1       8.800  13.361   1.247  1.00  0.00     0.173 A 
ATOM     65  C   UNL     1      10.858  12.122   1.330  1.00  0.00     0.173 A 
ATOM     66  F   UNL     1       7.462  13.414   1.154  1.00  0.00    -0.203 F 
ATOM     67  C   UNL     1       9.518  14.553   1.292  1.00  0.00     0.198 A 
ATOM     68  C   UNL     1      11.572  13.315   1.403  1.00  0.00     0.198 A 
ATOM     69  F   UNL     1      11.534  10.963   1.342  1.00  0.00    -0.203 F 
ATOM     70  F   UNL     1       8.871  15.725   1.236  1.00  0.00    -0.200 F 
ATOM     71  C   UNL     1      10.902  14.528   1.377  1.00  0.00     0.200 A 
ATOM     72  F   UNL     1      12.909  13.289   1.495  1.00  0.00    -0.200 F 
ATOM     73  F   UNL     1      11.592  15.676   1.423  1.00  0.00    -0.200 F 
ENDBRANCH  40  63
ENDBRANCH  14  15
ENDBRANCH   7   9
ENDBRANCH   4   5
ENDBRANCH   3   4
ENDBRANCH   2   3
ENDBRANCH   1   2
BRANCH   1  74
ATOM     74  C   UNL     1       6.312  -4.465  -0.398  1.00  0.00     0.021 C 
BRANCH  74  75
ATOM     75  C   UNL     1       7.069  -4.978   0.827  1.00  0.00     0.116 C 
BRANCH  75  76
ATOM     76  N   UNL     1       6.764  -6.362   1.149  1.00  0.00    -0.351 N 
ATOM     77  C   UNL     1       7.613  -7.452   1.155  1.00  0.00     0.272 C 
ATOM     78  H   UNL     1       5.829  -6.547   1.397  1.00  0.00     0.163 HD
ATOM     79  O   UNL     1       7.198  -8.554   1.499  1.00  0.00    -0.267 OA
BRANCH  77  80
ATOM     80  C   UNL     1       9.017  -7.258   0.739  1.00  0.00     0.159 A 
ATOM     81  N   UNL     1       9.711  -6.377   1.537  1.00  0.00    -0.247 NA
ATOM     82  C   UNL     1       9.596  -7.904  -0.344  1.00  0.00     0.159 A 
ATOM     83  C   UNL     1      11.007  -6.188   1.221  1.00  0.00     0.132 A 
ATOM     84  N   UNL     1      10.903  -7.642  -0.676  1.00  0.00    -0.247 NA
ATOM     85  C   UNL     1      11.587  -6.798   0.128  1.00  0.00     0.132 A 
BRANCH  82  86
ATOM     86  C   UNL     1       9.014  -9.083  -1.056  1.00  0.00     0.274 C 
ATOM     87  O   UNL     1       9.791 -10.008  -1.317  1.00  0.00    -0.267 OA
ATOM     88  N   UNL     1       7.658  -9.204  -1.359  1.00  0.00    -0.337 N 
ATOM     89  C   UNL     1       7.087 -10.543  -1.265  1.00  0.00     0.120 C 
ATOM     90  C   UNL     1       6.736  -8.136  -1.734  1.00  0.00     0.120 C 
ATOM     91  C   UNL     1       6.340 -10.928  -2.530  1.00  0.00     0.025 C 
ATOM     92  C   UNL     1       5.925  -8.502  -2.986  1.00  0.00     0.025 C 
ATOM     93  C   UNL     1       5.255  -9.885  -2.842  1.00  0.00    -0.003 C 
BRANCH  93  94
ATOM     94  C   UNL     1       4.448 -10.253  -4.102  1.00  0.00     0.039 C 
BRANCH  94  95
ATOM     95  C   UNL     1       3.762 -11.600  -4.011  1.00  0.00    -0.048 A 
ATOM     96  C   UNL     1       4.143 -12.645  -4.865  1.00  0.00     0.004 A 
ATOM     97  C   UNL     1       2.762 -11.838  -3.058  1.00  0.00     0.004 A 
ATOM     98  C   UNL     1       3.547 -13.903  -4.758  1.00  0.00     0.000 A 
ATOM     99  C   UNL     1       2.169 -13.099  -2.950  1.00  0.00     0.000 A 
ATOM    100  C   UNL     1       2.563 -14.131  -3.799  1.00  0.00     0.000 A 
ENDBRANCH  94  95
ENDBRANCH  93  94
ENDBRANCH  82  86
ENDBRANCH  77  80
ENDBRANCH  75  76
ENDBRANCH  74  75
ENDBRANCH   1  74
TORSDOF 16
