REMARK SMILES C[C@H](SCC[NH3+])c1ccc(C(=O)NCCCCCCNC(=O)c2ccc(-c3c4nc(c(-c5c(F)c(F)c(F)c(F)c5F)c5ccc([nH]5)c(-c5c(F)c(F)c(F)c(F)c5F)c5nc(c(-c6c(F)c(F)c(F)c(F)c6F)c6ccc3[nH]6)C=C5)C=C4)cc2)o1
REMARK SMILES IDX 15 1 14 2 13 3 11 4 12 5 10 7 7 8 8 9 86 10 9 11 2 12 1 13
REMARK SMILES IDX 3 14 4 15 5 16 6 17 16 21 17 22 18 23 19 24 20 25 21 26
REMARK SMILES IDX 22 28 23 29 24 30 85 31 25 32 84 33 26 34 27 35 28 36 78 37
REMARK SMILES IDX 29 38 83 39 77 40 79 41 30 42 82 43 76 44 75 45 31 47 63 48
REMARK SMILES IDX 43 49 62 50 44 51 47 52 61 53 80 54 45 55 46 56 60 58 81 59
REMARK SMILES IDX 48 60 32 61 33 62 41 63 34 64 35 65 39 66 42 67 36 68 37 69
REMARK SMILES IDX 40 70 38 71 64 72 65 73 73 74 66 75 67 76 71 77 74 78 68 79
REMARK SMILES IDX 69 80 72 81 70 82 49 83 50 84 58 85 51 86 52 87 56 88 59 89
REMARK SMILES IDX 53 90 54 91 57 92 55 93
REMARK H PARENT 13 6 6 18 6 19 6 20 20 27 79 46 47 57
REMARK Flexibility Score: inf
ROOT
ATOM      1  C   UNL     1      -6.694  -2.149   1.016  1.00  0.00     0.021 C 
ENDROOT
BRANCH   1   2
ATOM      2  C   UNL     1      -5.927  -1.976  -0.292  1.00  0.00     0.116 C 
BRANCH   2   3
ATOM      3  N   UNL     1      -5.288  -0.686  -0.364  1.00  0.00    -0.349 N 
ATOM      4  C   UNL     1      -3.972  -0.299  -0.372  1.00  0.00     0.286 C 
ATOM      5  O   UNL     1      -3.800   0.907  -0.568  1.00  0.00    -0.266 OA
ATOM      6  H   UNL     1      -5.922   0.065  -0.419  1.00  0.00     0.163 HD
BRANCH   4   7
ATOM      7  C   UNL     1      -2.868  -1.228  -0.187  1.00  0.00     0.191 A 
ATOM      8  C   UNL     1      -0.686  -1.673  -0.075  1.00  0.00     0.117 A 
ATOM      9  C   UNL     1      -1.340  -2.877   0.057  1.00  0.00     0.047 A 
ATOM     10  O   UNL     1      -1.602  -0.676  -0.227  1.00  0.00    -0.455 OA
ATOM     11  C   UNL     1      -2.724  -2.587   0.034  1.00  0.00     0.056 A 
BRANCH   8  12
ATOM     12  C   UNL     1       0.776  -1.350  -0.070  1.00  0.00     0.110 C 
ATOM     13  C   UNL     1       1.405  -1.661   1.288  1.00  0.00     0.028 C 
BRANCH  12  14
ATOM     14  S   UNL     1       1.214   0.297  -0.731  1.00  0.00    -0.145 SA
BRANCH  14  15
ATOM     15  C   UNL     1       0.802   1.408   0.665  1.00  0.00     0.131 C 
BRANCH  15  16
ATOM     16  C   UNL     1      -0.021   2.611   0.182  1.00  0.00     0.269 C 
BRANCH  16  17
ATOM     17  N   UNL     1      -1.452   2.359   0.288  1.00  0.00    -0.357 N 
ATOM     18  H   UNL     1      -1.701   1.561  -0.296  1.00  0.00     0.344 HD
ATOM     19  H   UNL     1      -1.966   3.183  -0.024  1.00  0.00     0.344 HD
ATOM     20  H   UNL     1      -1.690   2.157   1.259  1.00  0.00     0.344 HD
ENDBRANCH  16  17
ENDBRANCH  15  16
ENDBRANCH  14  15
ENDBRANCH  12  14
ENDBRANCH   8  12
ENDBRANCH   4   7
ENDBRANCH   2   3
ENDBRANCH   1   2
BRANCH   1  21
ATOM     21  C   UNL     1      -8.050  -1.433   1.028  1.00  0.00     0.002 C 
BRANCH  21  22
ATOM     22  C   UNL     1      -8.990  -1.803  -0.128  1.00  0.00     0.002 C 
BRANCH  22  23
ATOM     23  C   UNL     1      -9.184  -3.306  -0.347  1.00  0.00     0.021 C 
BRANCH  23  24
ATOM     24  C   UNL     1      -9.774  -4.036   0.852  1.00  0.00     0.116 C 
BRANCH  24  25
ATOM     25  N   UNL     1     -11.127  -3.589   1.141  1.00  0.00    -0.352 N 
ATOM     26  C   UNL     1     -12.281  -4.326   1.223  1.00  0.00     0.251 C 
ATOM     27  H   UNL     1     -11.229  -2.623   1.300  1.00  0.00     0.163 HD
ATOM     28  O   UNL     1     -13.374  -3.775   1.250  1.00  0.00    -0.269 OA
BRANCH  26  29
ATOM     29  C   UNL     1     -12.194  -5.800   1.263  1.00  0.00     0.039 A 
ATOM     30  C   UNL     1     -13.045  -6.553   0.452  1.00  0.00     0.014 A 
ATOM     31  C   UNL     1     -11.265  -6.433   2.095  1.00  0.00     0.014 A 
ATOM     32  C   UNL     1     -12.924  -7.943   0.431  1.00  0.00     0.010 A 
ATOM     33  C   UNL     1     -11.092  -7.809   2.013  1.00  0.00     0.010 A 
ATOM     34  C   UNL     1     -11.923  -8.579   1.185  1.00  0.00    -0.014 A 
BRANCH  34  35
ATOM     35  C   UNL     1     -11.729 -10.049   1.121  1.00  0.00     0.031 A 
ATOM     36  C   UNL     1     -11.929 -10.889   2.350  1.00  0.00     0.074 A 
ATOM     37  C   UNL     1     -11.306 -10.615  -0.026  1.00  0.00     0.049 A 
ATOM     38  N   UNL     1     -11.740 -12.174   2.515  1.00  0.00    -0.248 NA
ATOM     39  C   UNL     1     -12.374 -10.188   3.565  1.00  0.00     0.031 C 
ATOM     40  C   UNL     1     -11.032  -9.897  -1.272  1.00  0.00     0.029 A 
ATOM     41  N   UNL     1     -11.023 -11.923  -0.328  1.00  0.00    -0.354 N 
ATOM     42  C   UNL     1     -12.029 -12.430   3.849  1.00  0.00     0.074 A 
ATOM     43  C   UNL     1     -12.348 -11.160   4.464  1.00  0.00     0.031 C 
ATOM     44  C   UNL     1     -10.644 -10.775  -2.210  1.00  0.00     0.029 A 
ATOM     45  C   UNL     1     -10.600 -12.111  -1.622  1.00  0.00     0.049 A 
ATOM     46  H   UNL     1     -11.114 -12.658   0.321  1.00  0.00     0.167 HD
ATOM     47  C   UNL     1     -12.052 -13.620   4.495  1.00  0.00     0.037 A 
ATOM     48  C   UNL     1     -10.212 -13.232  -2.258  1.00  0.00     0.037 A 
ATOM     49  C   UNL     1     -11.753 -14.882   3.871  1.00  0.00     0.049 A 
ATOM     50  C   UNL     1     -10.230 -14.540  -1.513  1.00  0.00     0.074 A 
ATOM     51  C   UNL     1     -11.801 -16.150   4.422  1.00  0.00     0.029 A 
ATOM     52  N   UNL     1     -11.344 -15.034   2.554  1.00  0.00    -0.354 N 
ATOM     53  N   UNL     1     -10.574 -14.780  -0.271  1.00  0.00    -0.248 NA
ATOM     54  C   UNL     1      -9.814 -15.735  -2.261  1.00  0.00     0.031 C 
ATOM     55  C   UNL     1     -11.367 -17.063   3.457  1.00  0.00     0.029 A 
ATOM     56  C   UNL     1     -11.111 -16.373   2.283  1.00  0.00     0.049 A 
ATOM     57  H   UNL     1     -11.235 -14.299   1.907  1.00  0.00     0.167 HD
ATOM     58  C   UNL     1     -10.451 -16.153  -0.099  1.00  0.00     0.074 A 
ATOM     59  C   UNL     1     -10.010 -16.694  -1.367  1.00  0.00     0.031 C 
ATOM     60  C   UNL     1     -10.686 -16.897   1.009  1.00  0.00     0.037 A 
BRANCH  47  61
ATOM     61  C   UNL     1     -12.411 -13.613   5.954  1.00  0.00     0.064 A 
ATOM     62  C   UNL     1     -13.706 -13.297   6.394  1.00  0.00     0.173 A 
ATOM     63  C   UNL     1     -11.458 -13.962   6.923  1.00  0.00     0.173 A 
ATOM     64  F   UNL     1     -14.652 -12.946   5.511  1.00  0.00    -0.203 F 
ATOM     65  C   UNL     1     -14.023 -13.297   7.750  1.00  0.00     0.198 A 
ATOM     66  C   UNL     1     -11.789 -13.996   8.275  1.00  0.00     0.198 A 
ATOM     67  F   UNL     1     -10.207 -14.280   6.559  1.00  0.00    -0.203 F 
ATOM     68  F   UNL     1     -15.251 -12.938   8.149  1.00  0.00    -0.200 F 
ATOM     69  C   UNL     1     -13.067 -13.655   8.688  1.00  0.00     0.200 A 
ATOM     70  F   UNL     1     -10.867 -14.356   9.180  1.00  0.00    -0.200 F 
ATOM     71  F   UNL     1     -13.377 -13.663   9.992  1.00  0.00    -0.200 F 
ENDBRANCH  47  61
BRANCH  48  72
ATOM     72  C   UNL     1      -9.796 -13.171  -3.684  1.00  0.00     0.064 A 
ATOM     73  C   UNL     1     -10.575 -13.762  -4.688  1.00  0.00     0.173 A 
ATOM     74  C   UNL     1      -8.612 -12.527  -4.073  1.00  0.00     0.173 A 
ATOM     75  F   UNL     1     -11.707 -14.406  -4.365  1.00  0.00    -0.203 F 
ATOM     76  C   UNL     1     -10.176 -13.732  -6.023  1.00  0.00     0.198 A 
ATOM     77  C   UNL     1      -8.229 -12.470  -5.412  1.00  0.00     0.198 A 
ATOM     78  F   UNL     1      -7.833 -11.939  -3.153  1.00  0.00    -0.203 F 
ATOM     79  F   UNL     1     -10.915 -14.347  -6.955  1.00  0.00    -0.200 F 
ATOM     80  C   UNL     1      -9.006 -13.081  -6.384  1.00  0.00     0.200 A 
ATOM     81  F   UNL     1      -7.107 -11.825  -5.758  1.00  0.00    -0.200 F 
ATOM     82  F   UNL     1      -8.624 -13.048  -7.668  1.00  0.00    -0.200 F 
ENDBRANCH  48  72
BRANCH  60  83
ATOM     83  C   UNL     1     -10.521 -18.386   0.892  1.00  0.00     0.064 A 
ATOM     84  C   UNL     1      -9.260 -18.984   0.767  1.00  0.00     0.173 A 
ATOM     85  C   UNL     1     -11.643 -19.227   0.961  1.00  0.00     0.173 A 
ATOM     86  F   UNL     1      -8.157 -18.224   0.682  1.00  0.00    -0.203 F 
ATOM     87  C   UNL     1      -9.129 -20.368   0.691  1.00  0.00     0.198 A 
ATOM     88  C   UNL     1     -11.506 -20.611   0.920  1.00  0.00     0.198 A 
ATOM     89  F   UNL     1     -12.873 -18.705   1.089  1.00  0.00    -0.203 F 
ATOM     90  F   UNL     1      -7.917 -20.917   0.525  1.00  0.00    -0.200 F 
ATOM     91  C   UNL     1     -10.250 -21.180   0.778  1.00  0.00     0.200 A 
ATOM     92  F   UNL     1     -12.589 -21.393   1.020  1.00  0.00    -0.200 F 
ATOM     93  F   UNL     1     -10.121 -22.513   0.719  1.00  0.00    -0.200 F 
ENDBRANCH  60  83
ENDBRANCH  34  35
ENDBRANCH  26  29
ENDBRANCH  24  25
ENDBRANCH  23  24
ENDBRANCH  22  23
ENDBRANCH  21  22
ENDBRANCH   1  21
TORSDOF 18
