REMARK SMILES Cc1cc2[nH]ccc2nc1C(=O)NCCCCCCNC(=O)c1ccc(-c2c3nc(c(-c4c(F)c(F)c(F)c(F)c4F)c4ccc([nH]4)c(-c4c(F)c(F)c(F)c(F)c4F)c4nc(c(-c5c(F)c(F)c(F)c(F)c5F)c5ccc2[nH]5)C=C4)C=C3)cc1
REMARK SMILES IDX 17 1 16 2 15 3 14 4 13 5 11 6 12 7 10 9 1 10 2 11 3 12 4 13
REMARK SMILES IDX 9 14 5 15 8 16 6 17 7 19 18 20 19 21 20 22 21 23 22 25 23 26
REMARK SMILES IDX 24 27 85 28 25 29 84 30 26 31 27 32 28 33 78 34 29 35 83 36
REMARK SMILES IDX 77 37 79 38 30 39 82 40 76 41 75 42 31 44 63 45 43 46 62 47
REMARK SMILES IDX 44 48 47 49 61 50 80 51 45 52 46 53 60 55 81 56 48 57 32 58
REMARK SMILES IDX 33 59 41 60 34 61 35 62 39 63 42 64 36 65 37 66 40 67 38 68
REMARK SMILES IDX 64 69 65 70 73 71 66 72 67 73 71 74 74 75 68 76 69 77 72 78
REMARK SMILES IDX 70 79 49 80 50 81 58 82 51 83 52 84 56 85 59 86 53 87 54 88
REMARK SMILES IDX 57 89 55 90
REMARK H PARENT 13 8 5 18 20 24 79 43 47 54
REMARK Flexibility Score: inf
ROOT
ATOM      1  C   UNL     1       1.118   3.955   2.173  1.00  0.00     0.002 C 
ENDROOT
BRANCH   1   2
ATOM      2  C   UNL     1       2.235   4.013   1.119  1.00  0.00     0.002 C 
BRANCH   2   3
ATOM      3  C   UNL     1       2.694   2.710   0.459  1.00  0.00     0.021 C 
BRANCH   3   4
ATOM      4  C   UNL     1       1.622   1.740  -0.013  1.00  0.00     0.116 C 
BRANCH   4   5
ATOM      5  N   UNL     1       0.762   2.161  -1.083  1.00  0.00    -0.351 N 
ATOM      6  C   UNL     1       0.004   1.399  -1.957  1.00  0.00     0.270 C 
ATOM      7  O   UNL     1      -0.762   2.031  -2.691  1.00  0.00    -0.268 OA
ATOM      8  H   UNL     1       0.702   3.135  -1.215  1.00  0.00     0.163 HD
BRANCH   6   9
ATOM      9  C   UNL     1       0.120  -0.116  -2.124  1.00  0.00     0.131 A 
ATOM     10  C   UNL     1       0.170  -0.837   0.372  1.00  0.00     0.047 C 
ATOM     11  C   UNL     1       0.252  -1.080  -1.104  1.00  0.00    -0.018 A 
ATOM     12  C   UNL     1       0.433  -2.430  -1.464  1.00  0.00     0.034 A 
ATOM     13  C   UNL     1       0.295  -2.746  -2.807  1.00  0.00     0.064 A 
ATOM     14  N   UNL     1       0.009  -0.447  -3.443  1.00  0.00    -0.241 NA
ATOM     15  N   UNL     1       0.312  -3.952  -3.466  1.00  0.00    -0.360 N 
ATOM     16  C   UNL     1       0.055  -1.760  -3.749  1.00  0.00     0.089 A 
ATOM     17  C   UNL     1       0.022  -3.759  -4.793  1.00  0.00     0.085 A 
ATOM     18  H   UNL     1       0.504  -4.822  -3.049  1.00  0.00     0.166 HD
ATOM     19  C   UNL     1      -0.135  -2.404  -4.996  1.00  0.00     0.048 A 
ENDBRANCH   6   9
ENDBRANCH   4   5
ENDBRANCH   3   4
ENDBRANCH   2   3
ENDBRANCH   1   2
BRANCH   1  20
ATOM     20  C   UNL     1       1.265   2.980   3.349  1.00  0.00     0.021 C 
BRANCH  20  21
ATOM     21  C   UNL     1       2.530   3.146   4.172  1.00  0.00     0.116 C 
BRANCH  21  22
ATOM     22  N   UNL     1       2.626   4.434   4.857  1.00  0.00    -0.352 N 
ATOM     23  C   UNL     1       3.624   4.853   5.714  1.00  0.00     0.251 C 
ATOM     24  H   UNL     1       1.897   5.074   4.689  1.00  0.00     0.163 HD
ATOM     25  O   UNL     1       3.456   5.793   6.489  1.00  0.00    -0.269 OA
BRANCH  23  26
ATOM     26  C   UNL     1       4.915   4.149   5.676  1.00  0.00     0.039 A 
ATOM     27  C   UNL     1       5.597   3.789   6.842  1.00  0.00     0.014 A 
ATOM     28  C   UNL     1       5.413   3.810   4.421  1.00  0.00     0.014 A 
ATOM     29  C   UNL     1       6.748   3.014   6.729  1.00  0.00     0.010 A 
ATOM     30  C   UNL     1       6.438   2.910   4.320  1.00  0.00     0.010 A 
ATOM     31  C   UNL     1       7.149   2.564   5.462  1.00  0.00    -0.014 A 
BRANCH  31  32
ATOM     32  C   UNL     1       8.271   1.651   5.303  1.00  0.00     0.031 A 
ATOM     33  C   UNL     1       8.160   0.377   6.064  1.00  0.00     0.074 A 
ATOM     34  C   UNL     1       9.224   1.845   4.366  1.00  0.00     0.049 A 
ATOM     35  N   UNL     1       8.930  -0.043   7.011  1.00  0.00    -0.248 NA
ATOM     36  C   UNL     1       6.991  -0.484   5.822  1.00  0.00     0.031 C 
ATOM     37  C   UNL     1       9.312   2.891   3.339  1.00  0.00     0.029 A 
ATOM     38  N   UNL     1      10.297   1.063   4.080  1.00  0.00    -0.354 N 
ATOM     39  C   UNL     1       8.453  -1.300   7.375  1.00  0.00     0.074 A 
ATOM     40  C   UNL     1       7.177  -1.450   6.725  1.00  0.00     0.031 C 
ATOM     41  C   UNL     1      10.239   2.549   2.417  1.00  0.00     0.029 A 
ATOM     42  C   UNL     1      10.928   1.361   2.880  1.00  0.00     0.049 A 
ATOM     43  H   UNL     1      10.602   0.342   4.676  1.00  0.00     0.167 HD
ATOM     44  C   UNL     1       9.256  -2.198   8.013  1.00  0.00     0.037 A 
ATOM     45  C   UNL     1      11.938   0.663   2.306  1.00  0.00     0.037 A 
ATOM     46  C   UNL     1      10.404  -1.544   8.591  1.00  0.00     0.049 A 
ATOM     47  C   UNL     1      12.573  -0.140   3.383  1.00  0.00     0.074 A 
ATOM     48  C   UNL     1      10.568  -0.552   9.539  1.00  0.00     0.029 A 
ATOM     49  N   UNL     1      11.598  -1.603   7.913  1.00  0.00    -0.354 N 
ATOM     50  N   UNL     1      13.230   0.391   4.380  1.00  0.00    -0.248 NA
ATOM     51  C   UNL     1      12.051  -1.478   3.617  1.00  0.00     0.031 C 
ATOM     52  C   UNL     1      11.626   0.263   9.035  1.00  0.00     0.029 A 
ATOM     53  C   UNL     1      12.093  -0.325   7.859  1.00  0.00     0.049 A 
ATOM     54  H   UNL     1      12.018  -2.411   7.537  1.00  0.00     0.167 HD
ATOM     55  C   UNL     1      12.846  -0.348   5.489  1.00  0.00     0.074 A 
ATOM     56  C   UNL     1      12.172  -1.528   4.947  1.00  0.00     0.031 C 
ATOM     57  C   UNL     1      12.844   0.198   6.741  1.00  0.00     0.037 A 
BRANCH  44  58
ATOM     58  C   UNL     1       9.195  -3.694   7.822  1.00  0.00     0.064 A 
ATOM     59  C   UNL     1      10.009  -4.523   8.622  1.00  0.00     0.173 A 
ATOM     60  C   UNL     1       8.608  -4.322   6.703  1.00  0.00     0.173 A 
ATOM     61  F   UNL     1      10.631  -4.033   9.705  1.00  0.00    -0.203 F 
ATOM     62  C   UNL     1      10.279  -5.851   8.277  1.00  0.00     0.198 A 
ATOM     63  C   UNL     1       8.837  -5.661   6.391  1.00  0.00     0.198 A 
ATOM     64  F   UNL     1       7.883  -3.647   5.804  1.00  0.00    -0.203 F 
ATOM     65  F   UNL     1      11.160  -6.559   8.996  1.00  0.00    -0.200 F 
ATOM     66  C   UNL     1       9.698  -6.416   7.157  1.00  0.00     0.200 A 
ATOM     67  F   UNL     1       8.277  -6.185   5.291  1.00  0.00    -0.200 F 
ATOM     68  F   UNL     1      10.004  -7.666   6.788  1.00  0.00    -0.200 F 
ENDBRANCH  44  58
BRANCH  45  69
ATOM     69  C   UNL     1      12.169   0.414   0.864  1.00  0.00     0.064 A 
ATOM     70  C   UNL     1      13.409  -0.042   0.390  1.00  0.00     0.173 A 
ATOM     71  C   UNL     1      11.094   0.358  -0.045  1.00  0.00     0.173 A 
ATOM     72  F   UNL     1      14.473  -0.070   1.206  1.00  0.00    -0.203 F 
ATOM     73  C   UNL     1      13.560  -0.542  -0.910  1.00  0.00     0.198 A 
ATOM     74  C   UNL     1      11.245  -0.137  -1.341  1.00  0.00     0.198 A 
ATOM     75  F   UNL     1       9.853   0.693   0.338  1.00  0.00    -0.203 F 
ATOM     76  F   UNL     1      14.746  -1.022  -1.309  1.00  0.00    -0.200 F 
ATOM     77  C   UNL     1      12.476  -0.598  -1.770  1.00  0.00     0.200 A 
ATOM     78  F   UNL     1      10.178  -0.224  -2.149  1.00  0.00    -0.200 F 
ATOM     79  F   UNL     1      12.605  -1.132  -2.993  1.00  0.00    -0.200 F 
ENDBRANCH  45  69
BRANCH  57  80
ATOM     80  C   UNL     1      13.454   1.563   6.924  1.00  0.00     0.064 A 
ATOM     81  C   UNL     1      12.941   2.735   6.340  1.00  0.00     0.173 A 
ATOM     82  C   UNL     1      14.473   1.715   7.872  1.00  0.00     0.173 A 
ATOM     83  F   UNL     1      11.905   2.689   5.498  1.00  0.00    -0.203 F 
ATOM     84  C   UNL     1      13.441   3.994   6.672  1.00  0.00     0.198 A 
ATOM     85  C   UNL     1      14.949   2.976   8.228  1.00  0.00     0.198 A 
ATOM     86  F   UNL     1      14.966   0.639   8.505  1.00  0.00    -0.203 F 
ATOM     87  F   UNL     1      12.927   5.094   6.102  1.00  0.00    -0.200 F 
ATOM     88  C   UNL     1      14.438   4.113   7.624  1.00  0.00     0.200 A 
ATOM     89  F   UNL     1      15.878   3.089   9.186  1.00  0.00    -0.200 F 
ATOM     90  F   UNL     1      14.884   5.325   7.983  1.00  0.00    -0.200 F 
ENDBRANCH  57  80
ENDBRANCH  31  32
ENDBRANCH  23  26
ENDBRANCH  21  22
ENDBRANCH  20  21
ENDBRANCH   1  20
TORSDOF 13
