REMARK SMILES Cc1ccc(C)c(OCCNC(=O)CCC(=O)NCCCCCCNC(=O)c2ccc(-c3c4nc(c(-c5c(F)c(F)c(F)c(F)c5F)c5ccc([nH]5)c(-c5c(F)c(F)c(F)c(F)c5F)c5nc(c(-c6c(F)c(F)c(F)c(F)c6F)c6ccc3[nH]6)C=C5)C=C4)cc2)c1
REMARK SMILES IDX 19 1 18 2 16 3 17 4 15 6 14 7 12 8 11 9 13 11 10 12 9 13
REMARK SMILES IDX 8 14 7 15 1 16 2 17 3 18 91 19 4 20 5 21 6 22 20 23 21 24
REMARK SMILES IDX 22 25 23 26 24 27 25 28 26 29 27 31 28 32 29 33 90 34 30 35
REMARK SMILES IDX 89 36 31 37 32 38 33 39 83 40 34 41 88 42 82 43 84 44 35 45
REMARK SMILES IDX 87 46 81 47 80 48 36 50 68 51 48 52 67 53 49 54 52 55 66 56
REMARK SMILES IDX 85 57 50 58 51 59 65 61 86 62 53 63 37 64 38 65 46 66 39 67
REMARK SMILES IDX 40 68 44 69 47 70 41 71 42 72 45 73 43 74 69 75 70 76 78 77
REMARK SMILES IDX 71 78 72 79 76 80 79 81 73 82 74 83 77 84 75 85 54 86 55 87
REMARK SMILES IDX 63 88 56 89 57 90 61 91 64 92 58 93 59 94 62 95 60 96
REMARK H PARENT 18 5 11 10 25 30 84 49 52 60
REMARK Flexibility Score: inf
ROOT
ATOM      1  C   UNL     1       2.367   2.530   0.511  1.00  0.00     0.116 C 
ENDROOT
BRANCH   1   2
ATOM      2  N   UNL     1       1.856   3.551  -0.393  1.00  0.00    -0.356 N 
ATOM      3  C   UNL     1       2.307   4.812  -0.641  1.00  0.00     0.220 C 
ATOM      4  O   UNL     1       1.845   5.468  -1.574  1.00  0.00    -0.275 OA
ATOM      5  H   UNL     1       1.059   3.288  -0.906  1.00  0.00     0.163 HD
BRANCH   3   6
ATOM      6  C   UNL     1       3.245   5.414   0.345  1.00  0.00     0.110 C 
BRANCH   6   7
ATOM      7  C   UNL     1       2.456   5.918   1.540  1.00  0.00     0.110 C 
BRANCH   7   8
ATOM      8  C   UNL     1       1.395   5.014   2.146  1.00  0.00     0.220 C 
ATOM      9  N   UNL     1       0.167   4.745   1.615  1.00  0.00    -0.353 N 
ATOM     10  H   UNL     1      -0.365   4.219   2.254  1.00  0.00     0.163 HD
ATOM     11  O   UNL     1       1.634   4.497   3.249  1.00  0.00    -0.275 OA
BRANCH   9  12
ATOM     12  C   UNL     1      -0.633   4.992   0.371  1.00  0.00     0.157 C 
BRANCH  12  13
ATOM     13  C   UNL     1      -1.098   3.862  -0.780  1.00  0.00     0.250 C 
BRANCH  13  14
ATOM     14  O   UNL     1      -0.758   2.468  -0.625  1.00  0.00    -0.491 OA
BRANCH  14  15
ATOM     15  C   UNL     1      -0.678   1.494  -1.636  1.00  0.00     0.122 A 
ATOM     16  C   UNL     1       2.468  -0.631  -1.864  1.00  0.00     0.044 C 
ATOM     17  C   UNL     1       1.026  -0.248  -2.082  1.00  0.00    -0.047 A 
ATOM     18  C   UNL     1       0.049  -1.227  -2.154  1.00  0.00     0.004 A 
ATOM     19  C   UNL     1       0.635   1.101  -1.968  1.00  0.00     0.050 A 
ATOM     20  C   UNL     1      -1.290  -0.846  -2.071  1.00  0.00     0.007 A 
ATOM     21  C   UNL     1      -1.669   0.496  -1.770  1.00  0.00    -0.009 A 
ATOM     22  C   UNL     1      -3.128   0.701  -1.489  1.00  0.00     0.048 C 
ENDBRANCH  14  15
ENDBRANCH  13  14
ENDBRANCH  12  13
ENDBRANCH   9  12
ENDBRANCH   7   8
ENDBRANCH   6   7
ENDBRANCH   3   6
ENDBRANCH   1   2
BRANCH   1  23
ATOM     23  C   UNL     1       1.438   1.521   1.254  1.00  0.00     0.021 C 
BRANCH  23  24
ATOM     24  C   UNL     1       0.072   1.825   1.912  1.00  0.00     0.002 C 
BRANCH  24  25
ATOM     25  C   UNL     1      -1.082   0.802   1.827  1.00  0.00     0.002 C 
BRANCH  25  26
ATOM     26  C   UNL     1      -0.632  -0.590   1.474  1.00  0.00     0.021 C 
BRANCH  26  27
ATOM     27  C   UNL     1      -1.460  -1.664   2.104  1.00  0.00     0.116 C 
BRANCH  27  28
ATOM     28  N   UNL     1      -2.518  -2.380   1.425  1.00  0.00    -0.352 N 
ATOM     29  C   UNL     1      -3.059  -3.557   1.960  1.00  0.00     0.251 C 
ATOM     30  H   UNL     1      -2.865  -2.033   0.571  1.00  0.00     0.163 HD
ATOM     31  O   UNL     1      -3.957  -4.194   1.415  1.00  0.00    -0.269 OA
BRANCH  29  32
ATOM     32  C   UNL     1      -2.488  -3.990   3.274  1.00  0.00     0.039 A 
ATOM     33  C   UNL     1      -2.989  -3.312   4.394  1.00  0.00     0.014 A 
ATOM     34  C   UNL     1      -1.158  -4.413   3.240  1.00  0.00     0.014 A 
ATOM     35  C   UNL     1      -2.093  -2.764   5.318  1.00  0.00     0.010 A 
ATOM     36  C   UNL     1      -0.269  -3.823   4.140  1.00  0.00     0.010 A 
ATOM     37  C   UNL     1      -0.717  -2.901   5.111  1.00  0.00    -0.014 A 
BRANCH  37  38
ATOM     38  C   UNL     1       0.248  -2.190   5.966  1.00  0.00     0.031 A 
ATOM     39  C   UNL     1       1.206  -3.088   6.634  1.00  0.00     0.074 A 
ATOM     40  C   UNL     1       0.491  -0.876   6.173  1.00  0.00     0.049 A 
ATOM     41  N   UNL     1       1.045  -3.640   7.787  1.00  0.00    -0.248 NA
ATOM     42  C   UNL     1       2.392  -3.528   5.891  1.00  0.00     0.031 C 
ATOM     43  C   UNL     1       0.065   0.301   5.427  1.00  0.00     0.029 A 
ATOM     44  N   UNL     1       1.299  -0.337   7.146  1.00  0.00    -0.354 N 
ATOM     45  C   UNL     1       2.181  -4.400   7.983  1.00  0.00     0.074 A 
ATOM     46  C   UNL     1       2.838  -4.488   6.702  1.00  0.00     0.031 C 
ATOM     47  C   UNL     1       0.757   1.389   5.856  1.00  0.00     0.029 A 
ATOM     48  C   UNL     1       1.559   1.019   7.013  1.00  0.00     0.049 A 
ATOM     49  H   UNL     1       1.666  -0.875   7.885  1.00  0.00     0.167 HD
ATOM     50  C   UNL     1       2.633  -4.702   9.227  1.00  0.00     0.037 A 
ATOM     51  C   UNL     1       2.390   1.760   7.792  1.00  0.00     0.037 A 
ATOM     52  C   UNL     1       1.691  -4.334  10.257  1.00  0.00     0.049 A 
ATOM     53  C   UNL     1       2.587   1.034   9.073  1.00  0.00     0.074 A 
ATOM     54  C   UNL     1       0.355  -4.600  10.504  1.00  0.00     0.029 A 
ATOM     55  N   UNL     1       1.996  -3.260  11.059  1.00  0.00    -0.354 N 
ATOM     56  N   UNL     1       1.692   0.932  10.013  1.00  0.00    -0.248 NA
ATOM     57  C   UNL     1       3.719   0.127   9.191  1.00  0.00     0.031 C 
ATOM     58  C   UNL     1      -0.176  -3.395  11.059  1.00  0.00     0.029 A 
ATOM     59  C   UNL     1       0.870  -2.478  11.126  1.00  0.00     0.049 A 
ATOM     60  H   UNL     1       2.858  -3.086  11.502  1.00  0.00     0.167 HD
ATOM     61  C   UNL     1       1.920  -0.311  10.579  1.00  0.00     0.074 A 
ATOM     62  C   UNL     1       3.252  -0.695  10.133  1.00  0.00     0.031 C 
ATOM     63  C   UNL     1       0.896  -1.036  11.114  1.00  0.00     0.037 A 
BRANCH  50  64
ATOM     64  C   UNL     1       4.064  -5.042   9.522  1.00  0.00     0.064 A 
ATOM     65  C   UNL     1       4.379  -5.693  10.726  1.00  0.00     0.173 A 
ATOM     66  C   UNL     1       5.161  -4.566   8.773  1.00  0.00     0.173 A 
ATOM     67  F   UNL     1       3.405  -6.131  11.538  1.00  0.00    -0.203 F 
ATOM     68  C   UNL     1       5.698  -5.838  11.156  1.00  0.00     0.198 A 
ATOM     69  C   UNL     1       6.478  -4.780   9.166  1.00  0.00     0.198 A 
ATOM     70  F   UNL     1       5.003  -3.784   7.697  1.00  0.00    -0.203 F 
ATOM     71  F   UNL     1       5.948  -6.363  12.363  1.00  0.00    -0.200 F 
ATOM     72  C   UNL     1       6.747  -5.394  10.370  1.00  0.00     0.200 A 
ATOM     73  F   UNL     1       7.478  -4.322   8.399  1.00  0.00    -0.200 F 
ATOM     74  F   UNL     1       8.011  -5.505  10.796  1.00  0.00    -0.200 F 
ENDBRANCH  50  64
BRANCH  51  75
ATOM     75  C   UNL     1       3.153   2.997   7.500  1.00  0.00     0.064 A 
ATOM     76  C   UNL     1       3.657   3.805   8.537  1.00  0.00     0.173 A 
ATOM     77  C   UNL     1       3.650   3.255   6.210  1.00  0.00     0.173 A 
ATOM     78  F   UNL     1       3.283   3.594   9.807  1.00  0.00    -0.203 F 
ATOM     79  C   UNL     1       4.618   4.793   8.300  1.00  0.00     0.198 A 
ATOM     80  C   UNL     1       4.598   4.253   5.972  1.00  0.00     0.198 A 
ATOM     81  F   UNL     1       3.316   2.462   5.181  1.00  0.00    -0.203 F 
ATOM     82  F   UNL     1       5.132   5.486   9.327  1.00  0.00    -0.200 F 
ATOM     83  C   UNL     1       5.092   5.012   7.019  1.00  0.00     0.200 A 
ATOM     84  F   UNL     1       5.092   4.424   4.737  1.00  0.00    -0.200 F 
ATOM     85  F   UNL     1       6.061   5.913   6.801  1.00  0.00    -0.200 F 
ENDBRANCH  51  75
BRANCH  63  86
ATOM     86  C   UNL     1      -0.380  -0.311  11.429  1.00  0.00     0.064 A 
ATOM     87  C   UNL     1      -1.167   0.353  10.472  1.00  0.00     0.173 A 
ATOM     88  C   UNL     1      -0.867  -0.364  12.743  1.00  0.00     0.173 A 
ATOM     89  F   UNL     1      -0.825   0.352   9.176  1.00  0.00    -0.203 F 
ATOM     90  C   UNL     1      -2.351   0.993  10.833  1.00  0.00     0.198 A 
ATOM     91  C   UNL     1      -2.071   0.241  13.092  1.00  0.00     0.198 A 
ATOM     92  F   UNL     1      -0.185  -1.031  13.688  1.00  0.00    -0.203 F 
ATOM     93  F   UNL     1      -3.070   1.647   9.908  1.00  0.00    -0.200 F 
ATOM     94  C   UNL     1      -2.804   0.933  12.141  1.00  0.00     0.200 A 
ATOM     95  F   UNL     1      -2.530   0.140  14.347  1.00  0.00    -0.200 F 
ATOM     96  F   UNL     1      -3.959   1.522  12.481  1.00  0.00    -0.200 F 
ENDBRANCH  63  86
ENDBRANCH  37  38
ENDBRANCH  29  32
ENDBRANCH  27  28
ENDBRANCH  26  27
ENDBRANCH  25  26
ENDBRANCH  24  25
ENDBRANCH  23  24
ENDBRANCH   1  23
TORSDOF 19
