REMARK SMILES COc1cc(N[C@H]2C=C[C@@H](C(=O)NCCCCCCNC(=O)c3ccc(-c4c5nc(c(-c6c(F)c(F)c(F)c(F)c6F)c6ccc([nH]6)c(-c6c(F)c(F)c(F)c(F)c6F)c6nc(c(-c7c(F)c(F)c(F)c(F)c7F)c7ccc4[nH]7)C=C6)C=C5)cc3)C2)c([N+](=O)[O-])cc1F
REMARK SMILES IDX 16 1 15 2 14 3 13 4 11 5 12 6 10 8 7 9 8 10 86 11 9 12 6 13
REMARK SMILES IDX 5 15 3 16 4 17 92 18 91 19 93 20 87 21 2 22 1 23 88 24 89 25
REMARK SMILES IDX 90 26 17 27 18 28 19 29 20 30 21 31 22 33 23 34 24 35 85 36
REMARK SMILES IDX 25 37 84 38 26 39 27 40 28 41 78 42 29 43 83 44 77 45 79 46
REMARK SMILES IDX 30 47 82 48 76 49 75 50 31 52 63 53 43 54 62 55 44 56 47 57
REMARK SMILES IDX 61 58 80 59 45 60 46 61 60 63 81 64 48 65 32 66 33 67 41 68
REMARK SMILES IDX 34 69 35 70 39 71 42 72 36 73 37 74 40 75 38 76 64 77 65 78
REMARK SMILES IDX 73 79 66 80 67 81 71 82 74 83 68 84 69 85 72 86 70 87 49 88
REMARK SMILES IDX 50 89 58 90 51 91 52 92 56 93 59 94 53 95 54 96 57 97 55 98
REMARK H PARENT 13 7 6 14 20 32 79 51 47 62
REMARK Flexibility Score: inf
ROOT
ATOM      1  C   UNL     1       0.473  -2.260   1.351  1.00  0.00     0.002 C 
ENDROOT
BRANCH   1   2
ATOM      2  C   UNL     1      -0.035  -1.359   2.483  1.00  0.00     0.021 C 
BRANCH   2   3
ATOM      3  C   UNL     1      -0.956  -0.220   2.051  1.00  0.00     0.116 C 
BRANCH   3   4
ATOM      4  N   UNL     1      -2.294  -0.645   1.725  1.00  0.00    -0.356 N 
ATOM      5  C   UNL     1      -3.493  -0.086   2.038  1.00  0.00     0.227 C 
ATOM      6  O   UNL     1      -4.463  -0.476   1.375  1.00  0.00    -0.274 OA
ATOM      7  H   UNL     1      -2.349  -1.471   1.192  1.00  0.00     0.163 HD
BRANCH   5   8
ATOM      8  C   UNL     1      -3.701   1.002   3.105  1.00  0.00     0.103 C 
ATOM      9  C   UNL     1      -2.341   2.309   4.696  1.00  0.00     0.103 C 
ATOM     10  C   UNL     1      -2.753   3.112   3.518  1.00  0.00    -0.006 C 
ATOM     11  C   UNL     1      -2.946   0.912   4.439  1.00  0.00     0.046 C 
ATOM     12  C   UNL     1      -3.448   2.398   2.625  1.00  0.00    -0.016 C 
BRANCH   9  13
ATOM     13  N   UNL     1      -0.903   2.249   4.946  1.00  0.00    -0.373 N 
ATOM     14  H   UNL     1      -0.701   2.037   5.886  1.00  0.00     0.161 HD
BRANCH  13  15
ATOM     15  C   UNL     1       0.246   2.415   4.194  1.00  0.00     0.117 A 
ATOM     16  C   UNL     1       1.393   3.039   2.102  1.00  0.00     0.157 A 
ATOM     17  C   UNL     1       0.236   2.937   2.887  1.00  0.00     0.082 A 
ATOM     18  C   UNL     1       2.615   2.635   2.611  1.00  0.00     0.172 A 
ATOM     19  C   UNL     1       2.695   2.115   3.891  1.00  0.00     0.131 A 
ATOM     20  F   UNL     1       3.725   2.715   1.866  1.00  0.00    -0.203 F 
ATOM     21  C   UNL     1       1.525   2.008   4.672  1.00  0.00     0.295 A 
BRANCH  16  22
ATOM     22  O   UNL     1       1.318   3.644   0.876  1.00  0.00    -0.494 OA
ATOM     23  C   UNL     1       0.928   2.727  -0.145  1.00  0.00     0.278 C 
ENDBRANCH  16  22
BRANCH  21  24
ATOM     24  N   UNL     1       1.691   1.421   6.013  1.00  0.00     0.065 N 
ATOM     25  O   UNL     1       0.826   1.657   6.870  1.00  0.00    -0.258 OA
ATOM     26  O   UNL     1       2.690   0.713   6.206  1.00  0.00    -0.258 OA
ENDBRANCH  21  24
ENDBRANCH  13  15
ENDBRANCH   9  13
ENDBRANCH   5   8
ENDBRANCH   3   4
ENDBRANCH   2   3
ENDBRANCH   1   2
BRANCH   1  27
ATOM     27  C   UNL     1       1.251  -1.572   0.221  1.00  0.00     0.002 C 
BRANCH  27  28
ATOM     28  C   UNL     1       2.377  -0.626   0.646  1.00  0.00     0.021 C 
BRANCH  28  29
ATOM     29  C   UNL     1       3.500  -1.236   1.480  1.00  0.00     0.116 C 
BRANCH  29  30
ATOM     30  N   UNL     1       4.344  -2.125   0.705  1.00  0.00    -0.352 N 
ATOM     31  C   UNL     1       5.711  -2.174   0.599  1.00  0.00     0.251 C 
ATOM     32  H   UNL     1       3.862  -2.798   0.173  1.00  0.00     0.163 HD
ATOM     33  O   UNL     1       6.218  -2.909  -0.251  1.00  0.00    -0.269 OA
BRANCH  31  34
ATOM     34  C   UNL     1       6.599  -1.367   1.474  1.00  0.00     0.039 A 
ATOM     35  C   UNL     1       7.790  -0.867   0.931  1.00  0.00     0.014 A 
ATOM     36  C   UNL     1       6.337  -1.179   2.835  1.00  0.00     0.014 A 
ATOM     37  C   UNL     1       8.704  -0.181   1.738  1.00  0.00     0.010 A 
ATOM     38  C   UNL     1       7.221  -0.443   3.628  1.00  0.00     0.010 A 
ATOM     39  C   UNL     1       8.428   0.038   3.095  1.00  0.00    -0.014 A 
BRANCH  39  40
ATOM     40  C   UNL     1       9.425   0.693   3.983  1.00  0.00     0.031 A 
ATOM     41  C   UNL     1      10.107  -0.104   5.063  1.00  0.00     0.074 A 
ATOM     42  C   UNL     1       9.712   2.000   3.839  1.00  0.00     0.049 A 
ATOM     43  N   UNL     1      10.968   0.290   5.970  1.00  0.00    -0.248 NA
ATOM     44  C   UNL     1       9.758  -1.530   5.149  1.00  0.00     0.031 C 
ATOM     45  C   UNL     1       9.113   2.890   2.846  1.00  0.00     0.029 A 
ATOM     46  N   UNL     1      10.583   2.807   4.531  1.00  0.00    -0.354 N 
ATOM     47  C   UNL     1      11.246  -0.832   6.740  1.00  0.00     0.074 A 
ATOM     48  C   UNL     1      10.430  -1.910   6.226  1.00  0.00     0.031 C 
ATOM     49  C   UNL     1       9.652   4.114   2.975  1.00  0.00     0.029 A 
ATOM     50  C   UNL     1      10.613   4.102   4.077  1.00  0.00     0.049 A 
ATOM     51  H   UNL     1      11.133   2.486   5.282  1.00  0.00     0.167 HD
ATOM     52  C   UNL     1      12.118  -0.960   7.769  1.00  0.00     0.037 A 
ATOM     53  C   UNL     1      11.335   5.159   4.497  1.00  0.00     0.037 A 
ATOM     54  C   UNL     1      12.956   0.101   8.262  1.00  0.00     0.049 A 
ATOM     55  C   UNL     1      12.305   4.994   5.635  1.00  0.00     0.074 A 
ATOM     56  C   UNL     1      13.893   0.058   9.279  1.00  0.00     0.029 A 
ATOM     57  N   UNL     1      12.961   1.396   7.767  1.00  0.00    -0.354 N 
ATOM     58  N   UNL     1      12.575   3.924   6.341  1.00  0.00    -0.248 NA
ATOM     59  C   UNL     1      13.075   6.182   6.030  1.00  0.00     0.031 C 
ATOM     60  C   UNL     1      14.446   1.335   9.420  1.00  0.00     0.029 A 
ATOM     61  C   UNL     1      13.882   2.163   8.462  1.00  0.00     0.049 A 
ATOM     62  H   UNL     1      12.395   1.722   7.031  1.00  0.00     0.167 HD
ATOM     63  C   UNL     1      13.557   4.300   7.247  1.00  0.00     0.074 A 
ATOM     64  C   UNL     1      13.844   5.697   6.996  1.00  0.00     0.031 C 
ATOM     65  C   UNL     1      14.165   3.551   8.199  1.00  0.00     0.037 A 
BRANCH  52  66
ATOM     66  C   UNL     1      12.216  -2.305   8.428  1.00  0.00     0.064 A 
ATOM     67  C   UNL     1      11.739  -2.497   9.734  1.00  0.00     0.173 A 
ATOM     68  C   UNL     1      12.811  -3.397   7.779  1.00  0.00     0.173 A 
ATOM     69  F   UNL     1      11.169  -1.483  10.402  1.00  0.00    -0.203 F 
ATOM     70  C   UNL     1      11.855  -3.733  10.364  1.00  0.00     0.198 A 
ATOM     71  C   UNL     1      12.898  -4.640   8.402  1.00  0.00     0.198 A 
ATOM     72  F   UNL     1      13.272  -3.269   6.526  1.00  0.00    -0.203 F 
ATOM     73  F   UNL     1      11.410  -3.888  11.619  1.00  0.00    -0.200 F 
ATOM     74  C   UNL     1      12.426  -4.805   9.695  1.00  0.00     0.200 A 
ATOM     75  F   UNL     1      13.426  -5.681   7.744  1.00  0.00    -0.200 F 
ATOM     76  F   UNL     1      12.515  -6.000  10.295  1.00  0.00    -0.200 F 
ENDBRANCH  52  66
BRANCH  53  77
ATOM     77  C   UNL     1      11.198   6.457   3.790  1.00  0.00     0.064 A 
ATOM     78  C   UNL     1      10.048   7.247   3.927  1.00  0.00     0.173 A 
ATOM     79  C   UNL     1      12.203   6.907   2.923  1.00  0.00     0.173 A 
ATOM     80  F   UNL     1       9.059   6.857   4.745  1.00  0.00    -0.203 F 
ATOM     81  C   UNL     1       9.899   8.429   3.204  1.00  0.00     0.198 A 
ATOM     82  C   UNL     1      12.061   8.099   2.216  1.00  0.00     0.198 A 
ATOM     83  F   UNL     1      13.329   6.194   2.778  1.00  0.00    -0.203 F 
ATOM     84  F   UNL     1       8.777   9.150   3.328  1.00  0.00    -0.200 F 
ATOM     85  C   UNL     1      10.906   8.854   2.350  1.00  0.00     0.200 A 
ATOM     86  F   UNL     1      13.044   8.516   1.407  1.00  0.00    -0.200 F 
ATOM     87  F   UNL     1      10.763   9.991   1.657  1.00  0.00    -0.200 F 
ENDBRANCH  53  77
BRANCH  65  88
ATOM     88  C   UNL     1      15.222   4.210   9.034  1.00  0.00     0.064 A 
ATOM     89  C   UNL     1      16.573   3.876   8.862  1.00  0.00     0.173 A 
ATOM     90  C   UNL     1      14.892   5.111  10.057  1.00  0.00     0.173 A 
ATOM     91  F   UNL     1      16.939   3.013   7.902  1.00  0.00    -0.203 F 
ATOM     92  C   UNL     1      17.555   4.409   9.692  1.00  0.00     0.198 A 
ATOM     93  C   UNL     1      15.879   5.660  10.871  1.00  0.00     0.198 A 
ATOM     94  F   UNL     1      13.614   5.470  10.253  1.00  0.00    -0.203 F 
ATOM     95  F   UNL     1      18.837   4.053   9.528  1.00  0.00    -0.200 F 
ATOM     96  C   UNL     1      17.207   5.303  10.694  1.00  0.00     0.200 A 
ATOM     97  F   UNL     1      15.544   6.539  11.826  1.00  0.00    -0.200 F 
ATOM     98  F   UNL     1      18.154   5.821  11.489  1.00  0.00    -0.200 F 
ENDBRANCH  65  88
ENDBRANCH  39  40
ENDBRANCH  31  34
ENDBRANCH  29  30
ENDBRANCH  28  29
ENDBRANCH  27  28
ENDBRANCH   1  27
TORSDOF 17
