REMARK SMILES C[C@H](NC(=O)N(CC(=O)NCCCCCCNC(=O)c1ccc(-c2c3nc(c(-c4c(F)c(F)c(F)c(F)c4F)c4ccc([nH]4)c(-c4c(F)c(F)c(F)c(F)c4F)c4nc(c(-c5c(F)c(F)c(F)c(F)c5F)c5ccc2[nH]5)C=C4)C=C3)cc1)CC(F)(F)F)[C@@H]1CCCO1
REMARK SMILES IDX 12 1 11 2 10 3 8 4 9 5 7 7 6 8 4 9 3 10 5 12 2 13 1 14 88 15
REMARK SMILES IDX 89 16 92 17 90 18 91 19 83 20 84 21 85 22 86 23 87 24 13 25
REMARK SMILES IDX 14 26 15 27 16 28 17 29 18 30 19 32 20 33 21 34 82 35 22 36
REMARK SMILES IDX 81 37 23 38 24 39 25 40 75 41 26 42 80 43 74 44 76 45 27 46
REMARK SMILES IDX 79 47 73 48 72 49 28 51 60 52 40 53 59 54 41 55 44 56 58 57
REMARK SMILES IDX 77 58 42 59 43 60 57 62 78 63 45 64 29 65 30 66 38 67 31 68
REMARK SMILES IDX 32 69 36 70 39 71 33 72 34 73 37 74 35 75 61 76 62 77 70 78
REMARK SMILES IDX 63 79 64 80 68 81 71 82 65 83 66 84 69 85 67 86 46 87 47 88
REMARK SMILES IDX 55 89 48 90 49 91 53 92 56 93 50 94 51 95 54 96 52 97
REMARK H PARENT 10 6 3 11 17 31 76 50 44 61
REMARK Flexibility Score: inf
ROOT
ATOM      1  C   UNL     1       3.839   0.530  -3.192  1.00  0.00     0.021 C 
ENDROOT
BRANCH   1   2
ATOM      2  C   UNL     1       2.908  -0.645  -2.917  1.00  0.00     0.116 C 
BRANCH   2   3
ATOM      3  N   UNL     1       3.650  -1.887  -2.862  1.00  0.00    -0.355 N 
ATOM      4  C   UNL     1       3.956  -2.693  -1.813  1.00  0.00     0.239 C 
ATOM      5  O   UNL     1       4.666  -3.678  -2.044  1.00  0.00    -0.273 OA
ATOM      6  H   UNL     1       3.990  -2.199  -3.731  1.00  0.00     0.163 HD
BRANCH   4   7
ATOM      7  C   UNL     1       3.274  -2.545  -0.449  1.00  0.00     0.221 C 
BRANCH   7   8
ATOM      8  N   UNL     1       3.320  -1.276   0.285  1.00  0.00    -0.306 N 
BRANCH   8   9
ATOM      9  C   UNL     1       2.334  -0.349   0.501  1.00  0.00     0.318 C 
ATOM     10  N   UNL     1       1.033  -0.551   0.210  1.00  0.00    -0.333 N 
ATOM     11  H   UNL     1       0.486   0.247   0.392  1.00  0.00     0.165 HD
ATOM     12  O   UNL     1       2.604   0.746   1.003  1.00  0.00    -0.249 OA
BRANCH  10  13
ATOM     13  C   UNL     1       0.228  -1.660  -0.309  1.00  0.00     0.109 C 
ATOM     14  C   UNL     1       0.186  -2.827   0.689  1.00  0.00     0.034 C 
BRANCH  13  15
ATOM     15  C   UNL     1      -1.216  -1.238  -0.667  1.00  0.00     0.140 C 
ATOM     16  C   UNL     1      -1.904  -2.254  -1.567  1.00  0.00     0.036 C 
ATOM     17  O   UNL     1      -1.256  -0.017  -1.429  1.00  0.00    -0.376 OA
ATOM     18  C   UNL     1      -3.039  -1.442  -2.134  1.00  0.00     0.031 C 
ATOM     19  C   UNL     1      -2.440  -0.052  -2.248  1.00  0.00     0.160 C 
ENDBRANCH  13  15
ENDBRANCH  10  13
ENDBRANCH   8   9
BRANCH   8  20
ATOM     20  C   UNL     1       4.636  -0.970   0.905  1.00  0.00     0.237 C 
BRANCH  20  21
ATOM     21  C   UNL     1       5.617  -0.108   0.108  1.00  0.00     0.406 C 
ATOM     22  F   UNL     1       5.135   1.111  -0.201  1.00  0.00    -0.169 F 
ATOM     23  F   UNL     1       6.756   0.078   0.822  1.00  0.00    -0.169 F 
ATOM     24  F   UNL     1       5.979  -0.719  -1.043  1.00  0.00    -0.169 F 
ENDBRANCH  20  21
ENDBRANCH   8  20
ENDBRANCH   7   8
ENDBRANCH   4   7
ENDBRANCH   2   3
ENDBRANCH   1   2
BRANCH   1  25
ATOM     25  C   UNL     1       4.515   0.463  -4.564  1.00  0.00     0.002 C 
BRANCH  25  26
ATOM     26  C   UNL     1       3.539   0.527  -5.741  1.00  0.00     0.002 C 
BRANCH  26  27
ATOM     27  C   UNL     1       2.647   1.770  -5.748  1.00  0.00     0.021 C 
BRANCH  27  28
ATOM     28  C   UNL     1       3.417   3.083  -5.681  1.00  0.00     0.116 C 
BRANCH  28  29
ATOM     29  N   UNL     1       4.314   3.237  -6.816  1.00  0.00    -0.352 N 
ATOM     30  C   UNL     1       4.401   4.274  -7.709  1.00  0.00     0.251 C 
ATOM     31  H   UNL     1       4.945   2.496  -6.963  1.00  0.00     0.163 HD
ATOM     32  O   UNL     1       5.043   4.159  -8.744  1.00  0.00    -0.269 OA
BRANCH  30  33
ATOM     33  C   UNL     1       3.693   5.533  -7.410  1.00  0.00     0.039 A 
ATOM     34  C   UNL     1       2.935   6.138  -8.413  1.00  0.00     0.014 A 
ATOM     35  C   UNL     1       3.769   6.102  -6.135  1.00  0.00     0.014 A 
ATOM     36  C   UNL     1       2.211   7.293  -8.122  1.00  0.00     0.010 A 
ATOM     37  C   UNL     1       2.984   7.205  -5.825  1.00  0.00     0.010 A 
ATOM     38  C   UNL     1       2.206   7.818  -6.819  1.00  0.00    -0.014 A 
BRANCH  38  39
ATOM     39  C   UNL     1       1.395   9.012  -6.480  1.00  0.00     0.031 A 
ATOM     40  C   UNL     1       2.066  10.276  -6.026  1.00  0.00     0.074 A 
ATOM     41  C   UNL     1       0.052   8.934  -6.520  1.00  0.00     0.049 A 
ATOM     42  N   UNL     1       1.530  11.407  -5.642  1.00  0.00    -0.248 NA
ATOM     43  C   UNL     1       3.536  10.258  -5.968  1.00  0.00     0.031 C 
ATOM     44  C   UNL     1      -0.713   7.741  -6.884  1.00  0.00     0.029 A 
ATOM     45  N   UNL     1      -0.908   9.872  -6.237  1.00  0.00    -0.354 N 
ATOM     46  C   UNL     1       2.594  12.226  -5.285  1.00  0.00     0.074 A 
ATOM     47  C   UNL     1       3.800  11.442  -5.438  1.00  0.00     0.031 C 
ATOM     48  C   UNL     1      -2.024   8.023  -6.818  1.00  0.00     0.029 A 
ATOM     49  C   UNL     1      -2.191   9.402  -6.369  1.00  0.00     0.049 A 
ATOM     50  H   UNL     1      -0.697  10.795  -5.966  1.00  0.00     0.167 HD
ATOM     51  C   UNL     1       2.567  13.521  -4.890  1.00  0.00     0.037 A 
ATOM     52  C   UNL     1      -3.370  10.011  -6.141  1.00  0.00     0.037 A 
ATOM     53  C   UNL     1       1.360  14.295  -4.751  1.00  0.00     0.049 A 
ATOM     54  C   UNL     1      -3.378  11.449  -5.700  1.00  0.00     0.074 A 
ATOM     55  C   UNL     1       1.226  15.632  -4.424  1.00  0.00     0.029 A 
ATOM     56  N   UNL     1       0.077  13.792  -4.916  1.00  0.00    -0.354 N 
ATOM     57  N   UNL     1      -2.365  12.243  -5.453  1.00  0.00    -0.248 NA
ATOM     58  C   UNL     1      -4.693  12.078  -5.519  1.00  0.00     0.031 C 
ATOM     59  C   UNL     1      -0.140  15.923  -4.328  1.00  0.00     0.029 A 
ATOM     60  C   UNL     1      -0.857  14.785  -4.664  1.00  0.00     0.049 A 
ATOM     61  H   UNL     1      -0.139  12.867  -5.175  1.00  0.00     0.167 HD
ATOM     62  C   UNL     1      -2.916  13.470  -5.108  1.00  0.00     0.074 A 
ATOM     63  C   UNL     1      -4.354  13.319  -5.197  1.00  0.00     0.031 C 
ATOM     64  C   UNL     1      -2.287  14.618  -4.750  1.00  0.00     0.037 A 
BRANCH  51  65
ATOM     65  C   UNL     1       3.883  14.173  -4.570  1.00  0.00     0.064 A 
ATOM     66  C   UNL     1       4.851  14.415  -5.558  1.00  0.00     0.173 A 
ATOM     67  C   UNL     1       4.179  14.569  -3.257  1.00  0.00     0.173 A 
ATOM     68  F   UNL     1       4.625  14.049  -6.829  1.00  0.00    -0.203 F 
ATOM     69  C   UNL     1       6.081  14.983  -5.236  1.00  0.00     0.198 A 
ATOM     70  C   UNL     1       5.395  15.173  -2.945  1.00  0.00     0.198 A 
ATOM     71  F   UNL     1       3.289  14.372  -2.272  1.00  0.00    -0.203 F 
ATOM     72  F   UNL     1       7.014  15.139  -6.186  1.00  0.00    -0.200 F 
ATOM     73  C   UNL     1       6.350  15.367  -3.932  1.00  0.00     0.200 A 
ATOM     74  F   UNL     1       5.646  15.559  -1.686  1.00  0.00    -0.200 F 
ATOM     75  F   UNL     1       7.533  15.915  -3.623  1.00  0.00    -0.200 F 
ENDBRANCH  51  65
BRANCH  52  76
ATOM     76  C   UNL     1      -4.635   9.255  -6.340  1.00  0.00     0.064 A 
ATOM     77  C   UNL     1      -5.503   9.559  -7.397  1.00  0.00     0.173 A 
ATOM     78  C   UNL     1      -4.988   8.197  -5.489  1.00  0.00     0.173 A 
ATOM     79  F   UNL     1      -5.218  10.574  -8.226  1.00  0.00    -0.203 F 
ATOM     80  C   UNL     1      -6.683   8.843  -7.587  1.00  0.00     0.198 A 
ATOM     81  C   UNL     1      -6.152   7.461  -5.699  1.00  0.00     0.198 A 
ATOM     82  F   UNL     1      -4.187   7.860  -4.468  1.00  0.00    -0.203 F 
ATOM     83  F   UNL     1      -7.515   9.178  -8.583  1.00  0.00    -0.200 F 
ATOM     84  C   UNL     1      -7.002   7.789  -6.744  1.00  0.00     0.200 A 
ATOM     85  F   UNL     1      -6.445   6.431  -4.894  1.00  0.00    -0.200 F 
ATOM     86  F   UNL     1      -8.130   7.091  -6.936  1.00  0.00    -0.200 F 
ENDBRANCH  52  76
BRANCH  64  87
ATOM     87  C   UNL     1      -3.150  15.812  -4.453  1.00  0.00     0.064 A 
ATOM     88  C   UNL     1      -3.956  15.875  -3.306  1.00  0.00     0.173 A 
ATOM     89  C   UNL     1      -3.139  16.925  -5.309  1.00  0.00     0.173 A 
ATOM     90  F   UNL     1      -4.014  14.833  -2.463  1.00  0.00    -0.203 F 
ATOM     91  C   UNL     1      -4.739  16.995  -3.043  1.00  0.00     0.198 A 
ATOM     92  C   UNL     1      -3.897  18.057  -5.023  1.00  0.00     0.198 A 
ATOM     93  F   UNL     1      -2.382  16.920  -6.416  1.00  0.00    -0.203 F 
ATOM     94  F   UNL     1      -5.542  17.012  -1.969  1.00  0.00    -0.200 F 
ATOM     95  C   UNL     1      -4.703  18.088  -3.896  1.00  0.00     0.200 A 
ATOM     96  F   UNL     1      -3.847  19.118  -5.840  1.00  0.00    -0.200 F 
ATOM     97  F   UNL     1      -5.451  19.169  -3.635  1.00  0.00    -0.200 F 
ENDBRANCH  64  87
ENDBRANCH  38  39
ENDBRANCH  30  33
ENDBRANCH  28  29
ENDBRANCH  27  28
ENDBRANCH  26  27
ENDBRANCH  25  26
ENDBRANCH   1  25
TORSDOF 19
