REMARK SMILES [NH3+]C[C@H]1CC[C@@H](C(=O)N[C@H](C(=O)NCCCCCCNC(=O)c2ccc(-c3c4nc(c(-c5c(F)c(F)c(F)c(F)c5F)c5ccc([nH]5)c(-c5c(F)c(F)c(F)c(F)c5F)c5nc(c(-c6c(F)c(F)c(F)c(F)c6F)c6ccc3[nH]6)C=C5)C=C4)cc2)C2CCCCC2)O1
REMARK SMILES IDX 15 1 14 2 13 3 11 4 12 5 10 7 9 8 7 9 8 10 6 12 3 13 4 14
REMARK SMILES IDX 92 15 5 16 2 17 1 18 86 22 87 23 91 24 88 25 90 26 89 27
REMARK SMILES IDX 16 28 17 29 18 30 19 31 20 32 21 33 22 35 23 36 24 37 85 38
REMARK SMILES IDX 25 39 84 40 26 41 27 42 28 43 78 44 29 45 83 46 77 47 79 48
REMARK SMILES IDX 30 49 82 50 76 51 75 52 31 54 63 55 43 56 62 57 44 58 47 59
REMARK SMILES IDX 61 60 80 61 45 62 46 63 60 65 81 66 48 67 32 68 33 69 41 70
REMARK SMILES IDX 34 71 35 72 39 73 42 74 36 75 37 76 40 77 38 78 64 79 65 80
REMARK SMILES IDX 73 81 66 82 67 83 71 84 74 85 68 86 69 87 72 88 70 89 49 90
REMARK SMILES IDX 50 91 58 92 51 93 52 94 56 95 59 96 53 97 54 98 57 99 55 100
REMARK H PARENT 13 6 9 11 1 19 1 20 1 21 20 34 79 53 47 64
REMARK Flexibility Score: inf
ROOT
ATOM      1  C   UNL     1      -6.995   6.255   4.200  1.00  0.00     0.021 C 
ENDROOT
BRANCH   1   2
ATOM      2  C   UNL     1      -5.688   5.471   4.191  1.00  0.00     0.116 C 
BRANCH   2   3
ATOM      3  N   UNL     1      -5.084   5.453   2.881  1.00  0.00    -0.354 N 
ATOM      4  C   UNL     1      -3.966   5.990   2.339  1.00  0.00     0.242 C 
ATOM      5  O   UNL     1      -3.867   5.772   1.123  1.00  0.00    -0.273 OA
ATOM      6  H   UNL     1      -5.605   4.929   2.230  1.00  0.00     0.163 HD
BRANCH   4   7
ATOM      7  C   UNL     1      -2.789   6.688   3.117  1.00  0.00     0.174 C 
BRANCH   7   8
ATOM      8  N   UNL     1      -2.096   7.524   2.116  1.00  0.00    -0.342 N 
ATOM      9  C   UNL     1      -1.205   7.253   1.123  1.00  0.00     0.249 C 
ATOM     10  O   UNL     1      -0.805   8.234   0.486  1.00  0.00    -0.272 OA
ATOM     11  H   UNL     1      -2.327   8.479   2.181  1.00  0.00     0.164 HD
BRANCH   9  12
ATOM     12  C   UNL     1      -0.770   5.818   0.774  1.00  0.00     0.207 C 
ATOM     13  C   UNL     1       1.147   4.837  -0.184  1.00  0.00     0.174 C 
ATOM     14  C   UNL     1       0.794   4.084   1.087  1.00  0.00     0.041 C 
ATOM     15  O   UNL     1       0.112   5.813  -0.369  1.00  0.00    -0.359 OA
ATOM     16  C   UNL     1      -0.016   5.091   1.868  1.00  0.00     0.045 C 
BRANCH  13  17
ATOM     17  C   UNL     1       2.517   5.542  -0.138  1.00  0.00     0.291 C 
BRANCH  17  18
ATOM     18  N   UNL     1       3.657   4.621  -0.142  1.00  0.00    -0.355 N 
ATOM     19  H   UNL     1       4.526   5.155  -0.110  1.00  0.00     0.344 HD
ATOM     20  H   UNL     1       3.636   4.057  -0.991  1.00  0.00     0.344 HD
ATOM     21  H   UNL     1       3.604   4.011   0.674  1.00  0.00     0.344 HD
ENDBRANCH  17  18
ENDBRANCH  13  17
ENDBRANCH   9  12
ENDBRANCH   7   8
BRANCH   7  22
ATOM     22  C   UNL     1      -3.163   7.545   4.368  1.00  0.00     0.021 C 
ATOM     23  C   UNL     1      -2.922   6.769   5.690  1.00  0.00     0.006 C 
ATOM     24  C   UNL     1      -2.405   8.885   4.549  1.00  0.00     0.006 C 
ATOM     25  C   UNL     1      -3.619   7.500   6.841  1.00  0.00     0.000 C 
ATOM     26  C   UNL     1      -2.958   9.686   5.735  1.00  0.00     0.000 C 
ATOM     27  C   UNL     1      -3.024   8.890   7.035  1.00  0.00     0.000 C 
ENDBRANCH   7  22
ENDBRANCH   4   7
ENDBRANCH   2   3
ENDBRANCH   1   2
BRANCH   1  28
ATOM     28  C   UNL     1      -8.217   5.431   3.786  1.00  0.00     0.002 C 
BRANCH  28  29
ATOM     29  C   UNL     1      -8.475   4.178   4.631  1.00  0.00     0.002 C 
BRANCH  29  30
ATOM     30  C   UNL     1      -8.493   4.396   6.148  1.00  0.00     0.021 C 
BRANCH  30  31
ATOM     31  C   UNL     1      -9.504   5.430   6.634  1.00  0.00     0.116 C 
BRANCH  31  32
ATOM     32  N   UNL     1     -10.864   5.080   6.260  1.00  0.00    -0.352 N 
ATOM     33  C   UNL     1     -11.969   4.911   7.047  1.00  0.00     0.251 C 
ATOM     34  H   UNL     1     -11.012   4.944   5.296  1.00  0.00     0.163 HD
ATOM     35  O   UNL     1     -12.992   4.407   6.574  1.00  0.00    -0.269 OA
BRANCH  33  36
ATOM     36  C   UNL     1     -11.946   5.316   8.466  1.00  0.00     0.039 A 
ATOM     37  C   UNL     1     -12.513   4.468   9.420  1.00  0.00     0.014 A 
ATOM     38  C   UNL     1     -11.396   6.542   8.853  1.00  0.00     0.014 A 
ATOM     39  C   UNL     1     -12.487   4.826  10.769  1.00  0.00     0.010 A 
ATOM     40  C   UNL     1     -11.311   6.868  10.204  1.00  0.00     0.010 A 
ATOM     41  C   UNL     1     -11.861   6.016  11.174  1.00  0.00    -0.014 A 
BRANCH  41  42
ATOM     42  C   UNL     1     -11.781   6.389  12.608  1.00  0.00     0.031 A 
ATOM     43  C   UNL     1     -12.499   7.611  13.110  1.00  0.00     0.074 A 
ATOM     44  C   UNL     1     -11.015   5.662  13.443  1.00  0.00     0.049 A 
ATOM     45  N   UNL     1     -12.487   8.147  14.304  1.00  0.00    -0.248 NA
ATOM     46  C   UNL     1     -13.323   8.341  12.133  1.00  0.00     0.031 C 
ATOM     47  C   UNL     1     -10.236   4.482  13.063  1.00  0.00     0.029 A 
ATOM     48  N   UNL     1     -10.753   5.816  14.781  1.00  0.00    -0.354 N 
ATOM     49  C   UNL     1     -13.290   9.276  14.220  1.00  0.00     0.074 A 
ATOM     50  C   UNL     1     -13.730   9.382  12.846  1.00  0.00     0.031 C 
ATOM     51  C   UNL     1      -9.594   4.012  14.145  1.00  0.00     0.029 A 
ATOM     52  C   UNL     1      -9.886   4.877  15.284  1.00  0.00     0.049 A 
ATOM     53  H   UNL     1     -11.149   6.532  15.329  1.00  0.00     0.167 HD
ATOM     54  C   UNL     1     -13.648  10.133  15.206  1.00  0.00     0.037 A 
ATOM     55  C   UNL     1      -9.375   4.738  16.522  1.00  0.00     0.037 A 
ATOM     56  C   UNL     1     -13.224  10.013  16.576  1.00  0.00     0.049 A 
ATOM     57  C   UNL     1      -9.785   5.708  17.597  1.00  0.00     0.074 A 
ATOM     58  C   UNL     1     -13.562  10.808  17.657  1.00  0.00     0.029 A 
ATOM     59  N   UNL     1     -12.370   9.030  17.054  1.00  0.00    -0.354 N 
ATOM     60  N   UNL     1     -10.588   6.741  17.517  1.00  0.00    -0.248 NA
ATOM     61  C   UNL     1      -9.225   5.488  18.938  1.00  0.00     0.031 C 
ATOM     62  C   UNL     1     -12.882  10.329  18.782  1.00  0.00     0.029 A 
ATOM     63  C   UNL     1     -12.159   9.207  18.412  1.00  0.00     0.049 A 
ATOM     64  H   UNL     1     -11.972   8.313  16.509  1.00  0.00     0.167 HD
ATOM     65  C   UNL     1     -10.653   7.274  18.797  1.00  0.00     0.074 A 
ATOM     66  C   UNL     1      -9.820   6.441  19.639  1.00  0.00     0.031 C 
ATOM     67  C   UNL     1     -11.337   8.359  19.236  1.00  0.00     0.037 A 
BRANCH  54  68
ATOM     68  C   UNL     1     -14.556  11.272  14.843  1.00  0.00     0.064 A 
ATOM     69  C   UNL     1     -15.905  11.057  14.523  1.00  0.00     0.173 A 
ATOM     70  C   UNL     1     -14.089  12.594  14.864  1.00  0.00     0.173 A 
ATOM     71  F   UNL     1     -16.398   9.811  14.477  1.00  0.00    -0.203 F 
ATOM     72  C   UNL     1     -16.747  12.123  14.216  1.00  0.00     0.198 A 
ATOM     73  C   UNL     1     -14.941  13.660  14.585  1.00  0.00     0.198 A 
ATOM     74  F   UNL     1     -12.809  12.855  15.168  1.00  0.00    -0.203 F 
ATOM     75  F   UNL     1     -18.022  11.890  13.872  1.00  0.00    -0.200 F 
ATOM     76  C   UNL     1     -16.267  13.423  14.255  1.00  0.00     0.200 A 
ATOM     77  F   UNL     1     -14.479  14.917  14.636  1.00  0.00    -0.200 F 
ATOM     78  F   UNL     1     -17.082  14.449  13.971  1.00  0.00    -0.200 F 
ENDBRANCH  54  68
BRANCH  55  79
ATOM     79  C   UNL     1      -8.427   3.631  16.818  1.00  0.00     0.064 A 
ATOM     80  C   UNL     1      -8.795   2.571  17.658  1.00  0.00     0.173 A 
ATOM     81  C   UNL     1      -7.131   3.619  16.282  1.00  0.00     0.173 A 
ATOM     82  F   UNL     1     -10.017   2.548  18.210  1.00  0.00    -0.203 F 
ATOM     83  C   UNL     1      -7.893   1.557  17.975  1.00  0.00     0.198 A 
ATOM     84  C   UNL     1      -6.241   2.589  16.574  1.00  0.00     0.198 A 
ATOM     85  F   UNL     1      -6.732   4.606  15.465  1.00  0.00    -0.203 F 
ATOM     86  F   UNL     1      -8.253   0.585  18.824  1.00  0.00    -0.200 F 
ATOM     87  C   UNL     1      -6.618   1.564  17.429  1.00  0.00     0.200 A 
ATOM     88  F   UNL     1      -5.015   2.591  16.032  1.00  0.00    -0.200 F 
ATOM     89  F   UNL     1      -5.751   0.589  17.734  1.00  0.00    -0.200 F 
ENDBRANCH  55  79
BRANCH  67  90
ATOM     90  C   UNL     1     -11.245   8.684  20.698  1.00  0.00     0.064 A 
ATOM     91  C   UNL     1     -10.075   9.212  21.262  1.00  0.00     0.173 A 
ATOM     92  C   UNL     1     -12.356   8.500  21.536  1.00  0.00     0.173 A 
ATOM     93  F   UNL     1      -8.982   9.391  20.506  1.00  0.00    -0.203 F 
ATOM     94  C   UNL     1     -10.012   9.520  22.619  1.00  0.00     0.198 A 
ATOM     95  C   UNL     1     -12.299   8.838  22.884  1.00  0.00     0.198 A 
ATOM     96  F   UNL     1     -13.501   8.004  21.042  1.00  0.00    -0.203 F 
ATOM     97  F   UNL     1      -8.869   9.979  23.147  1.00  0.00    -0.200 F 
ATOM     98  C   UNL     1     -11.126   9.340  23.426  1.00  0.00     0.200 A 
ATOM     99  F   UNL     1     -13.379   8.676  23.661  1.00  0.00    -0.200 F 
ATOM    100  F   UNL     1     -11.065   9.644  24.730  1.00  0.00    -0.200 F 
ENDBRANCH  67  90
ENDBRANCH  41  42
ENDBRANCH  33  36
ENDBRANCH  31  32
ENDBRANCH  30  31
ENDBRANCH  29  30
ENDBRANCH  28  29
ENDBRANCH   1  28
TORSDOF 18
