REMARK SMILES O=C(NCCCCCCNC(=O)[C@@H]1CCCC[C@H]1C(=O)Nc1ccc(NC(=O)c2ccco2)cc1)c1ccc(-c2c3nc(c(-c4c(F)c(F)c(F)c(F)c4F)c4ccc([nH]4)c(-c4c(F)c(F)c(F)c(F)c4F)c4nc(c(-c5c(F)c(F)c(F)c(F)c5F)c5ccc2[nH]5)C=C4)C=C3)cc1
REMARK SMILES IDX 7 1 6 2 5 3 4 4 3 5 1 6 2 7 36 9 37 10 98 11 38 12 97 13
REMARK SMILES IDX 39 14 40 15 41 16 91 17 42 18 96 19 90 20 92 21 43 22 95 23
REMARK SMILES IDX 89 24 88 25 44 27 76 28 56 29 75 30 57 31 60 32 74 33 93 34
REMARK SMILES IDX 58 35 59 36 73 38 94 39 61 40 45 41 46 42 54 43 47 44 48 45
REMARK SMILES IDX 52 46 55 47 49 48 50 49 53 50 51 51 77 52 78 53 86 54 79 55
REMARK SMILES IDX 80 56 84 57 87 58 81 59 82 60 85 61 83 62 62 63 63 64 71 65
REMARK SMILES IDX 64 66 65 67 69 68 72 69 66 70 67 71 70 72 68 73 8 74 9 75
REMARK SMILES IDX 10 76 11 77 12 79 13 80 14 81 18 82 15 83 17 84 16 85 19 86
REMARK SMILES IDX 20 87 21 88 22 90 23 91 35 92 24 93 34 94 25 95 26 96 27 97
REMARK SMILES IDX 28 99 29 100 30 101 33 102 31 103 32 104
REMARK H PARENT 3 8 92 26 60 37 10 78 21 89 26 98
REMARK Flexibility Score: inf
ROOT
ATOM      1  C   UNL     1       4.429   2.494  -3.516  1.00  0.00     0.002 C 
ENDROOT
BRANCH   1   2
ATOM      2  C   UNL     1       4.040   1.033  -3.754  1.00  0.00     0.002 C 
BRANCH   2   3
ATOM      3  C   UNL     1       4.523   0.008  -2.731  1.00  0.00     0.021 C 
BRANCH   3   4
ATOM      4  C   UNL     1       4.290   0.358  -1.272  1.00  0.00     0.116 C 
BRANCH   4   5
ATOM      5  N   UNL     1       2.889   0.452  -0.906  1.00  0.00    -0.352 N 
ATOM      6  O   UNL     1       1.049   0.049   0.347  1.00  0.00    -0.269 OA
ATOM      7  C   UNL     1       2.267  -0.042   0.217  1.00  0.00     0.251 C 
ATOM      8  H   UNL     1       2.311   0.929  -1.543  1.00  0.00     0.163 HD
BRANCH   7   9
ATOM      9  C   UNL     1       3.071  -0.722   1.256  1.00  0.00     0.039 A 
ATOM     10  C   UNL     1       4.270  -0.166   1.708  1.00  0.00     0.014 A 
ATOM     11  C   UNL     1       2.630  -1.947   1.767  1.00  0.00     0.014 A 
ATOM     12  C   UNL     1       5.096  -0.901   2.550  1.00  0.00     0.010 A 
ATOM     13  C   UNL     1       3.420  -2.642   2.689  1.00  0.00     0.010 A 
ATOM     14  C   UNL     1       4.673  -2.139   3.065  1.00  0.00    -0.014 A 
BRANCH  14  15
ATOM     15  C   UNL     1       5.539  -2.834   4.052  1.00  0.00     0.031 A 
ATOM     16  C   UNL     1       6.177  -4.159   3.748  1.00  0.00     0.074 A 
ATOM     17  C   UNL     1       5.787  -2.215   5.223  1.00  0.00     0.049 A 
ATOM     18  N   UNL     1       7.009  -4.859   4.480  1.00  0.00    -0.248 NA
ATOM     19  C   UNL     1       5.838  -4.788   2.463  1.00  0.00     0.031 C 
ATOM     20  C   UNL     1       5.197  -0.940   5.638  1.00  0.00     0.029 A 
ATOM     21  N   UNL     1       6.615  -2.551   6.262  1.00  0.00    -0.354 N 
ATOM     22  C   UNL     1       7.282  -6.011   3.754  1.00  0.00     0.074 A 
ATOM     23  C   UNL     1       6.508  -5.931   2.534  1.00  0.00     0.031 C 
ATOM     24  C   UNL     1       5.726  -0.572   6.813  1.00  0.00     0.029 A 
ATOM     25  C   UNL     1       6.646  -1.610   7.262  1.00  0.00     0.049 A 
ATOM     26  H   UNL     1       7.138  -3.385   6.288  1.00  0.00     0.167 HD
ATOM     27  C   UNL     1       8.112  -7.033   4.076  1.00  0.00     0.037 A 
ATOM     28  C   UNL     1       7.333  -1.587   8.418  1.00  0.00     0.037 A 
ATOM     29  C   UNL     1       8.885  -7.103   5.291  1.00  0.00     0.049 A 
ATOM     30  C   UNL     1       8.255  -2.726   8.738  1.00  0.00     0.074 A 
ATOM     31  C   UNL     1       9.757  -8.095   5.706  1.00  0.00     0.029 A 
ATOM     32  N   UNL     1       8.882  -6.136   6.286  1.00  0.00    -0.354 N 
ATOM     33  N   UNL     1       8.517  -3.798   8.032  1.00  0.00    -0.248 NA
ATOM     34  C   UNL     1       8.977  -2.651  10.014  1.00  0.00     0.031 C 
ATOM     35  C   UNL     1      10.257  -7.744   6.965  1.00  0.00     0.029 A 
ATOM     36  C   UNL     1       9.729  -6.513   7.317  1.00  0.00     0.049 A 
ATOM     37  H   UNL     1       8.355  -5.304   6.264  1.00  0.00     0.167 HD
ATOM     38  C   UNL     1       9.431  -4.528   8.776  1.00  0.00     0.074 A 
ATOM     39  C   UNL     1       9.709  -3.756   9.970  1.00  0.00     0.031 C 
ATOM     40  C   UNL     1       9.982  -5.735   8.502  1.00  0.00     0.037 A 
BRANCH  27  41
ATOM     41  C   UNL     1       8.229  -8.171   3.103  1.00  0.00     0.064 A 
ATOM     42  C   UNL     1       8.929  -8.033   1.896  1.00  0.00     0.173 A 
ATOM     43  C   UNL     1       7.690  -9.430   3.408  1.00  0.00     0.173 A 
ATOM     44  F   UNL     1       9.454  -6.847   1.552  1.00  0.00    -0.203 F 
ATOM     45  C   UNL     1       9.074  -9.109   1.024  1.00  0.00     0.198 A 
ATOM     46  C   UNL     1       7.856 -10.511   2.545  1.00  0.00     0.198 A 
ATOM     47  F   UNL     1       7.016  -9.618   4.553  1.00  0.00    -0.203 F 
ATOM     48  F   UNL     1       9.721  -8.945  -0.139  1.00  0.00    -0.200 F 
ATOM     49  C   UNL     1       8.545 -10.348   1.352  1.00  0.00     0.200 A 
ATOM     50  F   UNL     1       7.355 -11.710   2.869  1.00  0.00    -0.200 F 
ATOM     51  F   UNL     1       8.695 -11.386   0.517  1.00  0.00    -0.200 F 
ENDBRANCH  27  41
BRANCH  28  52
ATOM     52  C   UNL     1       7.165  -0.442   9.348  1.00  0.00     0.064 A 
ATOM     53  C   UNL     1       8.202   0.475   9.563  1.00  0.00     0.173 A 
ATOM     54  C   UNL     1       5.955  -0.232  10.026  1.00  0.00     0.173 A 
ATOM     55  F   UNL     1       9.383   0.306   8.951  1.00  0.00    -0.203 F 
ATOM     56  C   UNL     1       8.040   1.551  10.433  1.00  0.00     0.198 A 
ATOM     57  C   UNL     1       5.783   0.861  10.870  1.00  0.00     0.198 A 
ATOM     58  F   UNL     1       4.929  -1.078   9.846  1.00  0.00    -0.203 F 
ATOM     59  F   UNL     1       9.060   2.392  10.652  1.00  0.00    -0.200 F 
ATOM     60  C   UNL     1       6.828   1.748  11.079  1.00  0.00     0.200 A 
ATOM     61  F   UNL     1       4.605   1.058  11.477  1.00  0.00    -0.200 F 
ATOM     62  F   UNL     1       6.670   2.789  11.907  1.00  0.00    -0.200 F 
ENDBRANCH  28  52
BRANCH  40  63
ATOM     63  C   UNL     1      10.939  -6.284   9.518  1.00  0.00     0.064 A 
ATOM     64  C   UNL     1      10.490  -6.775  10.753  1.00  0.00     0.173 A 
ATOM     65  C   UNL     1      12.316  -6.320   9.255  1.00  0.00     0.173 A 
ATOM     66  F   UNL     1       9.184  -6.744  11.057  1.00  0.00    -0.203 F 
ATOM     67  C   UNL     1      11.389  -7.253  11.702  1.00  0.00     0.198 A 
ATOM     68  C   UNL     1      13.210  -6.824  10.195  1.00  0.00     0.198 A 
ATOM     69  F   UNL     1      12.794  -5.865   8.087  1.00  0.00    -0.203 F 
ATOM     70  F   UNL     1      10.944  -7.665  12.896  1.00  0.00    -0.200 F 
ATOM     71  C   UNL     1      12.747  -7.280  11.421  1.00  0.00     0.200 A 
ATOM     72  F   UNL     1      14.521  -6.857   9.921  1.00  0.00    -0.200 F 
ATOM     73  F   UNL     1      13.613  -7.736  12.337  1.00  0.00    -0.200 F 
ENDBRANCH  40  63
ENDBRANCH  14  15
ENDBRANCH   7   9
ENDBRANCH   4   5
ENDBRANCH   3   4
ENDBRANCH   2   3
ENDBRANCH   1   2
BRANCH   1  74
ATOM     74  C   UNL     1       5.905   2.800  -3.250  1.00  0.00     0.021 C 
BRANCH  74  75
ATOM     75  C   UNL     1       6.918   2.147  -4.178  1.00  0.00     0.116 C 
BRANCH  75  76
ATOM     76  N   UNL     1       6.703   2.430  -5.577  1.00  0.00    -0.356 N 
ATOM     77  C   UNL     1       7.591   2.416  -6.604  1.00  0.00     0.223 C 
ATOM     78  H   UNL     1       5.779   2.667  -5.821  1.00  0.00     0.163 HD
ATOM     79  O   UNL     1       7.149   2.500  -7.752  1.00  0.00    -0.275 OA
BRANCH  77  80
ATOM     80  C   UNL     1       9.095   2.373  -6.367  1.00  0.00     0.091 C 
ATOM     81  C   UNL     1       9.612   1.144  -5.609  1.00  0.00     0.014 C 
ATOM     82  C   UNL     1       9.603   3.731  -5.862  1.00  0.00     0.091 C 
ATOM     83  C   UNL     1      11.118   1.224  -5.380  1.00  0.00     0.001 C 
ATOM     84  C   UNL     1      11.093   3.733  -5.489  1.00  0.00     0.014 C 
ATOM     85  C   UNL     1      11.481   2.514  -4.655  1.00  0.00     0.001 C 
BRANCH  82  86
ATOM     86  C   UNL     1       9.224   4.957  -6.724  1.00  0.00     0.228 C 
ATOM     87  O   UNL     1       8.441   5.790  -6.248  1.00  0.00    -0.274 OA
ATOM     88  N   UNL     1       9.810   5.278  -7.919  1.00  0.00    -0.326 N 
ATOM     89  H   UNL     1       9.592   6.179  -8.250  1.00  0.00     0.169 HD
BRANCH  88  90
ATOM     90  C   UNL     1      10.662   4.548  -8.749  1.00  0.00     0.041 A 
ATOM     91  C   UNL     1      11.856   5.127  -9.159  1.00  0.00     0.028 A 
ATOM     92  C   UNL     1      10.343   3.287  -9.229  1.00  0.00     0.028 A 
ATOM     93  C   UNL     1      12.816   4.352  -9.821  1.00  0.00     0.028 A 
ATOM     94  C   UNL     1      11.317   2.494  -9.840  1.00  0.00     0.028 A 
ATOM     95  C   UNL     1      12.601   2.996 -10.063  1.00  0.00     0.041 A 
BRANCH  95  96
ATOM     96  N   UNL     1      13.568   2.066 -10.484  1.00  0.00    -0.319 N 
ATOM     97  C   UNL     1      14.936   2.125 -10.656  1.00  0.00     0.291 C 
ATOM     98  H   UNL     1      13.187   1.185 -10.703  1.00  0.00     0.170 HD
ATOM     99  O   UNL     1      15.506   1.075 -10.964  1.00  0.00    -0.265 OA
BRANCH  97 100
ATOM    100  C   UNL     1      15.647   3.359 -10.460  1.00  0.00     0.191 A 
ATOM    101  C   UNL     1      16.092   4.011  -9.324  1.00  0.00     0.056 A 
ATOM    102  O   UNL     1      15.972   4.093 -11.568  1.00  0.00    -0.459 OA
ATOM    103  C   UNL     1      16.675   5.227  -9.763  1.00  0.00     0.043 A 
ATOM    104  C   UNL     1      16.591   5.220 -11.136  1.00  0.00     0.196 A 
ENDBRANCH  97 100
ENDBRANCH  95  96
ENDBRANCH  88  90
ENDBRANCH  82  86
ENDBRANCH  77  80
ENDBRANCH  75  76
ENDBRANCH  74  75
ENDBRANCH   1  74
TORSDOF 17
