REMARK SMILES O=C(CC[N@H+]1CCC[C@H](c2nccn2Cc2cscn2)C1)NCCCCCCNC(=O)c1ccc(-c2c3nc(c(-c4c(F)c(F)c(F)c(F)c4F)c4ccc([nH]4)c(-c4c(F)c(F)c(F)c(F)c4F)c4nc(c(-c5c(F)c(F)c(F)c(F)c5F)c5ccc2[nH]5)C=C4)C=C3)cc1
REMARK SMILES IDX 24 1 23 2 22 3 1 4 2 5 3 7 4 8 5 9 6 10 21 11 7 13 9 14 8 15
REMARK SMILES IDX 10 16 11 17 14 18 12 19 13 20 15 21 16 22 17 23 20 24 18 25
REMARK SMILES IDX 19 26 25 27 26 28 27 29 28 30 29 31 30 32 31 34 32 35 33 36
REMARK SMILES IDX 94 37 34 38 93 39 35 40 36 41 37 42 87 43 38 44 92 45 86 46
REMARK SMILES IDX 88 47 39 48 91 49 85 50 84 51 40 53 72 54 52 55 71 56 53 57
REMARK SMILES IDX 56 58 70 59 89 60 54 61 55 62 69 64 90 65 57 66 41 67 42 68
REMARK SMILES IDX 50 69 43 70 44 71 48 72 51 73 45 74 46 75 49 76 47 77 73 78
REMARK SMILES IDX 74 79 82 80 75 81 76 82 80 83 83 84 77 85 78 86 81 87 79 88
REMARK SMILES IDX 58 89 59 90 67 91 60 92 61 93 65 94 68 95 62 96 63 97 66 98
REMARK SMILES IDX 64 99
REMARK H PARENT 22 6 5 12 29 33 88 52 56 63
REMARK Flexibility Score: inf
ROOT
ATOM      1  C   UNL     1       1.965   0.967  -3.600  1.00  0.00     0.021 C 
ENDROOT
BRANCH   1   2
ATOM      2  C   UNL     1       1.362  -0.227  -2.843  1.00  0.00     0.116 C 
BRANCH   2   3
ATOM      3  N   UNL     1       1.946  -0.425  -1.532  1.00  0.00    -0.356 N 
ATOM      4  O   UNL     1       0.287   0.575  -0.327  1.00  0.00    -0.275 OA
ATOM      5  C   UNL     1       1.407   0.067  -0.371  1.00  0.00     0.225 C 
ATOM      6  H   UNL     1       2.780  -0.945  -1.471  1.00  0.00     0.163 HD
BRANCH   5   7
ATOM      7  C   UNL     1       2.326   0.107   0.844  1.00  0.00     0.161 C 
BRANCH   7   8
ATOM      8  C   UNL     1       3.282  -1.063   1.092  1.00  0.00     0.272 C 
BRANCH   8   9
ATOM      9  N   UNL     1       4.477  -1.232   0.257  1.00  0.00    -0.334 N 
ATOM     10  C   UNL     1       4.594  -2.568  -0.320  1.00  0.00     0.262 C 
ATOM     11  C   UNL     1       4.990  -0.087  -0.481  1.00  0.00     0.273 C 
ATOM     12  H   UNL     1       5.245  -1.207   0.928  1.00  0.00     0.348 HD
ATOM     13  C   UNL     1       5.893  -2.815  -1.079  1.00  0.00     0.062 C 
ATOM     14  C   UNL     1       6.240  -0.335  -1.326  1.00  0.00     0.111 C 
ATOM     15  C   UNL     1       6.160  -1.685  -2.051  1.00  0.00     0.023 C 
BRANCH  14  16
ATOM     16  C   UNL     1       7.603  -0.148  -0.712  1.00  0.00     0.117 A 
ATOM     17  N   UNL     1       8.657  -0.059  -1.512  1.00  0.00    -0.241 NA
ATOM     18  N   UNL     1       8.005  -0.040   0.606  1.00  0.00    -0.328 N 
ATOM     19  C   UNL     1       9.748   0.124  -0.724  1.00  0.00     0.131 A 
ATOM     20  C   UNL     1       9.371   0.173   0.589  1.00  0.00     0.108 A 
BRANCH  18  21
ATOM     21  C   UNL     1       7.248   0.005   1.849  1.00  0.00     0.180 C 
BRANCH  21  22
ATOM     22  C   UNL     1       7.319  -1.271   2.624  1.00  0.00     0.071 A 
ATOM     23  C   UNL     1       8.418  -1.772   3.299  1.00  0.00     0.092 A 
ATOM     24  N   UNL     1       6.161  -2.020   2.798  1.00  0.00    -0.248 NA
ATOM     25  S   UNL     1       8.014  -3.225   4.113  1.00  0.00    -0.130 S 
ATOM     26  C   UNL     1       6.409  -3.076   3.538  1.00  0.00     0.175 A 
ENDBRANCH  21  22
ENDBRANCH  18  21
ENDBRANCH  14  16
ENDBRANCH   8   9
ENDBRANCH   7   8
ENDBRANCH   5   7
ENDBRANCH   2   3
ENDBRANCH   1   2
BRANCH   1  27
ATOM     27  C   UNL     1       3.462   0.906  -3.941  1.00  0.00     0.002 C 
BRANCH  27  28
ATOM     28  C   UNL     1       3.986  -0.398  -4.552  1.00  0.00     0.002 C 
BRANCH  28  29
ATOM     29  C   UNL     1       3.490  -0.790  -5.943  1.00  0.00     0.021 C 
BRANCH  29  30
ATOM     30  C   UNL     1       3.911   0.166  -7.044  1.00  0.00     0.116 C 
BRANCH  30  31
ATOM     31  N   UNL     1       5.339   0.114  -7.382  1.00  0.00    -0.352 N 
ATOM     32  C   UNL     1       5.975   0.863  -8.359  1.00  0.00     0.251 C 
ATOM     33  H   UNL     1       5.898  -0.511  -6.865  1.00  0.00     0.163 HD
ATOM     34  O   UNL     1       7.046   0.521  -8.859  1.00  0.00    -0.269 OA
BRANCH  32  35
ATOM     35  C   UNL     1       5.327   2.116  -8.771  1.00  0.00     0.039 A 
ATOM     36  C   UNL     1       5.120   2.465 -10.107  1.00  0.00     0.014 A 
ATOM     37  C   UNL     1       4.798   2.879  -7.735  1.00  0.00     0.014 A 
ATOM     38  C   UNL     1       4.285   3.545 -10.385  1.00  0.00     0.010 A 
ATOM     39  C   UNL     1       3.810   3.777  -8.015  1.00  0.00     0.010 A 
ATOM     40  C   UNL     1       3.608   4.178  -9.328  1.00  0.00    -0.014 A 
BRANCH  40  41
ATOM     41  C   UNL     1       2.584   5.190  -9.560  1.00  0.00     0.031 A 
ATOM     42  C   UNL     1       1.508   4.753 -10.488  1.00  0.00     0.074 A 
ATOM     43  C   UNL     1       2.505   6.322  -8.822  1.00  0.00     0.049 A 
ATOM     44  N   UNL     1       1.289   5.179 -11.687  1.00  0.00    -0.248 NA
ATOM     45  C   UNL     1       0.680   3.594 -10.112  1.00  0.00     0.031 C 
ATOM     46  C   UNL     1       3.316   6.710  -7.657  1.00  0.00     0.029 A 
ATOM     47  N   UNL     1       1.608   7.342  -8.898  1.00  0.00    -0.354 N 
ATOM     48  C   UNL     1       0.154   4.505 -12.132  1.00  0.00     0.074 A 
ATOM     49  C   UNL     1      -0.045   3.412 -11.219  1.00  0.00     0.031 C 
ATOM     50  C   UNL     1       2.731   7.739  -7.007  1.00  0.00     0.029 A 
ATOM     51  C   UNL     1       1.619   8.209  -7.807  1.00  0.00     0.049 A 
ATOM     52  H   UNL     1       0.999   7.459  -9.663  1.00  0.00     0.167 HD
ATOM     53  C   UNL     1      -0.676   5.088 -13.042  1.00  0.00     0.037 A 
ATOM     54  C   UNL     1       0.769   9.241  -7.581  1.00  0.00     0.037 A 
ATOM     55  C   UNL     1      -0.018   6.207 -13.675  1.00  0.00     0.049 A 
ATOM     56  C   UNL     1       0.155   9.579  -8.885  1.00  0.00     0.074 A 
ATOM     57  C   UNL     1       1.088   6.374 -14.482  1.00  0.00     0.029 A 
ATOM     58  N   UNL     1      -0.299   7.442 -13.149  1.00  0.00    -0.354 N 
ATOM     59  N   UNL     1       0.818  10.078  -9.891  1.00  0.00    -0.248 NA
ATOM     60  C   UNL     1      -1.108   8.944  -9.219  1.00  0.00     0.031 C 
ATOM     61  C   UNL     1       1.670   7.611 -14.068  1.00  0.00     0.029 A 
ATOM     62  C   UNL     1       0.852   8.178 -13.088  1.00  0.00     0.049 A 
ATOM     63  H   UNL     1      -1.188   7.750 -12.862  1.00  0.00     0.167 HD
ATOM     64  C   UNL     1       0.294   9.439 -11.004  1.00  0.00     0.074 A 
ATOM     65  C   UNL     1      -0.959   8.846 -10.542  1.00  0.00     0.031 C 
ATOM     66  C   UNL     1       1.079   9.209 -12.099  1.00  0.00     0.037 A 
BRANCH  53  67
ATOM     67  C   UNL     1      -2.189   4.973 -13.030  1.00  0.00     0.064 A 
ATOM     68  C   UNL     1      -2.923   5.619 -14.049  1.00  0.00     0.173 A 
ATOM     69  C   UNL     1      -2.950   4.556 -11.916  1.00  0.00     0.173 A 
ATOM     70  F   UNL     1      -2.307   6.071 -15.153  1.00  0.00    -0.203 F 
ATOM     71  C   UNL     1      -4.283   5.913 -13.914  1.00  0.00     0.198 A 
ATOM     72  C   UNL     1      -4.319   4.806 -11.808  1.00  0.00     0.198 A 
ATOM     73  F   UNL     1      -2.399   3.994 -10.837  1.00  0.00    -0.203 F 
ATOM     74  F   UNL     1      -4.900   6.651 -14.846  1.00  0.00    -0.200 F 
ATOM     75  C   UNL     1      -4.978   5.514 -12.789  1.00  0.00     0.200 A 
ATOM     76  F   UNL     1      -4.970   4.428 -10.699  1.00  0.00    -0.200 F 
ATOM     77  F   UNL     1      -6.263   5.853 -12.623  1.00  0.00    -0.200 F 
ENDBRANCH  53  67
BRANCH  54  78
ATOM     78  C   UNL     1       0.209   9.731  -6.298  1.00  0.00     0.064 A 
ATOM     79  C   UNL     1      -0.424  10.983  -6.216  1.00  0.00     0.173 A 
ATOM     80  C   UNL     1       0.005   8.856  -5.214  1.00  0.00     0.173 A 
ATOM     81  F   UNL     1      -0.319  11.858  -7.226  1.00  0.00    -0.203 F 
ATOM     82  C   UNL     1      -1.242  11.325  -5.132  1.00  0.00     0.198 A 
ATOM     83  C   UNL     1      -0.809   9.198  -4.132  1.00  0.00     0.198 A 
ATOM     84  F   UNL     1       0.509   7.613  -5.234  1.00  0.00    -0.203 F 
ATOM     85  F   UNL     1      -1.885  12.501  -5.123  1.00  0.00    -0.200 F 
ATOM     86  C   UNL     1      -1.445  10.426  -4.098  1.00  0.00     0.200 A 
ATOM     87  F   UNL     1      -1.031   8.305  -3.158  1.00  0.00    -0.200 F 
ATOM     88  F   UNL     1      -2.284  10.723  -3.096  1.00  0.00    -0.200 F 
ENDBRANCH  54  78
BRANCH  66  89
ATOM     89  C   UNL     1       2.378   9.963 -12.193  1.00  0.00     0.064 A 
ATOM     90  C   UNL     1       3.463   9.807 -11.313  1.00  0.00     0.173 A 
ATOM     91  C   UNL     1       2.568  10.793 -13.306  1.00  0.00     0.173 A 
ATOM     92  F   UNL     1       3.395   8.968 -10.273  1.00  0.00    -0.203 F 
ATOM     93  C   UNL     1       4.667  10.481 -11.523  1.00  0.00     0.198 A 
ATOM     94  C   UNL     1       3.782  11.434 -13.534  1.00  0.00     0.198 A 
ATOM     95  F   UNL     1       1.583  10.944 -14.205  1.00  0.00    -0.203 F 
ATOM     96  F   UNL     1       5.685  10.327 -10.662  1.00  0.00    -0.200 F 
ATOM     97  C   UNL     1       4.827  11.287 -12.637  1.00  0.00     0.200 A 
ATOM     98  F   UNL     1       3.945  12.175 -14.638  1.00  0.00    -0.200 F 
ATOM     99  F   UNL     1       5.996  11.903 -12.862  1.00  0.00    -0.200 F 
ENDBRANCH  66  89
ENDBRANCH  40  41
ENDBRANCH  32  35
ENDBRANCH  30  31
ENDBRANCH  29  30
ENDBRANCH  28  29
ENDBRANCH  27  28
ENDBRANCH   1  27
TORSDOF 18
