REMARK SMILES CC1(C)[C@H](C(=O)NCCCCCCNC(=O)c2ccc(-c3c4nc(c(-c5c(F)c(F)c(F)c(F)c5F)c5ccc([nH]5)c(-c5c(F)c(F)c(F)c(F)c5F)c5nc(c(-c6c(F)c(F)c(F)c(F)c6F)c6ccc3[nH]6)C=C5)C=C4)cc2)[C@@H]1C(=O)Nc1ccc(NC(=O)C2CCC2)cc1
REMARK SMILES IDX 9 1 8 2 7 3 5 4 6 5 4 7 1 8 2 9 3 10 80 11 81 12 82 13 83 14
REMARK SMILES IDX 84 16 85 17 96 18 86 19 95 20 87 21 88 22 89 23 90 25 91 26
REMARK SMILES IDX 92 27 94 28 93 29 10 30 11 31 12 32 13 33 14 34 15 35 16 37
REMARK SMILES IDX 17 38 18 39 79 40 19 41 78 42 20 43 21 44 22 45 72 46 23 47
REMARK SMILES IDX 77 48 71 49 73 50 24 51 76 52 70 53 69 54 25 56 57 57 37 58
REMARK SMILES IDX 56 59 38 60 41 61 55 62 74 63 39 64 40 65 54 67 75 68 42 69
REMARK SMILES IDX 26 70 27 71 35 72 28 73 29 74 33 75 36 76 30 77 31 78 34 79
REMARK SMILES IDX 32 80 58 81 59 82 67 83 60 84 61 85 65 86 68 87 62 88 63 89
REMARK SMILES IDX 66 90 64 91 43 92 44 93 52 94 45 95 46 96 50 97 53 98 47 99
REMARK SMILES IDX 48 100 51 101 49 102
REMARK H PARENT 7 6 83 15 88 24 14 36 73 55 41 66
REMARK Flexibility Score: inf
ROOT
ATOM      1  C   UNL     1       0.199   4.197  -1.044  1.00  0.00     0.021 C 
ENDROOT
BRANCH   1   2
ATOM      2  C   UNL     1      -0.664   3.051  -0.534  1.00  0.00     0.116 C 
BRANCH   2   3
ATOM      3  N   UNL     1      -0.970   2.137  -1.609  1.00  0.00    -0.356 N 
ATOM      4  C   UNL     1      -1.001   0.785  -1.757  1.00  0.00     0.224 C 
ATOM      5  O   UNL     1      -1.283   0.392  -2.891  1.00  0.00    -0.275 OA
ATOM      6  H   UNL     1      -1.217   2.608  -2.438  1.00  0.00     0.163 HD
BRANCH   4   7
ATOM      7  C   UNL     1      -0.749  -0.260  -0.739  1.00  0.00     0.098 C 
ATOM      8  C   UNL     1       1.170  -1.706   0.130  1.00  0.00     0.013 C 
ATOM      9  C   UNL     1       0.465  -0.368   0.169  1.00  0.00    -0.011 C 
ATOM     10  C   UNL     1       1.444   0.773   0.302  1.00  0.00     0.013 C 
ATOM     11  C   UNL     1      -0.973  -0.328   0.739  1.00  0.00     0.098 C 
BRANCH  11  12
ATOM     12  C   UNL     1      -1.537   0.725   1.607  1.00  0.00     0.228 C 
ATOM     13  O   UNL     1      -0.859   1.224   2.499  1.00  0.00    -0.274 OA
ATOM     14  N   UNL     1      -2.859   1.104   1.474  1.00  0.00    -0.326 N 
ATOM     15  H   UNL     1      -3.287   1.526   2.254  1.00  0.00     0.169 HD
BRANCH  14  16
ATOM     16  C   UNL     1      -3.639   0.938   0.326  1.00  0.00     0.041 A 
ATOM     17  C   UNL     1      -3.872   2.092  -0.400  1.00  0.00     0.028 A 
ATOM     18  C   UNL     1      -4.054  -0.290  -0.181  1.00  0.00     0.028 A 
ATOM     19  C   UNL     1      -4.282   1.985  -1.716  1.00  0.00     0.028 A 
ATOM     20  C   UNL     1      -4.705  -0.336  -1.429  1.00  0.00     0.028 A 
ATOM     21  C   UNL     1      -4.830   0.823  -2.205  1.00  0.00     0.041 A 
BRANCH  21  22
ATOM     22  N   UNL     1      -5.490   0.778  -3.436  1.00  0.00    -0.326 N 
ATOM     23  C   UNL     1      -5.937   1.755  -4.310  1.00  0.00     0.227 C 
ATOM     24  H   UNL     1      -5.677  -0.138  -3.746  1.00  0.00     0.169 HD
ATOM     25  O   UNL     1      -6.470   1.305  -5.343  1.00  0.00    -0.274 OA
BRANCH  23  26
ATOM     26  C   UNL     1      -5.835   3.295  -4.110  1.00  0.00     0.079 C 
ATOM     27  C   UNL     1      -7.146   4.067  -4.513  1.00  0.00     0.013 C 
ATOM     28  C   UNL     1      -5.970   4.093  -2.772  1.00  0.00     0.013 C 
ATOM     29  C   UNL     1      -6.725   5.177  -3.543  1.00  0.00     0.002 C 
ENDBRANCH  23  26
ENDBRANCH  21  22
ENDBRANCH  14  16
ENDBRANCH  11  12
ENDBRANCH   4   7
ENDBRANCH   2   3
ENDBRANCH   1   2
BRANCH   1  30
ATOM     30  C   UNL     1      -0.599   5.255  -1.822  1.00  0.00     0.002 C 
BRANCH  30  31
ATOM     31  C   UNL     1      -1.698   5.967  -1.022  1.00  0.00     0.002 C 
BRANCH  31  32
ATOM     32  C   UNL     1      -1.251   6.536   0.326  1.00  0.00     0.021 C 
BRANCH  32  33
ATOM     33  C   UNL     1      -0.039   7.456   0.250  1.00  0.00     0.116 C 
BRANCH  33  34
ATOM     34  N   UNL     1      -0.286   8.619  -0.585  1.00  0.00    -0.352 N 
ATOM     35  C   UNL     1      -0.042   9.939  -0.313  1.00  0.00     0.251 C 
ATOM     36  H   UNL     1      -0.683   8.433  -1.466  1.00  0.00     0.163 HD
ATOM     37  O   UNL     1      -0.481  10.818  -1.052  1.00  0.00    -0.269 OA
BRANCH  35  38
ATOM     38  C   UNL     1       0.735  10.304   0.888  1.00  0.00     0.039 A 
ATOM     39  C   UNL     1       0.276  11.346   1.696  1.00  0.00     0.014 A 
ATOM     40  C   UNL     1       1.909   9.618   1.217  1.00  0.00     0.014 A 
ATOM     41  C   UNL     1       0.971  11.671   2.860  1.00  0.00     0.010 A 
ATOM     42  C   UNL     1       2.554   9.889   2.419  1.00  0.00     0.010 A 
ATOM     43  C   UNL     1       2.099  10.927   3.246  1.00  0.00    -0.014 A 
BRANCH  43  44
ATOM     44  C   UNL     1       2.821  11.236   4.505  1.00  0.00     0.031 A 
ATOM     45  C   UNL     1       4.247  11.708   4.461  1.00  0.00     0.074 A 
ATOM     46  C   UNL     1       2.204  11.046   5.688  1.00  0.00     0.049 A 
ATOM     47  N   UNL     1       5.056  11.993   5.451  1.00  0.00    -0.248 NA
ATOM     48  C   UNL     1       4.856  11.856   3.130  1.00  0.00     0.031 C 
ATOM     49  C   UNL     1       0.840  10.545   5.859  1.00  0.00     0.029 A 
ATOM     50  N   UNL     1       2.647  11.248   6.971  1.00  0.00    -0.354 N 
ATOM     51  C   UNL     1       6.265  12.340   4.862  1.00  0.00     0.074 A 
ATOM     52  C   UNL     1       6.106  12.173   3.435  1.00  0.00     0.031 C 
ATOM     53  C   UNL     1       0.547  10.505   7.168  1.00  0.00     0.029 A 
ATOM     54  C   UNL     1       1.715  10.937   7.930  1.00  0.00     0.049 A 
ATOM     55  H   UNL     1       3.548  11.583   7.184  1.00  0.00     0.167 HD
ATOM     56  C   UNL     1       7.398  12.784   5.458  1.00  0.00     0.037 A 
ATOM     57  C   UNL     1       1.796  10.989   9.273  1.00  0.00     0.037 A 
ATOM     58  C   UNL     1       7.544  12.967   6.879  1.00  0.00     0.049 A 
ATOM     59  C   UNL     1       3.071  11.476   9.909  1.00  0.00     0.074 A 
ATOM     60  C   UNL     1       8.630  13.463   7.578  1.00  0.00     0.029 A 
ATOM     61  N   UNL     1       6.572  12.653   7.819  1.00  0.00    -0.354 N 
ATOM     62  N   UNL     1       4.183  11.873   9.339  1.00  0.00    -0.248 NA
ATOM     63  C   UNL     1       3.097  11.532  11.377  1.00  0.00     0.031 C 
ATOM     64  C   UNL     1       8.338  13.395   8.944  1.00  0.00     0.029 A 
ATOM     65  C   UNL     1       7.045  12.921   9.094  1.00  0.00     0.049 A 
ATOM     66  H   UNL     1       5.680  12.293   7.611  1.00  0.00     0.167 HD
ATOM     67  C   UNL     1       5.026  12.258  10.373  1.00  0.00     0.074 A 
ATOM     68  C   UNL     1       4.290  12.063  11.605  1.00  0.00     0.031 C 
ATOM     69  C   UNL     1       6.296  12.730  10.310  1.00  0.00     0.037 A 
BRANCH  56  70
ATOM     70  C   UNL     1       8.571  13.104   4.575  1.00  0.00     0.064 A 
ATOM     71  C   UNL     1       8.555  14.196   3.693  1.00  0.00     0.173 A 
ATOM     72  C   UNL     1       9.742  12.334   4.641  1.00  0.00     0.173 A 
ATOM     73  F   UNL     1       7.457  14.959   3.581  1.00  0.00    -0.203 F 
ATOM     74  C   UNL     1       9.656  14.486   2.890  1.00  0.00     0.198 A 
ATOM     75  C   UNL     1      10.853  12.649   3.863  1.00  0.00     0.198 A 
ATOM     76  F   UNL     1       9.815  11.282   5.470  1.00  0.00    -0.203 F 
ATOM     77  F   UNL     1       9.597  15.503   2.018  1.00  0.00    -0.200 F 
ATOM     78  C   UNL     1      10.806  13.718   2.982  1.00  0.00     0.200 A 
ATOM     79  F   UNL     1      11.970  11.914   3.964  1.00  0.00    -0.200 F 
ATOM     80  F   UNL     1      11.868  14.006   2.217  1.00  0.00    -0.200 F 
ENDBRANCH  56  70
BRANCH  57  81
ATOM     81  C   UNL     1       0.632  10.589  10.108  1.00  0.00     0.064 A 
ATOM     82  C   UNL     1      -0.064  11.532  10.877  1.00  0.00     0.173 A 
ATOM     83  C   UNL     1       0.201   9.255  10.167  1.00  0.00     0.173 A 
ATOM     84  F   UNL     1       0.320  12.817  10.869  1.00  0.00    -0.203 F 
ATOM     85  C   UNL     1      -1.126  11.153  11.696  1.00  0.00     0.198 A 
ATOM     86  C   UNL     1      -0.882   8.883  10.960  1.00  0.00     0.198 A 
ATOM     87  F   UNL     1       0.827   8.314   9.445  1.00  0.00    -0.203 F 
ATOM     88  F   UNL     1      -1.736  12.066  12.464  1.00  0.00    -0.200 F 
ATOM     89  C   UNL     1      -1.537   9.829  11.733  1.00  0.00     0.200 A 
ATOM     90  F   UNL     1      -1.288   7.606  10.979  1.00  0.00    -0.200 F 
ATOM     91  F   UNL     1      -2.559   9.465  12.519  1.00  0.00    -0.200 F 
ENDBRANCH  57  81
BRANCH  69  92
ATOM     92  C   UNL     1       6.953  13.115  11.605  1.00  0.00     0.064 A 
ATOM     93  C   UNL     1       7.329  12.157  12.559  1.00  0.00     0.173 A 
ATOM     94  C   UNL     1       7.235  14.462  11.882  1.00  0.00     0.173 A 
ATOM     95  F   UNL     1       7.071  10.857  12.350  1.00  0.00    -0.203 F 
ATOM     96  C   UNL     1       7.931  12.537  13.756  1.00  0.00     0.198 A 
ATOM     97  C   UNL     1       7.870  14.834  13.063  1.00  0.00     0.198 A 
ATOM     98  F   UNL     1       6.904  15.418  11.001  1.00  0.00    -0.203 F 
ATOM     99  F   UNL     1       8.226  11.611  14.678  1.00  0.00    -0.200 F 
ATOM    100  C   UNL     1       8.207  13.874  14.004  1.00  0.00     0.200 A 
ATOM    101  F   UNL     1       8.152  16.124  13.292  1.00  0.00    -0.200 F 
ATOM    102  F   UNL     1       8.791  14.236  15.154  1.00  0.00    -0.200 F 
ENDBRANCH  69  92
ENDBRANCH  43  44
ENDBRANCH  35  38
ENDBRANCH  33  34
ENDBRANCH  32  33
ENDBRANCH  31  32
ENDBRANCH  30  31
ENDBRANCH   1  30
TORSDOF 17
