REMARK SMILES C[C@]1(CNC(=O)N2CCOC[C@H]2C(=O)NCCCCCCNC(=O)c2ccc(-c3c4nc(c(-c5c(F)c(F)c(F)c(F)c5F)c5ccc([nH]5)c(-c5c(F)c(F)c(F)c(F)c5F)c5nc(c(-c6c(F)c(F)c(F)c(F)c6F)c6ccc3[nH]6)C=C5)C=C4)cc2)CCCO1
REMARK SMILES IDX 18 1 17 2 16 3 15 4 13 5 14 6 12 8 7 9 8 10 9 11 11 12 10 13
REMARK SMILES IDX 5 14 4 15 6 17 3 18 2 19 1 20 88 21 91 22 89 23 90 24 19 25
REMARK SMILES IDX 20 26 21 27 22 28 23 29 24 31 25 32 26 33 87 34 27 35 86 36
REMARK SMILES IDX 28 37 29 38 30 39 80 40 31 41 85 42 79 43 81 44 32 45 84 46
REMARK SMILES IDX 78 47 77 48 33 50 65 51 45 52 64 53 46 54 49 55 63 56 82 57
REMARK SMILES IDX 47 58 48 59 62 61 83 62 50 63 34 64 35 65 43 66 36 67 37 68
REMARK SMILES IDX 41 69 44 70 38 71 39 72 42 73 40 74 66 75 67 76 75 77 68 78
REMARK SMILES IDX 69 79 73 80 76 81 70 82 71 83 74 84 72 85 51 86 52 87 60 88
REMARK SMILES IDX 53 89 54 90 58 91 61 92 55 93 56 94 59 95 57 96
REMARK H PARENT 15 7 4 16 22 30 81 49 49 60
REMARK Flexibility Score: inf
ROOT
ATOM      1  C   UNL     1       4.659  -6.673   0.002  1.00  0.00     0.002 C 
ENDROOT
BRANCH   1   2
ATOM      2  C   UNL     1       3.639  -5.542  -0.142  1.00  0.00     0.021 C 
BRANCH   2   3
ATOM      3  C   UNL     1       2.416  -5.906  -0.991  1.00  0.00     0.116 C 
BRANCH   3   4
ATOM      4  N   UNL     1       1.193  -5.913  -0.209  1.00  0.00    -0.354 N 
ATOM      5  C   UNL     1       0.087  -5.127  -0.141  1.00  0.00     0.245 C 
ATOM      6  O   UNL     1      -0.788  -5.552   0.628  1.00  0.00    -0.273 OA
ATOM      7  H   UNL     1       1.156  -6.668   0.423  1.00  0.00     0.163 HD
BRANCH   5   8
ATOM      8  C   UNL     1      -0.142  -3.787  -0.898  1.00  0.00     0.202 C 
ATOM      9  N   UNL     1       0.537  -2.585  -0.364  1.00  0.00    -0.308 N 
ATOM     10  C   UNL     1       1.893  -2.433  -0.849  1.00  0.00     0.151 C 
ATOM     11  C   UNL     1       1.909  -2.423  -2.376  1.00  0.00     0.182 C 
ATOM     12  C   UNL     1      -0.002  -3.860  -2.427  1.00  0.00     0.195 C 
ATOM     13  O   UNL     1       1.328  -3.618  -2.917  1.00  0.00    -0.377 OA
BRANCH   9  14
ATOM     14  C   UNL     1      -0.113  -1.829   0.558  1.00  0.00     0.318 C 
ATOM     15  N   UNL     1       0.237  -0.566   0.854  1.00  0.00    -0.335 N 
ATOM     16  H   UNL     1      -0.131  -0.290   1.724  1.00  0.00     0.165 HD
ATOM     17  O   UNL     1      -1.105  -2.247   1.158  1.00  0.00    -0.249 OA
BRANCH  15  18
ATOM     18  C   UNL     1       1.012   0.509   0.242  1.00  0.00     0.152 C 
BRANCH  18  19
ATOM     19  C   UNL     1       0.223   1.436  -0.712  1.00  0.00     0.083 C 
ATOM     20  C   UNL     1       0.143   0.844  -2.122  1.00  0.00     0.044 C 
ATOM     21  C   UNL     1      -1.156   1.835  -0.187  1.00  0.00     0.039 C 
ATOM     22  O   UNL     1       0.968   2.676  -0.834  1.00  0.00    -0.373 OA
ATOM     23  C   UNL     1      -1.328   3.235  -0.728  1.00  0.00     0.031 C 
ATOM     24  C   UNL     1       0.077   3.780  -0.621  1.00  0.00     0.161 C 
ENDBRANCH  18  19
ENDBRANCH  15  18
ENDBRANCH   9  14
ENDBRANCH   5   8
ENDBRANCH   3   4
ENDBRANCH   2   3
ENDBRANCH   1   2
BRANCH   1  25
ATOM     25  C   UNL     1       5.333  -7.111  -1.304  1.00  0.00     0.002 C 
BRANCH  25  26
ATOM     26  C   UNL     1       6.084  -6.018  -2.071  1.00  0.00     0.021 C 
BRANCH  26  27
ATOM     27  C   UNL     1       7.158  -5.276  -1.276  1.00  0.00     0.116 C 
BRANCH  27  28
ATOM     28  N   UNL     1       8.158  -6.177  -0.725  1.00  0.00    -0.352 N 
ATOM     29  C   UNL     1       9.508  -6.253  -0.948  1.00  0.00     0.251 C 
ATOM     30  H   UNL     1       7.807  -6.841  -0.088  1.00  0.00     0.163 HD
ATOM     31  O   UNL     1      10.140  -7.223  -0.539  1.00  0.00    -0.269 OA
BRANCH  29  32
ATOM     32  C   UNL     1      10.217  -5.183  -1.683  1.00  0.00     0.039 A 
ATOM     33  C   UNL     1      11.191  -5.545  -2.619  1.00  0.00     0.014 A 
ATOM     34  C   UNL     1       9.975  -3.833  -1.414  1.00  0.00     0.014 A 
ATOM     35  C   UNL     1      11.884  -4.556  -3.321  1.00  0.00     0.010 A 
ATOM     36  C   UNL     1      10.626  -2.848  -2.156  1.00  0.00     0.010 A 
ATOM     37  C   UNL     1      11.589  -3.200  -3.113  1.00  0.00    -0.014 A 
BRANCH  37  38
ATOM     38  C   UNL     1      12.279  -2.140  -3.893  1.00  0.00     0.031 A 
ATOM     39  C   UNL     1      13.206  -1.174  -3.208  1.00  0.00     0.074 A 
ATOM     40  C   UNL     1      12.024  -2.016  -5.210  1.00  0.00     0.049 A 
ATOM     41  N   UNL     1      13.857  -0.155  -3.712  1.00  0.00    -0.248 NA
ATOM     42  C   UNL     1      13.411  -1.361  -1.764  1.00  0.00     0.031 C 
ATOM     43  C   UNL     1      11.109  -2.863  -5.977  1.00  0.00     0.029 A 
ATOM     44  N   UNL     1      12.503  -1.122  -6.135  1.00  0.00    -0.354 N 
ATOM     45  C   UNL     1      14.528   0.430  -2.646  1.00  0.00     0.074 A 
ATOM     46  C   UNL     1      14.179  -0.324  -1.461  1.00  0.00     0.031 C 
ATOM     47  C   UNL     1      11.108  -2.461  -7.258  1.00  0.00     0.029 A 
ATOM     48  C   UNL     1      11.996  -1.311  -7.397  1.00  0.00     0.049 A 
ATOM     49  H   UNL     1      13.149  -0.412  -5.914  1.00  0.00     0.167 HD
ATOM     50  C   UNL     1      15.372   1.489  -2.660  1.00  0.00     0.037 A 
ATOM     51  C   UNL     1      12.220  -0.629  -8.536  1.00  0.00     0.037 A 
ATOM     52  C   UNL     1      15.753   2.208  -3.847  1.00  0.00     0.049 A 
ATOM     53  C   UNL     1      13.175   0.534  -8.521  1.00  0.00     0.074 A 
ATOM     54  C   UNL     1      16.672   3.235  -3.976  1.00  0.00     0.029 A 
ATOM     55  N   UNL     1      15.235   1.975  -5.111  1.00  0.00    -0.354 N 
ATOM     56  N   UNL     1      13.868   1.023  -7.523  1.00  0.00    -0.248 NA
ATOM     57  C   UNL     1      13.381   1.236  -9.796  1.00  0.00     0.031 C 
ATOM     58  C   UNL     1      16.679   3.652  -5.311  1.00  0.00     0.029 A 
ATOM     59  C   UNL     1      15.796   2.856  -6.022  1.00  0.00     0.049 A 
ATOM     60  H   UNL     1      14.567   1.285  -5.330  1.00  0.00     0.167 HD
ATOM     61  C   UNL     1      14.614   2.067  -8.053  1.00  0.00     0.074 A 
ATOM     62  C   UNL     1      14.300   2.131  -9.464  1.00  0.00     0.031 C 
ATOM     63  C   UNL     1      15.481   2.898  -7.426  1.00  0.00     0.037 A 
BRANCH  50  64
ATOM     64  C   UNL     1      15.955   1.939  -1.352  1.00  0.00     0.064 A 
ATOM     65  C   UNL     1      16.945   1.195  -0.693  1.00  0.00     0.173 A 
ATOM     66  C   UNL     1      15.567   3.163  -0.787  1.00  0.00     0.173 A 
ATOM     67  F   UNL     1      17.344   0.014  -1.189  1.00  0.00    -0.203 F 
ATOM     68  C   UNL     1      17.513   1.652   0.493  1.00  0.00     0.198 A 
ATOM     69  C   UNL     1      16.155   3.629   0.386  1.00  0.00     0.198 A 
ATOM     70  F   UNL     1      14.628   3.915  -1.381  1.00  0.00    -0.203 F 
ATOM     71  F   UNL     1      18.433   0.910   1.123  1.00  0.00    -0.200 F 
ATOM     72  C   UNL     1      17.124   2.872   1.027  1.00  0.00     0.200 A 
ATOM     73  F   UNL     1      15.786   4.813   0.894  1.00  0.00    -0.200 F 
ATOM     74  F   UNL     1      17.681   3.317   2.162  1.00  0.00    -0.200 F 
ENDBRANCH  50  64
BRANCH  51  75
ATOM     75  C   UNL     1      11.550  -1.040  -9.797  1.00  0.00     0.064 A 
ATOM     76  C   UNL     1      12.285  -1.601 -10.851  1.00  0.00     0.173 A 
ATOM     77  C   UNL     1      10.173  -0.856  -9.988  1.00  0.00     0.173 A 
ATOM     78  F   UNL     1      13.609  -1.776 -10.723  1.00  0.00    -0.203 F 
ATOM     79  C   UNL     1      11.674  -1.939 -12.056  1.00  0.00     0.198 A 
ATOM     80  C   UNL     1       9.558  -1.220 -11.184  1.00  0.00     0.198 A 
ATOM     81  F   UNL     1       9.424  -0.326  -9.010  1.00  0.00    -0.203 F 
ATOM     82  F   UNL     1      12.411  -2.425 -13.065  1.00  0.00    -0.200 F 
ATOM     83  C   UNL     1      10.310  -1.751 -12.220  1.00  0.00     0.200 A 
ATOM     84  F   UNL     1       8.238  -1.048 -11.335  1.00  0.00    -0.200 F 
ATOM     85  F   UNL     1       9.723  -2.072 -13.381  1.00  0.00    -0.200 F 
ENDBRANCH  51  75
BRANCH  63  86
ATOM     86  C   UNL     1      16.177   3.925  -8.269  1.00  0.00     0.064 A 
ATOM     87  C   UNL     1      15.499   5.045  -8.770  1.00  0.00     0.173 A 
ATOM     88  C   UNL     1      17.545   3.800  -8.555  1.00  0.00     0.173 A 
ATOM     89  F   UNL     1      14.187   5.200  -8.538  1.00  0.00    -0.203 F 
ATOM     90  C   UNL     1      16.160   5.991  -9.549  1.00  0.00     0.198 A 
ATOM     91  C   UNL     1      18.209   4.762  -9.310  1.00  0.00     0.198 A 
ATOM     92  F   UNL     1      18.239   2.749  -8.094  1.00  0.00    -0.203 F 
ATOM     93  F   UNL     1      15.482   7.029 -10.058  1.00  0.00    -0.200 F 
ATOM     94  C   UNL     1      17.515   5.853  -9.812  1.00  0.00     0.200 A 
ATOM     95  F   UNL     1      19.520   4.633  -9.554  1.00  0.00    -0.200 F 
ATOM     96  F   UNL     1      18.150   6.766 -10.559  1.00  0.00    -0.200 F 
ENDBRANCH  63  86
ENDBRANCH  37  38
ENDBRANCH  29  32
ENDBRANCH  27  28
ENDBRANCH  26  27
ENDBRANCH  25  26
ENDBRANCH   1  25
TORSDOF 16
