REMARK SMILES COc1cc([C@@H]2CC(=O)Nc3c(C(=O)NCCCCCCNC(=O)c4ccc(-c5c6nc(c(-c7c(F)c(F)c(F)c(F)c7F)c7ccc([nH]7)c(-c7c(F)c(F)c(F)c(F)c7F)c7nc(c(-c8c(F)c(F)c(F)c(F)c8F)c8ccc5[nH]8)C=C7)C=C6)cc4)cn(-c4ccccc4)c32)cc(OC)c1OC
REMARK SMILES IDX 18 1 17 2 16 3 15 4 13 5 14 6 12 8 6 9 7 10 96 11 8 12 11 13
REMARK SMILES IDX 89 14 9 15 10 16 88 17 5 19 3 20 4 21 101 22 98 23 97 24
REMARK SMILES IDX 2 25 1 26 102 27 103 28 99 29 100 30 90 31 91 32 95 33 92 34
REMARK SMILES IDX 94 35 93 36 19 37 20 38 21 39 22 40 23 41 24 43 25 44 26 45
REMARK SMILES IDX 87 46 27 47 86 48 28 49 29 50 30 51 80 52 31 53 85 54 79 55
REMARK SMILES IDX 81 56 32 57 84 58 78 59 77 60 33 62 65 63 45 64 64 65 46 66
REMARK SMILES IDX 49 67 63 68 82 69 47 70 48 71 62 73 83 74 50 75 34 76 35 77
REMARK SMILES IDX 43 78 36 79 37 80 41 81 44 82 38 83 39 84 42 85 40 86 66 87
REMARK SMILES IDX 67 88 75 89 68 90 69 91 73 92 76 93 70 94 71 95 74 96 72 97
REMARK SMILES IDX 51 98 52 99 60 100 53 101 54 102 58 103 61 104 55 105 56 106
REMARK SMILES IDX 59 107 57 108
REMARK H PARENT 15 7 10 18 22 42 81 61 49 72
REMARK Flexibility Score: inf
ROOT
ATOM      1  C   UNL     1       0.368  -8.399 -10.068  1.00  0.00     0.002 C 
ENDROOT
BRANCH   1   2
ATOM      2  C   UNL     1       0.123  -7.447  -8.894  1.00  0.00     0.021 C 
BRANCH   2   3
ATOM      3  C   UNL     1       0.425  -5.979  -9.220  1.00  0.00     0.116 C 
BRANCH   3   4
ATOM      4  N   UNL     1      -0.778  -5.308  -9.633  1.00  0.00    -0.352 N 
ATOM      5  C   UNL     1      -1.678  -4.515  -8.981  1.00  0.00     0.254 C 
ATOM      6  O   UNL     1      -2.604  -4.102  -9.687  1.00  0.00    -0.269 OA
ATOM      7  H   UNL     1      -0.998  -5.449 -10.582  1.00  0.00     0.163 HD
BRANCH   5   8
ATOM      8  C   UNL     1      -1.583  -4.114  -7.570  1.00  0.00     0.081 A 
ATOM      9  C   UNL     1      -0.912  -3.921  -3.885  1.00  0.00     0.078 C 
ATOM     10  C   UNL     1      -0.539  -5.395  -3.666  1.00  0.00     0.115 C 
ATOM     11  C   UNL     1      -1.265  -3.703  -5.333  1.00  0.00     0.055 A 
ATOM     12  C   UNL     1       0.227  -6.010  -4.819  1.00  0.00     0.225 C 
ATOM     13  C   UNL     1      -0.937  -4.557  -6.372  1.00  0.00     0.076 A 
ATOM     14  N   UNL     1      -2.165  -2.778  -5.814  1.00  0.00    -0.317 N 
ATOM     15  O   UNL     1       1.045  -6.915  -4.658  1.00  0.00    -0.275 OA
ATOM     16  N   UNL     1      -0.141  -5.641  -6.085  1.00  0.00    -0.324 N 
ATOM     17  C   UNL     1      -2.388  -3.059  -7.137  1.00  0.00     0.107 A 
ATOM     18  H   UNL     1       0.184  -6.186  -6.837  1.00  0.00     0.170 HD
BRANCH   9  19
ATOM     19  C   UNL     1       0.184  -3.039  -3.300  1.00  0.00    -0.031 A 
ATOM     20  C   UNL     1       1.036  -1.805  -1.364  1.00  0.00     0.164 A 
ATOM     21  C   UNL     1      -0.008  -2.460  -2.035  1.00  0.00     0.055 A 
ATOM     22  C   UNL     1       2.325  -1.748  -1.919  1.00  0.00     0.203 A 
ATOM     23  C   UNL     1       2.510  -2.283  -3.214  1.00  0.00     0.164 A 
ATOM     24  C   UNL     1       1.440  -2.899  -3.893  1.00  0.00     0.055 A 
BRANCH  20  25
ATOM     25  O   UNL     1       0.760  -1.369  -0.093  1.00  0.00    -0.493 OA
ATOM     26  C   UNL     1       0.124  -0.089  -0.098  1.00  0.00     0.278 C 
ENDBRANCH  20  25
BRANCH  22  27
ATOM     27  O   UNL     1       3.441  -1.260  -1.298  1.00  0.00    -0.490 OA
ATOM     28  C   UNL     1       3.349  -0.505  -0.104  1.00  0.00     0.278 C 
ENDBRANCH  22  27
BRANCH  23  29
ATOM     29  O   UNL     1       3.660  -2.312  -3.967  1.00  0.00    -0.493 OA
ATOM     30  C   UNL     1       4.895  -1.968  -3.357  1.00  0.00     0.278 C 
ENDBRANCH  23  29
ENDBRANCH   9  19
BRANCH  14  31
ATOM     31  C   UNL     1      -2.867  -1.816  -5.062  1.00  0.00     0.045 A 
ATOM     32  C   UNL     1      -2.162  -0.924  -4.252  1.00  0.00     0.026 A 
ATOM     33  C   UNL     1      -4.265  -1.823  -5.074  1.00  0.00     0.026 A 
ATOM     34  C   UNL     1      -2.858  -0.085  -3.387  1.00  0.00     0.002 A 
ATOM     35  C   UNL     1      -4.953  -0.989  -4.194  1.00  0.00     0.002 A 
ATOM     36  C   UNL     1      -4.250  -0.134  -3.341  1.00  0.00     0.000 A 
ENDBRANCH  14  31
ENDBRANCH   5   8
ENDBRANCH   3   4
ENDBRANCH   2   3
ENDBRANCH   1   2
BRANCH   1  37
ATOM     37  C   UNL     1       1.811  -8.412 -10.600  1.00  0.00     0.002 C 
BRANCH  37  38
ATOM     38  C   UNL     1       2.917  -8.656  -9.560  1.00  0.00     0.021 C 
BRANCH  38  39
ATOM     39  C   UNL     1       2.971 -10.095  -9.074  1.00  0.00     0.116 C 
BRANCH  39  40
ATOM     40  N   UNL     1       3.328 -11.019 -10.159  1.00  0.00    -0.352 N 
ATOM     41  C   UNL     1       3.347 -12.397 -10.168  1.00  0.00     0.251 C 
ATOM     42  H   UNL     1       3.592 -10.591 -11.005  1.00  0.00     0.163 HD
ATOM     43  O   UNL     1       3.969 -13.018 -11.028  1.00  0.00    -0.269 OA
BRANCH  41  44
ATOM     44  C   UNL     1       2.598 -13.119  -9.134  1.00  0.00     0.039 A 
ATOM     45  C   UNL     1       3.074 -14.296  -8.546  1.00  0.00     0.014 A 
ATOM     46  C   UNL     1       1.391 -12.563  -8.735  1.00  0.00     0.014 A 
ATOM     47  C   UNL     1       2.340 -14.866  -7.509  1.00  0.00     0.010 A 
ATOM     48  C   UNL     1       0.815 -12.975  -7.573  1.00  0.00     0.010 A 
ATOM     49  C   UNL     1       1.211 -14.188  -7.030  1.00  0.00    -0.014 A 
BRANCH  49  50
ATOM     50  C   UNL     1       0.400 -14.695  -5.937  1.00  0.00     0.031 A 
ATOM     51  C   UNL     1       1.104 -14.819  -4.634  1.00  0.00     0.074 A 
ATOM     52  C   UNL     1      -0.945 -14.763  -6.053  1.00  0.00     0.049 A 
ATOM     53  N   UNL     1       1.315 -15.887  -3.941  1.00  0.00    -0.248 NA
ATOM     54  C   UNL     1       1.758 -13.618  -4.088  1.00  0.00     0.031 C 
ATOM     55  C   UNL     1      -1.798 -14.319  -7.168  1.00  0.00     0.029 A 
ATOM     56  N   UNL     1      -1.859 -15.140  -5.124  1.00  0.00    -0.354 N 
ATOM     57  C   UNL     1       1.978 -15.476  -2.785  1.00  0.00     0.074 A 
ATOM     58  C   UNL     1       2.376 -14.113  -3.014  1.00  0.00     0.031 C 
ATOM     59  C   UNL     1      -3.080 -14.226  -6.754  1.00  0.00     0.029 A 
ATOM     60  C   UNL     1      -3.167 -14.780  -5.418  1.00  0.00     0.049 A 
ATOM     61  H   UNL     1      -1.614 -15.630  -4.306  1.00  0.00     0.167 HD
ATOM     62  C   UNL     1       1.944 -16.227  -1.648  1.00  0.00     0.037 A 
ATOM     63  C   UNL     1      -4.234 -14.901  -4.593  1.00  0.00     0.037 A 
ATOM     64  C   UNL     1       1.498 -17.568  -1.937  1.00  0.00     0.049 A 
ATOM     65  C   UNL     1      -3.849 -15.857  -3.523  1.00  0.00     0.074 A 
ATOM     66  C   UNL     1       1.983 -18.602  -2.712  1.00  0.00     0.029 A 
ATOM     67  N   UNL     1       0.180 -17.871  -1.694  1.00  0.00    -0.354 N 
ATOM     68  N   UNL     1      -3.618 -17.125  -3.734  1.00  0.00    -0.248 NA
ATOM     69  C   UNL     1      -3.247 -15.304  -2.319  1.00  0.00     0.031 C 
ATOM     70  C   UNL     1       0.826 -19.193  -3.300  1.00  0.00     0.029 A 
ATOM     71  C   UNL     1      -0.297 -18.535  -2.795  1.00  0.00     0.049 A 
ATOM     72  H   UNL     1      -0.329 -17.652  -0.880  1.00  0.00     0.167 HD
ATOM     73  C   UNL     1      -2.523 -17.425  -2.936  1.00  0.00     0.074 A 
ATOM     74  C   UNL     1      -2.385 -16.284  -2.033  1.00  0.00     0.031 C 
ATOM     75  C   UNL     1      -1.655 -18.424  -3.273  1.00  0.00     0.037 A 
BRANCH  62  76
ATOM     76  C   UNL     1       1.960 -15.684  -0.237  1.00  0.00     0.064 A 
ATOM     77  C   UNL     1       1.982 -16.594   0.842  1.00  0.00     0.173 A 
ATOM     78  C   UNL     1       1.655 -14.350   0.109  1.00  0.00     0.173 A 
ATOM     79  F   UNL     1       2.264 -17.890   0.640  1.00  0.00    -0.203 F 
ATOM     80  C   UNL     1       1.621 -16.218   2.138  1.00  0.00     0.198 A 
ATOM     81  C   UNL     1       1.348 -13.968   1.415  1.00  0.00     0.198 A 
ATOM     82  F   UNL     1       1.529 -13.382  -0.804  1.00  0.00    -0.203 F 
ATOM     83  F   UNL     1       1.521 -17.149   3.097  1.00  0.00    -0.200 F 
ATOM     84  C   UNL     1       1.292 -14.907   2.421  1.00  0.00     0.200 A 
ATOM     85  F   UNL     1       1.022 -12.692   1.667  1.00  0.00    -0.200 F 
ATOM     86  F   UNL     1       0.877 -14.557   3.645  1.00  0.00    -0.200 F 
ENDBRANCH  62  76
BRANCH  63  87
ATOM     87  C   UNL     1      -5.416 -14.016  -4.494  1.00  0.00     0.064 A 
ATOM     88  C   UNL     1      -6.614 -14.460  -3.915  1.00  0.00     0.173 A 
ATOM     89  C   UNL     1      -5.306 -12.630  -4.728  1.00  0.00     0.173 A 
ATOM     90  F   UNL     1      -6.776 -15.758  -3.620  1.00  0.00    -0.203 F 
ATOM     91  C   UNL     1      -7.636 -13.568  -3.573  1.00  0.00     0.198 A 
ATOM     92  C   UNL     1      -6.328 -11.741  -4.388  1.00  0.00     0.198 A 
ATOM     93  F   UNL     1      -4.168 -12.103  -5.204  1.00  0.00    -0.203 F 
ATOM     94  F   UNL     1      -8.745 -14.021  -2.972  1.00  0.00    -0.200 F 
ATOM     95  C   UNL     1      -7.489 -12.209  -3.800  1.00  0.00     0.200 A 
ATOM     96  F   UNL     1      -6.156 -10.425  -4.577  1.00  0.00    -0.200 F 
ATOM     97  F   UNL     1      -8.443 -11.349  -3.418  1.00  0.00    -0.200 F 
ENDBRANCH  63  87
BRANCH  75  98
ATOM     98  C   UNL     1      -2.036 -19.344  -4.401  1.00  0.00     0.064 A 
ATOM     99  C   UNL     1      -2.159 -18.936  -5.740  1.00  0.00     0.173 A 
ATOM    100  C   UNL     1      -2.084 -20.720  -4.141  1.00  0.00     0.173 A 
ATOM    101  F   UNL     1      -2.031 -17.650  -6.084  1.00  0.00    -0.203 F 
ATOM    102  C   UNL     1      -2.343 -19.862  -6.767  1.00  0.00     0.198 A 
ATOM    103  C   UNL     1      -2.233 -21.645  -5.171  1.00  0.00     0.198 A 
ATOM    104  F   UNL     1      -1.919 -21.172  -2.889  1.00  0.00    -0.203 F 
ATOM    105  F   UNL     1      -2.451 -19.445  -8.037  1.00  0.00    -0.200 F 
ATOM    106  C   UNL     1      -2.367 -21.216  -6.482  1.00  0.00     0.200 A 
ATOM    107  F   UNL     1      -2.205 -22.956  -4.896  1.00  0.00    -0.200 F 
ATOM    108  F   UNL     1      -2.489 -22.110  -7.473  1.00  0.00    -0.200 F 
ENDBRANCH  75  98
ENDBRANCH  49  50
ENDBRANCH  41  44
ENDBRANCH  39  40
ENDBRANCH  38  39
ENDBRANCH  37  38
ENDBRANCH   1  37
TORSDOF 18
