REMARK SMILES CC(C)(C)c1csc(NC(=O)Cn2cccc2C(=O)NCCCCCCNC(=O)c2ccc(-c3c4nc(c(-c5c(F)c(F)c(F)c(F)c5F)c5ccc([nH]5)c(-c5c(F)c(F)c(F)c(F)c5F)c5nc(c(-c6c(F)c(F)c(F)c(F)c6F)c6ccc3[nH]6)C=C5)C=C4)cc2)n1
REMARK SMILES IDX 22 1 21 2 20 3 18 4 19 5 17 7 13 8 14 9 15 10 16 11 12 12
REMARK SMILES IDX 10 13 9 14 11 16 8 17 5 18 6 19 93 20 7 21 2 22 1 23 3 24
REMARK SMILES IDX 4 25 23 26 24 27 25 28 26 29 27 30 28 31 29 33 30 34 31 35
REMARK SMILES IDX 92 36 32 37 91 38 33 39 34 40 35 41 85 42 36 43 90 44 84 45
REMARK SMILES IDX 86 46 37 47 89 48 83 49 82 50 38 52 70 53 50 54 69 55 51 56
REMARK SMILES IDX 54 57 68 58 87 59 52 60 53 61 67 63 88 64 55 65 39 66 40 67
REMARK SMILES IDX 48 68 41 69 42 70 46 71 49 72 43 73 44 74 47 75 45 76 71 77
REMARK SMILES IDX 72 78 80 79 73 80 74 81 78 82 81 83 75 84 76 85 79 86 77 87
REMARK SMILES IDX 56 88 57 89 65 90 58 91 59 92 63 93 66 94 60 95 61 96 64 97
REMARK SMILES IDX 62 98
REMARK H PARENT 20 6 9 15 27 32 86 51 54 62
REMARK Flexibility Score: inf
ROOT
ATOM      1  C   UNL     1       1.142   5.015  -5.094  1.00  0.00     0.021 C 
ENDROOT
BRANCH   1   2
ATOM      2  C   UNL     1       0.756   5.050  -3.618  1.00  0.00     0.116 C 
BRANCH   2   3
ATOM      3  N   UNL     1       1.269   3.740  -2.668  1.00  0.00    -0.351 N 
ATOM      4  C   UNL     1       2.478   3.512  -1.051  1.00  0.00     0.267 C 
ATOM      5  O   UNL     1       2.739   2.487  -0.383  1.00  0.00    -0.268 OA
ATOM      6  H   UNL     1       0.889   2.885  -2.973  1.00  0.00     0.163 HD
BRANCH   4   7
ATOM      7  C   UNL     1       3.434   4.780  -0.271  1.00  0.00     0.107 A 
ATOM      8  N   UNL     1       3.602   6.200  -0.420  1.00  0.00    -0.334 N 
ATOM      9  C   UNL     1       4.726   6.597   0.278  1.00  0.00     0.087 A 
ATOM     10  C   UNL     1       5.261   5.517   0.921  1.00  0.00     0.020 A 
ATOM     11  C   UNL     1       4.446   4.408   0.624  1.00  0.00     0.033 A 
BRANCH   8  12
ATOM     12  C   UNL     1       2.939   7.216  -1.257  1.00  0.00     0.222 C 
BRANCH  12  13
ATOM     13  C   UNL     1       1.468   7.326  -1.054  1.00  0.00     0.246 C 
ATOM     14  N   UNL     1       0.777   6.180  -0.955  1.00  0.00    -0.300 N 
ATOM     15  H   UNL     1      -0.147   6.231  -0.620  1.00  0.00     0.172 HD
ATOM     16  O   UNL     1       0.878   8.406  -1.023  1.00  0.00    -0.273 OA
BRANCH  14  17
ATOM     17  C   UNL     1       1.261   4.951  -1.286  1.00  0.00     0.189 A 
ATOM     18  C   UNL     1       1.240   1.953  -1.773  1.00  0.00     0.059 A 
ATOM     19  C   UNL     1       2.634   2.335  -2.760  1.00  0.00     0.093 A 
ATOM     20  N   UNL     1       0.519   3.487  -0.964  1.00  0.00    -0.224 NA
ATOM     21  S   UNL     1       3.130   4.601  -2.769  1.00  0.00    -0.105 S 
BRANCH  18  22
ATOM     22  C   UNL     1       0.592   0.604  -1.444  1.00  0.00     0.005 C 
ATOM     23  C   UNL     1       1.037   0.119  -0.050  1.00  0.00     0.017 C 
ATOM     24  C   UNL     1       0.974  -0.469  -2.478  1.00  0.00     0.017 C 
ATOM     25  C   UNL     1      -0.949   0.707  -1.424  1.00  0.00     0.017 C 
ENDBRANCH  18  22
ENDBRANCH  14  17
ENDBRANCH  12  13
ENDBRANCH   8  12
ENDBRANCH   4   7
ENDBRANCH   2   3
ENDBRANCH   1   2
BRANCH   1  26
ATOM     26  C   UNL     1       0.025   4.495  -5.965  1.00  0.00     0.002 C 
BRANCH  26  27
ATOM     27  C   UNL     1      -1.349   5.071  -5.597  1.00  0.00     0.002 C 
BRANCH  27  28
ATOM     28  C   UNL     1      -1.417   6.614  -5.521  1.00  0.00     0.021 C 
BRANCH  28  29
ATOM     29  C   UNL     1      -1.095   7.257  -6.853  1.00  0.00     0.116 C 
BRANCH  29  30
ATOM     30  N   UNL     1      -1.996   6.721  -7.862  1.00  0.00    -0.352 N 
ATOM     31  C   UNL     1      -2.352   7.238  -9.067  1.00  0.00     0.251 C 
ATOM     32  H   UNL     1      -2.410   5.856  -7.638  1.00  0.00     0.163 HD
ATOM     33  O   UNL     1      -3.436   6.960  -9.566  1.00  0.00    -0.269 OA
BRANCH  31  34
ATOM     34  C   UNL     1      -1.354   8.000  -9.817  1.00  0.00     0.039 A 
ATOM     35  C   UNL     1      -1.764   8.907 -10.791  1.00  0.00     0.014 A 
ATOM     36  C   UNL     1      -0.003   7.670  -9.651  1.00  0.00     0.014 A 
ATOM     37  C   UNL     1      -0.808   9.403 -11.662  1.00  0.00     0.010 A 
ATOM     38  C   UNL     1       0.958   8.264 -10.417  1.00  0.00     0.010 A 
ATOM     39  C   UNL     1       0.542   9.036 -11.488  1.00  0.00    -0.014 A 
BRANCH  39  40
ATOM     40  C   UNL     1       1.596   9.701 -12.254  1.00  0.00     0.031 A 
ATOM     41  C   UNL     1       1.688  11.152 -11.581  1.00  0.00     0.074 A 
ATOM     42  C   UNL     1       2.148   8.930 -13.283  1.00  0.00     0.049 A 
ATOM     43  N   UNL     1       1.929  12.301 -12.115  1.00  0.00    -0.248 NA
ATOM     44  C   UNL     1       1.359  11.385 -10.118  1.00  0.00     0.031 C 
ATOM     45  C   UNL     1       1.973   7.450 -13.492  1.00  0.00     0.029 A 
ATOM     46  N   UNL     1       3.034   9.151 -14.332  1.00  0.00    -0.354 N 
ATOM     47  C   UNL     1       2.145  13.252 -11.086  1.00  0.00     0.074 A 
ATOM     48  C   UNL     1       1.583  12.690  -9.906  1.00  0.00     0.031 C 
ATOM     49  C   UNL     1       2.566   6.998 -14.637  1.00  0.00     0.029 A 
ATOM     50  C   UNL     1       3.221   8.093 -15.319  1.00  0.00     0.049 A 
ATOM     51  H   UNL     1       3.524  10.001 -14.406  1.00  0.00     0.167 HD
ATOM     52  C   UNL     1       3.001  14.308 -11.270  1.00  0.00     0.037 A 
ATOM     53  C   UNL     1       3.838   8.202 -16.567  1.00  0.00     0.037 A 
ATOM     54  C   UNL     1       3.527  14.205 -12.593  1.00  0.00     0.049 A 
ATOM     55  C   UNL     1       4.447   9.524 -16.440  1.00  0.00     0.074 A 
ATOM     56  C   UNL     1       2.888  14.314 -13.803  1.00  0.00     0.029 A 
ATOM     57  N   UNL     1       4.633  13.392 -12.715  1.00  0.00    -0.354 N 
ATOM     58  N   UNL     1       5.450   9.772 -15.655  1.00  0.00    -0.248 NA
ATOM     59  C   UNL     1       3.768  10.652 -17.070  1.00  0.00     0.031 C 
ATOM     60  C   UNL     1       3.256  13.096 -14.404  1.00  0.00     0.029 A 
ATOM     61  C   UNL     1       4.449  12.636 -13.837  1.00  0.00     0.049 A 
ATOM     62  H   UNL     1       5.408  13.362 -12.109  1.00  0.00     0.167 HD
ATOM     63  C   UNL     1       5.271  11.103 -15.396  1.00  0.00     0.074 A 
ATOM     64  C   UNL     1       4.439  11.633 -16.476  1.00  0.00     0.031 C 
ATOM     65  C   UNL     1       5.325  11.538 -14.105  1.00  0.00     0.037 A 
BRANCH  52  66
ATOM     66  C   UNL     1       3.729  15.271 -10.373  1.00  0.00     0.064 A 
ATOM     67  C   UNL     1       4.348  16.393 -10.993  1.00  0.00     0.173 A 
ATOM     68  C   UNL     1       4.172  14.957  -9.086  1.00  0.00     0.173 A 
ATOM     69  F   UNL     1       3.973  16.792 -12.220  1.00  0.00    -0.203 F 
ATOM     70  C   UNL     1       5.430  17.056 -10.422  1.00  0.00     0.198 A 
ATOM     71  C   UNL     1       5.227  15.665  -8.492  1.00  0.00     0.198 A 
ATOM     72  F   UNL     1       3.676  13.902  -8.425  1.00  0.00    -0.203 F 
ATOM     73  F   UNL     1       6.079  18.001 -11.119  1.00  0.00    -0.200 F 
ATOM     74  C   UNL     1       5.878  16.683  -9.173  1.00  0.00     0.200 A 
ATOM     75  F   UNL     1       5.667  15.302  -7.278  1.00  0.00    -0.200 F 
ATOM     76  F   UNL     1       6.955  17.278  -8.641  1.00  0.00    -0.200 F 
ENDBRANCH  52  66
BRANCH  53  77
ATOM     77  C   UNL     1       4.084   7.592 -17.975  1.00  0.00     0.064 A 
ATOM     78  C   UNL     1       3.622   6.366 -18.464  1.00  0.00     0.173 A 
ATOM     79  C   UNL     1       4.688   8.404 -19.006  1.00  0.00     0.173 A 
ATOM     80  F   UNL     1       3.175   5.430 -17.617  1.00  0.00    -0.203 F 
ATOM     81  C   UNL     1       3.609   6.064 -19.858  1.00  0.00     0.198 A 
ATOM     82  C   UNL     1       4.606   8.144 -20.381  1.00  0.00     0.198 A 
ATOM     83  F   UNL     1       5.380   9.515 -18.713  1.00  0.00    -0.203 F 
ATOM     84  F   UNL     1       3.143   4.880 -20.283  1.00  0.00    -0.200 F 
ATOM     85  C   UNL     1       4.035   6.978 -20.813  1.00  0.00     0.200 A 
ATOM     86  F   UNL     1       5.049   9.053 -21.265  1.00  0.00    -0.200 F 
ATOM     87  F   UNL     1       3.909   6.736 -22.126  1.00  0.00    -0.200 F 
ENDBRANCH  53  77
BRANCH  65  88
ATOM     88  C   UNL     1       6.026  10.626 -13.089  1.00  0.00     0.064 A 
ATOM     89  C   UNL     1       7.317  10.142 -13.372  1.00  0.00     0.173 A 
ATOM     90  C   UNL     1       5.454  10.130 -11.896  1.00  0.00     0.173 A 
ATOM     91  F   UNL     1       7.972  10.589 -14.453  1.00  0.00    -0.203 F 
ATOM     92  C   UNL     1       7.966   9.204 -12.559  1.00  0.00     0.198 A 
ATOM     93  C   UNL     1       6.103   9.189 -11.077  1.00  0.00     0.198 A 
ATOM     94  F   UNL     1       4.254  10.546 -11.487  1.00  0.00    -0.203 F 
ATOM     95  F   UNL     1       9.192   8.774 -12.888  1.00  0.00    -0.200 F 
ATOM     96  C   UNL     1       7.359   8.723 -11.414  1.00  0.00     0.200 A 
ATOM     97  F   UNL     1       5.507   8.740  -9.960  1.00  0.00    -0.200 F 
ATOM     98  F   UNL     1       7.989   7.837 -10.629  1.00  0.00    -0.200 F 
ENDBRANCH  65  88
ENDBRANCH  39  40
ENDBRANCH  31  34
ENDBRANCH  29  30
ENDBRANCH  28  29
ENDBRANCH  27  28
ENDBRANCH  26  27
ENDBRANCH   1  26
TORSDOF 17
