REMARK SMILES O=C(NCCCCCCNC(=O)[C@H]1CC[C@H]2CCCC[C@@H]2[N@H+]1C[C@@H]1CCCCO1)c1ccc(-c2c3nc(c(-c4c(F)c(F)c(F)c(F)c4F)c4ccc([nH]4)c(-c4c(F)c(F)c(F)c(F)c4F)c4nc(c(-c5c(F)c(F)c(F)c(F)c5F)c5ccc2[nH]5)C=C4)C=C3)cc1
REMARK SMILES IDX 6 1 5 2 4 3 3 4 1 5 2 6 30 8 31 9 92 10 32 11 91 12 33 13
REMARK SMILES IDX 34 14 35 15 85 16 36 17 90 18 84 19 86 20 37 21 89 22 83 23
REMARK SMILES IDX 82 24 38 26 70 27 50 28 69 29 51 30 54 31 68 32 87 33 52 34
REMARK SMILES IDX 53 35 67 37 88 38 55 39 39 40 40 41 48 42 41 43 42 44 46 45
REMARK SMILES IDX 49 46 43 47 44 48 47 49 45 50 71 51 72 52 80 53 73 54 74 55
REMARK SMILES IDX 78 56 81 57 75 58 76 59 79 60 77 61 56 62 57 63 65 64 58 65
REMARK SMILES IDX 59 66 63 67 66 68 60 69 61 70 64 71 62 72 7 73 8 74 9 75
REMARK SMILES IDX 10 76 11 77 12 79 13 80 14 81 22 82 15 83 21 84 16 86 20 87
REMARK SMILES IDX 17 88 19 89 18 90 23 91 24 92 25 93 29 94 26 95 28 96 27 97
REMARK H PARENT 3 7 86 25 54 36 10 78 22 85
REMARK Flexibility Score: inf
ROOT
ATOM      1  C   UNL     1       3.627  -2.015  -3.000  1.00  0.00     0.002 C 
ENDROOT
BRANCH   1   2
ATOM      2  C   UNL     1       4.468  -1.757  -1.748  1.00  0.00     0.021 C 
BRANCH   2   3
ATOM      3  C   UNL     1       4.298  -0.354  -1.186  1.00  0.00     0.116 C 
BRANCH   3   4
ATOM      4  N   UNL     1       2.890  -0.016  -1.014  1.00  0.00    -0.352 N 
ATOM      5  O   UNL     1       0.947   0.191   0.116  1.00  0.00    -0.269 OA
ATOM      6  C   UNL     1       2.172   0.186   0.134  1.00  0.00     0.251 C 
ATOM      7  H   UNL     1       2.378   0.083  -1.850  1.00  0.00     0.163 HD
BRANCH   6   8
ATOM      8  C   UNL     1       2.902   0.395   1.394  1.00  0.00     0.039 A 
ATOM      9  C   UNL     1       4.041   1.200   1.400  1.00  0.00     0.014 A 
ATOM     10  C   UNL     1       2.462  -0.228   2.562  1.00  0.00     0.014 A 
ATOM     11  C   UNL     1       4.840   1.244   2.527  1.00  0.00     0.010 A 
ATOM     12  C   UNL     1       3.198  -0.070   3.737  1.00  0.00     0.010 A 
ATOM     13  C   UNL     1       4.405   0.647   3.720  1.00  0.00    -0.014 A 
BRANCH  13  14
ATOM     14  C   UNL     1       5.191   0.878   4.954  1.00  0.00     0.031 A 
ATOM     15  C   UNL     1       5.808  -0.258   5.712  1.00  0.00     0.074 A 
ATOM     16  C   UNL     1       5.359   2.149   5.369  1.00  0.00     0.049 A 
ATOM     17  N   UNL     1       6.527  -0.219   6.806  1.00  0.00    -0.248 NA
ATOM     18  C   UNL     1       5.584  -1.613   5.188  1.00  0.00     0.031 C 
ATOM     19  C   UNL     1       4.798   3.331   4.708  1.00  0.00     0.029 A 
ATOM     20  N   UNL     1       6.058   2.664   6.428  1.00  0.00    -0.354 N 
ATOM     21  C   UNL     1       6.831  -1.539   7.107  1.00  0.00     0.074 A 
ATOM     22  C   UNL     1       6.183  -2.359   6.106  1.00  0.00     0.031 C 
ATOM     23  C   UNL     1       5.217   4.432   5.342  1.00  0.00     0.029 A 
ATOM     24  C   UNL     1       5.996   4.034   6.506  1.00  0.00     0.049 A 
ATOM     25  H   UNL     1       6.556   2.108   7.070  1.00  0.00     0.167 HD
ATOM     26  C   UNL     1       7.589  -2.014   8.125  1.00  0.00     0.037 A 
ATOM     27  C   UNL     1       6.482   4.878   7.433  1.00  0.00     0.037 A 
ATOM     28  C   UNL     1       8.216  -1.182   9.122  1.00  0.00     0.049 A 
ATOM     29  C   UNL     1       7.252   4.311   8.590  1.00  0.00     0.074 A 
ATOM     30  C   UNL     1       9.025  -1.566  10.178  1.00  0.00     0.029 A 
ATOM     31  N   UNL     1       8.089   0.198   9.201  1.00  0.00    -0.354 N 
ATOM     32  N   UNL     1       7.571   3.065   8.842  1.00  0.00    -0.248 NA
ATOM     33  C   UNL     1       7.733   5.270   9.590  1.00  0.00     0.031 C 
ATOM     34  C   UNL     1       9.311  -0.433  10.945  1.00  0.00     0.029 A 
ATOM     35  C   UNL     1       8.770   0.674  10.312  1.00  0.00     0.049 A 
ATOM     36  H   UNL     1       7.590   0.757   8.562  1.00  0.00     0.167 HD
ATOM     37  C   UNL     1       8.319   3.094  10.010  1.00  0.00     0.074 A 
ATOM     38  C   UNL     1       8.424   4.484  10.402  1.00  0.00     0.031 C 
ATOM     39  C   UNL     1       8.871   2.061  10.694  1.00  0.00     0.037 A 
BRANCH  26  40
ATOM     40  C   UNL     1       7.755  -3.504   8.238  1.00  0.00     0.064 A 
ATOM     41  C   UNL     1       8.459  -4.250   7.279  1.00  0.00     0.173 A 
ATOM     42  C   UNL     1       7.236  -4.192   9.346  1.00  0.00     0.173 A 
ATOM     43  F   UNL     1       8.974  -3.646   6.198  1.00  0.00    -0.203 F 
ATOM     44  C   UNL     1       8.602  -5.629   7.407  1.00  0.00     0.198 A 
ATOM     45  C   UNL     1       7.418  -5.564   9.492  1.00  0.00     0.198 A 
ATOM     46  F   UNL     1       6.562  -3.531  10.300  1.00  0.00    -0.203 F 
ATOM     47  F   UNL     1       9.225  -6.327   6.447  1.00  0.00    -0.200 F 
ATOM     48  C   UNL     1       8.090  -6.284   8.516  1.00  0.00     0.200 A 
ATOM     49  F   UNL     1       6.943  -6.190  10.578  1.00  0.00    -0.200 F 
ATOM     50  F   UNL     1       8.237  -7.610   8.642  1.00  0.00    -0.200 F 
ENDBRANCH  26  40
BRANCH  27  51
ATOM     51  C   UNL     1       6.231   6.338   7.313  1.00  0.00     0.064 A 
ATOM     52  C   UNL     1       7.288   7.240   7.133  1.00  0.00     0.173 A 
ATOM     53  C   UNL     1       4.932   6.863   7.394  1.00  0.00     0.173 A 
ATOM     54  F   UNL     1       8.549   6.790   7.060  1.00  0.00    -0.203 F 
ATOM     55  C   UNL     1       7.059   8.613   7.079  1.00  0.00     0.198 A 
ATOM     56  C   UNL     1       4.700   8.231   7.294  1.00  0.00     0.198 A 
ATOM     57  F   UNL     1       3.883   6.043   7.554  1.00  0.00    -0.203 F 
ATOM     58  F   UNL     1       8.094   9.458   6.978  1.00  0.00    -0.200 F 
ATOM     59  C   UNL     1       5.765   9.107   7.153  1.00  0.00     0.200 A 
ATOM     60  F   UNL     1       3.446   8.701   7.339  1.00  0.00    -0.200 F 
ATOM     61  F   UNL     1       5.545  10.428   7.099  1.00  0.00    -0.200 F 
ENDBRANCH  27  51
BRANCH  39  62
ATOM     62  C   UNL     1       9.692   2.400  11.908  1.00  0.00     0.064 A 
ATOM     63  C   UNL     1       9.123   2.953  13.065  1.00  0.00     0.173 A 
ATOM     64  C   UNL     1      11.073   2.146  11.917  1.00  0.00     0.173 A 
ATOM     65  F   UNL     1       7.810   3.227  13.109  1.00  0.00    -0.203 F 
ATOM     66  C   UNL     1       9.912   3.282  14.165  1.00  0.00     0.198 A 
ATOM     67  C   UNL     1      11.850   2.430  13.036  1.00  0.00     0.198 A 
ATOM     68  F   UNL     1      11.671   1.610  10.842  1.00  0.00    -0.203 F 
ATOM     69  F   UNL     1       9.358   3.881  15.228  1.00  0.00    -0.200 F 
ATOM     70  C   UNL     1      11.272   3.012  14.153  1.00  0.00     0.200 A 
ATOM     71  F   UNL     1      13.159   2.143  13.031  1.00  0.00    -0.200 F 
ATOM     72  F   UNL     1      12.028   3.321  15.215  1.00  0.00    -0.200 F 
ENDBRANCH  39  62
ENDBRANCH  13  14
ENDBRANCH   6   8
ENDBRANCH   3   4
ENDBRANCH   2   3
ENDBRANCH   1   2
BRANCH   1  73
ATOM     73  C   UNL     1       3.851  -1.032  -4.164  1.00  0.00     0.002 C 
BRANCH  73  74
ATOM     74  C   UNL     1       5.286  -0.944  -4.660  1.00  0.00     0.021 C 
BRANCH  74  75
ATOM     75  C   UNL     1       5.878  -2.308  -4.955  1.00  0.00     0.116 C 
BRANCH  75  76
ATOM     76  N   UNL     1       6.203  -2.646  -6.314  1.00  0.00    -0.351 N 
ATOM     77  C   UNL     1       7.298  -3.287  -6.840  1.00  0.00     0.278 C 
ATOM     78  H   UNL     1       5.529  -2.373  -6.978  1.00  0.00     0.163 HD
ATOM     79  O   UNL     1       7.069  -3.886  -7.902  1.00  0.00    -0.268 OA
BRANCH  77  80
ATOM     80  C   UNL     1       8.800  -3.177  -6.319  1.00  0.00     0.274 C 
ATOM     81  C   UNL     1       9.146  -1.665  -5.592  1.00  0.00     0.076 C 
ATOM     82  N   UNL     1       9.323  -4.199  -5.432  1.00  0.00    -0.320 N 
ATOM     83  C   UNL     1      11.136  -0.921  -4.981  1.00  0.00     0.016 C 
ATOM     84  C   UNL     1      11.140  -4.173  -5.641  1.00  0.00     0.187 C 
ATOM     85  H   UNL     1       9.150  -5.202  -5.504  1.00  0.00     0.349 HD
ATOM     86  C   UNL     1      12.240  -2.567  -5.596  1.00  0.00     0.048 C 
ATOM     87  C   UNL     1      11.933  -5.296  -6.313  1.00  0.00     0.065 C 
ATOM     88  C   UNL     1      13.581  -2.876  -4.930  1.00  0.00     0.010 C 
ATOM     89  C   UNL     1      13.293  -5.406  -5.540  1.00  0.00     0.006 C 
ATOM     90  C   UNL     1      14.180  -4.146  -5.574  1.00  0.00     0.001 C 
BRANCH  82  91
ATOM     91  C   UNL     1       8.550  -3.500  -4.013  1.00  0.00     0.295 C 
BRANCH  91  92
ATOM     92  C   UNL     1       8.717  -1.681  -3.456  1.00  0.00     0.173 C 
ATOM     93  C   UNL     1       8.932   0.037  -4.313  1.00  0.00     0.038 C 
ATOM     94  O   UNL     1      10.059  -1.818  -3.185  1.00  0.00    -0.372 OA
ATOM     95  C   UNL     1       9.772   0.181  -6.060  1.00  0.00     0.005 C 
ATOM     96  C   UNL     1      10.575  -2.502  -4.474  1.00  0.00     0.161 C 
ATOM     97  C   UNL     1      10.669  -1.615  -6.487  1.00  0.00     0.029 C 
ENDBRANCH  91  92
ENDBRANCH  82  91
ENDBRANCH  77  80
ENDBRANCH  75  76
ENDBRANCH  74  75
ENDBRANCH  73  74
ENDBRANCH   1  73
TORSDOF 15
