REMARK SMILES COc1ccc(-n2c(=O)[nH]c3cc(C(=O)NCCCCCCNC(=O)c4ccc(-c5c6nc(c(-c7c(F)c(F)c(F)c(F)c7F)c7ccc([nH]7)c(-c7c(F)c(F)c(F)c(F)c7F)c7nc(c(-c8c(F)c(F)c(F)c(F)c8F)c8ccc5[nH]8)C=C7)C=C6)cc4)ccc3c2=O)cc1
REMARK SMILES IDX 19 1 18 2 17 3 16 4 14 5 15 6 13 8 7 9 8 10 92 11 9 12 10 13
REMARK SMILES IDX 91 14 93 15 11 16 90 18 12 19 89 20 6 21 3 22 4 23 95 24
REMARK SMILES IDX 5 25 94 26 2 27 1 28 20 29 21 30 22 31 23 32 24 33 25 35
REMARK SMILES IDX 26 36 27 37 88 38 28 39 87 40 29 41 30 42 31 43 81 44 32 45
REMARK SMILES IDX 86 46 80 47 82 48 33 49 85 50 79 51 78 52 34 54 66 55 46 56
REMARK SMILES IDX 65 57 47 58 50 59 64 60 83 61 48 62 49 63 63 65 84 66 51 67
REMARK SMILES IDX 35 68 36 69 44 70 37 71 38 72 42 73 45 74 39 75 40 76 43 77
REMARK SMILES IDX 41 78 67 79 68 80 76 81 69 82 70 83 74 84 77 85 71 86 72 87
REMARK SMILES IDX 75 88 73 89 52 90 53 91 61 92 54 93 55 94 59 95 62 96 56 97
REMARK SMILES IDX 57 98 60 99 58 100
REMARK H PARENT 16 7 10 17 23 34 82 53 50 64
REMARK Flexibility Score: inf
ROOT
ATOM      1  C   UNL     1       1.226   9.704  13.399  1.00  0.00     0.002 C 
ENDROOT
BRANCH   1   2
ATOM      2  C   UNL     1       0.987   8.399  12.636  1.00  0.00     0.021 C 
BRANCH   2   3
ATOM      3  C   UNL     1       0.949   8.516  11.116  1.00  0.00     0.116 C 
BRANCH   3   4
ATOM      4  N   UNL     1       2.200   8.985  10.556  1.00  0.00    -0.352 N 
ATOM      5  C   UNL     1       2.918   8.544   9.475  1.00  0.00     0.251 C 
ATOM      6  O   UNL     1       4.031   9.021   9.265  1.00  0.00    -0.269 OA
ATOM      7  H   UNL     1       2.602   9.748  11.031  1.00  0.00     0.163 HD
BRANCH   5   8
ATOM      8  C   UNL     1       2.402   7.496   8.557  1.00  0.00     0.041 A 
ATOM      9  N   UNL     1       2.151   3.953   4.967  1.00  0.00    -0.228 N 
ATOM     10  C   UNL     1       3.502   4.033   5.336  1.00  0.00     0.333 A 
ATOM     11  C   UNL     1       1.157   4.491   5.803  1.00  0.00     0.268 A 
ATOM     12  O   UNL     1       4.457   3.439   4.836  1.00  0.00    -0.247 OA
ATOM     13  N   UNL     1       3.820   4.883   6.367  1.00  0.00    -0.306 N 
ATOM     14  C   UNL     1       1.564   5.541   6.748  1.00  0.00     0.064 A 
ATOM     15  O   UNL     1      -0.021   4.140   5.869  1.00  0.00    -0.268 OA
ATOM     16  C   UNL     1       2.909   5.689   7.029  1.00  0.00     0.056 A 
ATOM     17  H   UNL     1       4.760   4.921   6.656  1.00  0.00     0.171 HD
ATOM     18  C   UNL     1       0.622   6.383   7.343  1.00  0.00     0.017 A 
ATOM     19  C   UNL     1       3.338   6.645   7.947  1.00  0.00     0.040 A 
ATOM     20  C   UNL     1       1.048   7.388   8.213  1.00  0.00     0.015 A 
BRANCH   9  21
ATOM     21  C   UNL     1       1.736   3.236   3.764  1.00  0.00     0.054 A 
ATOM     22  C   UNL     1       0.876   1.889   1.391  1.00  0.00     0.119 A 
ATOM     23  C   UNL     1       0.026   2.761   2.056  1.00  0.00     0.048 A 
ATOM     24  C   UNL     1       2.165   1.716   1.876  1.00  0.00     0.048 A 
ATOM     25  C   UNL     1       0.450   3.422   3.217  1.00  0.00     0.031 A 
ATOM     26  C   UNL     1       2.584   2.378   3.044  1.00  0.00     0.031 A 
BRANCH  22  27
ATOM     27  O   UNL     1       0.363   1.302   0.270  1.00  0.00    -0.497 OA
ATOM     28  C   UNL     1       0.920   0.034  -0.062  1.00  0.00     0.278 C 
ENDBRANCH  22  27
ENDBRANCH   9  21
ENDBRANCH   5   8
ENDBRANCH   3   4
ENDBRANCH   2   3
ENDBRANCH   1   2
BRANCH   1  29
ATOM     29  C   UNL     1       0.273  10.857  13.074  1.00  0.00     0.002 C 
BRANCH  29  30
ATOM     30  C   UNL     1      -1.219  10.534  13.164  1.00  0.00     0.021 C 
BRANCH  30  31
ATOM     31  C   UNL     1      -1.675   9.914  14.480  1.00  0.00     0.116 C 
BRANCH  31  32
ATOM     32  N   UNL     1      -1.431  10.778  15.621  1.00  0.00    -0.352 N 
ATOM     33  C   UNL     1      -2.298  11.195  16.600  1.00  0.00     0.251 C 
ATOM     34  H   UNL     1      -0.509  11.114  15.705  1.00  0.00     0.163 HD
ATOM     35  O   UNL     1      -1.956  12.056  17.402  1.00  0.00    -0.269 OA
BRANCH  33  36
ATOM     36  C   UNL     1      -3.660  10.623  16.672  1.00  0.00     0.039 A 
ATOM     37  C   UNL     1      -4.741  11.484  16.877  1.00  0.00     0.014 A 
ATOM     38  C   UNL     1      -3.872   9.248  16.542  1.00  0.00     0.014 A 
ATOM     39  C   UNL     1      -6.040  10.973  16.892  1.00  0.00     0.010 A 
ATOM     40  C   UNL     1      -5.171   8.751  16.476  1.00  0.00     0.010 A 
ATOM     41  C   UNL     1      -6.268   9.607  16.657  1.00  0.00    -0.014 A 
BRANCH  41  42
ATOM     42  C   UNL     1      -7.646   9.058  16.596  1.00  0.00     0.031 A 
ATOM     43  C   UNL     1      -8.104   8.046  17.608  1.00  0.00     0.074 A 
ATOM     44  C   UNL     1      -8.465   9.426  15.593  1.00  0.00     0.049 A 
ATOM     45  N   UNL     1      -9.252   7.421  17.696  1.00  0.00    -0.248 NA
ATOM     46  C   UNL     1      -7.132   7.663  18.643  1.00  0.00     0.031 C 
ATOM     47  C   UNL     1      -8.123  10.368  14.527  1.00  0.00     0.029 A 
ATOM     48  N   UNL     1      -9.753   9.049  15.304  1.00  0.00    -0.354 N 
ATOM     49  C   UNL     1      -9.133   6.564  18.782  1.00  0.00     0.074 A 
ATOM     50  C   UNL     1      -7.783   6.704  19.283  1.00  0.00     0.031 C 
ATOM     51  C   UNL     1      -9.186  10.524  13.722  1.00  0.00     0.029 A 
ATOM     52  C   UNL     1     -10.268   9.662  14.189  1.00  0.00     0.049 A 
ATOM     53  H   UNL     1     -10.259   8.401  15.845  1.00  0.00     0.167 HD
ATOM     54  C   UNL     1     -10.071   5.751  19.326  1.00  0.00     0.037 A 
ATOM     55  C   UNL     1     -11.476   9.541  13.607  1.00  0.00     0.037 A 
ATOM     56  C   UNL     1     -11.418   5.627  18.829  1.00  0.00     0.049 A 
ATOM     57  C   UNL     1     -12.492   8.610  14.211  1.00  0.00     0.074 A 
ATOM     58  C   UNL     1     -12.464   4.886  19.347  1.00  0.00     0.029 A 
ATOM     59  N   UNL     1     -11.899   6.254  17.688  1.00  0.00    -0.354 N 
ATOM     60  N   UNL     1     -12.397   7.864  15.284  1.00  0.00    -0.248 NA
ATOM     61  C   UNL     1     -13.785   8.509  13.521  1.00  0.00     0.031 C 
ATOM     62  C   UNL     1     -13.558   5.010  18.483  1.00  0.00     0.029 A 
ATOM     63  C   UNL     1     -13.217   5.885  17.464  1.00  0.00     0.049 A 
ATOM     64  H   UNL     1     -11.382   6.870  17.121  1.00  0.00     0.167 HD
ATOM     65  C   UNL     1     -13.625   7.229  15.418  1.00  0.00     0.074 A 
ATOM     66  C   UNL     1     -14.452   7.689  14.320  1.00  0.00     0.031 C 
ATOM     67  C   UNL     1     -14.030   6.348  16.366  1.00  0.00     0.037 A 
BRANCH  54  68
ATOM     68  C   UNL     1      -9.661   4.917  20.508  1.00  0.00     0.064 A 
ATOM     69  C   UNL     1      -9.334   5.494  21.746  1.00  0.00     0.173 A 
ATOM     70  C   UNL     1      -9.593   3.519  20.402  1.00  0.00     0.173 A 
ATOM     71  F   UNL     1      -9.373   6.826  21.902  1.00  0.00    -0.203 F 
ATOM     72  C   UNL     1      -8.905   4.709  22.814  1.00  0.00     0.198 A 
ATOM     73  C   UNL     1      -9.202   2.735  21.485  1.00  0.00     0.198 A 
ATOM     74  F   UNL     1      -9.902   2.912  19.247  1.00  0.00    -0.203 F 
ATOM     75  F   UNL     1      -8.527   5.291  23.961  1.00  0.00    -0.200 F 
ATOM     76  C   UNL     1      -8.845   3.331  22.684  1.00  0.00     0.200 A 
ATOM     77  F   UNL     1      -9.159   1.401  21.362  1.00  0.00    -0.200 F 
ATOM     78  F   UNL     1      -8.430   2.577  23.712  1.00  0.00    -0.200 F 
ENDBRANCH  54  68
BRANCH  55  79
ATOM     79  C   UNL     1     -11.802  10.359  12.410  1.00  0.00     0.064 A 
ATOM     80  C   UNL     1     -12.733  11.404  12.491  1.00  0.00     0.173 A 
ATOM     81  C   UNL     1     -11.183  10.131  11.172  1.00  0.00     0.173 A 
ATOM     82  F   UNL     1     -13.366  11.648  13.648  1.00  0.00    -0.203 F 
ATOM     83  C   UNL     1     -13.040  12.183  11.377  1.00  0.00     0.198 A 
ATOM     84  C   UNL     1     -11.470  10.928  10.067  1.00  0.00     0.198 A 
ATOM     85  F   UNL     1     -10.281   9.147  11.043  1.00  0.00    -0.203 F 
ATOM     86  F   UNL     1     -13.960  13.152  11.475  1.00  0.00    -0.200 F 
ATOM     87  C   UNL     1     -12.403  11.950  10.168  1.00  0.00     0.200 A 
ATOM     88  F   UNL     1     -10.839  10.711   8.905  1.00  0.00    -0.200 F 
ATOM     89  F   UNL     1     -12.690  12.707   9.101  1.00  0.00    -0.200 F 
ENDBRANCH  55  79
BRANCH  67  90
ATOM     90  C   UNL     1     -15.445   5.848  16.283  1.00  0.00     0.064 A 
ATOM     91  C   UNL     1     -15.863   4.973  15.269  1.00  0.00     0.173 A 
ATOM     92  C   UNL     1     -16.388   6.223  17.253  1.00  0.00     0.173 A 
ATOM     93  F   UNL     1     -15.007   4.595  14.308  1.00  0.00    -0.203 F 
ATOM     94  C   UNL     1     -17.177   4.514  15.215  1.00  0.00     0.198 A 
ATOM     95  C   UNL     1     -17.691   5.735  17.216  1.00  0.00     0.198 A 
ATOM     96  F   UNL     1     -16.040   7.053  18.248  1.00  0.00    -0.203 F 
ATOM     97  F   UNL     1     -17.567   3.721  14.207  1.00  0.00    -0.200 F 
ATOM     98  C   UNL     1     -18.087   4.888  16.193  1.00  0.00     0.200 A 
ATOM     99  F   UNL     1     -18.563   6.084  18.172  1.00  0.00    -0.200 F 
ATOM    100  F   UNL     1     -19.348   4.438  16.144  1.00  0.00    -0.200 F 
ENDBRANCH  67  90
ENDBRANCH  41  42
ENDBRANCH  33  36
ENDBRANCH  31  32
ENDBRANCH  30  31
ENDBRANCH  29  30
ENDBRANCH   1  29
TORSDOF 15
