REMARK SMILES C[C@H](/C=C/C(=O)NCCCCCCNC(=O)c1ccc(-c2c3nc(c(-c4c(F)c(F)c(F)c(F)c4F)c4ccc([nH]4)c(-c4c(F)c(F)c(F)c(F)c4F)c4nc(c(-c5c(F)c(F)c(F)c(F)c5F)c5ccc2[nH]5)C=C4)C=C3)cc1)n1cncn1
REMARK SMILES IDX 10 1 9 2 8 3 7 4 5 5 6 6 4 8 3 9 2 10 1 11 80 12 81 13 84 14
REMARK SMILES IDX 82 15 83 16 11 17 12 18 13 19 14 20 15 21 16 23 17 24 18 25
REMARK SMILES IDX 79 26 19 27 78 28 20 29 21 30 22 31 72 32 23 33 77 34 71 35
REMARK SMILES IDX 73 36 24 37 76 38 70 39 69 40 25 42 57 43 37 44 56 45 38 46
REMARK SMILES IDX 41 47 55 48 74 49 39 50 40 51 54 53 75 54 42 55 26 56 27 57
REMARK SMILES IDX 35 58 28 59 29 60 33 61 36 62 30 63 31 64 34 65 32 66 58 67
REMARK SMILES IDX 59 68 67 69 60 70 61 71 65 72 68 73 62 74 63 75 66 76 64 77
REMARK SMILES IDX 43 78 44 79 52 80 45 81 46 82 50 83 53 84 47 85 48 86 51 87
REMARK SMILES IDX 49 88
REMARK H PARENT 7 7 14 22 73 41 41 52
REMARK Flexibility Score: inf
ROOT
ATOM      1  C   UNL     1       0.795  -1.662  -4.666  1.00  0.00     0.002 C 
ENDROOT
BRANCH   1   2
ATOM      2  C   UNL     1       0.516  -1.473  -3.168  1.00  0.00     0.021 C 
BRANCH   2   3
ATOM      3  C   UNL     1       1.763  -1.097  -2.365  1.00  0.00     0.116 C 
BRANCH   3   4
ATOM      4  N   UNL     1       2.072   0.308  -2.547  1.00  0.00    -0.353 N 
ATOM      5  C   UNL     1       2.007   1.377  -1.716  1.00  0.00     0.243 C 
ATOM      6  O   UNL     1       2.370   2.476  -2.131  1.00  0.00    -0.270 OA
ATOM      7  H   UNL     1       2.393   0.528  -3.451  1.00  0.00     0.163 HD
BRANCH   5   8
ATOM      8  C   UNL     1       1.611   1.252  -0.292  1.00  0.00     0.069 C 
ATOM      9  C   UNL     1       0.678   0.438   0.223  1.00  0.00     0.005 C 
BRANCH   9  10
ATOM     10  C   UNL     1       0.271   0.322   1.681  1.00  0.00     0.129 C 
ATOM     11  C   UNL     1       0.831   1.390   2.627  1.00  0.00     0.038 C 
BRANCH  10  12
ATOM     12  N   UNL     1      -1.185   0.217   1.775  1.00  0.00    -0.246 N 
ATOM     13  C   UNL     1      -1.920  -0.931   1.790  1.00  0.00     0.220 A 
ATOM     14  N   UNL     1      -1.985   1.297   1.685  1.00  0.00    -0.159 NA
ATOM     15  N   UNL     1      -3.197  -0.637   1.714  1.00  0.00    -0.223 NA
ATOM     16  C   UNL     1      -3.192   0.728   1.653  1.00  0.00     0.246 A 
ENDBRANCH  10  12
ENDBRANCH   9  10
ENDBRANCH   5   8
ENDBRANCH   3   4
ENDBRANCH   2   3
ENDBRANCH   1   2
BRANCH   1  17
ATOM     17  C   UNL     1       1.782  -2.789  -5.000  1.00  0.00     0.002 C 
BRANCH  17  18
ATOM     18  C   UNL     1       1.417  -4.159  -4.424  1.00  0.00     0.021 C 
BRANCH  18  19
ATOM     19  C   UNL     1       0.079  -4.707  -4.912  1.00  0.00     0.116 C 
BRANCH  19  20
ATOM     20  N   UNL     1       0.091  -4.954  -6.346  1.00  0.00    -0.352 N 
ATOM     21  C   UNL     1      -0.076  -6.130  -7.032  1.00  0.00     0.251 C 
ATOM     22  H   UNL     1       0.240  -4.159  -6.906  1.00  0.00     0.163 HD
ATOM     23  O   UNL     1       0.208  -6.198  -8.222  1.00  0.00    -0.269 OA
BRANCH  21  24
ATOM     24  C   UNL     1      -0.585  -7.326  -6.328  1.00  0.00     0.039 A 
ATOM     25  C   UNL     1       0.044  -8.555  -6.543  1.00  0.00     0.014 A 
ATOM     26  C   UNL     1      -1.681  -7.237  -5.465  1.00  0.00     0.014 A 
ATOM     27  C   UNL     1      -0.379  -9.680  -5.832  1.00  0.00     0.010 A 
ATOM     28  C   UNL     1      -2.059  -8.344  -4.710  1.00  0.00     0.010 A 
ATOM     29  C   UNL     1      -1.403  -9.573  -4.877  1.00  0.00    -0.014 A 
BRANCH  29  30
ATOM     30  C   UNL     1      -1.763 -10.723  -4.009  1.00  0.00     0.031 A 
ATOM     31  C   UNL     1      -3.129 -11.344  -4.088  1.00  0.00     0.074 A 
ATOM     32  C   UNL     1      -0.873 -11.154  -3.092  1.00  0.00     0.049 A 
ATOM     33  N   UNL     1      -3.642 -12.303  -3.359  1.00  0.00    -0.248 NA
ATOM     34  C   UNL     1      -4.048 -10.806  -5.103  1.00  0.00     0.031 C 
ATOM     35  C   UNL     1       0.465 -10.595  -2.885  1.00  0.00     0.029 A 
ATOM     36  N   UNL     1      -0.964 -12.149  -2.150  1.00  0.00    -0.354 N 
ATOM     37  C   UNL     1      -4.942 -12.473  -3.816  1.00  0.00     0.074 A 
ATOM     38  C   UNL     1      -5.155 -11.494  -4.860  1.00  0.00     0.031 C 
ATOM     39  C   UNL     1       1.073 -11.261  -1.891  1.00  0.00     0.029 A 
ATOM     40  C   UNL     1       0.155 -12.263  -1.359  1.00  0.00     0.049 A 
ATOM     41  H   UNL     1      -1.755 -12.726  -2.050  1.00  0.00     0.167 HD
ATOM     42  C   UNL     1      -5.865 -13.376  -3.410  1.00  0.00     0.037 A 
ATOM     43  C   UNL     1       0.405 -13.069  -0.310  1.00  0.00     0.037 A 
ATOM     44  C   UNL     1      -5.636 -14.368  -2.391  1.00  0.00     0.049 A 
ATOM     45  C   UNL     1      -0.650 -14.053   0.123  1.00  0.00     0.074 A 
ATOM     46  C   UNL     1      -6.479 -15.385  -1.977  1.00  0.00     0.029 A 
ATOM     47  N   UNL     1      -4.488 -14.461  -1.621  1.00  0.00    -0.354 N 
ATOM     48  N   UNL     1      -1.839 -14.269  -0.384  1.00  0.00    -0.248 NA
ATOM     49  C   UNL     1      -0.326 -14.907   1.275  1.00  0.00     0.031 C 
ATOM     50  C   UNL     1      -5.866 -16.055  -0.914  1.00  0.00     0.029 A 
ATOM     51  C   UNL     1      -4.617 -15.493  -0.705  1.00  0.00     0.049 A 
ATOM     52  H   UNL     1      -3.697 -13.881  -1.712  1.00  0.00     0.167 HD
ATOM     53  C   UNL     1      -2.394 -15.293   0.370  1.00  0.00     0.074 A 
ATOM     54  C   UNL     1      -1.402 -15.676   1.351  1.00  0.00     0.031 C 
ATOM     55  C   UNL     1      -3.619 -15.863   0.265  1.00  0.00     0.037 A 
BRANCH  42  56
ATOM     56  C   UNL     1      -7.217 -13.351  -4.062  1.00  0.00     0.064 A 
ATOM     57  C   UNL     1      -7.407 -13.795  -5.378  1.00  0.00     0.173 A 
ATOM     58  C   UNL     1      -8.350 -12.973  -3.325  1.00  0.00     0.173 A 
ATOM     59  F   UNL     1      -6.356 -14.161  -6.126  1.00  0.00    -0.203 F 
ATOM     60  C   UNL     1      -8.682 -13.854  -5.936  1.00  0.00     0.198 A 
ATOM     61  C   UNL     1      -9.625 -13.058  -3.877  1.00  0.00     0.198 A 
ATOM     62  F   UNL     1      -8.223 -12.547  -2.059  1.00  0.00    -0.203 F 
ATOM     63  F   UNL     1      -8.839 -14.260  -7.204  1.00  0.00    -0.200 F 
ATOM     64  C   UNL     1      -9.790 -13.497  -5.182  1.00  0.00     0.200 A 
ATOM     65  F   UNL     1     -10.696 -12.728  -3.141  1.00  0.00    -0.200 F 
ATOM     66  F   UNL     1     -11.018 -13.578  -5.713  1.00  0.00    -0.200 F 
ENDBRANCH  42  56
BRANCH  43  67
ATOM     67  C   UNL     1       1.698 -12.976   0.420  1.00  0.00     0.064 A 
ATOM     68  C   UNL     1       2.613 -14.038   0.409  1.00  0.00     0.173 A 
ATOM     69  C   UNL     1       2.026 -11.843   1.179  1.00  0.00     0.173 A 
ATOM     70  F   UNL     1       2.337 -15.153  -0.285  1.00  0.00    -0.203 F 
ATOM     71  C   UNL     1       3.787 -13.986   1.158  1.00  0.00     0.198 A 
ATOM     72  C   UNL     1       3.217 -11.777   1.899  1.00  0.00     0.198 A 
ATOM     73  F   UNL     1       1.190 -10.795   1.220  1.00  0.00    -0.203 F 
ATOM     74  F   UNL     1       4.610 -15.043   1.183  1.00  0.00    -0.200 F 
ATOM     75  C   UNL     1       4.089 -12.854   1.900  1.00  0.00     0.200 A 
ATOM     76  F   UNL     1       3.512 -10.675   2.601  1.00  0.00    -0.200 F 
ATOM     77  F   UNL     1       5.215 -12.807   2.625  1.00  0.00    -0.200 F 
ENDBRANCH  43  67
BRANCH  55  78
ATOM     78  C   UNL     1      -3.948 -16.970   1.223  1.00  0.00     0.064 A 
ATOM     79  C   UNL     1      -4.170 -16.719   2.585  1.00  0.00     0.173 A 
ATOM     80  C   UNL     1      -4.077 -18.291   0.769  1.00  0.00     0.173 A 
ATOM     81  F   UNL     1      -4.042 -15.476   3.072  1.00  0.00    -0.203 F 
ATOM     82  C   UNL     1      -4.484 -17.754   3.462  1.00  0.00     0.198 A 
ATOM     83  C   UNL     1      -4.424 -19.318   1.642  1.00  0.00     0.198 A 
ATOM     84  F   UNL     1      -3.881 -18.584  -0.525  1.00  0.00    -0.203 F 
ATOM     85  F   UNL     1      -4.640 -17.498   4.768  1.00  0.00    -0.200 F 
ATOM     86  C   UNL     1      -4.619 -19.051   2.988  1.00  0.00     0.200 A 
ATOM     87  F   UNL     1      -4.569 -20.568   1.180  1.00  0.00    -0.200 F 
ATOM     88  F   UNL     1      -4.929 -20.044   3.832  1.00  0.00    -0.200 F 
ENDBRANCH  55  78
ENDBRANCH  29  30
ENDBRANCH  21  24
ENDBRANCH  19  20
ENDBRANCH  18  19
ENDBRANCH  17  18
ENDBRANCH   1  17
TORSDOF 15
