REMARK SMILES C[C@@H]1CN(C(=O)Nc2ccc(O)c(C(=O)NCCCCCCNC(=O)c3ccc(-c4c5nc(c(-c6c(F)c(F)c(F)c(F)c6F)c6ccc([nH]6)c(-c6c(F)c(F)c(F)c(F)c6F)c6nc(c(-c7c(F)c(F)c(F)c(F)c7F)c7ccc4[nH]7)C=C6)C=C5)cc3)c2)C[C@@H]1C
REMARK SMILES IDX 19 1 18 2 17 3 16 4 14 5 15 6 13 8 8 9 9 10 89 11 10 12
REMARK SMILES IDX 11 13 7 14 5 15 6 16 4 18 1 19 2 20 3 21 91 22 90 23 92 24
REMARK SMILES IDX 12 25 20 27 21 28 22 29 23 30 24 31 25 33 26 34 27 35 88 36
REMARK SMILES IDX 28 37 87 38 29 39 30 40 31 41 81 42 32 43 86 44 80 45 82 46
REMARK SMILES IDX 33 47 85 48 79 49 78 50 34 52 66 53 46 54 65 55 47 56 50 57
REMARK SMILES IDX 64 58 83 59 48 60 49 61 63 63 84 64 51 65 35 66 36 67 44 68
REMARK SMILES IDX 37 69 38 70 42 71 45 72 39 73 40 74 43 75 41 76 67 77 68 78
REMARK SMILES IDX 76 79 69 80 70 81 74 82 77 83 71 84 72 85 75 86 73 87 52 88
REMARK SMILES IDX 53 89 61 90 54 91 55 92 59 93 62 94 56 95 57 96 60 97 58 98
REMARK H PARENT 16 7 7 17 12 26 23 32 82 51 50 62
REMARK Flexibility Score: inf
ROOT
ATOM      1  C   UNL     1       4.292   8.484   2.002  1.00  0.00     0.002 C 
ENDROOT
BRANCH   1   2
ATOM      2  C   UNL     1       3.330   7.313   2.228  1.00  0.00     0.021 C 
BRANCH   2   3
ATOM      3  C   UNL     1       3.824   5.976   1.665  1.00  0.00     0.116 C 
BRANCH   3   4
ATOM      4  N   UNL     1       4.752   5.362   2.587  1.00  0.00    -0.352 N 
ATOM      5  C   UNL     1       4.590   4.415   3.561  1.00  0.00     0.255 C 
ATOM      6  O   UNL     1       5.589   4.141   4.233  1.00  0.00    -0.269 OA
ATOM      7  H   UNL     1       5.677   5.688   2.498  1.00  0.00     0.163 HD
BRANCH   5   8
ATOM      8  C   UNL     1       3.346   3.626   3.803  1.00  0.00     0.083 A 
ATOM      9  C   UNL     1       2.539   1.399   4.409  1.00  0.00     0.043 A 
ATOM     10  C   UNL     1       1.232   1.868   4.430  1.00  0.00     0.030 A 
ATOM     11  C   UNL     1       3.588   2.287   4.170  1.00  0.00     0.044 A 
ATOM     12  C   UNL     1       0.966   3.189   4.084  1.00  0.00     0.049 A 
ATOM     13  C   UNL     1       2.014   4.058   3.753  1.00  0.00     0.128 A 
BRANCH   9  14
ATOM     14  N   UNL     1       2.851   0.059   4.643  1.00  0.00    -0.308 N 
ATOM     15  C   UNL     1       2.185  -1.086   4.326  1.00  0.00     0.321 C 
ATOM     16  O   UNL     1       2.409  -2.085   5.012  1.00  0.00    -0.248 OA
ATOM     17  H   UNL     1       3.700  -0.084   5.121  1.00  0.00     0.171 HD
BRANCH  15  18
ATOM     18  N   UNL     1       1.423  -1.149   3.183  1.00  0.00    -0.324 N 
ATOM     19  C   UNL     1       0.863  -0.274  -0.378  1.00  0.00     0.010 C 
ATOM     20  C   UNL     1       0.553  -0.876   0.982  1.00  0.00     0.010 C 
ATOM     21  C   UNL     1       1.293  -0.163   2.114  1.00  0.00     0.125 C 
ATOM     22  C   UNL     1       0.924  -2.349   1.198  1.00  0.00     0.010 C 
ATOM     23  C   UNL     1       0.919  -2.441   2.731  1.00  0.00     0.125 C 
ATOM     24  C   UNL     1       2.285  -2.740   0.619  1.00  0.00     0.010 C 
ENDBRANCH  15  18
ENDBRANCH   9  14
BRANCH  13  25
ATOM     25  O   UNL     1       1.664   5.333   3.427  1.00  0.00    -0.507 OA
ATOM     26  H   UNL     1       0.761   5.580   3.405  1.00  0.00     0.293 HD
ENDBRANCH  13  25
ENDBRANCH   5   8
ENDBRANCH   3   4
ENDBRANCH   2   3
ENDBRANCH   1   2
BRANCH   1  27
ATOM     27  C   UNL     1       4.458   8.909   0.541  1.00  0.00     0.002 C 
BRANCH  27  28
ATOM     28  C   UNL     1       3.155   9.222  -0.200  1.00  0.00     0.021 C 
BRANCH  28  29
ATOM     29  C   UNL     1       2.312  10.325   0.434  1.00  0.00     0.116 C 
BRANCH  29  30
ATOM     30  N   UNL     1       2.987  11.613   0.391  1.00  0.00    -0.352 N 
ATOM     31  C   UNL     1       2.585  12.788  -0.192  1.00  0.00     0.251 C 
ATOM     32  H   UNL     1       3.860  11.646   0.845  1.00  0.00     0.163 HD
ATOM     33  O   UNL     1       3.377  13.713  -0.334  1.00  0.00    -0.269 OA
BRANCH  31  34
ATOM     34  C   UNL     1       1.190  12.939  -0.660  1.00  0.00     0.039 A 
ATOM     35  C   UNL     1       0.953  13.527  -1.905  1.00  0.00     0.014 A 
ATOM     36  C   UNL     1       0.120  12.529   0.141  1.00  0.00     0.014 A 
ATOM     37  C   UNL     1      -0.357  13.660  -2.369  1.00  0.00     0.010 A 
ATOM     38  C   UNL     1      -1.179  12.600  -0.351  1.00  0.00     0.010 A 
ATOM     39  C   UNL     1      -1.431  13.174  -1.606  1.00  0.00    -0.014 A 
BRANCH  39  40
ATOM     40  C   UNL     1      -2.828  13.266  -2.098  1.00  0.00     0.031 A 
ATOM     41  C   UNL     1      -3.824  14.132  -1.381  1.00  0.00     0.074 A 
ATOM     42  C   UNL     1      -3.215  12.518  -3.148  1.00  0.00     0.049 A 
ATOM     43  N   UNL     1      -5.101  14.298  -1.617  1.00  0.00    -0.248 NA
ATOM     44  C   UNL     1      -3.324  14.891  -0.225  1.00  0.00     0.031 C 
ATOM     45  C   UNL     1      -2.350  11.609  -3.900  1.00  0.00     0.029 A 
ATOM     46  N   UNL     1      -4.437  12.399  -3.760  1.00  0.00    -0.354 N 
ATOM     47  C   UNL     1      -5.559  15.160  -0.630  1.00  0.00     0.074 A 
ATOM     48  C   UNL     1      -4.436  15.442   0.238  1.00  0.00     0.031 C 
ATOM     49  C   UNL     1      -3.061  11.049  -4.892  1.00  0.00     0.029 A 
ATOM     50  C   UNL     1      -4.437  11.532  -4.823  1.00  0.00     0.049 A 
ATOM     51  H   UNL     1      -5.238  12.890  -3.464  1.00  0.00     0.167 HD
ATOM     52  C   UNL     1      -6.798  15.685  -0.473  1.00  0.00     0.037 A 
ATOM     53  C   UNL     1      -5.436  11.169  -5.650  1.00  0.00     0.037 A 
ATOM     54  C   UNL     1      -7.903  15.424  -1.358  1.00  0.00     0.049 A 
ATOM     55  C   UNL     1      -6.804  11.758  -5.452  1.00  0.00     0.074 A 
ATOM     56  C   UNL     1      -9.176  15.967  -1.335  1.00  0.00     0.029 A 
ATOM     57  N   UNL     1      -7.866  14.537  -2.425  1.00  0.00    -0.354 N 
ATOM     58  N   UNL     1      -7.210  12.628  -4.559  1.00  0.00    -0.248 NA
ATOM     59  C   UNL     1      -7.854  11.314  -6.379  1.00  0.00     0.031 C 
ATOM     60  C   UNL     1      -9.923  15.373  -2.358  1.00  0.00     0.029 A 
ATOM     61  C   UNL     1      -9.103  14.496  -3.050  1.00  0.00     0.049 A 
ATOM     62  H   UNL     1      -7.078  14.015  -2.698  1.00  0.00     0.167 HD
ATOM     63  C   UNL     1      -8.551  12.860  -4.833  1.00  0.00     0.074 A 
ATOM     64  C   UNL     1      -8.888  12.043  -5.981  1.00  0.00     0.031 C 
ATOM     65  C   UNL     1      -9.422  13.678  -4.193  1.00  0.00     0.037 A 
BRANCH  52  66
ATOM     66  C   UNL     1      -7.020  16.586   0.707  1.00  0.00     0.064 A 
ATOM     67  C   UNL     1      -6.427  17.856   0.790  1.00  0.00     0.173 A 
ATOM     68  C   UNL     1      -7.840  16.177   1.770  1.00  0.00     0.173 A 
ATOM     69  F   UNL     1      -5.625  18.292  -0.193  1.00  0.00    -0.203 F 
ATOM     70  C   UNL     1      -6.611  18.662   1.911  1.00  0.00     0.198 A 
ATOM     71  C   UNL     1      -8.048  16.999   2.874  1.00  0.00     0.198 A 
ATOM     72  F   UNL     1      -8.437  14.976   1.740  1.00  0.00    -0.203 F 
ATOM     73  F   UNL     1      -5.982  19.842   1.996  1.00  0.00    -0.200 F 
ATOM     74  C   UNL     1      -7.424  18.235   2.950  1.00  0.00     0.200 A 
ATOM     75  F   UNL     1      -8.844  16.590   3.872  1.00  0.00    -0.200 F 
ATOM     76  F   UNL     1      -7.597  19.010   4.029  1.00  0.00    -0.200 F 
ENDBRANCH  52  66
BRANCH  53  77
ATOM     77  C   UNL     1      -5.159  10.235  -6.771  1.00  0.00     0.064 A 
ATOM     78  C   UNL     1      -5.135  10.699  -8.093  1.00  0.00     0.173 A 
ATOM     79  C   UNL     1      -4.892   8.877  -6.548  1.00  0.00     0.173 A 
ATOM     80  F   UNL     1      -5.404  11.987  -8.355  1.00  0.00    -0.203 F 
ATOM     81  C   UNL     1      -4.862   9.838  -9.153  1.00  0.00     0.198 A 
ATOM     82  C   UNL     1      -4.596   8.021  -7.607  1.00  0.00     0.198 A 
ATOM     83  F   UNL     1      -4.899   8.386  -5.300  1.00  0.00    -0.203 F 
ATOM     84  F   UNL     1      -4.874  10.301 -10.410  1.00  0.00    -0.200 F 
ATOM     85  C   UNL     1      -4.585   8.501  -8.909  1.00  0.00     0.200 A 
ATOM     86  F   UNL     1      -4.315   6.733  -7.366  1.00  0.00    -0.200 F 
ATOM     87  F   UNL     1      -4.311   7.675  -9.927  1.00  0.00    -0.200 F 
ENDBRANCH  53  77
BRANCH  65  88
ATOM     88  C   UNL     1     -10.818  13.754  -4.739  1.00  0.00     0.064 A 
ATOM     89  C   UNL     1     -11.728  12.699  -4.580  1.00  0.00     0.173 A 
ATOM     90  C   UNL     1     -11.261  14.912  -5.395  1.00  0.00     0.173 A 
ATOM     91  F   UNL     1     -11.347  11.564  -3.975  1.00  0.00    -0.203 F 
ATOM     92  C   UNL     1     -13.024  12.792  -5.080  1.00  0.00     0.198 A 
ATOM     93  C   UNL     1     -12.566  15.013  -5.868  1.00  0.00     0.198 A 
ATOM     94  F   UNL     1     -10.430  15.951  -5.568  1.00  0.00    -0.203 F 
ATOM     95  F   UNL     1     -13.864  11.754  -4.958  1.00  0.00    -0.200 F 
ATOM     96  C   UNL     1     -13.444  13.951  -5.716  1.00  0.00     0.200 A 
ATOM     97  F   UNL     1     -12.973  16.138  -6.472  1.00  0.00    -0.200 F 
ATOM     98  F   UNL     1     -14.694  14.041  -6.191  1.00  0.00    -0.200 F 
ENDBRANCH  65  88
ENDBRANCH  39  40
ENDBRANCH  31  34
ENDBRANCH  29  30
ENDBRANCH  28  29
ENDBRANCH  27  28
ENDBRANCH   1  27
TORSDOF 16
