REMARK SMILES O=C(NCCCCCCNC(=O)C1([C@H]2CS(=O)(=O)C[C@H]2O)CCCC1)c1ccc(-c2c3nc(c(-c4c(F)c(F)c(F)c(F)c4F)c4ccc([nH]4)c(-c4c(F)c(F)c(F)c(F)c4F)c4nc(c(-c5c(F)c(F)c(F)c(F)c5F)c5ccc2[nH]5)C=C4)C=C3)cc1
REMARK SMILES IDX 6 1 5 2 4 3 3 4 1 5 2 6 26 8 27 9 88 10 28 11 87 12 29 13
REMARK SMILES IDX 30 14 31 15 81 16 32 17 86 18 80 19 82 20 33 21 85 22 79 23
REMARK SMILES IDX 78 24 34 26 66 27 46 28 65 29 47 30 50 31 64 32 83 33 48 34
REMARK SMILES IDX 49 35 63 37 84 38 51 39 35 40 36 41 44 42 37 43 38 44 42 45
REMARK SMILES IDX 45 46 39 47 40 48 43 49 41 50 67 51 68 52 76 53 69 54 70 55
REMARK SMILES IDX 74 56 77 57 71 58 72 59 75 60 73 61 52 62 53 63 61 64 54 65
REMARK SMILES IDX 55 66 59 67 62 68 56 69 57 70 60 71 58 72 7 73 8 74 9 75
REMARK SMILES IDX 10 76 11 77 12 79 13 80 22 81 25 82 23 83 24 84 14 85 15 86
REMARK SMILES IDX 20 87 16 88 19 89 17 90 18 91 21 92
REMARK H PARENT 3 7 82 25 50 36 10 78 21 93
REMARK Flexibility Score: inf
ROOT
ATOM      1  C   UNL     1       4.996   1.782  12.054  1.00  0.00     0.002 C 
ENDROOT
BRANCH   1   2
ATOM      2  C   UNL     1       5.802   0.996  13.088  1.00  0.00     0.021 C 
BRANCH   2   3
ATOM      3  C   UNL     1       5.990   1.752  14.396  1.00  0.00     0.116 C 
BRANCH   3   4
ATOM      4  N   UNL     1       4.721   1.911  15.088  1.00  0.00    -0.352 N 
ATOM      5  O   UNL     1       3.161   1.342  16.619  1.00  0.00    -0.269 OA
ATOM      6  C   UNL     1       4.341   1.379  16.292  1.00  0.00     0.251 C 
ATOM      7  H   UNL     1       4.052   2.473  14.635  1.00  0.00     0.163 HD
BRANCH   6   8
ATOM      8  C   UNL     1       5.383   0.857  17.196  1.00  0.00     0.039 A 
ATOM      9  C   UNL     1       6.553   1.594  17.403  1.00  0.00     0.014 A 
ATOM     10  C   UNL     1       5.179  -0.356  17.856  1.00  0.00     0.014 A 
ATOM     11  C   UNL     1       7.563   1.075  18.198  1.00  0.00     0.010 A 
ATOM     12  C   UNL     1       6.157  -0.833  18.729  1.00  0.00     0.010 A 
ATOM     13  C   UNL     1       7.354  -0.118  18.906  1.00  0.00    -0.014 A 
BRANCH  13  14
ATOM     14  C   UNL     1       8.332  -0.519  19.942  1.00  0.00     0.031 A 
ATOM     15  C   UNL     1       9.121  -1.786  19.823  1.00  0.00     0.074 A 
ATOM     16  C   UNL     1       8.472   0.285  21.015  1.00  0.00     0.049 A 
ATOM     17  N   UNL     1       9.971  -2.305  20.671  1.00  0.00    -0.248 NA
ATOM     18  C   UNL     1       8.931  -2.581  18.600  1.00  0.00     0.031 C 
ATOM     19  C   UNL     1       7.736   1.535  21.231  1.00  0.00     0.029 A 
ATOM     20  N   UNL     1       9.268   0.177  22.125  1.00  0.00    -0.354 N 
ATOM     21  C   UNL     1      10.399  -3.495  20.101  1.00  0.00     0.074 A 
ATOM     22  C   UNL     1       9.708  -3.631  18.837  1.00  0.00     0.031 C 
ATOM     23  C   UNL     1       8.127   2.085  22.388  1.00  0.00     0.029 A 
ATOM     24  C   UNL     1       9.079   1.191  23.032  1.00  0.00     0.049 A 
ATOM     25  H   UNL     1       9.912  -0.556  22.259  1.00  0.00     0.167 HD
ATOM     26  C   UNL     1      11.287  -4.387  20.601  1.00  0.00     0.037 A 
ATOM     27  C   UNL     1       9.579   1.359  24.270  1.00  0.00     0.037 A 
ATOM     28  C   UNL     1      11.977  -4.221  21.856  1.00  0.00     0.049 A 
ATOM     29  C   UNL     1      10.526   0.326  24.808  1.00  0.00     0.074 A 
ATOM     30  C   UNL     1      12.956  -5.027  22.411  1.00  0.00     0.029 A 
ATOM     31  N   UNL     1      11.746  -3.193  22.758  1.00  0.00    -0.354 N 
ATOM     32  N   UNL     1      10.985  -0.756  24.227  1.00  0.00    -0.248 NA
ATOM     33  C   UNL     1      11.019   0.529  26.176  1.00  0.00     0.031 C 
ATOM     34  C   UNL     1      13.263  -4.529  23.680  1.00  0.00     0.029 A 
ATOM     35  C   UNL     1      12.526  -3.375  23.890  1.00  0.00     0.049 A 
ATOM     36  H   UNL     1      11.122  -2.445  22.616  1.00  0.00     0.167 HD
ATOM     37  C   UNL     1      11.829  -1.354  25.150  1.00  0.00     0.074 A 
ATOM     38  C   UNL     1      11.842  -0.499  26.319  1.00  0.00     0.031 C 
ATOM     39  C   UNL     1      12.524  -2.512  25.044  1.00  0.00     0.037 A 
BRANCH  26  40
ATOM     40  C   UNL     1      11.556  -5.640  19.821  1.00  0.00     0.064 A 
ATOM     41  C   UNL     1      12.298  -5.631  18.632  1.00  0.00     0.173 A 
ATOM     42  C   UNL     1      11.148  -6.884  20.329  1.00  0.00     0.173 A 
ATOM     43  F   UNL     1      12.707  -4.469  18.099  1.00  0.00    -0.203 F 
ATOM     44  C   UNL     1      12.614  -6.819  17.976  1.00  0.00     0.198 A 
ATOM     45  C   UNL     1      11.488  -8.070  19.686  1.00  0.00     0.198 A 
ATOM     46  F   UNL     1      10.441  -6.950  21.468  1.00  0.00    -0.203 F 
ATOM     47  F   UNL     1      13.304  -6.785  16.827  1.00  0.00    -0.200 F 
ATOM     48  C   UNL     1      12.220  -8.037  18.509  1.00  0.00     0.200 A 
ATOM     49  F   UNL     1      11.120  -9.247  20.213  1.00  0.00    -0.200 F 
ATOM     50  F   UNL     1      12.544  -9.180  17.888  1.00  0.00    -0.200 F 
ENDBRANCH  26  40
BRANCH  27  51
ATOM     51  C   UNL     1       9.149   2.518  25.096  1.00  0.00     0.064 A 
ATOM     52  C   UNL     1      10.058   3.510  25.482  1.00  0.00     0.173 A 
ATOM     53  C   UNL     1       7.821   2.644  25.534  1.00  0.00     0.173 A 
ATOM     54  F   UNL     1      11.342   3.427  25.102  1.00  0.00    -0.203 F 
ATOM     55  C   UNL     1       9.665   4.567  26.301  1.00  0.00     0.198 A 
ATOM     56  C   UNL     1       7.420   3.721  26.320  1.00  0.00     0.198 A 
ATOM     57  F   UNL     1       6.907   1.726  25.187  1.00  0.00    -0.203 F 
ATOM     58  F   UNL     1      10.569   5.468  26.707  1.00  0.00    -0.200 F 
ATOM     59  C   UNL     1       8.345   4.674  26.715  1.00  0.00     0.200 A 
ATOM     60  F   UNL     1       6.139   3.831  26.699  1.00  0.00    -0.200 F 
ATOM     61  F   UNL     1       7.968   5.689  27.503  1.00  0.00    -0.200 F 
ENDBRANCH  27  51
BRANCH  39  62
ATOM     62  C   UNL     1      13.367  -2.914  26.217  1.00  0.00     0.064 A 
ATOM     63  C   UNL     1      12.790  -3.368  27.412  1.00  0.00     0.173 A 
ATOM     64  C   UNL     1      14.767  -2.893  26.128  1.00  0.00     0.173 A 
ATOM     65  F   UNL     1      11.456  -3.387  27.553  1.00  0.00    -0.203 F 
ATOM     66  C   UNL     1      13.585  -3.769  28.482  1.00  0.00     0.198 A 
ATOM     67  C   UNL     1      15.558  -3.327  27.187  1.00  0.00     0.198 A 
ATOM     68  F   UNL     1      15.367  -2.471  25.005  1.00  0.00    -0.203 F 
ATOM     69  F   UNL     1      13.013  -4.155  29.631  1.00  0.00    -0.200 F 
ATOM     70  C   UNL     1      14.967  -3.758  28.365  1.00  0.00     0.200 A 
ATOM     71  F   UNL     1      16.893  -3.332  27.066  1.00  0.00    -0.200 F 
ATOM     72  F   UNL     1      15.730  -4.160  29.390  1.00  0.00    -0.200 F 
ENDBRANCH  39  62
ENDBRANCH  13  14
ENDBRANCH   6   8
ENDBRANCH   3   4
ENDBRANCH   2   3
ENDBRANCH   1   2
BRANCH   1  73
ATOM     73  C   UNL     1       5.642   3.106  11.632  1.00  0.00     0.002 C 
BRANCH  73  74
ATOM     74  C   UNL     1       7.097   2.973  11.170  1.00  0.00     0.021 C 
BRANCH  74  75
ATOM     75  C   UNL     1       7.253   2.078   9.935  1.00  0.00     0.116 C 
BRANCH  75  76
ATOM     76  N   UNL     1       6.914   2.837   8.755  1.00  0.00    -0.356 N 
ATOM     77  C   UNL     1       7.661   3.622   7.943  1.00  0.00     0.226 C 
ATOM     78  H   UNL     1       5.967   2.773   8.493  1.00  0.00     0.163 HD
ATOM     79  O   UNL     1       7.009   4.311   7.149  1.00  0.00    -0.274 OA
BRANCH  77  80
ATOM     80  C   UNL     1       9.223   3.592   7.878  1.00  0.00     0.055 C 
ATOM     81  C   UNL     1       9.981   3.542   9.214  1.00  0.00     0.017 C 
ATOM     82  C   UNL     1       9.556   2.237   7.195  1.00  0.00     0.017 C 
ATOM     83  C   UNL     1      11.094   2.514   9.077  1.00  0.00     0.001 C 
ATOM     84  C   UNL     1      10.688   1.570   7.965  1.00  0.00     0.001 C 
BRANCH  80  85
ATOM     85  C   UNL     1       9.650   4.839   6.990  1.00  0.00     0.049 C 
ATOM     86  C   UNL     1       9.167   6.198   7.556  1.00  0.00     0.144 C 
ATOM     87  C   UNL     1      11.129   5.081   6.614  1.00  0.00     0.134 C 
ATOM     88  S   UNL     1      10.577   7.025   8.273  1.00  0.00     0.153 S 
ATOM     89  C   UNL     1      11.815   5.885   7.708  1.00  0.00     0.169 C 
ATOM     90  O   UNL     1      10.774   8.287   7.596  1.00  0.00    -0.229 OA
ATOM     91  O   UNL     1      10.493   6.936   9.719  1.00  0.00    -0.229 OA
BRANCH  87  92
ATOM     92  O   UNL     1      11.803   3.882   6.286  1.00  0.00    -0.392 OA
ATOM     93  H   UNL     1      11.812   3.295   7.058  1.00  0.00     0.211 HD
ENDBRANCH  87  92
ENDBRANCH  80  85
ENDBRANCH  77  80
ENDBRANCH  75  76
ENDBRANCH  74  75
ENDBRANCH  73  74
ENDBRANCH   1  73
TORSDOF 15
