REMARK SMILES CC1=C(C#N)C(=O)N(C)C(=O)/C1=C\Nc1ccc(C(=O)NCCCCCCNC(=O)c2ccc(-c3c4nc(c(-c5c(F)c(F)c(F)c(F)c5F)c5ccc([nH]5)c(-c5c(F)c(F)c(F)c(F)c5F)c5nc(c(-c6c(F)c(F)c(F)c(F)c6F)c6ccc3[nH]6)C=C5)C=C4)cc2)c(O)c1
REMARK SMILES IDX 24 1 23 2 22 3 21 4 19 5 20 6 18 8 15 9 16 10 96 11 17 12
REMARK SMILES IDX 94 13 14 14 13 16 1 17 2 18 3 19 12 20 6 21 10 22 7 23 8 24
REMARK SMILES IDX 11 25 9 26 4 27 5 28 95 29 25 31 26 32 27 33 28 34 29 35
REMARK SMILES IDX 30 37 31 38 32 39 93 40 33 41 92 42 34 43 35 44 36 45 86 46
REMARK SMILES IDX 37 47 91 48 85 49 87 50 38 51 90 52 84 53 83 54 39 56 71 57
REMARK SMILES IDX 51 58 70 59 52 60 55 61 69 62 88 63 53 64 54 65 68 67 89 68
REMARK SMILES IDX 56 69 40 70 41 71 49 72 42 73 43 74 47 75 50 76 44 77 45 78
REMARK SMILES IDX 48 79 46 80 72 81 73 82 81 83 74 84 75 85 79 86 82 87 76 88
REMARK SMILES IDX 77 89 80 90 78 91 57 92 58 93 66 94 59 95 60 96 64 97 67 98
REMARK SMILES IDX 61 99 62 100 65 101 63 102
REMARK H PARENT 21 7 14 15 95 30 28 36 87 55 55 66
REMARK Flexibility Score: inf
ROOT
ATOM      1  C   UNL     1      -0.127  10.005   6.793  1.00  0.00     0.002 C 
ENDROOT
BRANCH   1   2
ATOM      2  C   UNL     1       0.421   8.678   6.257  1.00  0.00     0.021 C 
BRANCH   2   3
ATOM      3  C   UNL     1      -0.594   7.557   6.054  1.00  0.00     0.116 C 
BRANCH   3   4
ATOM      4  N   UNL     1      -1.688   7.905   5.164  1.00  0.00    -0.352 N 
ATOM      5  C   UNL     1      -2.413   7.110   4.309  1.00  0.00     0.255 C 
ATOM      6  O   UNL     1      -3.274   7.621   3.598  1.00  0.00    -0.269 OA
ATOM      7  H   UNL     1      -1.950   8.854   5.175  1.00  0.00     0.163 HD
BRANCH   5   8
ATOM      8  C   UNL     1      -2.148   5.657   4.198  1.00  0.00     0.081 A 
ATOM      9  C   UNL     1      -1.494   2.938   3.795  1.00  0.00     0.042 A 
ATOM     10  C   UNL     1      -1.739   3.782   2.707  1.00  0.00     0.027 A 
ATOM     11  C   UNL     1      -1.639   3.463   5.086  1.00  0.00     0.073 A 
ATOM     12  C   UNL     1      -2.064   5.129   2.904  1.00  0.00     0.020 A 
ATOM     13  C   UNL     1      -2.002   4.795   5.286  1.00  0.00     0.130 A 
BRANCH   9  14
ATOM     14  N   UNL     1      -1.061   1.613   3.664  1.00  0.00    -0.361 N 
ATOM     15  H   UNL     1      -1.176   1.052   4.465  1.00  0.00     0.166 HD
BRANCH  14  16
ATOM     16  C   UNL     1      -0.498   0.978   2.583  1.00  0.00     0.097 C 
ATOM     17  C   UNL     1       0.892  -0.012   0.104  1.00  0.00     0.047 C 
ATOM     18  C   UNL     1       0.506  -0.888   1.279  1.00  0.00    -0.013 C 
ATOM     19  C   UNL     1       0.744  -2.215   1.237  1.00  0.00     0.121 C 
ATOM     20  C   UNL     1      -0.111  -0.311   2.473  1.00  0.00     0.060 C 
ATOM     21  C   UNL     1       0.401  -3.127   2.352  1.00  0.00     0.271 C 
ATOM     22  C   UNL     1      -0.343  -1.193   3.682  1.00  0.00     0.262 C 
ATOM     23  O   UNL     1       0.593  -4.336   2.240  1.00  0.00    -0.268 OA
ATOM     24  N   UNL     1      -0.116  -2.549   3.500  1.00  0.00    -0.277 N 
ATOM     25  O   UNL     1      -0.711  -0.720   4.759  1.00  0.00    -0.269 OA
ATOM     26  C   UNL     1      -0.402  -3.451   4.603  1.00  0.00     0.157 C 
BRANCH  19  27
ATOM     27  C   UNL     1       1.375  -2.856   0.011  1.00  0.00     0.105 C 
ATOM     28  N   UNL     1       1.898  -3.387  -1.005  1.00  0.00    -0.192 NA
ENDBRANCH  19  27
ENDBRANCH  14  16
ENDBRANCH   9  14
BRANCH  13  29
ATOM     29  O   UNL     1      -2.227   5.159   6.585  1.00  0.00    -0.507 OA
ATOM     30  H   UNL     1      -2.475   6.039   6.788  1.00  0.00     0.293 HD
ENDBRANCH  13  29
ENDBRANCH   5   8
ENDBRANCH   3   4
ENDBRANCH   2   3
ENDBRANCH   1   2
BRANCH   1  31
ATOM     31  C   UNL     1      -1.036   9.936   8.023  1.00  0.00     0.002 C 
BRANCH  31  32
ATOM     32  C   UNL     1      -0.486   9.194   9.241  1.00  0.00     0.021 C 
BRANCH  32  33
ATOM     33  C   UNL     1       0.898   9.620   9.711  1.00  0.00     0.116 C 
BRANCH  33  34
ATOM     34  N   UNL     1       0.964  11.013  10.121  1.00  0.00    -0.352 N 
ATOM     35  C   UNL     1       1.506  11.555  11.262  1.00  0.00     0.251 C 
ATOM     36  H   UNL     1       0.565  11.658   9.493  1.00  0.00     0.163 HD
ATOM     37  O   UNL     1       1.384  12.752  11.502  1.00  0.00    -0.269 OA
BRANCH  35  38
ATOM     38  C   UNL     1       2.209  10.680  12.225  1.00  0.00     0.039 A 
ATOM     39  C   UNL     1       1.876  10.763  13.580  1.00  0.00     0.014 A 
ATOM     40  C   UNL     1       3.168   9.762  11.790  1.00  0.00     0.014 A 
ATOM     41  C   UNL     1       2.447   9.869  14.489  1.00  0.00     0.010 A 
ATOM     42  C   UNL     1       3.681   8.826  12.684  1.00  0.00     0.010 A 
ATOM     43  C   UNL     1       3.320   8.865  14.041  1.00  0.00    -0.014 A 
BRANCH  43  44
ATOM     44  C   UNL     1       3.867   7.836  14.962  1.00  0.00     0.031 A 
ATOM     45  C   UNL     1       5.348   7.754  15.199  1.00  0.00     0.074 A 
ATOM     46  C   UNL     1       3.044   6.919  15.508  1.00  0.00     0.049 A 
ATOM     47  N   UNL     1       6.037   6.848  15.846  1.00  0.00    -0.248 NA
ATOM     48  C   UNL     1       6.169   8.819  14.603  1.00  0.00     0.031 C 
ATOM     49  C   UNL     1       1.592   6.872  15.328  1.00  0.00     0.029 A 
ATOM     50  N   UNL     1       3.315   5.835  16.306  1.00  0.00    -0.354 N 
ATOM     51  C   UNL     1       7.368   7.221  15.715  1.00  0.00     0.074 A 
ATOM     52  C   UNL     1       7.395   8.409  14.890  1.00  0.00     0.031 C 
ATOM     53  C   UNL     1       1.099   5.821  16.003  1.00  0.00     0.029 A 
ATOM     54  C   UNL     1       2.202   5.094  16.625  1.00  0.00     0.049 A 
ATOM     55  H   UNL     1       4.220   5.611  16.622  1.00  0.00     0.167 HD
ATOM     56  C   UNL     1       8.465   6.635  16.252  1.00  0.00     0.037 A 
ATOM     57  C   UNL     1       2.087   3.947  17.321  1.00  0.00     0.037 A 
ATOM     58  C   UNL     1       8.429   5.468  17.093  1.00  0.00     0.049 A 
ATOM     59  C   UNL     1       3.325   3.306  17.892  1.00  0.00     0.074 A 
ATOM     60  C   UNL     1       9.480   4.830  17.727  1.00  0.00     0.029 A 
ATOM     61  N   UNL     1       7.279   4.763  17.416  1.00  0.00    -0.354 N 
ATOM     62  N   UNL     1       4.573   3.697  17.808  1.00  0.00    -0.248 NA
ATOM     63  C   UNL     1       3.137   2.066  18.659  1.00  0.00     0.031 C 
ATOM     64  C   UNL     1       8.974   3.710  18.394  1.00  0.00     0.029 A 
ATOM     65  C   UNL     1       7.599   3.684  18.225  1.00  0.00     0.049 A 
ATOM     66  H   UNL     1       6.371   4.994  17.115  1.00  0.00     0.167 HD
ATOM     67  C   UNL     1       5.312   2.778  18.540  1.00  0.00     0.074 A 
ATOM     68  C   UNL     1       4.372   1.809  19.065  1.00  0.00     0.031 C 
ATOM     69  C   UNL     1       6.649   2.743  18.760  1.00  0.00     0.037 A 
BRANCH  56  70
ATOM     70  C   UNL     1       9.801   7.247  15.942  1.00  0.00     0.064 A 
ATOM     71  C   UNL     1      10.179   8.495  16.461  1.00  0.00     0.173 A 
ATOM     72  C   UNL     1      10.732   6.559  15.148  1.00  0.00     0.173 A 
ATOM     73  F   UNL     1       9.322   9.198  17.218  1.00  0.00    -0.203 F 
ATOM     74  C   UNL     1      11.425   9.045  16.172  1.00  0.00     0.198 A 
ATOM     75  C   UNL     1      11.989   7.098  14.888  1.00  0.00     0.198 A 
ATOM     76  F   UNL     1      10.425   5.359  14.632  1.00  0.00    -0.203 F 
ATOM     77  F   UNL     1      11.742  10.261  16.637  1.00  0.00    -0.200 F 
ATOM     78  C   UNL     1      12.331   8.343  15.392  1.00  0.00     0.200 A 
ATOM     79  F   UNL     1      12.870   6.411  14.146  1.00  0.00    -0.200 F 
ATOM     80  F   UNL     1      13.533   8.870  15.121  1.00  0.00    -0.200 F 
ENDBRANCH  56  70
BRANCH  57  81
ATOM     81  C   UNL     1       0.748   3.336  17.532  1.00  0.00     0.064 A 
ATOM     82  C   UNL     1       0.163   3.311  18.805  1.00  0.00     0.173 A 
ATOM     83  C   UNL     1       0.030   2.761  16.473  1.00  0.00     0.173 A 
ATOM     84  F   UNL     1       0.819   3.828  19.854  1.00  0.00    -0.203 F 
ATOM     85  C   UNL     1      -1.080   2.715  19.016  1.00  0.00     0.198 A 
ATOM     86  C   UNL     1      -1.225   2.193  16.679  1.00  0.00     0.198 A 
ATOM     87  F   UNL     1       0.544   2.763  15.234  1.00  0.00    -0.203 F 
ATOM     88  F   UNL     1      -1.594   2.663  20.252  1.00  0.00    -0.200 F 
ATOM     89  C   UNL     1      -1.775   2.162  17.951  1.00  0.00     0.200 A 
ATOM     90  F   UNL     1      -1.900   1.673  15.645  1.00  0.00    -0.200 F 
ATOM     91  F   UNL     1      -2.971   1.593  18.153  1.00  0.00    -0.200 F 
ENDBRANCH  57  81
BRANCH  69  92
ATOM     92  C   UNL     1       7.178   1.660  19.655  1.00  0.00     0.064 A 
ATOM     93  C   UNL     1       7.249   0.323  19.238  1.00  0.00     0.173 A 
ATOM     94  C   UNL     1       7.679   1.981  20.926  1.00  0.00     0.173 A 
ATOM     95  F   UNL     1       6.769  -0.036  18.038  1.00  0.00    -0.203 F 
ATOM     96  C   UNL     1       7.790  -0.656  20.068  1.00  0.00     0.198 A 
ATOM     97  C   UNL     1       8.246   1.005  21.741  1.00  0.00     0.198 A 
ATOM     98  F   UNL     1       7.639   3.246  21.369  1.00  0.00    -0.203 F 
ATOM     99  F   UNL     1       7.814  -1.934  19.665  1.00  0.00    -0.200 F 
ATOM    100  C   UNL     1       8.296  -0.313  21.313  1.00  0.00     0.200 A 
ATOM    101  F   UNL     1       8.748   1.341  22.937  1.00  0.00    -0.200 F 
ATOM    102  F   UNL     1       8.830  -1.254  22.104  1.00  0.00    -0.200 F 
ENDBRANCH  69  92
ENDBRANCH  43  44
ENDBRANCH  35  38
ENDBRANCH  33  34
ENDBRANCH  32  33
ENDBRANCH  31  32
ENDBRANCH   1  31
TORSDOF 17
