REMARK SMILES COc1cc(/C=C2\SC(=S)N([C@H](C)C(=O)NCCCCCCNC(=O)c3ccc(-c4c5nc(c(-c6c(F)c(F)c(F)c(F)c6F)c6ccc([nH]6)c(-c6c(F)c(F)c(F)c(F)c6F)c6nc(c(-c7c(F)c(F)c(F)c(F)c7F)c7ccc4[nH]7)C=C6)C=C5)cc3)C2=O)ccc1OCc1ccc(Cl)cc1Cl
REMARK SMILES IDX 18 1 17 2 16 3 14 4 15 5 12 7 13 8 11 9 6 10 7 11 8 12 89 13
REMARK SMILES IDX 9 14 90 15 10 16 5 17 3 18 4 19 93 20 92 21 91 22 2 23 1 24
REMARK SMILES IDX 94 25 95 26 96 27 97 28 102 29 98 30 101 31 103 32 99 33
REMARK SMILES IDX 100 34 19 35 20 36 21 37 22 38 23 39 24 40 25 42 26 43 27 44
REMARK SMILES IDX 88 45 28 46 87 47 29 48 30 49 31 50 81 51 32 52 86 53 80 54
REMARK SMILES IDX 82 55 33 56 85 57 79 58 78 59 34 61 66 62 46 63 65 64 47 65
REMARK SMILES IDX 50 66 64 67 83 68 48 69 49 70 63 72 84 73 51 74 35 75 36 76
REMARK SMILES IDX 44 77 37 78 38 79 42 80 45 81 39 82 40 83 43 84 41 85 67 86
REMARK SMILES IDX 68 87 76 88 69 89 70 90 74 91 77 92 71 93 72 94 75 95 73 96
REMARK SMILES IDX 52 97 53 98 61 99 54 100 55 101 59 102 62 103 56 104 57 105
REMARK SMILES IDX 60 106 58 107
REMARK H PARENT 16 6 23 41 82 60 50 71
REMARK Flexibility Score: inf
ROOT
ATOM      1  C   UNL     1      -1.831  -7.617   4.158  1.00  0.00     0.021 C 
ENDROOT
BRANCH   1   2
ATOM      2  C   UNL     1      -2.254  -7.301   5.588  1.00  0.00     0.116 C 
BRANCH   2   3
ATOM      3  N   UNL     1      -1.526  -8.095   6.560  1.00  0.00    -0.354 N 
ATOM      4  C   UNL     1      -1.178  -7.805   7.849  1.00  0.00     0.242 C 
ATOM      5  O   UNL     1      -0.682  -8.709   8.528  1.00  0.00    -0.273 OA
ATOM      6  H   UNL     1      -1.238  -8.981   6.241  1.00  0.00     0.163 HD
BRANCH   4   7
ATOM      7  C   UNL     1      -1.317  -6.379   8.431  1.00  0.00     0.178 C 
ATOM      8  C   UNL     1      -0.451  -5.420   7.591  1.00  0.00     0.042 C 
BRANCH   7   9
ATOM      9  N   UNL     1      -2.683  -5.854   8.682  1.00  0.00    -0.281 N 
ATOM     10  C   UNL     1      -6.219  -6.222   8.114  1.00  0.00     0.029 C 
ATOM     11  C   UNL     1      -5.035  -5.793   8.567  1.00  0.00     0.081 C 
ATOM     12  S   UNL     1      -4.663  -4.334   9.374  1.00  0.00    -0.054 SA
ATOM     13  C   UNL     1      -3.809  -6.609   8.405  1.00  0.00     0.266 C 
ATOM     14  C   UNL     1      -2.937  -4.674   9.363  1.00  0.00     0.149 C 
ATOM     15  O   UNL     1      -3.870  -7.793   8.115  1.00  0.00    -0.268 OA
ATOM     16  S   UNL     1      -1.866  -3.635  10.113  1.00  0.00    -0.052 S 
BRANCH  10  17
ATOM     17  C   UNL     1      -7.481  -5.504   8.282  1.00  0.00    -0.020 A 
ATOM     18  C   UNL     1      -9.658  -5.377   9.377  1.00  0.00     0.161 A 
ATOM     19  C   UNL     1      -8.444  -6.040   9.145  1.00  0.00     0.058 A 
ATOM     20  C   UNL     1      -9.896  -4.153   8.739  1.00  0.00     0.161 A 
ATOM     21  C   UNL     1      -8.917  -3.616   7.888  1.00  0.00     0.051 A 
ATOM     22  C   UNL     1      -7.726  -4.293   7.641  1.00  0.00     0.012 A 
BRANCH  18  23
ATOM     23  O   UNL     1     -10.570  -5.861  10.278  1.00  0.00    -0.493 OA
ATOM     24  C   UNL     1     -10.697  -7.283  10.300  1.00  0.00     0.278 C 
ENDBRANCH  18  23
BRANCH  20  25
ATOM     25  O   UNL     1     -11.008  -3.361   8.805  1.00  0.00    -0.485 OA
BRANCH  25  26
ATOM     26  C   UNL     1     -12.281  -3.915   9.136  1.00  0.00     0.267 C 
BRANCH  26  27
ATOM     27  C   UNL     1     -12.783  -5.082   8.302  1.00  0.00     0.008 A 
ATOM     28  C   UNL     1     -13.532  -6.074   8.967  1.00  0.00     0.010 A 
ATOM     29  C   UNL     1     -12.566  -5.232   6.923  1.00  0.00     0.049 A 
ATOM     30  C   UNL     1     -13.950  -7.229   8.306  1.00  0.00     0.021 A 
ATOM     31  C   UNL     1     -12.960  -6.404   6.267  1.00  0.00     0.041 A 
ATOM     32  Cl  UNL     1     -11.863  -3.999   5.938  1.00  0.00    -0.084 Cl
ATOM     33  C   UNL     1     -13.635  -7.401   6.964  1.00  0.00     0.042 A 
ATOM     34  Cl  UNL     1     -14.094  -8.848   6.158  1.00  0.00    -0.084 Cl
ENDBRANCH  26  27
ENDBRANCH  25  26
ENDBRANCH  20  25
ENDBRANCH  10  17
ENDBRANCH   7   9
ENDBRANCH   4   7
ENDBRANCH   2   3
ENDBRANCH   1   2
BRANCH   1  35
ATOM     35  C   UNL     1      -2.239  -9.012   3.670  1.00  0.00     0.002 C 
BRANCH  35  36
ATOM     36  C   UNL     1      -3.741  -9.316   3.707  1.00  0.00     0.002 C 
BRANCH  36  37
ATOM     37  C   UNL     1      -4.638  -8.315   2.974  1.00  0.00     0.021 C 
BRANCH  37  38
ATOM     38  C   UNL     1      -4.266  -8.053   1.518  1.00  0.00     0.116 C 
BRANCH  38  39
ATOM     39  N   UNL     1      -4.315  -9.253   0.699  1.00  0.00    -0.352 N 
ATOM     40  C   UNL     1      -4.886  -9.439  -0.536  1.00  0.00     0.251 C 
ATOM     41  H   UNL     1      -3.876 -10.045   1.084  1.00  0.00     0.163 HD
ATOM     42  O   UNL     1      -4.947 -10.561  -1.030  1.00  0.00    -0.269 OA
BRANCH  40  43
ATOM     43  C   UNL     1      -5.460  -8.286  -1.260  1.00  0.00     0.039 A 
ATOM     44  C   UNL     1      -6.741  -8.405  -1.806  1.00  0.00     0.014 A 
ATOM     45  C   UNL     1      -4.744  -7.094  -1.395  1.00  0.00     0.014 A 
ATOM     46  C   UNL     1      -7.335  -7.303  -2.424  1.00  0.00     0.010 A 
ATOM     47  C   UNL     1      -5.359  -5.979  -1.958  1.00  0.00     0.010 A 
ATOM     48  C   UNL     1      -6.664  -6.072  -2.470  1.00  0.00    -0.014 A 
BRANCH  48  49
ATOM     49  C   UNL     1      -7.312  -4.858  -3.027  1.00  0.00     0.031 A 
ATOM     50  C   UNL     1      -6.767  -4.215  -4.269  1.00  0.00     0.074 A 
ATOM     51  C   UNL     1      -8.337  -4.290  -2.363  1.00  0.00     0.049 A 
ATOM     52  N   UNL     1      -7.116  -3.091  -4.841  1.00  0.00    -0.248 NA
ATOM     53  C   UNL     1      -5.667  -4.919  -4.947  1.00  0.00     0.031 C 
ATOM     54  C   UNL     1      -8.930  -4.802  -1.127  1.00  0.00     0.029 A 
ATOM     55  N   UNL     1      -9.047  -3.145  -2.624  1.00  0.00    -0.354 N 
ATOM     56  C   UNL     1      -6.271  -2.944  -5.932  1.00  0.00     0.074 A 
ATOM     57  C   UNL     1      -5.364  -4.072  -5.920  1.00  0.00     0.031 C 
ATOM     58  C   UNL     1      -9.919  -3.980  -0.741  1.00  0.00     0.029 A 
ATOM     59  C   UNL     1     -10.001  -2.862  -1.676  1.00  0.00     0.049 A 
ATOM     60  H   UNL     1      -8.889  -2.580  -3.414  1.00  0.00     0.167 HD
ATOM     61  C   UNL     1      -6.265  -1.965  -6.868  1.00  0.00     0.037 A 
ATOM     62  C   UNL     1     -10.834  -1.810  -1.564  1.00  0.00     0.037 A 
ATOM     63  C   UNL     1      -7.185  -0.859  -6.889  1.00  0.00     0.049 A 
ATOM     64  C   UNL     1     -10.789  -0.724  -2.604  1.00  0.00     0.074 A 
ATOM     65  C   UNL     1      -7.307   0.144  -7.835  1.00  0.00     0.029 A 
ATOM     66  N   UNL     1      -8.140  -0.607  -5.915  1.00  0.00    -0.354 N 
ATOM     67  N   UNL     1     -10.027  -0.626  -3.666  1.00  0.00    -0.248 NA
ATOM     68  C   UNL     1     -11.717   0.402  -2.426  1.00  0.00     0.031 C 
ATOM     69  C   UNL     1      -8.305   1.028  -7.409  1.00  0.00     0.029 A 
ATOM     70  C   UNL     1      -8.834   0.552  -6.221  1.00  0.00     0.049 A 
ATOM     71  H   UNL     1      -8.301  -1.170  -5.123  1.00  0.00     0.167 HD
ATOM     72  C   UNL     1     -10.393   0.557  -4.291  1.00  0.00     0.074 A 
ATOM     73  C   UNL     1     -11.459   1.136  -3.499  1.00  0.00     0.031 C 
ATOM     74  C   UNL     1      -9.889   1.117  -5.418  1.00  0.00     0.037 A 
BRANCH  61  75
ATOM     75  C   UNL     1      -5.229  -2.045  -7.951  1.00  0.00     0.064 A 
ATOM     76  C   UNL     1      -5.298  -3.014  -8.963  1.00  0.00     0.173 A 
ATOM     77  C   UNL     1      -4.179  -1.117  -8.000  1.00  0.00     0.173 A 
ATOM     78  F   UNL     1      -6.277  -3.931  -8.954  1.00  0.00    -0.203 F 
ATOM     79  C   UNL     1      -4.339  -3.066  -9.971  1.00  0.00     0.198 A 
ATOM     80  C   UNL     1      -3.237  -1.155  -9.025  1.00  0.00     0.198 A 
ATOM     81  F   UNL     1      -4.070  -0.167  -7.059  1.00  0.00    -0.203 F 
ATOM     82  F   UNL     1      -4.400  -4.028 -10.902  1.00  0.00    -0.200 F 
ATOM     83  C   UNL     1      -3.313  -2.133 -10.005  1.00  0.00     0.200 A 
ATOM     84  F   UNL     1      -2.253  -0.246  -9.063  1.00  0.00    -0.200 F 
ATOM     85  F   UNL     1      -2.395  -2.181 -10.980  1.00  0.00    -0.200 F 
ENDBRANCH  61  75
BRANCH  62  86
ATOM     86  C   UNL     1     -11.783  -1.734  -0.424  1.00  0.00     0.064 A 
ATOM     87  C   UNL     1     -13.161  -1.890  -0.625  1.00  0.00     0.173 A 
ATOM     88  C   UNL     1     -11.335  -1.504   0.885  1.00  0.00     0.173 A 
ATOM     89  F   UNL     1     -13.638  -2.088  -1.862  1.00  0.00    -0.203 F 
ATOM     90  C   UNL     1     -14.057  -1.802   0.438  1.00  0.00     0.198 A 
ATOM     91  C   UNL     1     -12.230  -1.441   1.951  1.00  0.00     0.198 A 
ATOM     92  F   UNL     1     -10.025  -1.349   1.130  1.00  0.00    -0.203 F 
ATOM     93  F   UNL     1     -15.373  -1.912   0.212  1.00  0.00    -0.200 F 
ATOM     94  C   UNL     1     -13.591  -1.583   1.726  1.00  0.00     0.200 A 
ATOM     95  F   UNL     1     -11.774  -1.237   3.195  1.00  0.00    -0.200 F 
ATOM     96  F   UNL     1     -14.454  -1.501   2.748  1.00  0.00    -0.200 F 
ENDBRANCH  62  86
BRANCH  74  97
ATOM     97  C   UNL     1     -10.491   2.415  -5.869  1.00  0.00     0.064 A 
ATOM     98  C   UNL     1     -10.226   3.615  -5.194  1.00  0.00     0.173 A 
ATOM     99  C   UNL     1     -11.303   2.466  -7.012  1.00  0.00     0.173 A 
ATOM    100  F   UNL     1      -9.470   3.615  -4.087  1.00  0.00    -0.203 F 
ATOM    101  C   UNL     1     -10.767   4.819  -5.639  1.00  0.00     0.198 A 
ATOM    102  C   UNL     1     -11.819   3.675  -7.469  1.00  0.00     0.198 A 
ATOM    103  F   UNL     1     -11.581   1.345  -7.694  1.00  0.00    -0.203 F 
ATOM    104  F   UNL     1     -10.534   5.949  -4.957  1.00  0.00    -0.200 F 
ATOM    105  C   UNL     1     -11.556   4.849  -6.779  1.00  0.00     0.200 A 
ATOM    106  F   UNL     1     -12.572   3.704  -8.578  1.00  0.00    -0.200 F 
ATOM    107  F   UNL     1     -12.068   6.010  -7.211  1.00  0.00    -0.200 F 
ENDBRANCH  74  97
ENDBRANCH  48  49
ENDBRANCH  40  43
ENDBRANCH  38  39
ENDBRANCH  37  38
ENDBRANCH  36  37
ENDBRANCH  35  36
ENDBRANCH   1  35
TORSDOF 19
