REMARK SMILES CSc1ccc(/C=C2\C(C)=C(CC(=O)NCCCCCCNC(=O)c3ccc(-c4c5nc(c(-c6c(F)c(F)c(F)c(F)c6F)c6ccc([nH]6)c(-c6c(F)c(F)c(F)c(F)c6F)c6nc(c(-c7c(F)c(F)c(F)c(F)c7F)c7ccc4[nH]7)C=C6)C=C5)cc3)c3cc(F)ccc32)cc1
REMARK SMILES IDX 18 1 17 2 16 3 15 4 13 5 14 6 12 8 11 9 7 10 8 11 9 12 94 13
REMARK SMILES IDX 10 14 88 15 93 16 89 17 92 18 90 19 91 20 6 21 3 22 4 23
REMARK SMILES IDX 96 24 5 25 95 26 2 27 1 28 19 29 20 30 21 31 22 32 23 33
REMARK SMILES IDX 24 35 25 36 26 37 87 38 27 39 86 40 28 41 29 42 30 43 80 44
REMARK SMILES IDX 31 45 85 46 79 47 81 48 32 49 84 50 78 51 77 52 33 54 65 55
REMARK SMILES IDX 45 56 64 57 46 58 49 59 63 60 82 61 47 62 48 63 62 65 83 66
REMARK SMILES IDX 50 67 34 68 35 69 43 70 36 71 37 72 41 73 44 74 38 75 39 76
REMARK SMILES IDX 42 77 40 78 66 79 67 80 75 81 68 82 69 83 73 84 76 85 70 86
REMARK SMILES IDX 71 87 74 88 72 89 51 90 52 91 60 92 53 93 54 94 58 95 61 96
REMARK SMILES IDX 55 97 56 98 59 99 57 100
REMARK H PARENT 15 7 22 34 81 53 49 64
REMARK Flexibility Score: inf
ROOT
ATOM      1  C   UNL     1      -3.526  -8.988   4.590  1.00  0.00     0.002 C 
ENDROOT
BRANCH   1   2
ATOM      2  C   UNL     1      -2.318  -8.332   3.921  1.00  0.00     0.021 C 
BRANCH   2   3
ATOM      3  C   UNL     1      -1.000  -9.088   4.073  1.00  0.00     0.116 C 
BRANCH   3   4
ATOM      4  N   UNL     1      -1.017 -10.326   3.326  1.00  0.00    -0.356 N 
ATOM      5  C   UNL     1      -0.579 -10.542   2.052  1.00  0.00     0.224 C 
ATOM      6  O   UNL     1      -0.798 -11.633   1.524  1.00  0.00    -0.275 OA
ATOM      7  H   UNL     1      -1.389 -11.108   3.794  1.00  0.00     0.163 HD
BRANCH   5   8
ATOM      8  C   UNL     1       0.182  -9.445   1.332  1.00  0.00     0.136 C 
BRANCH   8   9
ATOM      9  C   UNL     1      -0.767  -8.404   0.766  1.00  0.00    -0.027 C 
ATOM     10  C   UNL     1       1.254  -5.607   0.301  1.00  0.00     0.017 C 
ATOM     11  C   UNL     1       0.301  -6.534   0.127  1.00  0.00    -0.014 C 
ATOM     12  C   UNL     1      -0.664  -7.085   1.102  1.00  0.00    -0.039 C 
ATOM     13  C   UNL     1       0.002  -7.242  -1.129  1.00  0.00    -0.010 A 
ATOM     14  C   UNL     1      -1.964  -6.266   1.072  1.00  0.00     0.045 C 
ATOM     15  C   UNL     1      -0.755  -8.355  -0.717  1.00  0.00    -0.011 A 
ATOM     16  C   UNL     1      -0.037  -6.785  -2.434  1.00  0.00     0.012 A 
ATOM     17  C   UNL     1      -1.596  -9.024  -1.585  1.00  0.00     0.048 A 
ATOM     18  C   UNL     1      -0.897  -7.446  -3.317  1.00  0.00     0.040 A 
ATOM     19  C   UNL     1      -1.670  -8.538  -2.886  1.00  0.00     0.123 A 
ATOM     20  F   UNL     1      -2.572  -9.065  -3.725  1.00  0.00    -0.207 F 
BRANCH  10  21
ATOM     21  C   UNL     1       1.470  -4.652   1.413  1.00  0.00    -0.025 A 
ATOM     22  C   UNL     1       1.576  -2.095   2.530  1.00  0.00     0.007 A 
ATOM     23  C   UNL     1       0.445  -2.879   2.720  1.00  0.00     0.015 A 
ATOM     24  C   UNL     1       2.732  -2.666   1.999  1.00  0.00     0.015 A 
ATOM     25  C   UNL     1       0.407  -4.162   2.181  1.00  0.00     0.009 A 
ATOM     26  C   UNL     1       2.678  -3.945   1.439  1.00  0.00     0.009 A 
BRANCH  22  27
ATOM     27  S   UNL     1       1.421  -0.323   2.623  1.00  0.00    -0.130 SA
ATOM     28  C   UNL     1       1.178  -0.048   0.835  1.00  0.00     0.091 C 
ENDBRANCH  22  27
ENDBRANCH  10  21
ENDBRANCH   8   9
ENDBRANCH   5   8
ENDBRANCH   3   4
ENDBRANCH   2   3
ENDBRANCH   1   2
BRANCH   1  29
ATOM     29  C   UNL     1      -3.349  -9.319   6.071  1.00  0.00     0.002 C 
BRANCH  29  30
ATOM     30  C   UNL     1      -2.811  -8.174   6.933  1.00  0.00     0.021 C 
BRANCH  30  31
ATOM     31  C   UNL     1      -3.635  -6.895   6.880  1.00  0.00     0.116 C 
BRANCH  31  32
ATOM     32  N   UNL     1      -4.965  -7.087   7.428  1.00  0.00    -0.352 N 
ATOM     33  C   UNL     1      -5.582  -6.409   8.446  1.00  0.00     0.251 C 
ATOM     34  H   UNL     1      -5.496  -7.804   7.011  1.00  0.00     0.163 HD
ATOM     35  O   UNL     1      -6.620  -6.837   8.936  1.00  0.00    -0.269 OA
BRANCH  33  36
ATOM     36  C   UNL     1      -4.989  -5.155   8.958  1.00  0.00     0.039 A 
ATOM     37  C   UNL     1      -4.944  -4.946  10.338  1.00  0.00     0.014 A 
ATOM     38  C   UNL     1      -4.523  -4.171   8.079  1.00  0.00     0.014 A 
ATOM     39  C   UNL     1      -4.415  -3.756  10.841  1.00  0.00     0.010 A 
ATOM     40  C   UNL     1      -3.936  -3.014   8.582  1.00  0.00     0.010 A 
ATOM     41  C   UNL     1      -3.902  -2.785   9.966  1.00  0.00    -0.014 A 
BRANCH  41  42
ATOM     42  C   UNL     1      -3.395  -1.489  10.478  1.00  0.00     0.031 A 
ATOM     43  C   UNL     1      -4.146  -0.224  10.166  1.00  0.00     0.074 A 
ATOM     44  C   UNL     1      -2.251  -1.445  11.186  1.00  0.00     0.049 A 
ATOM     45  N   UNL     1      -3.846   1.015  10.464  1.00  0.00    -0.248 NA
ATOM     46  C   UNL     1      -5.388  -0.369   9.391  1.00  0.00     0.031 C 
ATOM     47  C   UNL     1      -1.418  -2.600  11.521  1.00  0.00     0.029 A 
ATOM     48  N   UNL     1      -1.590  -0.382  11.745  1.00  0.00    -0.354 N 
ATOM     49  C   UNL     1      -4.848   1.792   9.898  1.00  0.00     0.074 A 
ATOM     50  C   UNL     1      -5.737   0.893   9.196  1.00  0.00     0.031 C 
ATOM     51  C   UNL     1      -0.366  -2.185  12.245  1.00  0.00     0.029 A 
ATOM     52  C   UNL     1      -0.437  -0.735  12.402  1.00  0.00     0.049 A 
ATOM     53  H   UNL     1      -1.911   0.547  11.681  1.00  0.00     0.167 HD
ATOM     54  C   UNL     1      -5.024   3.132   9.977  1.00  0.00     0.037 A 
ATOM     55  C   UNL     1       0.456   0.029  13.059  1.00  0.00     0.037 A 
ATOM     56  C   UNL     1      -4.157   4.019  10.705  1.00  0.00     0.049 A 
ATOM     57  C   UNL     1       0.223   1.513  13.152  1.00  0.00     0.074 A 
ATOM     58  C   UNL     1      -4.265   5.388  10.876  1.00  0.00     0.029 A 
ATOM     59  N   UNL     1      -3.022   3.617  11.393  1.00  0.00    -0.354 N 
ATOM     60  N   UNL     1      -0.753   2.232  12.651  1.00  0.00    -0.248 NA
ATOM     61  C   UNL     1       1.210   2.290  13.915  1.00  0.00     0.031 C 
ATOM     62  C   UNL     1      -3.181   5.819  11.649  1.00  0.00     0.029 A 
ATOM     63  C   UNL     1      -2.420   4.712  11.991  1.00  0.00     0.049 A 
ATOM     64  H   UNL     1      -2.693   2.691  11.449  1.00  0.00     0.167 HD
ATOM     65  C   UNL     1      -0.518   3.535  13.066  1.00  0.00     0.074 A 
ATOM     66  C   UNL     1       0.688   3.507  13.868  1.00  0.00     0.031 C 
ATOM     67  C   UNL     1      -1.234   4.656  12.806  1.00  0.00     0.037 A 
BRANCH  54  68
ATOM     68  C   UNL     1      -6.208   3.716   9.263  1.00  0.00     0.064 A 
ATOM     69  C   UNL     1      -7.517   3.506   9.723  1.00  0.00     0.173 A 
ATOM     70  C   UNL     1      -6.033   4.511   8.121  1.00  0.00     0.173 A 
ATOM     71  F   UNL     1      -7.739   2.740  10.802  1.00  0.00    -0.203 F 
ATOM     72  C   UNL     1      -8.609   4.047   9.050  1.00  0.00     0.198 A 
ATOM     73  C   UNL     1      -7.126   5.074   7.466  1.00  0.00     0.198 A 
ATOM     74  F   UNL     1      -4.803   4.746   7.641  1.00  0.00    -0.203 F 
ATOM     75  F   UNL     1      -9.853   3.791   9.479  1.00  0.00    -0.200 F 
ATOM     76  C   UNL     1      -8.412   4.836   7.926  1.00  0.00     0.200 A 
ATOM     77  F   UNL     1      -6.934   5.845   6.386  1.00  0.00    -0.200 F 
ATOM     78  F   UNL     1      -9.464   5.359   7.281  1.00  0.00    -0.200 F 
ENDBRANCH  54  68
BRANCH  55  79
ATOM     79  C   UNL     1       1.629  -0.598  13.718  1.00  0.00     0.064 A 
ATOM     80  C   UNL     1       1.712  -0.670  15.116  1.00  0.00     0.173 A 
ATOM     81  C   UNL     1       2.692  -1.126  12.972  1.00  0.00     0.173 A 
ATOM     82  F   UNL     1       0.728  -0.160  15.871  1.00  0.00    -0.203 F 
ATOM     83  C   UNL     1       2.825  -1.224  15.743  1.00  0.00     0.198 A 
ATOM     84  C   UNL     1       3.793  -1.704  13.600  1.00  0.00     0.198 A 
ATOM     85  F   UNL     1       2.657  -1.087  11.632  1.00  0.00    -0.203 F 
ATOM     86  F   UNL     1       2.900  -1.238  17.081  1.00  0.00    -0.200 F 
ATOM     87  C   UNL     1       3.863  -1.744  14.985  1.00  0.00     0.200 A 
ATOM     88  F   UNL     1       4.790  -2.216  12.865  1.00  0.00    -0.200 F 
ATOM     89  F   UNL     1       4.934  -2.277  15.589  1.00  0.00    -0.200 F 
ENDBRANCH  55  79
BRANCH  67  90
ATOM     90  C   UNL     1      -0.764   5.931  13.440  1.00  0.00     0.064 A 
ATOM     91  C   UNL     1       0.382   6.600  12.988  1.00  0.00     0.173 A 
ATOM     92  C   UNL     1      -1.490   6.504  14.495  1.00  0.00     0.173 A 
ATOM     93  F   UNL     1       1.117   6.083  11.992  1.00  0.00    -0.203 F 
ATOM     94  C   UNL     1       0.801   7.784  13.589  1.00  0.00     0.198 A 
ATOM     95  C   UNL     1      -1.084   7.702  15.075  1.00  0.00     0.198 A 
ATOM     96  F   UNL     1      -2.598   5.905  14.958  1.00  0.00    -0.203 F 
ATOM     97  F   UNL     1       1.926   8.382  13.174  1.00  0.00    -0.200 F 
ATOM     98  C   UNL     1       0.065   8.336  14.627  1.00  0.00     0.200 A 
ATOM     99  F   UNL     1      -1.801   8.240  16.071  1.00  0.00    -0.200 F 
ATOM    100  F   UNL     1       0.469   9.477  15.203  1.00  0.00    -0.200 F 
ENDBRANCH  67  90
ENDBRANCH  41  42
ENDBRANCH  33  36
ENDBRANCH  31  32
ENDBRANCH  30  31
ENDBRANCH  29  30
ENDBRANCH   1  29
TORSDOF 16
