REMARK SMILES CC(C)[NH2+][C@@]1(C(=O)NCCCCCCNC(=O)c2ccc(-c3c4nc(c(-c5c(F)c(F)c(F)c(F)c5F)c5ccc([nH]5)c(-c5c(F)c(F)c(F)c(F)c5F)c5nc(c(-c6c(F)c(F)c(F)c(F)c6F)c6ccc3[nH]6)C=C5)C=C4)cc2)CC[C@@H](Sc2ccncc2)C1
REMARK SMILES IDX 11 1 10 2 9 3 8 4 6 5 7 6 5 8 81 9 91 10 82 11 83 12 4 13
REMARK SMILES IDX 2 16 1 17 3 18 84 19 85 20 86 21 90 22 87 23 89 24 88 25
REMARK SMILES IDX 12 26 13 27 14 28 15 29 16 30 17 32 18 33 19 34 80 35 20 36
REMARK SMILES IDX 79 37 21 38 22 39 23 40 73 41 24 42 78 43 72 44 74 45 25 46
REMARK SMILES IDX 77 47 71 48 70 49 26 51 58 52 38 53 57 54 39 55 42 56 56 57
REMARK SMILES IDX 75 58 40 59 41 60 55 62 76 63 43 64 27 65 28 66 36 67 29 68
REMARK SMILES IDX 30 69 34 70 37 71 31 72 32 73 35 74 33 75 59 76 60 77 68 78
REMARK SMILES IDX 61 79 62 80 66 81 69 82 63 83 64 84 67 85 65 86 44 87 45 88
REMARK SMILES IDX 53 89 46 90 47 91 51 92 54 93 48 94 49 95 52 96 50 97
REMARK H PARENT 8 7 4 14 4 15 15 31 74 50 42 61
REMARK Flexibility Score: inf
ROOT
ATOM      1  C   UNL     1      -3.701   4.958   5.376  1.00  0.00     0.002 C 
ENDROOT
BRANCH   1   2
ATOM      2  C   UNL     1      -3.636   4.696   3.871  1.00  0.00     0.021 C 
BRANCH   2   3
ATOM      3  C   UNL     1      -2.213   4.561   3.339  1.00  0.00     0.116 C 
BRANCH   3   4
ATOM      4  N   UNL     1      -1.754   3.200   3.334  1.00  0.00    -0.351 N 
ATOM      5  C   UNL     1      -1.374   2.361   2.334  1.00  0.00     0.281 C 
ATOM      6  O   UNL     1      -1.064   1.230   2.733  1.00  0.00    -0.268 OA
ATOM      7  H   UNL     1      -1.706   2.795   4.230  1.00  0.00     0.163 HD
BRANCH   5   8
ATOM      8  C   UNL     1      -1.376   2.747   0.790  1.00  0.00     0.176 C 
ATOM      9  C   UNL     1      -0.687   4.064   0.400  1.00  0.00     0.080 C 
ATOM     10  C   UNL     1      -2.836   2.899   0.293  1.00  0.00     0.094 C 
ATOM     11  C   UNL     1      -1.735   5.099   0.006  1.00  0.00     0.022 C 
ATOM     12  C   UNL     1      -3.083   4.383  -0.001  1.00  0.00     0.058 C 
BRANCH   8  13
ATOM     13  N   UNL     1      -0.770   1.615   0.021  1.00  0.00    -0.332 N 
ATOM     14  H   UNL     1      -1.322   0.781   0.221  1.00  0.00     0.347 HD
ATOM     15  H   UNL     1      -0.781   1.928  -0.949  1.00  0.00     0.347 HD
BRANCH  13  16
ATOM     16  C   UNL     1       0.641   1.281   0.287  1.00  0.00     0.176 C 
ATOM     17  C   UNL     1       0.810  -0.218   0.016  1.00  0.00     0.075 C 
ATOM     18  C   UNL     1       1.624   2.050  -0.603  1.00  0.00     0.075 C 
ENDBRANCH  13  16
ENDBRANCH   8  13
BRANCH  12  19
ATOM     19  S   UNL     1      -4.132   4.710  -1.476  1.00  0.00    -0.122 SA
BRANCH  19  20
ATOM     20  C   UNL     1      -2.971   4.504  -2.812  1.00  0.00     0.011 A 
ATOM     21  C   UNL     1      -2.610   3.238  -3.262  1.00  0.00     0.035 A 
ATOM     22  C   UNL     1      -2.423   5.628  -3.430  1.00  0.00     0.035 A 
ATOM     23  C   UNL     1      -1.675   3.148  -4.277  1.00  0.00     0.112 A 
ATOM     24  C   UNL     1      -1.493   5.434  -4.436  1.00  0.00     0.112 A 
ATOM     25  N   UNL     1      -1.098   4.217  -4.864  1.00  0.00    -0.265 NA
ENDBRANCH  19  20
ENDBRANCH  12  19
ENDBRANCH   5   8
ENDBRANCH   3   4
ENDBRANCH   2   3
ENDBRANCH   1   2
BRANCH   1  26
ATOM     26  C   UNL     1      -2.931   6.200   5.847  1.00  0.00     0.002 C 
BRANCH  26  27
ATOM     27  C   UNL     1      -3.271   7.497   5.107  1.00  0.00     0.021 C 
BRANCH  27  28
ATOM     28  C   UNL     1      -4.741   7.897   5.181  1.00  0.00     0.116 C 
BRANCH  28  29
ATOM     29  N   UNL     1      -5.189   8.047   6.557  1.00  0.00    -0.352 N 
ATOM     30  C   UNL     1      -5.628   9.164   7.218  1.00  0.00     0.251 C 
ATOM     31  H   UNL     1      -5.175   7.222   7.094  1.00  0.00     0.163 HD
ATOM     32  O   UNL     1      -5.725   9.163   8.444  1.00  0.00    -0.269 OA
BRANCH  30  33
ATOM     33  C   UNL     1      -5.973  10.377   6.455  1.00  0.00     0.039 A 
ATOM     34  C   UNL     1      -5.510  11.617   6.903  1.00  0.00     0.014 A 
ATOM     35  C   UNL     1      -6.753  10.289   5.298  1.00  0.00     0.014 A 
ATOM     36  C   UNL     1      -5.765  12.761   6.147  1.00  0.00     0.010 A 
ATOM     37  C   UNL     1      -6.948  11.419   4.511  1.00  0.00     0.010 A 
ATOM     38  C   UNL     1      -6.446  12.663   4.923  1.00  0.00    -0.014 A 
BRANCH  38  39
ATOM     39  C   UNL     1      -6.609  13.840   4.035  1.00  0.00     0.031 A 
ATOM     40  C   UNL     1      -7.977  14.374   3.726  1.00  0.00     0.074 A 
ATOM     41  C   UNL     1      -5.522  14.372   3.443  1.00  0.00     0.049 A 
ATOM     42  N   UNL     1      -8.326  15.324   2.897  1.00  0.00    -0.248 NA
ATOM     43  C   UNL     1      -9.106  13.740   4.425  1.00  0.00     0.031 C 
ATOM     44  C   UNL     1      -4.146  13.914   3.638  1.00  0.00     0.029 A 
ATOM     45  N   UNL     1      -5.405  15.401   2.542  1.00  0.00    -0.354 N 
ATOM     46  C   UNL     1      -9.711  15.396   2.967  1.00  0.00     0.074 A 
ATOM     47  C   UNL     1     -10.143  14.361   3.881  1.00  0.00     0.031 C 
ATOM     48  C   UNL     1      -3.322  14.667   2.893  1.00  0.00     0.029 A 
ATOM     49  C   UNL     1      -4.114  15.625   2.129  1.00  0.00     0.049 A 
ATOM     50  H   UNL     1      -6.173  15.928   2.223  1.00  0.00     0.167 HD
ATOM     51  C   UNL     1     -10.542  16.262   2.338  1.00  0.00     0.037 A 
ATOM     52  C   UNL     1      -3.627  16.490   1.220  1.00  0.00     0.037 A 
ATOM     53  C   UNL     1     -10.102  17.295   1.437  1.00  0.00     0.049 A 
ATOM     54  C   UNL     1      -4.579  17.408   0.501  1.00  0.00     0.074 A 
ATOM     55  C   UNL     1     -10.858  18.262   0.798  1.00  0.00     0.029 A 
ATOM     56  N   UNL     1      -8.787  17.488   1.037  1.00  0.00    -0.354 N 
ATOM     57  N   UNL     1      -5.878  17.519   0.630  1.00  0.00    -0.248 NA
ATOM     58  C   UNL     1      -3.995  18.320  -0.493  1.00  0.00     0.031 C 
ATOM     59  C   UNL     1     -10.012  18.998  -0.036  1.00  0.00     0.029 A 
ATOM     60  C   UNL     1      -8.718  18.532   0.127  1.00  0.00     0.049 A 
ATOM     61  H   UNL     1      -8.017  16.961   1.352  1.00  0.00     0.167 HD
ATOM     62  C   UNL     1      -6.266  18.522  -0.248  1.00  0.00     0.074 A 
ATOM     63  C   UNL     1      -5.059  19.005  -0.887  1.00  0.00     0.031 C 
ATOM     64  C   UNL     1      -7.509  18.998  -0.504  1.00  0.00     0.037 A 
BRANCH  51  65
ATOM     65  C   UNL     1     -12.015  16.126   2.596  1.00  0.00     0.064 A 
ATOM     66  C   UNL     1     -12.579  16.439   3.843  1.00  0.00     0.173 A 
ATOM     67  C   UNL     1     -12.883  15.720   1.570  1.00  0.00     0.173 A 
ATOM     68  F   UNL     1     -11.794  16.824   4.861  1.00  0.00    -0.203 F 
ATOM     69  C   UNL     1     -13.949  16.323   4.061  1.00  0.00     0.198 A 
ATOM     70  C   UNL     1     -14.256  15.636   1.782  1.00  0.00     0.198 A 
ATOM     71  F   UNL     1     -12.399  15.414   0.356  1.00  0.00    -0.203 F 
ATOM     72  F   UNL     1     -14.457  16.580   5.274  1.00  0.00    -0.200 F 
ATOM     73  C   UNL     1     -14.787  15.929   3.029  1.00  0.00     0.200 A 
ATOM     74  F   UNL     1     -15.066  15.271   0.779  1.00  0.00    -0.200 F 
ATOM     75  F   UNL     1     -16.107  15.828   3.237  1.00  0.00    -0.200 F 
ENDBRANCH  51  65
BRANCH  52  76
ATOM     76  C   UNL     1      -2.168  16.527   0.934  1.00  0.00     0.064 A 
ATOM     77  C   UNL     1      -1.394  17.642   1.282  1.00  0.00     0.173 A 
ATOM     78  C   UNL     1      -1.520  15.455   0.303  1.00  0.00     0.173 A 
ATOM     79  F   UNL     1      -1.972  18.701   1.869  1.00  0.00    -0.203 F 
ATOM     80  C   UNL     1      -0.033  17.694   0.990  1.00  0.00     0.198 A 
ATOM     81  C   UNL     1      -0.152  15.494   0.041  1.00  0.00     0.198 A 
ATOM     82  F   UNL     1      -2.213  14.361  -0.047  1.00  0.00    -0.203 F 
ATOM     83  F   UNL     1       0.673  18.793   1.289  1.00  0.00    -0.200 F 
ATOM     84  C   UNL     1       0.589  16.617   0.376  1.00  0.00     0.200 A 
ATOM     85  F   UNL     1       0.447  14.444  -0.537  1.00  0.00    -0.200 F 
ATOM     86  F   UNL     1       1.899  16.664   0.099  1.00  0.00    -0.200 F 
ENDBRANCH  52  76
BRANCH  64  87
ATOM     87  C   UNL     1      -7.628  20.107  -1.510  1.00  0.00     0.064 A 
ATOM     88  C   UNL     1      -7.427  19.880  -2.880  1.00  0.00     0.173 A 
ATOM     89  C   UNL     1      -7.995  21.399  -1.106  1.00  0.00     0.173 A 
ATOM     90  F   UNL     1      -7.057  18.666  -3.316  1.00  0.00    -0.203 F 
ATOM     91  C   UNL     1      -7.568  20.911  -3.805  1.00  0.00     0.198 A 
ATOM     92  C   UNL     1      -8.168  22.420  -2.037  1.00  0.00     0.198 A 
ATOM     93  F   UNL     1      -8.205  21.669   0.191  1.00  0.00    -0.203 F 
ATOM     94  F   UNL     1      -7.324  20.682  -5.103  1.00  0.00    -0.200 F 
ATOM     95  C   UNL     1      -7.947  22.177  -3.384  1.00  0.00     0.200 A 
ATOM     96  F   UNL     1      -8.550  23.638  -1.630  1.00  0.00    -0.200 F 
ATOM     97  F   UNL     1      -8.095  23.165  -4.277  1.00  0.00    -0.200 F 
ENDBRANCH  64  87
ENDBRANCH  38  39
ENDBRANCH  30  33
ENDBRANCH  28  29
ENDBRANCH  27  28
ENDBRANCH  26  27
ENDBRANCH   1  26
TORSDOF 17
