REMARK SMILES CC(=O)n1cc2c3c(cccc31)C(=O)C[C@@H]2C(=O)NCCCCCCNC(=O)c1ccc(-c2c3nc(c(-c4c(F)c(F)c(F)c(F)c4F)c4ccc([nH]4)c(-c4c(F)c(F)c(F)c(F)c4F)c4nc(c(-c5c(F)c(F)c(F)c(F)c5F)c5ccc2[nH]5)C=C4)C=C3)cc1
REMARK SMILES IDX 23 1 22 2 21 3 20 4 19 5 17 6 18 7 16 9 4 10 5 11 12 12 6 13
REMARK SMILES IDX 7 14 11 15 8 16 10 17 15 18 9 19 13 20 14 21 2 22 1 23 3 24
REMARK SMILES IDX 24 25 25 26 26 27 27 28 28 30 29 31 30 32 91 33 31 34 90 35
REMARK SMILES IDX 32 36 33 37 34 38 84 39 35 40 89 41 83 42 85 43 36 44 88 45
REMARK SMILES IDX 82 46 81 47 37 49 69 50 49 51 68 52 50 53 53 54 67 55 86 56
REMARK SMILES IDX 51 57 52 58 66 60 87 61 54 62 38 63 39 64 47 65 40 66 41 67
REMARK SMILES IDX 45 68 48 69 42 70 43 71 46 72 44 73 70 74 71 75 79 76 72 77
REMARK SMILES IDX 73 78 77 79 80 80 74 81 75 82 78 83 76 84 55 85 56 86 64 87
REMARK SMILES IDX 57 88 58 89 62 90 65 91 59 92 60 93 63 94 61 95
REMARK H PARENT 19 8 26 29 85 48 53 59
REMARK Flexibility Score: inf
ROOT
ATOM      1  C   UNL     1       5.092   1.087   6.345  1.00  0.00     0.002 C 
ENDROOT
BRANCH   1   2
ATOM      2  C   UNL     1       5.266  -0.314   6.948  1.00  0.00     0.002 C 
BRANCH   2   3
ATOM      3  C   UNL     1       4.045  -1.231   6.834  1.00  0.00     0.021 C 
BRANCH   3   4
ATOM      4  C   UNL     1       3.521  -1.401   5.411  1.00  0.00     0.116 C 
BRANCH   4   5
ATOM      5  N   UNL     1       4.466  -2.128   4.582  1.00  0.00    -0.356 N 
ATOM      6  C   UNL     1       4.295  -3.245   3.817  1.00  0.00     0.228 C 
ATOM      7  O   UNL     1       5.275  -3.672   3.201  1.00  0.00    -0.274 OA
ATOM      8  H   UNL     1       5.377  -1.754   4.569  1.00  0.00     0.163 HD
BRANCH   6   9
ATOM      9  C   UNL     1       2.944  -3.954   3.723  1.00  0.00     0.118 C 
ATOM     10  N   UNL     1       0.611  -1.429   2.237  1.00  0.00    -0.287 N 
ATOM     11  C   UNL     1       1.844  -2.086   2.212  1.00  0.00     0.100 A 
ATOM     12  C   UNL     1      -0.171  -2.042   3.224  1.00  0.00     0.057 A 
ATOM     13  C   UNL     1       1.877  -3.029   3.215  1.00  0.00    -0.008 A 
ATOM     14  C   UNL     1       0.608  -3.031   3.804  1.00  0.00     0.015 A 
ATOM     15  C   UNL     1      -1.494  -1.848   3.659  1.00  0.00     0.027 A 
ATOM     16  C   UNL     1       0.122  -3.836   4.832  1.00  0.00     0.027 A 
ATOM     17  C   UNL     1      -1.988  -2.688   4.675  1.00  0.00     0.003 A 
ATOM     18  C   UNL     1       2.579  -4.626   5.074  1.00  0.00     0.099 C 
ATOM     19  C   UNL     1      -1.194  -3.678   5.260  1.00  0.00     0.012 A 
ATOM     20  C   UNL     1       1.088  -4.803   5.401  1.00  0.00     0.164 C 
ATOM     21  O   UNL     1       0.697  -5.656   6.193  1.00  0.00    -0.294 OA
BRANCH  10  22
ATOM     22  C   UNL     1       0.217  -0.338   1.433  1.00  0.00     0.227 C 
ATOM     23  C   UNL     1       1.060  -0.092   0.218  1.00  0.00     0.115 C 
ATOM     24  O   UNL     1      -0.776   0.317   1.726  1.00  0.00    -0.274 OA
ENDBRANCH  10  22
ENDBRANCH   6   9
ENDBRANCH   4   5
ENDBRANCH   3   4
ENDBRANCH   2   3
ENDBRANCH   1   2
BRANCH   1  25
ATOM     25  C   UNL     1       3.883   1.887   6.852  1.00  0.00     0.021 C 
BRANCH  25  26
ATOM     26  C   UNL     1       3.970   2.233   8.329  1.00  0.00     0.116 C 
BRANCH  26  27
ATOM     27  N   UNL     1       5.066   3.156   8.601  1.00  0.00    -0.352 N 
ATOM     28  C   UNL     1       5.407   3.755   9.793  1.00  0.00     0.251 C 
ATOM     29  H   UNL     1       5.636   3.381   7.831  1.00  0.00     0.163 HD
ATOM     30  O   UNL     1       6.107   4.754   9.818  1.00  0.00    -0.269 OA
BRANCH  28  31
ATOM     31  C   UNL     1       4.929   3.156  11.050  1.00  0.00     0.039 A 
ATOM     32  C   UNL     1       4.525   3.969  12.114  1.00  0.00     0.014 A 
ATOM     33  C   UNL     1       4.937   1.766  11.169  1.00  0.00     0.014 A 
ATOM     34  C   UNL     1       4.090   3.371  13.292  1.00  0.00     0.010 A 
ATOM     35  C   UNL     1       4.403   1.175  12.283  1.00  0.00     0.010 A 
ATOM     36  C   UNL     1       4.037   1.974  13.363  1.00  0.00    -0.014 A 
BRANCH  36  37
ATOM     37  C   UNL     1       3.530   1.303  14.549  1.00  0.00     0.031 A 
ATOM     38  C   UNL     1       2.073   1.485  14.800  1.00  0.00     0.074 A 
ATOM     39  C   UNL     1       4.279   0.373  15.178  1.00  0.00     0.049 A 
ATOM     40  N   UNL     1       1.496   1.954  15.858  1.00  0.00    -0.248 NA
ATOM     41  C   UNL     1       1.141   1.201  13.694  1.00  0.00     0.031 C 
ATOM     42  C   UNL     1       5.609  -0.124  14.803  1.00  0.00     0.029 A 
ATOM     43  N   UNL     1       3.948  -0.430  16.222  1.00  0.00    -0.354 N 
ATOM     44  C   UNL     1       0.125   1.863  15.623  1.00  0.00     0.074 A 
ATOM     45  C   UNL     1      -0.030   1.552  14.227  1.00  0.00     0.031 C 
ATOM     46  C   UNL     1       5.857  -1.283  15.450  1.00  0.00     0.029 A 
ATOM     47  C   UNL     1       4.779  -1.531  16.387  1.00  0.00     0.049 A 
ATOM     48  H   UNL     1       3.183  -0.246  16.814  1.00  0.00     0.167 HD
ATOM     49  C   UNL     1      -0.771   1.824  16.647  1.00  0.00     0.037 A 
ATOM     50  C   UNL     1       4.546  -2.597  17.193  1.00  0.00     0.037 A 
ATOM     51  C   UNL     1      -0.184   2.291  17.874  1.00  0.00     0.049 A 
ATOM     52  C   UNL     1       3.515  -2.178  18.180  1.00  0.00     0.074 A 
ATOM     53  C   UNL     1       0.378   3.486  18.278  1.00  0.00     0.029 A 
ATOM     54  N   UNL     1       0.236   1.356  18.788  1.00  0.00    -0.354 N 
ATOM     55  N   UNL     1       3.719  -1.271  19.098  1.00  0.00    -0.248 NA
ATOM     56  C   UNL     1       2.121  -2.413  17.830  1.00  0.00     0.031 C 
ATOM     57  C   UNL     1       1.492   3.112  19.084  1.00  0.00     0.029 A 
ATOM     58  C   UNL     1       1.498   1.720  19.183  1.00  0.00     0.049 A 
ATOM     59  H   UNL     1      -0.273   0.573  19.101  1.00  0.00     0.167 HD
ATOM     60  C   UNL     1       2.542  -0.537  19.137  1.00  0.00     0.074 A 
ATOM     61  C   UNL     1       1.572  -1.327  18.381  1.00  0.00     0.031 C 
ATOM     62  C   UNL     1       2.538   0.774  19.517  1.00  0.00     0.037 A 
BRANCH  49  63
ATOM     63  C   UNL     1      -2.063   1.047  16.621  1.00  0.00     0.064 A 
ATOM     64  C   UNL     1      -2.999   1.226  17.660  1.00  0.00     0.173 A 
ATOM     65  C   UNL     1      -2.286  -0.069  15.786  1.00  0.00     0.173 A 
ATOM     66  F   UNL     1      -2.868   2.237  18.531  1.00  0.00    -0.203 F 
ATOM     67  C   UNL     1      -4.038   0.317  17.881  1.00  0.00     0.198 A 
ATOM     68  C   UNL     1      -3.357  -0.940  15.976  1.00  0.00     0.198 A 
ATOM     69  F   UNL     1      -1.420  -0.427  14.831  1.00  0.00    -0.203 F 
ATOM     70  F   UNL     1      -4.828   0.459  18.954  1.00  0.00    -0.200 F 
ATOM     71  C   UNL     1      -4.214  -0.766  17.041  1.00  0.00     0.200 A 
ATOM     72  F   UNL     1      -3.498  -1.996  15.162  1.00  0.00    -0.200 F 
ATOM     73  F   UNL     1      -5.174  -1.669  17.283  1.00  0.00    -0.200 F 
ENDBRANCH  49  63
BRANCH  50  74
ATOM     74  C   UNL     1       4.896  -4.018  16.944  1.00  0.00     0.064 A 
ATOM     75  C   UNL     1       4.873  -4.966  17.979  1.00  0.00     0.173 A 
ATOM     76  C   UNL     1       5.007  -4.529  15.635  1.00  0.00     0.173 A 
ATOM     77  F   UNL     1       4.718  -4.571  19.251  1.00  0.00    -0.203 F 
ATOM     78  C   UNL     1       4.945  -6.341  17.720  1.00  0.00     0.198 A 
ATOM     79  C   UNL     1       5.087  -5.899  15.377  1.00  0.00     0.198 A 
ATOM     80  F   UNL     1       4.948  -3.716  14.570  1.00  0.00    -0.203 F 
ATOM     81  F   UNL     1       4.864  -7.218  18.730  1.00  0.00    -0.200 F 
ATOM     82  C   UNL     1       5.044  -6.806  16.418  1.00  0.00     0.200 A 
ATOM     83  F   UNL     1       5.144  -6.334  14.110  1.00  0.00    -0.200 F 
ATOM     84  F   UNL     1       5.056  -8.122  16.165  1.00  0.00    -0.200 F 
ENDBRANCH  50  74
BRANCH  62  85
ATOM     85  C   UNL     1       3.798   1.358  20.097  1.00  0.00     0.064 A 
ATOM     86  C   UNL     1       4.992   1.513  19.371  1.00  0.00     0.173 A 
ATOM     87  C   UNL     1       3.727   1.973  21.354  1.00  0.00     0.173 A 
ATOM     88  F   UNL     1       5.110   1.039  18.127  1.00  0.00    -0.203 F 
ATOM     89  C   UNL     1       6.068   2.233  19.888  1.00  0.00     0.198 A 
ATOM     90  C   UNL     1       4.789   2.723  21.852  1.00  0.00     0.198 A 
ATOM     91  F   UNL     1       2.594   1.907  22.069  1.00  0.00    -0.203 F 
ATOM     92  F   UNL     1       7.192   2.374  19.168  1.00  0.00    -0.200 F 
ATOM     93  C   UNL     1       5.960   2.850  21.122  1.00  0.00     0.200 A 
ATOM     94  F   UNL     1       4.660   3.360  23.024  1.00  0.00    -0.200 F 
ATOM     95  F   UNL     1       6.970   3.594  21.594  1.00  0.00    -0.200 F 
ENDBRANCH  62  85
ENDBRANCH  36  37
ENDBRANCH  28  31
ENDBRANCH  26  27
ENDBRANCH  25  26
ENDBRANCH   1  25
TORSDOF 14
