REMARK SMILES O=C(NCCCCCCNC(=O)[C@H]1CCCCC[C@@H]1NC(=O)c1cncc(Br)c1)c1ccc(-c2c3nc(c(-c4c(F)c(F)c(F)c(F)c4F)c4ccc([nH]4)c(-c4c(F)c(F)c(F)c(F)c4F)c4nc(c(-c5c(F)c(F)c(F)c(F)c5F)c5ccc2[nH]5)C=C4)C=C3)cc1
REMARK SMILES IDX 7 1 6 2 5 3 4 4 3 5 1 6 2 7 30 9 31 10 92 11 32 12 91 13
REMARK SMILES IDX 33 14 34 15 35 16 85 17 36 18 90 19 84 20 86 21 37 22 89 23
REMARK SMILES IDX 83 24 82 25 38 27 70 28 50 29 69 30 51 31 54 32 68 33 87 34
REMARK SMILES IDX 52 35 53 36 67 38 88 39 55 40 39 41 40 42 48 43 41 44 42 45
REMARK SMILES IDX 46 46 49 47 43 48 44 49 47 50 45 51 71 52 72 53 80 54 73 55
REMARK SMILES IDX 74 56 78 57 81 58 75 59 76 60 79 61 77 62 56 63 57 64 65 65
REMARK SMILES IDX 58 66 59 67 63 68 66 69 60 70 61 71 64 72 62 73 8 74 9 75
REMARK SMILES IDX 10 76 11 77 12 79 13 80 14 81 15 82 16 83 19 85 18 86 17 87
REMARK SMILES IDX 20 89 21 90 22 92 23 93 24 94 29 95 25 96 27 97 26 98 28 99
REMARK H PARENT 3 8 86 26 54 37 10 78 20 91
REMARK Flexibility Score: 100.00
ROOT
ATOM      1  C   UNL     1       5.945   0.756   3.561  1.00  0.00     0.002 C 
ENDROOT
BRANCH   1   2
ATOM      2  C   UNL     1       5.218  -0.589   3.525  1.00  0.00     0.002 C 
BRANCH   2   3
ATOM      3  C   UNL     1       3.749  -0.533   3.920  1.00  0.00     0.021 C 
BRANCH   3   4
ATOM      4  C   UNL     1       2.927   0.469   3.124  1.00  0.00     0.116 C 
BRANCH   4   5
ATOM      5  N   UNL     1       2.659   0.017   1.770  1.00  0.00    -0.352 N 
ATOM      6  O   UNL     1       1.388  -0.818   0.094  1.00  0.00    -0.269 OA
ATOM      7  C   UNL     1       1.447  -0.278   1.187  1.00  0.00     0.251 C 
ATOM      8  H   UNL     1       3.448  -0.092   1.192  1.00  0.00     0.163 HD
BRANCH   7   9
ATOM      9  C   UNL     1       0.206   0.047   1.924  1.00  0.00     0.039 A 
ATOM     10  C   UNL     1       0.054   1.298   2.526  1.00  0.00     0.014 A 
ATOM     11  C   UNL     1      -0.797  -0.918   2.037  1.00  0.00     0.014 A 
ATOM     12  C   UNL     1      -1.024   1.528   3.369  1.00  0.00     0.010 A 
ATOM     13  C   UNL     1      -1.935  -0.644   2.799  1.00  0.00     0.010 A 
ATOM     14  C   UNL     1      -2.046   0.572   3.493  1.00  0.00    -0.014 A 
BRANCH  14  15
ATOM     15  C   UNL     1      -3.259   0.908   4.280  1.00  0.00     0.031 A 
ATOM     16  C   UNL     1      -3.636   0.135   5.510  1.00  0.00     0.074 A 
ATOM     17  C   UNL     1      -4.014   1.946   3.871  1.00  0.00     0.049 A 
ATOM     18  N   UNL     1      -4.669   0.297   6.300  1.00  0.00    -0.248 NA
ATOM     19  C   UNL     1      -2.747  -0.968   5.906  1.00  0.00     0.031 C 
ATOM     20  C   UNL     1      -3.744   2.765   2.686  1.00  0.00     0.029 A 
ATOM     21  N   UNL     1      -5.147   2.501   4.405  1.00  0.00    -0.354 N 
ATOM     22  C   UNL     1      -4.563  -0.687   7.275  1.00  0.00     0.074 A 
ATOM     23  C   UNL     1      -3.381  -1.462   6.961  1.00  0.00     0.031 C 
ATOM     24  C   UNL     1      -4.654   3.745   2.611  1.00  0.00     0.029 A 
ATOM     25  C   UNL     1      -5.616   3.577   3.693  1.00  0.00     0.049 A 
ATOM     26  H   UNL     1      -5.582   2.162   5.221  1.00  0.00     0.167 HD
ATOM     27  C   UNL     1      -5.377  -0.912   8.335  1.00  0.00     0.037 A 
ATOM     28  C   UNL     1      -6.715   4.331   3.872  1.00  0.00     0.037 A 
ATOM     29  C   UNL     1      -6.551  -0.131   8.637  1.00  0.00     0.049 A 
ATOM     30  C   UNL     1      -7.625   4.022   5.024  1.00  0.00     0.074 A 
ATOM     31  C   UNL     1      -7.428  -0.264   9.700  1.00  0.00     0.029 A 
ATOM     32  N   UNL     1      -7.018   0.927   7.868  1.00  0.00    -0.354 N 
ATOM     33  N   UNL     1      -7.499   3.108   5.955  1.00  0.00    -0.248 NA
ATOM     34  C   UNL     1      -8.832   4.848   5.149  1.00  0.00     0.031 C 
ATOM     35  C   UNL     1      -8.454   0.674   9.544  1.00  0.00     0.029 A 
ATOM     36  C   UNL     1      -8.184   1.436   8.419  1.00  0.00     0.049 A 
ATOM     37  H   UNL     1      -6.585   1.266   7.052  1.00  0.00     0.167 HD
ATOM     38  C   UNL     1      -8.597   3.261   6.788  1.00  0.00     0.074 A 
ATOM     39  C   UNL     1      -9.367   4.371   6.263  1.00  0.00     0.031 C 
ATOM     40  C   UNL     1      -8.938   2.544   7.887  1.00  0.00     0.037 A 
BRANCH  27  41
ATOM     41  C   UNL     1      -5.042  -2.063   9.243  1.00  0.00     0.064 A 
ATOM     42  C   UNL     1      -3.926  -2.034  10.092  1.00  0.00     0.173 A 
ATOM     43  C   UNL     1      -5.880  -3.188   9.304  1.00  0.00     0.173 A 
ATOM     44  F   UNL     1      -3.087  -0.988  10.070  1.00  0.00    -0.203 F 
ATOM     45  C   UNL     1      -3.647  -3.098  10.948  1.00  0.00     0.198 A 
ATOM     46  C   UNL     1      -5.615  -4.236  10.183  1.00  0.00     0.198 A 
ATOM     47  F   UNL     1      -6.967  -3.266   8.521  1.00  0.00    -0.203 F 
ATOM     48  F   UNL     1      -2.550  -3.066  11.718  1.00  0.00    -0.200 F 
ATOM     49  C   UNL     1      -4.495  -4.193  10.999  1.00  0.00     0.200 A 
ATOM     50  F   UNL     1      -6.446  -5.286  10.241  1.00  0.00    -0.200 F 
ATOM     51  F   UNL     1      -4.231  -5.210  11.830  1.00  0.00    -0.200 F 
ENDBRANCH  27  41
BRANCH  28  52
ATOM     52  C   UNL     1      -7.011   5.439   2.928  1.00  0.00     0.064 A 
ATOM     53  C   UNL     1      -6.957   6.775   3.346  1.00  0.00     0.173 A 
ATOM     54  C   UNL     1      -7.339   5.187   1.587  1.00  0.00     0.173 A 
ATOM     55  F   UNL     1      -6.663   7.067   4.622  1.00  0.00    -0.203 F 
ATOM     56  C   UNL     1      -7.239   7.816   2.464  1.00  0.00     0.198 A 
ATOM     57  C   UNL     1      -7.586   6.229   0.698  1.00  0.00     0.198 A 
ATOM     58  F   UNL     1      -7.396   3.926   1.135  1.00  0.00    -0.203 F 
ATOM     59  F   UNL     1      -7.225   9.083   2.901  1.00  0.00    -0.200 F 
ATOM     60  C   UNL     1      -7.545   7.543   1.139  1.00  0.00     0.200 A 
ATOM     61  F   UNL     1      -7.862   5.961  -0.586  1.00  0.00    -0.200 F 
ATOM     62  F   UNL     1      -7.808   8.545   0.289  1.00  0.00    -0.200 F 
ENDBRANCH  28  52
BRANCH  40  63
ATOM     63  C   UNL     1     -10.180   2.966   8.618  1.00  0.00     0.064 A 
ATOM     64  C   UNL     1     -11.459   2.768   8.077  1.00  0.00     0.173 A 
ATOM     65  C   UNL     1     -10.088   3.554   9.889  1.00  0.00     0.173 A 
ATOM     66  F   UNL     1     -11.600   2.227   6.857  1.00  0.00    -0.203 F 
ATOM     67  C   UNL     1     -12.598   3.171   8.768  1.00  0.00     0.198 A 
ATOM     68  C   UNL     1     -11.231   3.924  10.592  1.00  0.00     0.198 A 
ATOM     69  F   UNL     1      -8.889   3.762  10.454  1.00  0.00    -0.203 F 
ATOM     70  F   UNL     1     -13.806   3.023   8.208  1.00  0.00    -0.200 F 
ATOM     71  C   UNL     1     -12.484   3.740  10.028  1.00  0.00     0.200 A 
ATOM     72  F   UNL     1     -11.119   4.461  11.815  1.00  0.00    -0.200 F 
ATOM     73  F   UNL     1     -13.582   4.121  10.695  1.00  0.00    -0.200 F 
ENDBRANCH  40  63
ENDBRANCH  14  15
ENDBRANCH   7   9
ENDBRANCH   4   5
ENDBRANCH   3   4
ENDBRANCH   2   3
ENDBRANCH   1   2
BRANCH   1  74
ATOM     74  C   UNL     1       5.787   1.580   4.847  1.00  0.00     0.021 C 
BRANCH  74  75
ATOM     75  C   UNL     1       6.271   0.907   6.130  1.00  0.00     0.116 C 
BRANCH  75  76
ATOM     76  N   UNL     1       7.595   0.332   6.001  1.00  0.00    -0.356 N 
ATOM     77  C   UNL     1       8.770   0.615   6.614  1.00  0.00     0.225 C 
ATOM     78  H   UNL     1       7.651  -0.401   5.346  1.00  0.00     0.163 HD
ATOM     79  O   UNL     1       9.718  -0.135   6.366  1.00  0.00    -0.275 OA
BRANCH  77  80
ATOM     80  C   UNL     1       8.931   1.808   7.550  1.00  0.00     0.101 C 
BRANCH  80  81
ATOM     81  C   UNL     1       9.724   1.297   8.780  1.00  0.00     0.015 C 
BRANCH  81  82
ATOM     82  C   UNL     1      11.250   1.334   8.629  1.00  0.00     0.001 C 
BRANCH  82  83
ATOM     83  C   UNL     1      11.858   2.641   9.128  1.00  0.00     0.000 CG0
ATOM     84  G   UNL     1      11.553   3.873   8.284  1.00  0.00     0.000 G0
ENDBRANCH  82  83
ENDBRANCH  81  82
ENDBRANCH  80  81
BRANCH  80  85
ATOM     85  C   UNL     1       9.598   3.014   6.840  1.00  0.00     0.094 C 
BRANCH  85  86
ATOM     86  C   UNL     1      10.096   4.063   7.871  1.00  0.00     0.026 C 
BRANCH  86  87
ATOM     87  C   UNL     1      11.553   3.873   8.284  1.00  0.00     0.002 CG0
ATOM     88  G   UNL     1      11.858   2.641   9.128  1.00  0.00     0.000 G0
ENDBRANCH  86  87
ENDBRANCH  85  86
BRANCH  85  89
ATOM     89  N   UNL     1       8.677   3.724   5.940  1.00  0.00    -0.348 N 
ATOM     90  C   UNL     1       8.555   3.853   4.580  1.00  0.00     0.253 C 
ATOM     91  H   UNL     1       7.984   4.224   6.429  1.00  0.00     0.164 HD
ATOM     92  O   UNL     1       7.897   4.825   4.199  1.00  0.00    -0.269 OA
BRANCH  90  93
ATOM     93  C   UNL     1       9.008   2.871   3.557  1.00  0.00     0.059 A 
ATOM     94  C   UNL     1       8.460   3.027   2.278  1.00  0.00     0.124 A 
ATOM     95  C   UNL     1       9.796   1.742   3.752  1.00  0.00     0.032 A 
ATOM     96  N   UNL     1       8.584   2.135   1.258  1.00  0.00    -0.263 NA
ATOM     97  C   UNL     1       9.919   0.791   2.734  1.00  0.00     0.037 A 
ATOM     98  C   UNL     1       9.297   1.021   1.520  1.00  0.00     0.126 A 
ATOM     99  Br  UNL     1      10.850  -0.822   3.034  1.00  0.00    -0.049 Br
ENDBRANCH  90  93
ENDBRANCH  85  89
ENDBRANCH  80  85
ENDBRANCH  77  80
ENDBRANCH  75  76
ENDBRANCH  74  75
ENDBRANCH   1  74
TORSDOF 15
