REMARK SMILES Cc1cc(C)c2c(OCCCC(=O)NCCCCCCNC(=O)c3ccc(-c4c5nc(c(-c6c(F)c(F)c(F)c(F)c6F)c6ccc([nH]6)c(-c6c(F)c(F)c(F)c(F)c6F)c6nc(c(-c7c(F)c(F)c(F)c(F)c7F)c7ccc4[nH]7)C=C6)C=C5)cc3)nsc2n1
REMARK SMILES IDX 16 1 15 2 14 3 12 4 13 5 11 7 10 8 9 9 8 10 7 11 1 12 2 13
REMARK SMILES IDX 3 14 90 15 4 16 89 17 5 18 6 19 88 20 87 21 17 22 18 23
REMARK SMILES IDX 19 24 20 25 21 26 22 27 23 29 24 30 25 31 86 32 26 33 85 34
REMARK SMILES IDX 27 35 28 36 29 37 79 38 30 39 84 40 78 41 80 42 31 43 83 44
REMARK SMILES IDX 77 45 76 46 32 48 64 49 44 50 63 51 45 52 48 53 62 54 81 55
REMARK SMILES IDX 46 56 47 57 61 59 82 60 49 61 33 62 34 63 42 64 35 65 36 66
REMARK SMILES IDX 40 67 43 68 37 69 38 70 41 71 39 72 65 73 66 74 74 75 67 76
REMARK SMILES IDX 68 77 72 78 75 79 69 80 70 81 73 82 71 83 50 84 51 85 59 86
REMARK SMILES IDX 52 87 53 88 57 89 60 90 54 91 55 92 58 93 56 94
REMARK H PARENT 14 6 21 28 80 47 48 58
REMARK Flexibility Score: inf
ROOT
ATOM      1  C   UNL     1       2.275  -2.563   5.918  1.00  0.00     0.021 C 
ENDROOT
BRANCH   1   2
ATOM      2  C   UNL     1       1.985  -2.329   4.393  1.00  0.00     0.116 C 
BRANCH   2   3
ATOM      3  N   UNL     1       0.713  -3.026   3.845  1.00  0.00    -0.356 N 
ATOM      4  C   UNL     1      -0.611  -3.034   3.488  1.00  0.00     0.220 C 
ATOM      5  O   UNL     1      -0.870  -4.144   2.964  1.00  0.00    -0.275 OA
ATOM      6  H   UNL     1       1.014  -3.943   3.654  1.00  0.00     0.163 HD
BRANCH   4   7
ATOM      7  C   UNL     1      -1.849  -1.960   3.392  1.00  0.00     0.103 C 
BRANCH   7   8
ATOM      8  C   UNL     1      -3.025  -1.408   4.354  1.00  0.00     0.051 C 
BRANCH   8   9
ATOM      9  C   UNL     1      -3.056  -0.408   5.596  1.00  0.00     0.232 C 
BRANCH   9  10
ATOM     10  O   UNL     1      -3.135   1.024   5.513  1.00  0.00    -0.477 OA
BRANCH  10  11
ATOM     11  C   UNL     1      -2.119   1.810   5.070  1.00  0.00     0.235 A 
ATOM     12  C   UNL     1       0.981   0.916   0.665  1.00  0.00     0.067 C 
ATOM     13  C   UNL     1       0.477   1.192   2.058  1.00  0.00     0.039 A 
ATOM     14  C   UNL     1       0.396   0.142   2.969  1.00  0.00     0.027 A 
ATOM     15  N   UNL     1       0.117   2.454   2.371  1.00  0.00    -0.240 NA
ATOM     16  C   UNL     1      -0.225   0.311   4.223  1.00  0.00    -0.034 A 
ATOM     17  C   UNL     1      -0.624   2.522   3.497  1.00  0.00     0.147 A 
ATOM     18  C   UNL     1      -0.244  -0.582   5.405  1.00  0.00     0.045 C 
ATOM     19  C   UNL     1      -0.964   1.470   4.330  1.00  0.00     0.078 A 
ATOM     20  S   UNL     1      -1.290   3.928   4.184  1.00  0.00    -0.012 S 
ATOM     21  N   UNL     1      -2.325   3.118   5.228  1.00  0.00    -0.153 NA
ENDBRANCH  10  11
ENDBRANCH   9  10
ENDBRANCH   8   9
ENDBRANCH   7   8
ENDBRANCH   4   7
ENDBRANCH   2   3
ENDBRANCH   1   2
BRANCH   1  22
ATOM     22  C   UNL     1       3.691  -2.202   6.402  1.00  0.00     0.002 C 
BRANCH  22  23
ATOM     23  C   UNL     1       4.102  -0.715   6.410  1.00  0.00     0.002 C 
BRANCH  23  24
ATOM     24  C   UNL     1       3.560   0.202   7.525  1.00  0.00     0.021 C 
BRANCH  24  25
ATOM     25  C   UNL     1       3.808  -0.263   8.957  1.00  0.00     0.116 C 
BRANCH  25  26
ATOM     26  N   UNL     1       5.215  -0.525   9.257  1.00  0.00    -0.352 N 
ATOM     27  C   UNL     1       5.768  -0.969  10.438  1.00  0.00     0.251 C 
ATOM     28  H   UNL     1       5.849  -0.364   8.521  1.00  0.00     0.163 HD
ATOM     29  O   UNL     1       6.978  -0.857  10.656  1.00  0.00    -0.269 OA
BRANCH  27  30
ATOM     30  C   UNL     1       4.899  -1.590  11.447  1.00  0.00     0.039 A 
ATOM     31  C   UNL     1       5.035  -1.288  12.806  1.00  0.00     0.014 A 
ATOM     32  C   UNL     1       3.921  -2.479  11.008  1.00  0.00     0.014 A 
ATOM     33  C   UNL     1       4.121  -1.826  13.706  1.00  0.00     0.010 A 
ATOM     34  C   UNL     1       2.942  -2.900  11.872  1.00  0.00     0.010 A 
ATOM     35  C   UNL     1       3.062  -2.614  13.226  1.00  0.00    -0.014 A 
BRANCH  35  36
ATOM     36  C   UNL     1       1.992  -3.039  14.120  1.00  0.00     0.031 A 
ATOM     37  C   UNL     1       1.326  -1.925  14.851  1.00  0.00     0.074 A 
ATOM     38  C   UNL     1       1.506  -4.298  14.136  1.00  0.00     0.049 A 
ATOM     39  N   UNL     1       1.320  -1.720  16.127  1.00  0.00    -0.248 NA
ATOM     40  C   UNL     1       0.704  -0.840  14.073  1.00  0.00     0.031 C 
ATOM     41  C   UNL     1       1.861  -5.429  13.271  1.00  0.00     0.029 A 
ATOM     42  N   UNL     1       0.498  -4.813  14.891  1.00  0.00    -0.354 N 
ATOM     43  C   UNL     1       0.542  -0.585  16.335  1.00  0.00     0.074 A 
ATOM     44  C   UNL     1       0.325   0.001  15.039  1.00  0.00     0.031 C 
ATOM     45  C   UNL     1       0.932  -6.404  13.391  1.00  0.00     0.029 A 
ATOM     46  C   UNL     1       0.018  -6.044  14.458  1.00  0.00     0.049 A 
ATOM     47  H   UNL     1       0.137  -4.350  15.681  1.00  0.00     0.167 HD
ATOM     48  C   UNL     1      -0.050  -0.359  17.541  1.00  0.00     0.037 A 
ATOM     49  C   UNL     1      -1.069  -6.700  14.936  1.00  0.00     0.037 A 
ATOM     50  C   UNL     1       0.556  -1.161  18.573  1.00  0.00     0.049 A 
ATOM     51  C   UNL     1      -1.340  -6.153  16.289  1.00  0.00     0.074 A 
ATOM     52  C   UNL     1       1.832  -1.262  19.094  1.00  0.00     0.029 A 
ATOM     53  N   UNL     1      -0.094  -2.307  18.960  1.00  0.00    -0.354 N 
ATOM     54  N   UNL     1      -0.545  -6.325  17.309  1.00  0.00    -0.248 NA
ATOM     55  C   UNL     1      -2.252  -5.024  16.385  1.00  0.00     0.031 C 
ATOM     56  C   UNL     1       2.027  -2.657  19.316  1.00  0.00     0.029 A 
ATOM     57  C   UNL     1       0.837  -3.312  18.996  1.00  0.00     0.049 A 
ATOM     58  H   UNL     1      -1.052  -2.391  19.171  1.00  0.00     0.167 HD
ATOM     59  C   UNL     1      -0.543  -5.100  17.957  1.00  0.00     0.074 A 
ATOM     60  C   UNL     1      -1.671  -4.363  17.390  1.00  0.00     0.031 C 
ATOM     61  C   UNL     1       0.542  -4.687  18.674  1.00  0.00     0.037 A 
BRANCH  48  62
ATOM     62  C   UNL     1      -1.405   0.278  17.722  1.00  0.00     0.064 A 
ATOM     63  C   UNL     1      -1.858   0.566  19.026  1.00  0.00     0.173 A 
ATOM     64  C   UNL     1      -2.390   0.319  16.713  1.00  0.00     0.173 A 
ATOM     65  F   UNL     1      -1.012   0.535  20.067  1.00  0.00    -0.203 F 
ATOM     66  C   UNL     1      -3.208   0.792  19.306  1.00  0.00     0.198 A 
ATOM     67  C   UNL     1      -3.728   0.598  16.988  1.00  0.00     0.198 A 
ATOM     68  F   UNL     1      -2.129  -0.025  15.447  1.00  0.00    -0.203 F 
ATOM     69  F   UNL     1      -3.611   0.926  20.576  1.00  0.00    -0.200 F 
ATOM     70  C   UNL     1      -4.143   0.801  18.287  1.00  0.00     0.200 A 
ATOM     71  F   UNL     1      -4.622   0.578  15.990  1.00  0.00    -0.200 F 
ATOM     72  F   UNL     1      -5.446   0.950  18.559  1.00  0.00    -0.200 F 
ENDBRANCH  48  62
BRANCH  49  73
ATOM     73  C   UNL     1      -2.069  -7.510  14.197  1.00  0.00     0.064 A 
ATOM     74  C   UNL     1      -3.003  -8.303  14.887  1.00  0.00     0.173 A 
ATOM     75  C   UNL     1      -2.330  -7.287  12.831  1.00  0.00     0.173 A 
ATOM     76  F   UNL     1      -2.850  -8.536  16.199  1.00  0.00    -0.203 F 
ATOM     77  C   UNL     1      -4.151  -8.802  14.262  1.00  0.00     0.198 A 
ATOM     78  C   UNL     1      -3.474  -7.789  12.207  1.00  0.00     0.198 A 
ATOM     79  F   UNL     1      -1.536  -6.493  12.099  1.00  0.00    -0.203 F 
ATOM     80  F   UNL     1      -5.055  -9.490  14.973  1.00  0.00    -0.200 F 
ATOM     81  C   UNL     1      -4.393  -8.531  12.926  1.00  0.00     0.200 A 
ATOM     82  F   UNL     1      -3.716  -7.490  10.922  1.00  0.00    -0.200 F 
ATOM     83  F   UNL     1      -5.528  -8.944  12.345  1.00  0.00    -0.200 F 
ENDBRANCH  49  73
BRANCH  61  84
ATOM     84  C   UNL     1       1.629  -5.685  18.958  1.00  0.00     0.064 A 
ATOM     85  C   UNL     1       2.447  -6.264  17.972  1.00  0.00     0.173 A 
ATOM     86  C   UNL     1       1.976  -5.911  20.296  1.00  0.00     0.173 A 
ATOM     87  F   UNL     1       2.236  -6.028  16.672  1.00  0.00    -0.203 F 
ATOM     88  C   UNL     1       3.548  -7.048  18.315  1.00  0.00     0.198 A 
ATOM     89  C   UNL     1       3.095  -6.664  20.636  1.00  0.00     0.198 A 
ATOM     90  F   UNL     1       1.259  -5.342  21.279  1.00  0.00    -0.203 F 
ATOM     91  F   UNL     1       4.317  -7.586  17.356  1.00  0.00    -0.200 F 
ATOM     92  C   UNL     1       3.878  -7.236  19.647  1.00  0.00     0.200 A 
ATOM     93  F   UNL     1       3.436  -6.803  21.925  1.00  0.00    -0.200 F 
ATOM     94  F   UNL     1       4.968  -7.943  19.978  1.00  0.00    -0.200 F 
ENDBRANCH  61  84
ENDBRANCH  35  36
ENDBRANCH  27  30
ENDBRANCH  25  26
ENDBRANCH  24  25
ENDBRANCH  23  24
ENDBRANCH  22  23
ENDBRANCH   1  22
TORSDOF 17
