REMARK SMILES CCOc1ccc(C[N@H+]2CC[NH2+][C@H](C(=O)NCCCCCCNC(=O)c3ccc(-c4c5nc(c(-c6c(F)c(F)c(F)c(F)c6F)c6ccc([nH]6)c(-c6c(F)c(F)c(F)c(F)c6F)c6nc(c(-c7c(F)c(F)c(F)c(F)c7F)c7ccc4[nH]7)C=C6)C=C5)cc3)C2)c(OCC)c1C
REMARK SMILES IDX 18 1 17 2 16 3 14 4 15 5 13 7 9 8 10 9 89 10 11 12 12 13
REMARK SMILES IDX 8 16 7 17 4 18 5 19 94 20 6 21 90 22 95 23 3 24 2 25 1 26
REMARK SMILES IDX 91 27 92 28 93 29 19 30 20 31 21 32 22 33 23 34 24 35 25 37
REMARK SMILES IDX 26 38 27 39 88 40 28 41 87 42 29 43 30 44 31 45 81 46 32 47
REMARK SMILES IDX 86 48 80 49 82 50 33 51 85 52 79 53 78 54 34 56 66 57 46 58
REMARK SMILES IDX 65 59 47 60 50 61 64 62 83 63 48 64 49 65 63 67 84 68 51 69
REMARK SMILES IDX 35 70 36 71 44 72 37 73 38 74 42 75 45 76 39 77 40 78 43 79
REMARK SMILES IDX 41 80 67 81 68 82 76 83 69 84 70 85 74 86 77 87 71 88 72 89
REMARK SMILES IDX 75 90 73 91 52 92 53 93 61 94 54 95 55 96 59 97 62 98 56 99
REMARK SMILES IDX 57 100 60 101 58 102
REMARK H PARENT 16 6 9 11 12 14 12 15 23 36 82 55 50 66
REMARK Flexibility Score: inf
ROOT
ATOM      1  C   UNL     1       0.455  -3.568  -2.582  1.00  0.00     0.021 C 
ENDROOT
BRANCH   1   2
ATOM      2  C   UNL     1       0.969  -4.733  -1.730  1.00  0.00     0.116 C 
BRANCH   2   3
ATOM      3  N   UNL     1       1.838  -5.645  -2.454  1.00  0.00    -0.351 N 
ATOM      4  C   UNL     1       3.108  -6.080  -2.184  1.00  0.00     0.284 C 
ATOM      5  O   UNL     1       3.504  -7.059  -2.828  1.00  0.00    -0.268 OA
ATOM      6  H   UNL     1       1.447  -6.013  -3.279  1.00  0.00     0.163 HD
BRANCH   4   7
ATOM      7  C   UNL     1       4.013  -5.388  -1.136  1.00  0.00     0.328 C 
ATOM      8  N   UNL     1       6.523  -5.049  -0.624  1.00  0.00    -0.321 N 
ATOM      9  C   UNL     1       6.201  -5.363   0.774  1.00  0.00     0.324 C 
ATOM     10  C   UNL     1       5.509  -5.626  -1.529  1.00  0.00     0.339 C 
ATOM     11  H   UNL     1       7.391  -5.530  -0.857  1.00  0.00     0.348 HD
ATOM     12  C   UNL     1       4.702  -5.302   1.170  1.00  0.00     0.323 C 
ATOM     13  N   UNL     1       3.762  -5.945   0.225  1.00  0.00    -0.327 N 
ATOM     14  H   UNL     1       2.802  -5.750   0.507  1.00  0.00     0.347 HD
ATOM     15  H   UNL     1       3.903  -6.956   0.223  1.00  0.00     0.347 HD
BRANCH   8  16
ATOM     16  C   UNL     1       6.989  -3.676  -0.890  1.00  0.00     0.303 C 
BRANCH  16  17
ATOM     17  C   UNL     1       5.949  -2.682  -1.354  1.00  0.00     0.049 A 
ATOM     18  C   UNL     1       3.490  -1.353  -1.727  1.00  0.00     0.125 A 
ATOM     19  C   UNL     1       4.140  -1.268  -0.505  1.00  0.00     0.047 A 
ATOM     20  C   UNL     1       4.131  -1.981  -2.815  1.00  0.00     0.034 A 
ATOM     21  C   UNL     1       5.358  -1.916  -0.325  1.00  0.00     0.017 A 
ATOM     22  C   UNL     1       5.395  -2.613  -2.646  1.00  0.00     0.134 A 
ATOM     23  C   UNL     1       3.451  -2.089  -4.163  1.00  0.00     0.052 C 
BRANCH  18  24
ATOM     24  O   UNL     1       2.146  -1.119  -1.821  1.00  0.00    -0.493 OA
BRANCH  24  25
ATOM     25  C   UNL     1       1.633   0.165  -1.491  1.00  0.00     0.226 C 
ATOM     26  C   UNL     1       1.365   0.359  -0.008  1.00  0.00     0.049 C 
ENDBRANCH  24  25
ENDBRANCH  18  24
BRANCH  22  27
ATOM     27  O   UNL     1       5.808  -3.236  -3.793  1.00  0.00    -0.493 OA
BRANCH  27  28
ATOM     28  C   UNL     1       7.136  -3.645  -4.086  1.00  0.00     0.226 C 
ATOM     29  C   UNL     1       8.044  -2.481  -4.424  1.00  0.00     0.049 C 
ENDBRANCH  27  28
ENDBRANCH  22  27
ENDBRANCH  16  17
ENDBRANCH   8  16
ENDBRANCH   4   7
ENDBRANCH   2   3
ENDBRANCH   1   2
BRANCH   1  30
ATOM     30  C   UNL     1      -0.332  -3.856  -3.866  1.00  0.00     0.002 C 
BRANCH  30  31
ATOM     31  C   UNL     1      -1.806  -4.259  -3.735  1.00  0.00     0.002 C 
BRANCH  31  32
ATOM     32  C   UNL     1      -2.658  -3.455  -2.751  1.00  0.00     0.021 C 
BRANCH  32  33
ATOM     33  C   UNL     1      -2.800  -1.967  -3.064  1.00  0.00     0.116 C 
BRANCH  33  34
ATOM     34  N   UNL     1      -4.052  -1.650  -3.728  1.00  0.00    -0.352 N 
ATOM     35  C   UNL     1      -4.694  -0.439  -3.914  1.00  0.00     0.251 C 
ATOM     36  H   UNL     1      -4.522  -2.427  -4.109  1.00  0.00     0.163 HD
ATOM     37  O   UNL     1      -5.878  -0.426  -4.167  1.00  0.00    -0.269 OA
BRANCH  35  38
ATOM     38  C   UNL     1      -3.904   0.821  -4.008  1.00  0.00     0.039 A 
ATOM     39  C   UNL     1      -4.301   1.719  -5.013  1.00  0.00     0.014 A 
ATOM     40  C   UNL     1      -2.718   1.040  -3.315  1.00  0.00     0.014 A 
ATOM     41  C   UNL     1      -3.410   2.685  -5.474  1.00  0.00     0.010 A 
ATOM     42  C   UNL     1      -1.811   1.960  -3.803  1.00  0.00     0.010 A 
ATOM     43  C   UNL     1      -2.132   2.725  -4.925  1.00  0.00    -0.014 A 
BRANCH  43  44
ATOM     44  C   UNL     1      -1.033   3.463  -5.523  1.00  0.00     0.031 A 
ATOM     45  C   UNL     1      -0.682   4.807  -5.036  1.00  0.00     0.074 A 
ATOM     46  C   UNL     1      -0.295   2.866  -6.486  1.00  0.00     0.049 A 
ATOM     47  N   UNL     1      -0.077   5.690  -5.754  1.00  0.00    -0.248 NA
ATOM     48  C   UNL     1      -1.018   5.281  -3.697  1.00  0.00     0.031 C 
ATOM     49  C   UNL     1       0.984   3.314  -7.027  1.00  0.00     0.029 A 
ATOM     50  N   UNL     1      -0.673   1.797  -7.316  1.00  0.00    -0.354 N 
ATOM     51  C   UNL     1       0.277   6.729  -4.928  1.00  0.00     0.074 A 
ATOM     52  C   UNL     1      -0.379   6.457  -3.669  1.00  0.00     0.031 C 
ATOM     53  C   UNL     1       1.159   2.759  -8.236  1.00  0.00     0.029 A 
ATOM     54  C   UNL     1      -0.067   2.054  -8.566  1.00  0.00     0.049 A 
ATOM     55  H   UNL     1      -1.240   1.029  -7.076  1.00  0.00     0.167 HD
ATOM     56  C   UNL     1       1.189   7.644  -5.361  1.00  0.00     0.037 A 
ATOM     57  C   UNL     1      -0.810   2.266  -9.690  1.00  0.00     0.037 A 
ATOM     58  C   UNL     1       1.630   7.355  -6.718  1.00  0.00     0.049 A 
ATOM     59  C   UNL     1      -0.563   3.605 -10.340  1.00  0.00     0.074 A 
ATOM     60  C   UNL     1       2.716   6.652  -7.214  1.00  0.00     0.029 A 
ATOM     61  N   UNL     1       0.740   7.504  -7.774  1.00  0.00    -0.354 N 
ATOM     62  N   UNL     1      -0.059   4.631  -9.712  1.00  0.00    -0.248 NA
ATOM     63  C   UNL     1      -0.880   3.903 -11.733  1.00  0.00     0.031 C 
ATOM     64  C   UNL     1       2.458   6.342  -8.570  1.00  0.00     0.029 A 
ATOM     65  C   UNL     1       1.227   6.878  -8.904  1.00  0.00     0.049 A 
ATOM     66  H   UNL     1      -0.117   7.987  -7.723  1.00  0.00     0.167 HD
ATOM     67  C   UNL     1       0.015   5.700 -10.569  1.00  0.00     0.074 A 
ATOM     68  C   UNL     1      -0.499   5.190 -11.825  1.00  0.00     0.031 C 
ATOM     69  C   UNL     1       0.491   6.913 -10.157  1.00  0.00     0.037 A 
BRANCH  56  70
ATOM     70  C   UNL     1       1.869   8.623  -4.446  1.00  0.00     0.064 A 
ATOM     71  C   UNL     1       3.240   8.925  -4.590  1.00  0.00     0.173 A 
ATOM     72  C   UNL     1       1.219   9.271  -3.381  1.00  0.00     0.173 A 
ATOM     73  F   UNL     1       3.966   8.424  -5.598  1.00  0.00    -0.203 F 
ATOM     74  C   UNL     1       3.925   9.739  -3.686  1.00  0.00     0.198 A 
ATOM     75  C   UNL     1       1.915  10.046  -2.447  1.00  0.00     0.198 A 
ATOM     76  F   UNL     1      -0.111   9.186  -3.233  1.00  0.00    -0.203 F 
ATOM     77  F   UNL     1       5.230   9.984  -3.868  1.00  0.00    -0.200 F 
ATOM     78  C   UNL     1       3.270  10.274  -2.596  1.00  0.00     0.200 A 
ATOM     79  F   UNL     1       1.265  10.565  -1.396  1.00  0.00    -0.200 F 
ATOM     80  F   UNL     1       3.938  11.014  -1.701  1.00  0.00    -0.200 F 
ENDBRANCH  56  70
BRANCH  57  81
ATOM     81  C   UNL     1      -2.110   1.545  -9.670  1.00  0.00     0.064 A 
ATOM     82  C   UNL     1      -2.083   0.137  -9.665  1.00  0.00     0.173 A 
ATOM     83  C   UNL     1      -3.289   2.173  -9.252  1.00  0.00     0.173 A 
ATOM     84  F   UNL     1      -0.975  -0.513 -10.057  1.00  0.00    -0.203 F 
ATOM     85  C   UNL     1      -3.139  -0.605  -9.141  1.00  0.00     0.198 A 
ATOM     86  C   UNL     1      -4.352   1.424  -8.742  1.00  0.00     0.198 A 
ATOM     87  F   UNL     1      -3.373   3.510  -9.227  1.00  0.00    -0.203 F 
ATOM     88  F   UNL     1      -3.034  -1.938  -9.040  1.00  0.00    -0.200 F 
ATOM     89  C   UNL     1      -4.261   0.041  -8.652  1.00  0.00     0.200 A 
ATOM     90  F   UNL     1      -5.434   2.049  -8.256  1.00  0.00    -0.200 F 
ATOM     91  F   UNL     1      -5.237  -0.663  -8.063  1.00  0.00    -0.200 F 
ENDBRANCH  57  81
BRANCH  69  92
ATOM     92  C   UNL     1       0.410   8.226 -10.902  1.00  0.00     0.064 A 
ATOM     93  C   UNL     1      -0.571   8.530 -11.859  1.00  0.00     0.173 A 
ATOM     94  C   UNL     1       1.257   9.306 -10.540  1.00  0.00     0.173 A 
ATOM     95  F   UNL     1      -1.506   7.638 -12.210  1.00  0.00    -0.203 F 
ATOM     96  C   UNL     1      -0.666   9.797 -12.445  1.00  0.00     0.198 A 
ATOM     97  C   UNL     1       1.119  10.583 -11.081  1.00  0.00     0.198 A 
ATOM     98  F   UNL     1       2.227   9.165  -9.625  1.00  0.00    -0.203 F 
ATOM     99  F   UNL     1      -1.598  10.024 -13.381  1.00  0.00    -0.200 F 
ATOM    100  C   UNL     1       0.167  10.825 -12.046  1.00  0.00     0.200 A 
ATOM    101  F   UNL     1       1.901  11.580 -10.641  1.00  0.00    -0.200 F 
ATOM    102  F   UNL     1       0.035  12.050 -12.571  1.00  0.00    -0.200 F 
ENDBRANCH  69  92
ENDBRANCH  43  44
ENDBRANCH  35  38
ENDBRANCH  33  34
ENDBRANCH  32  33
ENDBRANCH  31  32
ENDBRANCH  30  31
ENDBRANCH   1  30
TORSDOF 19
