REMARK SMILES CS(=O)(=O)c1ccc(-n2nc(C(F)(F)F)cc2-c2ccc(CC(=O)NCCCCCCNC(=O)c3ccc(-c4c5nc(c(-c6c(F)c(F)c(F)c(F)c6F)c6ccc([nH]6)c(-c6c(F)c(F)c(F)c(F)c6F)c6nc(c(-c7c(F)c(F)c(F)c(F)c7F)c7ccc4[nH]7)C=C6)C=C5)cc3)cc2)cc1
REMARK SMILES IDX 27 1 26 2 25 3 23 4 24 5 22 7 21 8 18 9 19 10 99 11 20 12
REMARK SMILES IDX 98 13 17 14 9 15 10 16 11 17 16 18 8 19 5 20 6 21 101 22
REMARK SMILES IDX 7 23 100 24 2 25 1 26 3 27 4 28 12 29 13 30 14 31 15 32
REMARK SMILES IDX 28 33 29 34 30 35 31 36 32 37 33 38 34 40 35 41 36 42 97 43
REMARK SMILES IDX 37 44 96 45 38 46 39 47 40 48 90 49 41 50 95 51 89 52 91 53
REMARK SMILES IDX 42 54 94 55 88 56 87 57 43 59 75 60 55 61 74 62 56 63 59 64
REMARK SMILES IDX 73 65 92 66 57 67 58 68 72 70 93 71 60 72 44 73 45 74 53 75
REMARK SMILES IDX 46 76 47 77 51 78 54 79 48 80 49 81 52 82 50 83 76 84 77 85
REMARK SMILES IDX 85 86 78 87 79 88 83 89 86 90 80 91 81 92 84 93 82 94 61 95
REMARK SMILES IDX 62 96 70 97 63 98 64 99 68 100 71 101 65 102 66 103 69 104
REMARK SMILES IDX 67 105
REMARK H PARENT 25 6 32 39 91 58 59 69
REMARK Flexibility Score: inf
ROOT
ATOM      1  C   UNL     1      -2.550  -6.201  -1.501  1.00  0.00     0.021 C 
ENDROOT
BRANCH   1   2
ATOM      2  C   UNL     1      -3.896  -6.427  -2.192  1.00  0.00     0.116 C 
BRANCH   2   3
ATOM      3  N   UNL     1      -4.625  -5.184  -2.344  1.00  0.00    -0.356 N 
ATOM      4  C   UNL     1      -4.880  -4.467  -3.477  1.00  0.00     0.224 C 
ATOM      5  O   UNL     1      -5.448  -3.378  -3.369  1.00  0.00    -0.275 OA
ATOM      6  H   UNL     1      -4.987  -4.802  -1.512  1.00  0.00     0.163 HD
BRANCH   4   7
ATOM      7  C   UNL     1      -4.520  -5.035  -4.840  1.00  0.00     0.135 C 
BRANCH   7   8
ATOM      8  C   UNL     1      -3.037  -5.118  -5.109  1.00  0.00    -0.039 A 
ATOM      9  C   UNL     1      -0.248  -5.316  -5.472  1.00  0.00     0.000 A 
ATOM     10  C   UNL     1      -0.855  -4.074  -5.232  1.00  0.00     0.010 A 
ATOM     11  C   UNL     1      -1.058  -6.447  -5.598  1.00  0.00     0.010 A 
ATOM     12  C   UNL     1      -2.234  -3.976  -5.038  1.00  0.00     0.005 A 
ATOM     13  C   UNL     1      -2.441  -6.345  -5.434  1.00  0.00     0.005 A 
BRANCH   9  14
ATOM     14  C   UNL     1       1.206  -5.435  -5.603  1.00  0.00     0.075 A 
ATOM     15  N   UNL     1       2.146  -4.832  -4.775  1.00  0.00    -0.233 N 
ATOM     16  N   UNL     1       3.403  -4.922  -5.275  1.00  0.00    -0.163 NA
ATOM     17  C   UNL     1       3.295  -5.732  -6.344  1.00  0.00     0.167 A 
ATOM     18  C   UNL     1       1.941  -6.063  -6.590  1.00  0.00     0.064 A 
BRANCH  15  19
ATOM     19  C   UNL     1       1.907  -4.155  -3.554  1.00  0.00     0.065 A 
ATOM     20  C   UNL     1       1.170  -2.668  -1.325  1.00  0.00     0.067 A 
ATOM     21  C   UNL     1       0.711  -3.982  -1.468  1.00  0.00     0.022 A 
ATOM     22  C   UNL     1       2.040  -2.110  -2.265  1.00  0.00     0.022 A 
ATOM     23  C   UNL     1       1.065  -4.725  -2.591  1.00  0.00     0.030 A 
ATOM     24  C   UNL     1       2.431  -2.869  -3.373  1.00  0.00     0.030 A 
BRANCH  20  25
ATOM     25  S   UNL     1       0.537  -1.754   0.060  1.00  0.00     0.175 S 
ATOM     26  C   UNL     1       1.081  -0.079  -0.105  1.00  0.00     0.163 C 
ATOM     27  O   UNL     1       1.173  -2.318   1.236  1.00  0.00    -0.224 OA
ATOM     28  O   UNL     1      -0.906  -1.758  -0.084  1.00  0.00    -0.224 OA
ENDBRANCH  20  25
ENDBRANCH  15  19
BRANCH  17  29
ATOM     29  C   UNL     1       4.483  -6.184  -7.149  1.00  0.00     0.435 C 
ATOM     30  F   UNL     1       5.313  -5.165  -7.490  1.00  0.00    -0.164 F 
ATOM     31  F   UNL     1       5.236  -7.095  -6.473  1.00  0.00    -0.164 F 
ATOM     32  F   UNL     1       4.107  -6.787  -8.311  1.00  0.00    -0.164 F 
ENDBRANCH  17  29
ENDBRANCH   9  14
ENDBRANCH   7   8
ENDBRANCH   4   7
ENDBRANCH   2   3
ENDBRANCH   1   2
BRANCH   1  33
ATOM     33  C   UNL     1      -2.661  -5.868  -0.007  1.00  0.00     0.002 C 
BRANCH  33  34
ATOM     34  C   UNL     1      -3.427  -6.891   0.846  1.00  0.00     0.002 C 
BRANCH  34  35
ATOM     35  C   UNL     1      -2.944  -8.344   0.745  1.00  0.00     0.021 C 
BRANCH  35  36
ATOM     36  C   UNL     1      -1.536  -8.561   1.284  1.00  0.00     0.116 C 
BRANCH  36  37
ATOM     37  N   UNL     1      -1.466  -8.370   2.728  1.00  0.00    -0.352 N 
ATOM     38  C   UNL     1      -0.375  -8.495   3.562  1.00  0.00     0.251 C 
ATOM     39  H   UNL     1      -2.312  -8.119   3.166  1.00  0.00     0.163 HD
ATOM     40  O   UNL     1      -0.524  -8.678   4.759  1.00  0.00    -0.269 OA
BRANCH  38  41
ATOM     41  C   UNL     1       0.981  -8.416   2.988  1.00  0.00     0.039 A 
ATOM     42  C   UNL     1       1.992  -9.258   3.460  1.00  0.00     0.014 A 
ATOM     43  C   UNL     1       1.243  -7.484   1.984  1.00  0.00     0.014 A 
ATOM     44  C   UNL     1       3.247  -9.211   2.859  1.00  0.00     0.010 A 
ATOM     45  C   UNL     1       2.447  -7.513   1.317  1.00  0.00     0.010 A 
ATOM     46  C   UNL     1       3.462  -8.351   1.771  1.00  0.00    -0.014 A 
BRANCH  46  47
ATOM     47  C   UNL     1       4.705  -8.438   1.006  1.00  0.00     0.031 A 
ATOM     48  C   UNL     1       4.991  -9.791   0.442  1.00  0.00     0.074 A 
ATOM     49  C   UNL     1       5.417  -7.353   0.633  1.00  0.00     0.049 A 
ATOM     50  N   UNL     1       6.023 -10.539   0.655  1.00  0.00    -0.248 NA
ATOM     51  C   UNL     1       3.951 -10.439  -0.376  1.00  0.00     0.031 C 
ATOM     52  C   UNL     1       5.088  -5.940   0.839  1.00  0.00     0.029 A 
ATOM     53  N   UNL     1       6.545  -7.286  -0.127  1.00  0.00    -0.354 N 
ATOM     54  C   UNL     1       5.850 -11.681  -0.127  1.00  0.00     0.074 A 
ATOM     55  C   UNL     1       4.497 -11.633  -0.615  1.00  0.00     0.031 C 
ATOM     56  C   UNL     1       5.849  -5.177   0.024  1.00  0.00     0.029 A 
ATOM     57  C   UNL     1       6.816  -6.025  -0.649  1.00  0.00     0.049 A 
ATOM     58  H   UNL     1       7.121  -8.067  -0.294  1.00  0.00     0.167 HD
ATOM     59  C   UNL     1       6.911 -12.460  -0.480  1.00  0.00     0.037 A 
ATOM     60  C   UNL     1       7.741  -5.719  -1.596  1.00  0.00     0.037 A 
ATOM     61  C   UNL     1       8.043 -12.202   0.374  1.00  0.00     0.049 A 
ATOM     62  C   UNL     1       8.700  -6.852  -1.647  1.00  0.00     0.074 A 
ATOM     63  C   UNL     1       8.265 -12.286   1.736  1.00  0.00     0.029 A 
ATOM     64  N   UNL     1       9.062 -11.424  -0.117  1.00  0.00    -0.354 N 
ATOM     65  N   UNL     1       9.551  -7.131  -0.699  1.00  0.00    -0.248 NA
ATOM     66  C   UNL     1       8.406  -7.942  -2.565  1.00  0.00     0.031 C 
ATOM     67  C   UNL     1       9.074 -11.153   2.045  1.00  0.00     0.029 A 
ATOM     68  C   UNL     1       9.363 -10.499   0.848  1.00  0.00     0.049 A 
ATOM     69  H   UNL     1       9.495 -11.513  -0.997  1.00  0.00     0.167 HD
ATOM     70  C   UNL     1       9.546  -8.514  -0.626  1.00  0.00     0.074 A 
ATOM     71  C   UNL     1       8.897  -8.962  -1.856  1.00  0.00     0.031 C 
ATOM     72  C   UNL     1       9.799  -9.157   0.552  1.00  0.00     0.037 A 
BRANCH  59  73
ATOM     73  C   UNL     1       7.060 -13.178  -1.804  1.00  0.00     0.064 A 
ATOM     74  C   UNL     1       8.196 -13.989  -2.017  1.00  0.00     0.173 A 
ATOM     75  C   UNL     1       6.320 -12.863  -2.963  1.00  0.00     0.173 A 
ATOM     76  F   UNL     1       8.979 -14.355  -0.991  1.00  0.00    -0.203 F 
ATOM     77  C   UNL     1       8.615 -14.358  -3.298  1.00  0.00     0.198 A 
ATOM     78  C   UNL     1       6.712 -13.280  -4.236  1.00  0.00     0.198 A 
ATOM     79  F   UNL     1       5.255 -12.055  -2.937  1.00  0.00    -0.203 F 
ATOM     80  F   UNL     1       9.777 -15.005  -3.457  1.00  0.00    -0.200 F 
ATOM     81  C   UNL     1       7.878 -13.993  -4.408  1.00  0.00     0.200 A 
ATOM     82  F   UNL     1       5.988 -12.907  -5.301  1.00  0.00    -0.200 F 
ATOM     83  F   UNL     1       8.311 -14.286  -5.641  1.00  0.00    -0.200 F 
ENDBRANCH  59  73
BRANCH  60  84
ATOM     84  C   UNL     1       7.748  -4.644  -2.622  1.00  0.00     0.064 A 
ATOM     85  C   UNL     1       8.913  -4.373  -3.363  1.00  0.00     0.173 A 
ATOM     86  C   UNL     1       6.564  -4.042  -3.090  1.00  0.00     0.173 A 
ATOM     87  F   UNL     1      10.087  -4.911  -3.000  1.00  0.00    -0.203 F 
ATOM     88  C   UNL     1       8.886  -3.598  -4.527  1.00  0.00     0.198 A 
ATOM     89  C   UNL     1       6.544  -3.249  -4.241  1.00  0.00     0.198 A 
ATOM     90  F   UNL     1       5.390  -4.266  -2.485  1.00  0.00    -0.203 F 
ATOM     91  F   UNL     1      10.008  -3.421  -5.239  1.00  0.00    -0.200 F 
ATOM     92  C   UNL     1       7.698  -3.049  -4.974  1.00  0.00     0.200 A 
ATOM     93  F   UNL     1       5.396  -2.701  -4.659  1.00  0.00    -0.200 F 
ATOM     94  F   UNL     1       7.660  -2.348  -6.115  1.00  0.00    -0.200 F 
ENDBRANCH  60  84
BRANCH  72  95
ATOM     95  C   UNL     1      10.351  -8.357   1.698  1.00  0.00     0.064 A 
ATOM     96  C   UNL     1       9.698  -7.262   2.291  1.00  0.00     0.173 A 
ATOM     97  C   UNL     1      11.521  -8.820   2.318  1.00  0.00     0.173 A 
ATOM     98  F   UNL     1       8.522  -6.821   1.828  1.00  0.00    -0.203 F 
ATOM     99  C   UNL     1      10.220  -6.636   3.422  1.00  0.00     0.198 A 
ATOM    100  C   UNL     1      12.016  -8.220   3.471  1.00  0.00     0.198 A 
ATOM    101  F   UNL     1      12.160  -9.895   1.829  1.00  0.00    -0.203 F 
ATOM    102  F   UNL     1       9.587  -5.582   3.960  1.00  0.00    -0.200 F 
ATOM    103  C   UNL     1      11.373  -7.121   4.016  1.00  0.00     0.200 A 
ATOM    104  F   UNL     1      13.102  -8.726   4.070  1.00  0.00    -0.200 F 
ATOM    105  F   UNL     1      11.851  -6.547   5.129  1.00  0.00    -0.200 F 
ENDBRANCH  72  95
ENDBRANCH  46  47
ENDBRANCH  38  41
ENDBRANCH  36  37
ENDBRANCH  35  36
ENDBRANCH  34  35
ENDBRANCH  33  34
ENDBRANCH   1  33
TORSDOF 18
