REMARK SMILES Cc1cc(C(=O)N[C@H]2C=C[C@H](C(=O)NCCCCCCNC(=O)c3ccc(-c4c5nc(c(-c6c(F)c(F)c(F)c(F)c6F)c6ccc([nH]6)c(-c6c(F)c(F)c(F)c(F)c6F)c6nc(c(-c7c(F)c(F)c(F)c(F)c7F)c7ccc4[nH]7)C=C6)C=C5)cc3)C2)ccc1F
REMARK SMILES IDX 17 1 16 2 15 3 14 4 12 5 13 6 11 8 8 9 9 10 87 11 10 12 7 13
REMARK SMILES IDX 5 14 6 15 4 17 1 18 2 19 3 20 90 21 89 22 91 23 88 24 18 25
REMARK SMILES IDX 19 26 20 27 21 28 22 29 23 31 24 32 25 33 86 34 26 35 85 36
REMARK SMILES IDX 27 37 28 38 29 39 79 40 30 41 84 42 78 43 80 44 31 45 83 46
REMARK SMILES IDX 77 47 76 48 32 50 64 51 44 52 63 53 45 54 48 55 62 56 81 57
REMARK SMILES IDX 46 58 47 59 61 61 82 62 49 63 33 64 34 65 42 66 35 67 36 68
REMARK SMILES IDX 40 69 43 70 37 71 38 72 41 73 39 74 65 75 66 76 74 77 67 78
REMARK SMILES IDX 68 79 72 80 75 81 69 82 70 83 73 84 71 85 50 86 51 87 59 88
REMARK SMILES IDX 52 89 53 90 57 91 60 92 54 93 55 94 58 95 56 96
REMARK H PARENT 14 7 7 16 21 30 80 49 48 60
REMARK Flexibility Score: inf
ROOT
ATOM      1  C   UNL     1       2.458   8.128   1.166  1.00  0.00     0.002 C 
ENDROOT
BRANCH   1   2
ATOM      2  C   UNL     1       1.008   8.165   1.665  1.00  0.00     0.021 C 
BRANCH   2   3
ATOM      3  C   UNL     1       0.053   7.072   1.199  1.00  0.00     0.116 C 
BRANCH   3   4
ATOM      4  N   UNL     1       0.559   5.744   1.431  1.00  0.00    -0.356 N 
ATOM      5  C   UNL     1      -0.090   4.587   1.707  1.00  0.00     0.227 C 
ATOM      6  O   UNL     1       0.616   3.571   1.699  1.00  0.00    -0.274 OA
ATOM      7  H   UNL     1       1.539   5.664   1.380  1.00  0.00     0.163 HD
BRANCH   5   8
ATOM      8  C   UNL     1      -1.588   4.516   2.095  1.00  0.00     0.103 C 
ATOM      9  C   UNL     1      -2.545   3.293   0.267  1.00  0.00     0.106 C 
ATOM     10  C   UNL     1      -3.161   4.650   0.336  1.00  0.00    -0.006 C 
ATOM     11  C   UNL     1      -2.110   3.112   1.722  1.00  0.00     0.047 C 
ATOM     12  C   UNL     1      -2.592   5.346   1.331  1.00  0.00    -0.016 C 
BRANCH   9  13
ATOM     13  N   UNL     1      -3.453   2.297  -0.221  1.00  0.00    -0.346 N 
ATOM     14  C   UNL     1      -3.211   0.981  -0.544  1.00  0.00     0.251 C 
ATOM     15  O   UNL     1      -4.160   0.285  -0.906  1.00  0.00    -0.269 OA
ATOM     16  H   UNL     1      -4.383   2.598  -0.343  1.00  0.00     0.164 HD
BRANCH  14  17
ATOM     17  C   UNL     1      -1.865   0.348  -0.399  1.00  0.00     0.040 A 
ATOM     18  C   UNL     1       1.857   1.173  -0.462  1.00  0.00     0.047 C 
ATOM     19  C   UNL     1       0.577   0.400  -0.355  1.00  0.00    -0.015 A 
ATOM     20  C   UNL     1      -0.654   1.005  -0.650  1.00  0.00     0.020 A 
ATOM     21  C   UNL     1       0.585  -0.930   0.060  1.00  0.00     0.126 A 
ATOM     22  C   UNL     1      -0.602  -1.637   0.218  1.00  0.00     0.040 A 
ATOM     23  F   UNL     1       1.749  -1.545   0.309  1.00  0.00    -0.207 F 
ATOM     24  C   UNL     1      -1.825  -0.995   0.005  1.00  0.00     0.017 A 
ENDBRANCH  14  17
ENDBRANCH   9  13
ENDBRANCH   5   8
ENDBRANCH   3   4
ENDBRANCH   2   3
ENDBRANCH   1   2
BRANCH   1  25
ATOM     25  C   UNL     1       2.743   7.968  -0.335  1.00  0.00     0.002 C 
BRANCH  25  26
ATOM     26  C   UNL     1       1.891   8.753  -1.327  1.00  0.00     0.021 C 
BRANCH  26  27
ATOM     27  C   UNL     1       1.782  10.240  -1.058  1.00  0.00     0.116 C 
BRANCH  27  28
ATOM     28  N   UNL     1       2.703  11.088  -1.773  1.00  0.00    -0.352 N 
ATOM     29  C   UNL     1       2.736  12.472  -1.851  1.00  0.00     0.251 C 
ATOM     30  H   UNL     1       3.407  10.620  -2.277  1.00  0.00     0.163 HD
ATOM     31  O   UNL     1       3.494  12.989  -2.658  1.00  0.00    -0.269 OA
BRANCH  29  32
ATOM     32  C   UNL     1       1.967  13.337  -0.899  1.00  0.00     0.039 A 
ATOM     33  C   UNL     1       2.395  14.666  -0.736  1.00  0.00     0.014 A 
ATOM     34  C   UNL     1       0.957  12.865  -0.063  1.00  0.00     0.014 A 
ATOM     35  C   UNL     1       1.971  15.416   0.364  1.00  0.00     0.010 A 
ATOM     36  C   UNL     1       0.592  13.561   1.065  1.00  0.00     0.010 A 
ATOM     37  C   UNL     1       1.135  14.813   1.300  1.00  0.00    -0.014 A 
BRANCH  37  38
ATOM     38  C   UNL     1       0.757  15.399   2.568  1.00  0.00     0.031 A 
ATOM     39  C   UNL     1      -0.442  16.239   2.641  1.00  0.00     0.074 A 
ATOM     40  C   UNL     1       1.444  15.075   3.682  1.00  0.00     0.049 A 
ATOM     41  N   UNL     1      -0.535  17.285   3.384  1.00  0.00    -0.248 NA
ATOM     42  C   UNL     1      -1.644  15.951   1.867  1.00  0.00     0.031 C 
ATOM     43  C   UNL     1       1.127  15.430   5.059  1.00  0.00     0.029 A 
ATOM     44  N   UNL     1       2.711  14.483   3.754  1.00  0.00    -0.354 N 
ATOM     45  C   UNL     1      -1.862  17.636   3.412  1.00  0.00     0.074 A 
ATOM     46  C   UNL     1      -2.498  16.838   2.386  1.00  0.00     0.031 C 
ATOM     47  C   UNL     1       2.256  15.367   5.784  1.00  0.00     0.029 A 
ATOM     48  C   UNL     1       3.347  15.069   4.871  1.00  0.00     0.049 A 
ATOM     49  H   UNL     1       3.083  13.800   3.150  1.00  0.00     0.167 HD
ATOM     50  C   UNL     1      -2.323  18.437   4.414  1.00  0.00     0.037 A 
ATOM     51  C   UNL     1       4.469  15.826   4.693  1.00  0.00     0.037 A 
ATOM     52  C   UNL     1      -1.259  18.748   5.366  1.00  0.00     0.049 A 
ATOM     53  C   UNL     1       4.268  17.280   5.042  1.00  0.00     0.074 A 
ATOM     54  C   UNL     1      -0.908  18.165   6.574  1.00  0.00     0.029 A 
ATOM     55  N   UNL     1      -0.156  19.495   4.960  1.00  0.00    -0.354 N 
ATOM     56  N   UNL     1       3.097  17.831   5.210  1.00  0.00    -0.248 NA
ATOM     57  C   UNL     1       5.361  18.233   5.209  1.00  0.00     0.031 C 
ATOM     58  C   UNL     1       0.434  18.511   6.861  1.00  0.00     0.029 A 
ATOM     59  C   UNL     1       0.897  19.326   5.843  1.00  0.00     0.049 A 
ATOM     60  H   UNL     1      -0.129  20.065   4.158  1.00  0.00     0.167 HD
ATOM     61  C   UNL     1       3.249  19.167   5.470  1.00  0.00     0.074 A 
ATOM     62  C   UNL     1       4.687  19.363   5.489  1.00  0.00     0.031 C 
ATOM     63  C   UNL     1       2.174  19.996   5.636  1.00  0.00     0.037 A 
BRANCH  50  64
ATOM     64  C   UNL     1      -3.797  18.610   4.676  1.00  0.00     0.064 A 
ATOM     65  C   UNL     1      -4.315  18.637   5.986  1.00  0.00     0.173 A 
ATOM     66  C   UNL     1      -4.756  18.701   3.650  1.00  0.00     0.173 A 
ATOM     67  F   UNL     1      -3.513  18.651   7.057  1.00  0.00    -0.203 F 
ATOM     68  C   UNL     1      -5.688  18.634   6.245  1.00  0.00     0.198 A 
ATOM     69  C   UNL     1      -6.130  18.646   3.907  1.00  0.00     0.198 A 
ATOM     70  F   UNL     1      -4.382  18.853   2.370  1.00  0.00    -0.203 F 
ATOM     71  F   UNL     1      -6.124  18.639   7.513  1.00  0.00    -0.200 F 
ATOM     72  C   UNL     1      -6.595  18.600   5.206  1.00  0.00     0.200 A 
ATOM     73  F   UNL     1      -6.999  18.623   2.886  1.00  0.00    -0.200 F 
ATOM     74  F   UNL     1      -7.910  18.538   5.456  1.00  0.00    -0.200 F 
ENDBRANCH  50  64
BRANCH  51  75
ATOM     75  C   UNL     1       5.325  15.283   3.599  1.00  0.00     0.064 A 
ATOM     76  C   UNL     1       5.836  13.982   3.789  1.00  0.00     0.173 A 
ATOM     77  C   UNL     1       5.210  15.746   2.282  1.00  0.00     0.173 A 
ATOM     78  F   UNL     1       5.993  13.502   5.034  1.00  0.00    -0.203 F 
ATOM     79  C   UNL     1       6.014  13.114   2.716  1.00  0.00     0.198 A 
ATOM     80  C   UNL     1       5.436  14.883   1.206  1.00  0.00     0.198 A 
ATOM     81  F   UNL     1       4.753  16.982   2.035  1.00  0.00    -0.203 F 
ATOM     82  F   UNL     1       6.320  11.828   2.941  1.00  0.00    -0.200 F 
ATOM     83  C   UNL     1       5.770  13.553   1.427  1.00  0.00     0.200 A 
ATOM     84  F   UNL     1       5.246  15.317  -0.047  1.00  0.00    -0.200 F 
ATOM     85  F   UNL     1       5.817  12.685   0.406  1.00  0.00    -0.200 F 
ENDBRANCH  51  75
BRANCH  63  86
ATOM     86  C   UNL     1       2.220  21.503   5.728  1.00  0.00     0.064 A 
ATOM     87  C   UNL     1       3.210  22.300   5.133  1.00  0.00     0.173 A 
ATOM     88  C   UNL     1       1.151  22.212   6.332  1.00  0.00     0.173 A 
ATOM     89  F   UNL     1       4.206  21.759   4.419  1.00  0.00    -0.203 F 
ATOM     90  C   UNL     1       3.175  23.696   5.201  1.00  0.00     0.198 A 
ATOM     91  C   UNL     1       1.084  23.604   6.337  1.00  0.00     0.198 A 
ATOM     92  F   UNL     1       0.124  21.576   6.915  1.00  0.00    -0.203 F 
ATOM     93  F   UNL     1       4.174  24.410   4.665  1.00  0.00    -0.200 F 
ATOM     94  C   UNL     1       2.108  24.347   5.791  1.00  0.00     0.200 A 
ATOM     95  F   UNL     1       0.012  24.216   6.860  1.00  0.00    -0.200 F 
ATOM     96  F   UNL     1       2.056  25.685   5.812  1.00  0.00    -0.200 F 
ENDBRANCH  63  86
ENDBRANCH  37  38
ENDBRANCH  29  32
ENDBRANCH  27  28
ENDBRANCH  26  27
ENDBRANCH  25  26
ENDBRANCH   1  25
TORSDOF 15
