REMARK SMILES COc1ccc(N2CC[C@H](C(=O)NCCCCCCNC(=O)c3ccc(-c4c5nc(c(-c6c(F)c(F)c(F)c(F)c6F)c6ccc([nH]6)c(-c6c(F)c(F)c(F)c(F)c6F)c6nc(c(-c7c(F)c(F)c(F)c(F)c7F)c7ccc4[nH]7)C=C6)C=C5)cc3)C2=O)cc1
REMARK SMILES IDX 16 1 15 2 14 3 13 4 11 5 12 6 10 8 7 9 8 10 86 11 9 12 87 13
REMARK SMILES IDX 6 14 3 15 4 16 89 17 5 18 88 19 2 20 1 21 17 22 18 23 19 24
REMARK SMILES IDX 20 25 21 26 22 28 23 29 24 30 85 31 25 32 84 33 26 34 27 35
REMARK SMILES IDX 28 36 78 37 29 38 83 39 77 40 79 41 30 42 82 43 76 44 75 45
REMARK SMILES IDX 31 47 63 48 43 49 62 50 44 51 47 52 61 53 80 54 45 55 46 56
REMARK SMILES IDX 60 58 81 59 48 60 32 61 33 62 41 63 34 64 35 65 39 66 42 67
REMARK SMILES IDX 36 68 37 69 40 70 38 71 64 72 65 73 73 74 66 75 67 76 71 77
REMARK SMILES IDX 74 78 68 79 69 80 72 81 70 82 49 83 50 84 58 85 51 86 52 87
REMARK SMILES IDX 56 88 59 89 53 90 54 91 57 92 55 93
REMARK H PARENT 13 7 20 27 79 46 47 57
REMARK Flexibility Score: inf
ROOT
ATOM      1  C   UNL     1       7.152   1.178 -11.269  1.00  0.00     0.002 C 
ENDROOT
BRANCH   1   2
ATOM      2  C   UNL     1       6.846   1.722  -9.867  1.00  0.00     0.021 C 
BRANCH   2   3
ATOM      3  C   UNL     1       5.543   2.512  -9.736  1.00  0.00     0.116 C 
BRANCH   3   4
ATOM      4  N   UNL     1       4.393   1.711 -10.100  1.00  0.00    -0.355 N 
ATOM      5  C   UNL     1       3.215   1.515  -9.449  1.00  0.00     0.232 C 
ATOM      6  O   UNL     1       2.427   0.704  -9.941  1.00  0.00    -0.274 OA
ATOM      7  H   UNL     1       4.477   1.230 -10.955  1.00  0.00     0.163 HD
BRANCH   5   8
ATOM      8  C   UNL     1       2.884   2.302  -8.200  1.00  0.00     0.169 C 
ATOM      9  N   UNL     1       1.828   1.632  -6.193  1.00  0.00    -0.312 N 
ATOM     10  C   UNL     1       0.962   2.619  -6.787  1.00  0.00     0.127 C 
ATOM     11  C   UNL     1       3.001   1.470  -6.942  1.00  0.00     0.239 C 
ATOM     12  C   UNL     1       1.414   2.726  -8.222  1.00  0.00     0.045 C 
ATOM     13  O   UNL     1       3.994   0.806  -6.663  1.00  0.00    -0.274 OA
BRANCH   9  14
ATOM     14  C   UNL     1       1.542   1.046  -4.932  1.00  0.00     0.044 A 
ATOM     15  C   UNL     1       0.929  -0.056  -2.408  1.00  0.00     0.119 A 
ATOM     16  C   UNL     1      -0.092   0.308  -3.275  1.00  0.00     0.048 A 
ATOM     17  C   UNL     1       2.256   0.085  -2.806  1.00  0.00     0.048 A 
ATOM     18  C   UNL     1       0.212   0.877  -4.515  1.00  0.00     0.030 A 
ATOM     19  C   UNL     1       2.558   0.621  -4.067  1.00  0.00     0.030 A 
BRANCH  15  20
ATOM     20  O   UNL     1       0.558  -0.613  -1.216  1.00  0.00    -0.497 OA
ATOM     21  C   UNL     1       1.125   0.068  -0.099  1.00  0.00     0.278 C 
ENDBRANCH  15  20
ENDBRANCH   9  14
ENDBRANCH   5   8
ENDBRANCH   3   4
ENDBRANCH   2   3
ENDBRANCH   1   2
BRANCH   1  22
ATOM     22  C   UNL     1       7.207   2.217 -12.392  1.00  0.00     0.002 C 
BRANCH  22  23
ATOM     23  C   UNL     1       8.189   3.371 -12.176  1.00  0.00     0.021 C 
BRANCH  23  24
ATOM     24  C   UNL     1       9.635   2.959 -11.916  1.00  0.00     0.116 C 
BRANCH  24  25
ATOM     25  N   UNL     1      10.236   2.259 -13.039  1.00  0.00    -0.352 N 
ATOM     26  C   UNL     1      11.468   2.437 -13.618  1.00  0.00     0.251 C 
ATOM     27  H   UNL     1       9.678   1.554 -13.442  1.00  0.00     0.163 HD
ATOM     28  O   UNL     1      11.758   1.835 -14.649  1.00  0.00    -0.269 OA
BRANCH  26  29
ATOM     29  C   UNL     1      12.443   3.377 -13.023  1.00  0.00     0.039 A 
ATOM     30  C   UNL     1      13.136   4.249 -13.868  1.00  0.00     0.014 A 
ATOM     31  C   UNL     1      12.690   3.394 -11.647  1.00  0.00     0.014 A 
ATOM     32  C   UNL     1      14.028   5.179 -13.329  1.00  0.00     0.010 A 
ATOM     33  C   UNL     1      13.532   4.362 -11.104  1.00  0.00     0.010 A 
ATOM     34  C   UNL     1      14.211   5.263 -11.940  1.00  0.00    -0.014 A 
BRANCH  34  35
ATOM     35  C   UNL     1      15.110   6.283 -11.344  1.00  0.00     0.031 A 
ATOM     36  C   UNL     1      16.365   5.862 -10.633  1.00  0.00     0.074 A 
ATOM     37  C   UNL     1      14.767   7.584 -11.392  1.00  0.00     0.049 A 
ATOM     38  N   UNL     1      17.243   6.597  -9.997  1.00  0.00    -0.248 NA
ATOM     39  C   UNL     1      16.659   4.422 -10.615  1.00  0.00     0.031 C 
ATOM     40  C   UNL     1      13.558   8.117 -12.020  1.00  0.00     0.029 A 
ATOM     41  N   UNL     1      15.403   8.695 -10.898  1.00  0.00    -0.354 N 
ATOM     42  C   UNL     1      18.182   5.708  -9.491  1.00  0.00     0.074 A 
ATOM     43  C   UNL     1      17.742   4.377  -9.853  1.00  0.00     0.031 C 
ATOM     44  C   UNL     1      13.551   9.454 -11.895  1.00  0.00     0.029 A 
ATOM     45  C   UNL     1      14.737   9.868 -11.151  1.00  0.00     0.049 A 
ATOM     46  H   UNL     1      16.256   8.654 -10.407  1.00  0.00     0.167 HD
ATOM     47  C   UNL     1      19.319   5.978  -8.806  1.00  0.00     0.037 A 
ATOM     48  C   UNL     1      15.049  11.136 -10.821  1.00  0.00     0.037 A 
ATOM     49  C   UNL     1      19.770   7.302  -8.468  1.00  0.00     0.049 A 
ATOM     50  C   UNL     1      16.314  11.410 -10.056  1.00  0.00     0.074 A 
ATOM     51  C   UNL     1      20.934   7.682  -7.823  1.00  0.00     0.029 A 
ATOM     52  N   UNL     1      19.072   8.468  -8.751  1.00  0.00    -0.354 N 
ATOM     53  N   UNL     1      17.222  10.566  -9.630  1.00  0.00    -0.248 NA
ATOM     54  C   UNL     1      16.599  12.814  -9.730  1.00  0.00     0.031 C 
ATOM     55  C   UNL     1      20.924   9.075  -7.684  1.00  0.00     0.029 A 
ATOM     56  C   UNL     1      19.773   9.566  -8.278  1.00  0.00     0.049 A 
ATOM     57  H   UNL     1      18.206   8.508  -9.218  1.00  0.00     0.167 HD
ATOM     58  C   UNL     1      18.198  11.336  -9.011  1.00  0.00     0.074 A 
ATOM     59  C   UNL     1      17.774  12.717  -9.125  1.00  0.00     0.031 C 
ATOM     60  C   UNL     1      19.341  10.934  -8.405  1.00  0.00     0.037 A 
BRANCH  47  61
ATOM     61  C   UNL     1      20.157   4.808  -8.380  1.00  0.00     0.064 A 
ATOM     62  C   UNL     1      20.881   4.046  -9.310  1.00  0.00     0.173 A 
ATOM     63  C   UNL     1      20.250   4.453  -7.026  1.00  0.00     0.173 A 
ATOM     64  F   UNL     1      20.815   4.338 -10.618  1.00  0.00    -0.203 F 
ATOM     65  C   UNL     1      21.637   2.950  -8.905  1.00  0.00     0.198 A 
ATOM     66  C   UNL     1      21.030   3.373  -6.621  1.00  0.00     0.198 A 
ATOM     67  F   UNL     1      19.583   5.152  -6.096  1.00  0.00    -0.203 F 
ATOM     68  F   UNL     1      22.276   2.204  -9.817  1.00  0.00    -0.200 F 
ATOM     69  C   UNL     1      21.715   2.617  -7.561  1.00  0.00     0.200 A 
ATOM     70  F   UNL     1      21.114   3.059  -5.321  1.00  0.00    -0.200 F 
ATOM     71  F   UNL     1      22.444   1.562  -7.172  1.00  0.00    -0.200 F 
ENDBRANCH  47  61
BRANCH  48  72
ATOM     72  C   UNL     1      14.166  12.248 -11.252  1.00  0.00     0.064 A 
ATOM     73  C   UNL     1      14.565  13.122 -12.272  1.00  0.00     0.173 A 
ATOM     74  C   UNL     1      12.909  12.454 -10.667  1.00  0.00     0.173 A 
ATOM     75  F   UNL     1      15.769  12.975 -12.845  1.00  0.00    -0.203 F 
ATOM     76  C   UNL     1      13.744  14.169 -12.684  1.00  0.00     0.198 A 
ATOM     77  C   UNL     1      12.079  13.488 -11.096  1.00  0.00     0.198 A 
ATOM     78  F   UNL     1      12.481  11.643  -9.690  1.00  0.00    -0.203 F 
ATOM     79  F   UNL     1      14.164  15.010 -13.639  1.00  0.00    -0.200 F 
ATOM     80  C   UNL     1      12.499  14.348 -12.101  1.00  0.00     0.200 A 
ATOM     81  F   UNL     1      10.872  13.651 -10.538  1.00  0.00    -0.200 F 
ATOM     82  F   UNL     1      11.707  15.351 -12.502  1.00  0.00    -0.200 F 
ENDBRANCH  48  72
BRANCH  60  83
ATOM     83  C   UNL     1      20.233  12.004  -7.848  1.00  0.00     0.064 A 
ATOM     84  C   UNL     1      19.905  12.695  -6.673  1.00  0.00     0.173 A 
ATOM     85  C   UNL     1      21.447  12.315  -8.479  1.00  0.00     0.173 A 
ATOM     86  F   UNL     1      18.747  12.444  -6.043  1.00  0.00    -0.203 F 
ATOM     87  C   UNL     1      20.750  13.676  -6.161  1.00  0.00     0.198 A 
ATOM     88  C   UNL     1      22.301  13.279  -7.951  1.00  0.00     0.198 A 
ATOM     89  F   UNL     1      21.807  11.679  -9.603  1.00  0.00    -0.203 F 
ATOM     90  F   UNL     1      20.397  14.354  -5.061  1.00  0.00    -0.200 F 
ATOM     91  C   UNL     1      21.950  13.963  -6.797  1.00  0.00     0.200 A 
ATOM     92  F   UNL     1      23.464  13.549  -8.561  1.00  0.00    -0.200 F 
ATOM     93  F   UNL     1      22.764  14.904  -6.300  1.00  0.00    -0.200 F 
ENDBRANCH  60  83
ENDBRANCH  34  35
ENDBRANCH  26  29
ENDBRANCH  24  25
ENDBRANCH  23  24
ENDBRANCH  22  23
ENDBRANCH   1  22
TORSDOF 15
