REMARK SMILES N#C/C(=C\c1cn(CC(=O)NCCCCCCNC(=O)c2ccc(-c3c4nc(c(-c5c(F)c(F)c(F)c(F)c5F)c5ccc([nH]5)c(-c5c(F)c(F)c(F)c(F)c5F)c5nc(c(-c6c(F)c(F)c(F)c(F)c6F)c6ccc3[nH]6)C=C5)C=C4)cc2)c2ccccc12)C(=O)N1CCCC[C@@H]1C#N
REMARK SMILES IDX 13 1 12 2 11 3 9 4 10 5 8 7 7 8 5 9 6 10 89 11 84 12 88 13
REMARK SMILES IDX 85 14 87 15 86 16 4 17 3 18 2 19 1 20 90 21 91 22 92 23
REMARK SMILES IDX 93 24 97 25 94 26 96 27 95 28 98 29 99 30 14 31 15 32 16 33
REMARK SMILES IDX 17 34 18 35 19 36 20 38 21 39 22 40 83 41 23 42 82 43 24 44
REMARK SMILES IDX 25 45 26 46 76 47 27 48 81 49 75 50 77 51 28 52 80 53 74 54
REMARK SMILES IDX 73 55 29 57 61 58 41 59 60 60 42 61 45 62 59 63 78 64 43 65
REMARK SMILES IDX 44 66 58 68 79 69 46 70 30 71 31 72 39 73 32 74 33 75 37 76
REMARK SMILES IDX 40 77 34 78 35 79 38 80 36 81 62 82 63 83 71 84 64 85 65 86
REMARK SMILES IDX 69 87 72 88 66 89 67 90 70 91 68 92 47 93 48 94 56 95 49 96
REMARK SMILES IDX 50 97 54 98 57 99 51 100 52 101 55 102 53 103
REMARK H PARENT 11 6 18 37 77 56 45 67
REMARK Flexibility Score: inf
ROOT
ATOM      1  C   UNL     1       1.363  -2.449   3.542  1.00  0.00     0.021 C 
ENDROOT
BRANCH   1   2
ATOM      2  C   UNL     1       2.168  -3.667   3.993  1.00  0.00     0.116 C 
BRANCH   2   3
ATOM      3  N   UNL     1       1.490  -4.905   3.661  1.00  0.00    -0.355 N 
ATOM      4  C   UNL     1       1.792  -5.828   2.701  1.00  0.00     0.239 C 
ATOM      5  O   UNL     1       1.039  -6.796   2.568  1.00  0.00    -0.273 OA
ATOM      6  H   UNL     1       0.697  -5.110   4.207  1.00  0.00     0.163 HD
BRANCH   4   7
ATOM      7  C   UNL     1       3.062  -5.710   1.884  1.00  0.00     0.222 C 
BRANCH   7   8
ATOM      8  N   UNL     1       3.092  -4.550   1.003  1.00  0.00    -0.337 N 
ATOM      9  C   UNL     1       3.639  -2.541   0.226  1.00  0.00     0.002 A 
ATOM     10  C   UNL     1       4.022  -3.541   1.090  1.00  0.00     0.095 A 
ATOM     11  C   UNL     1       2.578  -3.061  -0.581  1.00  0.00     0.007 A 
ATOM     12  C   UNL     1       2.208  -4.292  -0.024  1.00  0.00     0.049 A 
ATOM     13  C   UNL     1       1.854  -2.596  -1.702  1.00  0.00     0.011 A 
ATOM     14  C   UNL     1       1.102  -5.021  -0.491  1.00  0.00     0.027 A 
ATOM     15  C   UNL     1       0.739  -3.304  -2.161  1.00  0.00     0.001 A 
ATOM     16  C   UNL     1       0.362  -4.492  -1.552  1.00  0.00     0.002 A 
BRANCH   9  17
ATOM     17  C   UNL     1       4.272  -1.254   0.230  1.00  0.00     0.035 C 
ATOM     18  C   UNL     1       3.703  -0.038   0.049  1.00  0.00     0.118 C 
BRANCH  18  19
ATOM     19  C   UNL     1       2.183  -0.038   0.049  1.00  0.00     0.105 C 
ATOM     20  N   UNL     1       0.922  -0.038   0.049  1.00  0.00    -0.192 NA
ENDBRANCH  18  19
BRANCH  18  21
ATOM     21  C   UNL     1       4.476   1.234   0.146  1.00  0.00     0.265 C 
ATOM     22  O   UNL     1       3.867   2.251   0.475  1.00  0.00    -0.268 OA
BRANCH  21  23
ATOM     23  N   UNL     1       5.862   1.245  -0.030  1.00  0.00    -0.322 N 
ATOM     24  C   UNL     1       6.619   2.297   0.654  1.00  0.00     0.121 C 
ATOM     25  C   UNL     1       6.696   0.342  -0.873  1.00  0.00     0.189 C 
ATOM     26  C   UNL     1       7.653   1.657   1.581  1.00  0.00     0.022 C 
ATOM     27  C   UNL     1       7.794  -0.315  -0.004  1.00  0.00     0.041 C 
ATOM     28  C   UNL     1       8.582   0.707   0.824  1.00  0.00     0.005 C 
BRANCH  25  29
ATOM     29  C   UNL     1       7.323   1.048  -2.016  1.00  0.00     0.087 C 
ATOM     30  N   UNL     1       7.855   1.586  -2.906  1.00  0.00    -0.196 NA
ENDBRANCH  25  29
ENDBRANCH  21  23
ENDBRANCH  18  21
ENDBRANCH   9  17
ENDBRANCH   7   8
ENDBRANCH   4   7
ENDBRANCH   2   3
ENDBRANCH   1   2
BRANCH   1  31
ATOM     31  C   UNL     1       0.109  -2.196   4.389  1.00  0.00     0.002 C 
BRANCH  31  32
ATOM     32  C   UNL     1       0.373  -1.941   5.879  1.00  0.00     0.002 C 
BRANCH  32  33
ATOM     33  C   UNL     1       1.301  -0.757   6.190  1.00  0.00     0.021 C 
BRANCH  33  34
ATOM     34  C   UNL     1       0.801   0.585   5.656  1.00  0.00     0.116 C 
BRANCH  34  35
ATOM     35  N   UNL     1      -0.512   0.936   6.154  1.00  0.00    -0.352 N 
ATOM     36  C   UNL     1      -1.001   1.665   7.198  1.00  0.00     0.251 C 
ATOM     37  H   UNL     1      -1.232   0.553   5.602  1.00  0.00     0.163 HD
ATOM     38  O   UNL     1      -2.225   1.823   7.215  1.00  0.00    -0.269 OA
BRANCH  36  39
ATOM     39  C   UNL     1      -0.208   2.197   8.339  1.00  0.00     0.039 A 
ATOM     40  C   UNL     1       1.171   2.084   8.514  1.00  0.00     0.014 A 
ATOM     41  C   UNL     1      -0.968   2.785   9.371  1.00  0.00     0.014 A 
ATOM     42  C   UNL     1       1.742   2.399   9.746  1.00  0.00     0.010 A 
ATOM     43  C   UNL     1      -0.400   3.125  10.590  1.00  0.00     0.010 A 
ATOM     44  C   UNL     1       0.940   2.851  10.805  1.00  0.00    -0.014 A 
BRANCH  44  45
ATOM     45  C   UNL     1       1.564   3.149  12.092  1.00  0.00     0.031 A 
ATOM     46  C   UNL     1       2.643   4.168  11.994  1.00  0.00     0.074 A 
ATOM     47  C   UNL     1       1.169   2.617  13.271  1.00  0.00     0.049 A 
ATOM     48  N   UNL     1       3.906   3.979  12.190  1.00  0.00    -0.248 NA
ATOM     49  C   UNL     1       2.317   5.495  11.447  1.00  0.00     0.031 C 
ATOM     50  C   UNL     1       0.011   1.766  13.555  1.00  0.00     0.029 A 
ATOM     51  N   UNL     1       1.724   2.778  14.511  1.00  0.00    -0.354 N 
ATOM     52  C   UNL     1       4.522   5.206  11.969  1.00  0.00     0.074 A 
ATOM     53  C   UNL     1       3.525   6.060  11.378  1.00  0.00     0.031 C 
ATOM     54  C   UNL     1      -0.177   1.680  14.894  1.00  0.00     0.029 A 
ATOM     55  C   UNL     1       0.925   2.341  15.569  1.00  0.00     0.049 A 
ATOM     56  H   UNL     1       2.617   3.170  14.647  1.00  0.00     0.167 HD
ATOM     57  C   UNL     1       5.750   5.469  12.493  1.00  0.00     0.037 A 
ATOM     58  C   UNL     1       1.150   2.541  16.898  1.00  0.00     0.037 A 
ATOM     59  C   UNL     1       6.423   4.249  12.859  1.00  0.00     0.049 A 
ATOM     60  C   UNL     1       2.604   2.802  17.059  1.00  0.00     0.074 A 
ATOM     61  C   UNL     1       6.876   3.151  12.154  1.00  0.00     0.029 A 
ATOM     62  N   UNL     1       6.359   3.853  14.172  1.00  0.00    -0.354 N 
ATOM     63  N   UNL     1       3.515   1.892  16.841  1.00  0.00    -0.248 NA
ATOM     64  C   UNL     1       3.047   4.183  16.936  1.00  0.00     0.031 C 
ATOM     65  C   UNL     1       6.577   2.034  12.986  1.00  0.00     0.029 A 
ATOM     66  C   UNL     1       6.053   2.517  14.185  1.00  0.00     0.049 A 
ATOM     67  H   UNL     1       6.505   4.425  14.960  1.00  0.00     0.167 HD
ATOM     68  C   UNL     1       4.496   2.554  16.121  1.00  0.00     0.074 A 
ATOM     69  C   UNL     1       4.169   3.976  16.242  1.00  0.00     0.031 C 
ATOM     70  C   UNL     1       5.300   1.887  15.243  1.00  0.00     0.037 A 
BRANCH  57  71
ATOM     71  C   UNL     1       6.182   6.810  13.025  1.00  0.00     0.064 A 
ATOM     72  C   UNL     1       7.513   6.980  13.460  1.00  0.00     0.173 A 
ATOM     73  C   UNL     1       5.278   7.818  13.422  1.00  0.00     0.173 A 
ATOM     74  F   UNL     1       8.453   6.073  13.155  1.00  0.00    -0.203 F 
ATOM     75  C   UNL     1       7.886   8.031  14.301  1.00  0.00     0.198 A 
ATOM     76  C   UNL     1       5.665   8.892  14.222  1.00  0.00     0.198 A 
ATOM     77  F   UNL     1       3.970   7.747  13.154  1.00  0.00    -0.203 F 
ATOM     78  F   UNL     1       9.131   8.079  14.794  1.00  0.00    -0.200 F 
ATOM     79  C   UNL     1       6.959   8.982  14.688  1.00  0.00     0.200 A 
ATOM     80  F   UNL     1       4.746   9.790  14.605  1.00  0.00    -0.200 F 
ATOM     81  F   UNL     1       7.297   9.953  15.546  1.00  0.00    -0.200 F 
ENDBRANCH  57  71
BRANCH  58  82
ATOM     82  C   UNL     1       0.161   2.902  17.952  1.00  0.00     0.064 A 
ATOM     83  C   UNL     1       0.478   2.850  19.323  1.00  0.00     0.173 A 
ATOM     84  C   UNL     1      -1.027   3.583  17.621  1.00  0.00     0.173 A 
ATOM     85  F   UNL     1       1.620   2.276  19.730  1.00  0.00    -0.203 F 
ATOM     86  C   UNL     1      -0.338   3.450  20.294  1.00  0.00     0.198 A 
ATOM     87  C   UNL     1      -1.839   4.180  18.589  1.00  0.00     0.198 A 
ATOM     88  F   UNL     1      -1.375   3.768  16.340  1.00  0.00    -0.203 F 
ATOM     89  F   UNL     1       0.023   3.424  21.586  1.00  0.00    -0.200 F 
ATOM     90  C   UNL     1      -1.491   4.122  19.925  1.00  0.00     0.200 A 
ATOM     91  F   UNL     1      -2.927   4.866  18.211  1.00  0.00    -0.200 F 
ATOM     92  F   UNL     1      -2.241   4.746  20.844  1.00  0.00    -0.200 F 
ENDBRANCH  58  82
BRANCH  70  93
ATOM     93  C   UNL     1       5.246   0.385  15.221  1.00  0.00     0.064 A 
ATOM     94  C   UNL     1       4.115  -0.359  14.838  1.00  0.00     0.173 A 
ATOM     95  C   UNL     1       6.445  -0.316  15.402  1.00  0.00     0.173 A 
ATOM     96  F   UNL     1       2.955   0.245  14.552  1.00  0.00    -0.203 F 
ATOM     97  C   UNL     1       4.184  -1.742  14.667  1.00  0.00     0.198 A 
ATOM     98  C   UNL     1       6.520  -1.690  15.196  1.00  0.00     0.198 A 
ATOM     99  F   UNL     1       7.569   0.350  15.713  1.00  0.00    -0.203 F 
ATOM    100  F   UNL     1       3.095  -2.430  14.289  1.00  0.00    -0.200 F 
ATOM    101  C   UNL     1       5.389  -2.404  14.834  1.00  0.00     0.200 A 
ATOM    102  F   UNL     1       7.700  -2.314  15.304  1.00  0.00    -0.200 F 
ATOM    103  F   UNL     1       5.471  -3.723  14.613  1.00  0.00    -0.200 F 
ENDBRANCH  70  93
ENDBRANCH  44  45
ENDBRANCH  36  39
ENDBRANCH  34  35
ENDBRANCH  33  34
ENDBRANCH  32  33
ENDBRANCH  31  32
ENDBRANCH   1  31
TORSDOF 19
