REMARK SMILES O=C(NCCCCCCNC(=O)[C@@H]1CCCN(c2ccc3cc(S(=O)(=O)N4CCCCC4)ccc3n2)C1)c1ccc(-c2c3nc(c(-c4c(F)c(F)c(F)c(F)c4F)c4ccc([nH]4)c(-c4c(F)c(F)c(F)c(F)c4F)c4nc(c(-c5c(F)c(F)c(F)c(F)c5F)c5ccc2[nH]5)C=C4)C=C3)cc1
REMARK SMILES IDX 7 1 6 2 5 3 4 4 3 5 1 6 2 7 38 9 39 10 100 11 40 12 99 13
REMARK SMILES IDX 41 14 42 15 43 16 93 17 44 18 98 19 92 20 94 21 45 22 97 23
REMARK SMILES IDX 91 24 90 25 46 27 78 28 58 29 77 30 59 31 62 32 76 33 95 34
REMARK SMILES IDX 60 35 61 36 75 38 96 39 63 40 47 41 48 42 56 43 49 44 50 45
REMARK SMILES IDX 54 46 57 47 51 48 52 49 55 50 53 51 79 52 80 53 88 54 81 55
REMARK SMILES IDX 82 56 86 57 89 58 83 59 84 60 87 61 85 62 64 63 65 64 73 65
REMARK SMILES IDX 66 66 67 67 71 68 74 69 68 70 69 71 72 72 70 73 8 74 9 75
REMARK SMILES IDX 10 76 11 77 12 79 13 80 14 81 37 82 15 83 17 84 16 85 18 86
REMARK SMILES IDX 19 87 36 88 20 89 35 90 21 91 34 92 22 93 33 94 23 95 24 96
REMARK SMILES IDX 25 97 26 98 27 99 28 100 32 101 29 102 31 103 30 104
REMARK H PARENT 3 8 94 26 62 37 10 78
REMARK Flexibility Score: inf
ROOT
ATOM      1  C   UNL     1       4.408  -2.936  -3.402  1.00  0.00     0.002 C 
ENDROOT
BRANCH   1   2
ATOM      2  C   UNL     1       3.829  -3.313  -2.035  1.00  0.00     0.002 C 
BRANCH   2   3
ATOM      3  C   UNL     1       4.445  -2.565  -0.852  1.00  0.00     0.021 C 
BRANCH   3   4
ATOM      4  C   UNL     1       4.363  -1.048  -0.965  1.00  0.00     0.116 C 
BRANCH   4   5
ATOM      5  N   UNL     1       2.986  -0.579  -0.996  1.00  0.00    -0.352 N 
ATOM      6  O   UNL     1       1.077   0.271  -0.137  1.00  0.00    -0.269 OA
ATOM      7  C   UNL     1       2.296   0.162  -0.069  1.00  0.00     0.251 C 
ATOM      8  H   UNL     1       2.474  -0.830  -1.798  1.00  0.00     0.163 HD
BRANCH   7   9
ATOM      9  C   UNL     1       3.037   0.815   1.028  1.00  0.00     0.039 A 
ATOM     10  C   UNL     1       4.234   1.481   0.764  1.00  0.00     0.014 A 
ATOM     11  C   UNL     1       2.537   0.752   2.331  1.00  0.00     0.014 A 
ATOM     12  C   UNL     1       5.017   1.928   1.818  1.00  0.00     0.010 A 
ATOM     13  C   UNL     1       3.276   1.304   3.381  1.00  0.00     0.010 A 
ATOM     14  C   UNL     1       4.541   1.861   3.138  1.00  0.00    -0.014 A 
BRANCH  14  15
ATOM     15  C   UNL     1       5.373   2.426   4.230  1.00  0.00     0.031 A 
ATOM     16  C   UNL     1       5.906   1.557   5.335  1.00  0.00     0.074 A 
ATOM     17  C   UNL     1       5.682   3.737   4.190  1.00  0.00     0.049 A 
ATOM     18  N   UNL     1       6.684   1.882   6.338  1.00  0.00    -0.248 NA
ATOM     19  C   UNL     1       5.508   0.141   5.323  1.00  0.00     0.031 C 
ATOM     20  C   UNL     1       5.213   4.679   3.171  1.00  0.00     0.029 A 
ATOM     21  N   UNL     1       6.480   4.499   5.003  1.00  0.00    -0.354 N 
ATOM     22  C   UNL     1       6.847   0.724   7.087  1.00  0.00     0.074 A 
ATOM     23  C   UNL     1       6.066  -0.308   6.439  1.00  0.00     0.031 C 
ATOM     24  C   UNL     1       5.779   5.875   3.382  1.00  0.00     0.029 A 
ATOM     25  C   UNL     1       6.591   5.804   4.591  1.00  0.00     0.049 A 
ATOM     26  H   UNL     1       6.929   4.145   5.804  1.00  0.00     0.167 HD
ATOM     27  C   UNL     1       7.588   0.541   8.207  1.00  0.00     0.037 A 
ATOM     28  C   UNL     1       7.261   6.836   5.135  1.00  0.00     0.037 A 
ATOM     29  C   UNL     1       8.376   1.573   8.834  1.00  0.00     0.049 A 
ATOM     30  C   UNL     1       8.051   6.607   6.391  1.00  0.00     0.074 A 
ATOM     31  C   UNL     1       9.198   1.477   9.944  1.00  0.00     0.029 A 
ATOM     32  N   UNL     1       8.433   2.894   8.411  1.00  0.00    -0.354 N 
ATOM     33  N   UNL     1       8.237   5.497   7.061  1.00  0.00    -0.248 NA
ATOM     34  C   UNL     1       8.725   7.778   6.964  1.00  0.00     0.031 C 
ATOM     35  C   UNL     1       9.701   2.751  10.230  1.00  0.00     0.029 A 
ATOM     36  C   UNL     1       9.251   3.628   9.257  1.00  0.00     0.049 A 
ATOM     37  H   UNL     1       7.962   3.256   7.626  1.00  0.00     0.167 HD
ATOM     38  C   UNL     1       9.072   5.826   8.119  1.00  0.00     0.074 A 
ATOM     39  C   UNL     1       9.372   7.238   7.987  1.00  0.00     0.031 C 
ATOM     40  C   UNL     1       9.547   5.032   9.110  1.00  0.00     0.037 A 
BRANCH  27  41
ATOM     41  C   UNL     1       7.561  -0.818   8.851  1.00  0.00     0.064 A 
ATOM     42  C   UNL     1       8.154  -1.939   8.251  1.00  0.00     0.173 A 
ATOM     43  C   UNL     1       6.965  -0.992  10.111  1.00  0.00     0.173 A 
ATOM     44  F   UNL     1       8.730  -1.833   7.043  1.00  0.00    -0.203 F 
ATOM     45  C   UNL     1       8.126  -3.186   8.872  1.00  0.00     0.198 A 
ATOM     46  C   UNL     1       6.968  -2.232  10.744  1.00  0.00     0.198 A 
ATOM     47  F   UNL     1       6.390   0.046  10.736  1.00  0.00    -0.203 F 
ATOM     48  F   UNL     1       8.655  -4.252   8.255  1.00  0.00    -0.200 F 
ATOM     49  C   UNL     1       7.540  -3.330  10.120  1.00  0.00     0.200 A 
ATOM     50  F   UNL     1       6.415  -2.365  11.957  1.00  0.00    -0.200 F 
ATOM     51  F   UNL     1       7.520  -4.529  10.719  1.00  0.00    -0.200 F 
ENDBRANCH  27  41
BRANCH  28  52
ATOM     52  C   UNL     1       7.215   8.173   4.487  1.00  0.00     0.064 A 
ATOM     53  C   UNL     1       8.362   8.735   3.911  1.00  0.00     0.173 A 
ATOM     54  C   UNL     1       6.025   8.915   4.429  1.00  0.00     0.173 A 
ATOM     55  F   UNL     1       9.527   8.071   3.955  1.00  0.00    -0.203 F 
ATOM     56  C   UNL     1       8.327   9.997   3.322  1.00  0.00     0.198 A 
ATOM     57  C   UNL     1       5.983  10.161   3.808  1.00  0.00     0.198 A 
ATOM     58  F   UNL     1       4.897   8.419   4.958  1.00  0.00    -0.203 F 
ATOM     59  F   UNL     1       9.450  10.531   2.823  1.00  0.00    -0.200 F 
ATOM     60  C   UNL     1       7.136  10.706   3.265  1.00  0.00     0.200 A 
ATOM     61  F   UNL     1       4.826  10.833   3.737  1.00  0.00    -0.200 F 
ATOM     62  F   UNL     1       7.102  11.916   2.692  1.00  0.00    -0.200 F 
ENDBRANCH  28  52
BRANCH  40  63
ATOM     63  C   UNL     1      10.485   5.663  10.099  1.00  0.00     0.064 A 
ATOM     64  C   UNL     1      10.050   6.620  11.029  1.00  0.00     0.173 A 
ATOM     65  C   UNL     1      11.839   5.295  10.122  1.00  0.00     0.173 A 
ATOM     66  F   UNL     1       8.770   7.019  11.039  1.00  0.00    -0.203 F 
ATOM     67  C   UNL     1      10.944   7.212  11.917  1.00  0.00     0.198 A 
ATOM     68  C   UNL     1      12.722   5.862  11.036  1.00  0.00     0.198 A 
ATOM     69  F   UNL     1      12.307   4.381   9.259  1.00  0.00    -0.203 F 
ATOM     70  F   UNL     1      10.520   8.172  12.751  1.00  0.00    -0.200 F 
ATOM     71  C   UNL     1      12.277   6.828  11.925  1.00  0.00     0.200 A 
ATOM     72  F   UNL     1      14.006   5.478  11.052  1.00  0.00    -0.200 F 
ATOM     73  F   UNL     1      13.135   7.399  12.781  1.00  0.00    -0.200 F 
ENDBRANCH  40  63
ENDBRANCH  14  15
ENDBRANCH   7   9
ENDBRANCH   4   5
ENDBRANCH   3   4
ENDBRANCH   2   3
ENDBRANCH   1   2
BRANCH   1  74
ATOM     74  C   UNL     1       5.936  -2.971  -3.479  1.00  0.00     0.021 C 
BRANCH  74  75
ATOM     75  C   UNL     1       6.549  -4.338  -3.198  1.00  0.00     0.116 C 
BRANCH  75  76
ATOM     76  N   UNL     1       6.606  -5.196  -4.356  1.00  0.00    -0.356 N 
ATOM     77  C   UNL     1       7.645  -5.702  -5.061  1.00  0.00     0.224 C 
ATOM     78  H   UNL     1       5.723  -5.463  -4.699  1.00  0.00     0.163 HD
ATOM     79  O   UNL     1       7.337  -6.502  -5.958  1.00  0.00    -0.275 OA
BRANCH  77  80
ATOM     80  C   UNL     1       9.114  -5.287  -4.933  1.00  0.00     0.098 C 
ATOM     81  C   UNL     1       9.757  -4.935  -3.587  1.00  0.00     0.017 C 
ATOM     82  C   UNL     1       9.418  -4.233  -5.985  1.00  0.00     0.131 C 
ATOM     83  C   UNL     1       9.914  -3.437  -3.237  1.00  0.00     0.022 C 
ATOM     84  N   UNL     1       8.998  -2.944  -5.468  1.00  0.00    -0.356 N 
ATOM     85  C   UNL     1       9.787  -2.408  -4.374  1.00  0.00     0.118 C 
BRANCH  84  86
ATOM     86  C   UNL     1       8.194  -2.121  -6.233  1.00  0.00     0.129 A 
ATOM     87  C   UNL     1       7.097  -2.650  -6.918  1.00  0.00     0.047 A 
ATOM     88  N   UNL     1       8.426  -0.792  -6.237  1.00  0.00    -0.231 NA
ATOM     89  C   UNL     1       6.194  -1.813  -7.558  1.00  0.00     0.014 A 
ATOM     90  C   UNL     1       7.596   0.017  -6.918  1.00  0.00     0.073 A 
ATOM     91  C   UNL     1       6.436  -0.447  -7.569  1.00  0.00     0.002 A 
ATOM     92  C   UNL     1       7.881   1.370  -7.002  1.00  0.00     0.030 A 
ATOM     93  C   UNL     1       5.564   0.439  -8.217  1.00  0.00     0.032 A 
ATOM     94  C   UNL     1       7.044   2.261  -7.687  1.00  0.00     0.024 A 
ATOM     95  C   UNL     1       5.869   1.800  -8.275  1.00  0.00     0.083 A 
BRANCH  95  96
ATOM     96  S   UNL     1       4.698   2.837  -9.135  1.00  0.00     0.243 S 
ATOM     97  O   UNL     1       4.630   2.314 -10.488  1.00  0.00    -0.207 OA
ATOM     98  O   UNL     1       3.526   2.892  -8.293  1.00  0.00    -0.207 OA
BRANCH  96  99
ATOM     99  N   UNL     1       5.361   4.405  -9.223  1.00  0.00    -0.198 NA
ATOM    100  C   UNL     1       5.346   5.190  -7.965  1.00  0.00     0.102 C 
ATOM    101  C   UNL     1       6.505   4.576 -10.149  1.00  0.00     0.102 C 
ATOM    102  C   UNL     1       5.785   6.631  -8.180  1.00  0.00     0.017 C 
ATOM    103  C   UNL     1       6.899   6.037 -10.309  1.00  0.00     0.017 C 
ATOM    104  C   UNL     1       7.089   6.705  -8.957  1.00  0.00     0.003 C 
ENDBRANCH  96  99
ENDBRANCH  95  96
ENDBRANCH  84  86
ENDBRANCH  77  80
ENDBRANCH  75  76
ENDBRANCH  74  75
ENDBRANCH   1  74
TORSDOF 16
