REMARK SMILES COc1ccc(-c2nc(NCC(=O)NCCCCCCNC(=O)c3ccc(-c4c5nc(c(-c6c(F)c(F)c(F)c(F)c6F)c6ccc([nH]6)c(-c6c(F)c(F)c(F)c(F)c6F)c6nc(c(-c7c(F)c(F)c(F)c(F)c7F)c7ccc4[nH]7)C=C6)C=C5)cc3)sc2-c2ccc(OC)cc2)cc1
REMARK SMILES IDX 16 1 15 2 14 3 12 4 13 5 11 7 10 8 9 10 7 11 8 12 88 13
REMARK SMILES IDX 87 14 6 15 3 16 4 17 98 18 5 19 97 20 2 21 1 22 89 23 90 24
REMARK SMILES IDX 96 25 91 26 95 27 92 28 93 29 94 30 17 31 18 32 19 33 20 34
REMARK SMILES IDX 21 35 22 36 23 38 24 39 25 40 86 41 26 42 85 43 27 44 28 45
REMARK SMILES IDX 29 46 79 47 30 48 84 49 78 50 80 51 31 52 83 53 77 54 76 55
REMARK SMILES IDX 32 57 64 58 44 59 63 60 45 61 48 62 62 63 81 64 46 65 47 66
REMARK SMILES IDX 61 68 82 69 49 70 33 71 34 72 42 73 35 74 36 75 40 76 43 77
REMARK SMILES IDX 37 78 38 79 41 80 39 81 65 82 66 83 74 84 67 85 68 86 72 87
REMARK SMILES IDX 75 88 69 89 70 90 73 91 71 92 50 93 51 94 59 95 52 96 53 97
REMARK SMILES IDX 57 98 60 99 54 100 55 101 58 102 56 103
REMARK H PARENT 14 6 10 9 21 37 80 56 48 67
REMARK Flexibility Score: inf
ROOT
ATOM      1  C   UNL     1       5.983   8.065  -0.101  1.00  0.00     0.021 C 
ENDROOT
BRANCH   1   2
ATOM      2  C   UNL     1       5.299   9.425  -0.238  1.00  0.00     0.116 C 
BRANCH   2   3
ATOM      3  N   UNL     1       5.909  10.212  -1.290  1.00  0.00    -0.355 N 
ATOM      4  C   UNL     1       5.423  10.493  -2.537  1.00  0.00     0.239 C 
ATOM      5  O   UNL     1       6.151  11.103  -3.324  1.00  0.00    -0.273 OA
ATOM      6  H   UNL     1       6.792  10.595  -1.080  1.00  0.00     0.163 HD
BRANCH   4   7
ATOM      7  C   UNL     1       3.985  10.108  -2.907  1.00  0.00     0.215 C 
BRANCH   7   8
ATOM      8  N   UNL     1       3.808   8.666  -2.970  1.00  0.00    -0.352 N 
ATOM      9  H   UNL     1       4.452   8.157  -3.514  1.00  0.00     0.163 HD
BRANCH   8  10
ATOM     10  C   UNL     1       2.837   7.966  -2.346  1.00  0.00     0.184 A 
ATOM     11  C   UNL     1       1.786   6.162  -1.597  1.00  0.00     0.091 A 
ATOM     12  N   UNL     1       2.812   6.654  -2.386  1.00  0.00    -0.220 NA
ATOM     13  C   UNL     1       1.081   7.115  -0.875  1.00  0.00     0.064 A 
ATOM     14  S   UNL     1       1.575   8.668  -1.399  1.00  0.00    -0.096 S 
BRANCH  11  15
ATOM     15  C   UNL     1       1.519   4.735  -1.506  1.00  0.00     0.002 A 
ATOM     16  C   UNL     1       0.946   2.011  -1.173  1.00  0.00     0.118 A 
ATOM     17  C   UNL     1      -0.046   2.886  -1.613  1.00  0.00     0.047 A 
ATOM     18  C   UNL     1       2.239   2.486  -0.947  1.00  0.00     0.047 A 
ATOM     19  C   UNL     1       0.235   4.243  -1.773  1.00  0.00     0.014 A 
ATOM     20  C   UNL     1       2.527   3.846  -1.119  1.00  0.00     0.014 A 
BRANCH  16  21
ATOM     21  O   UNL     1       0.564   0.704  -1.048  1.00  0.00    -0.497 OA
ATOM     22  C   UNL     1       1.143   0.019   0.058  1.00  0.00     0.278 C 
ENDBRANCH  16  21
ENDBRANCH  11  15
BRANCH  13  23
ATOM     23  C   UNL     1       0.093   6.971   0.199  1.00  0.00    -0.006 A 
ATOM     24  C   UNL     1      -1.142   7.624   0.162  1.00  0.00     0.013 A 
ATOM     25  C   UNL     1       0.383   6.146   1.297  1.00  0.00     0.013 A 
ATOM     26  C   UNL     1      -2.070   7.438   1.192  1.00  0.00     0.047 A 
ATOM     27  C   UNL     1      -0.548   5.956   2.324  1.00  0.00     0.047 A 
ATOM     28  C   UNL     1      -1.784   6.595   2.269  1.00  0.00     0.118 A 
BRANCH  28  29
ATOM     29  O   UNL     1      -2.783   6.484   3.197  1.00  0.00    -0.497 OA
ATOM     30  C   UNL     1      -2.607   5.499   4.209  1.00  0.00     0.278 C 
ENDBRANCH  28  29
ENDBRANCH  13  23
ENDBRANCH   8  10
ENDBRANCH   7   8
ENDBRANCH   4   7
ENDBRANCH   2   3
ENDBRANCH   1   2
BRANCH   1  31
ATOM     31  C   UNL     1       7.362   8.140   0.569  1.00  0.00     0.002 C 
BRANCH  31  32
ATOM     32  C   UNL     1       7.361   8.711   1.993  1.00  0.00     0.002 C 
BRANCH  32  33
ATOM     33  C   UNL     1       6.426   8.004   2.978  1.00  0.00     0.021 C 
BRANCH  33  34
ATOM     34  C   UNL     1       6.735   6.527   3.195  1.00  0.00     0.116 C 
BRANCH  34  35
ATOM     35  N   UNL     1       8.035   6.326   3.815  1.00  0.00    -0.352 N 
ATOM     36  C   UNL     1       8.368   5.574   4.911  1.00  0.00     0.251 C 
ATOM     37  H   UNL     1       8.784   6.798   3.385  1.00  0.00     0.163 HD
ATOM     38  O   UNL     1       9.490   5.669   5.408  1.00  0.00    -0.269 OA
BRANCH  36  39
ATOM     39  C   UNL     1       7.379   4.655   5.512  1.00  0.00     0.039 A 
ATOM     40  C   UNL     1       7.265   4.602   6.904  1.00  0.00     0.014 A 
ATOM     41  C   UNL     1       6.590   3.825   4.711  1.00  0.00     0.014 A 
ATOM     42  C   UNL     1       6.329   3.749   7.492  1.00  0.00     0.010 A 
ATOM     43  C   UNL     1       5.612   3.024   5.294  1.00  0.00     0.010 A 
ATOM     44  C   UNL     1       5.480   2.969   6.690  1.00  0.00    -0.014 A 
BRANCH  44  45
ATOM     45  C   UNL     1       4.473   2.060   7.293  1.00  0.00     0.031 A 
ATOM     46  C   UNL     1       4.609   0.573   7.121  1.00  0.00     0.074 A 
ATOM     47  C   UNL     1       3.415   2.572   7.950  1.00  0.00     0.049 A 
ATOM     48  N   UNL     1       3.797  -0.384   7.497  1.00  0.00    -0.248 NA
ATOM     49  C   UNL     1       5.805   0.098   6.407  1.00  0.00     0.031 C 
ATOM     50  C   UNL     1       3.156   3.997   8.159  1.00  0.00     0.029 A 
ATOM     51  N   UNL     1       2.354   1.949   8.559  1.00  0.00    -0.354 N 
ATOM     52  C   UNL     1       4.379  -1.566   7.059  1.00  0.00     0.074 A 
ATOM     53  C   UNL     1       5.581  -1.206   6.338  1.00  0.00     0.031 C 
ATOM     54  C   UNL     1       2.024   4.139   8.868  1.00  0.00     0.029 A 
ATOM     55  C   UNL     1       1.459   2.819   9.132  1.00  0.00     0.049 A 
ATOM     56  H   UNL     1       2.246   0.971   8.583  1.00  0.00     0.167 HD
ATOM     57  C   UNL     1       3.964  -2.840   7.261  1.00  0.00     0.037 A 
ATOM     58  C   UNL     1       0.312   2.575   9.793  1.00  0.00     0.037 A 
ATOM     59  C   UNL     1       2.782  -3.198   8.000  1.00  0.00     0.049 A 
ATOM     60  C   UNL     1      -0.131   1.151   9.996  1.00  0.00     0.074 A 
ATOM     61  C   UNL     1       2.285  -4.459   8.278  1.00  0.00     0.029 A 
ATOM     62  N   UNL     1       1.916  -2.288   8.588  1.00  0.00    -0.354 N 
ATOM     63  N   UNL     1       0.446   0.040   9.607  1.00  0.00    -0.248 NA
ATOM     64  C   UNL     1      -1.383   0.947  10.739  1.00  0.00     0.031 C 
ATOM     65  C   UNL     1       1.101  -4.312   9.008  1.00  0.00     0.029 A 
ATOM     66  C   UNL     1       0.884  -2.961   9.223  1.00  0.00     0.049 A 
ATOM     67  H   UNL     1       2.018  -1.310   8.558  1.00  0.00     0.167 HD
ATOM     68  C   UNL     1      -0.347  -0.992  10.091  1.00  0.00     0.074 A 
ATOM     69  C   UNL     1      -1.443  -0.374  10.809  1.00  0.00     0.031 C 
ATOM     70  C   UNL     1      -0.182  -2.330   9.956  1.00  0.00     0.037 A 
BRANCH  57  71
ATOM     71  C   UNL     1       4.804  -3.941   6.684  1.00  0.00     0.064 A 
ATOM     72  C   UNL     1       6.069  -4.249   7.208  1.00  0.00     0.173 A 
ATOM     73  C   UNL     1       4.330  -4.719   5.617  1.00  0.00     0.173 A 
ATOM     74  F   UNL     1       6.575  -3.526   8.219  1.00  0.00    -0.203 F 
ATOM     75  C   UNL     1       6.839  -5.276   6.668  1.00  0.00     0.198 A 
ATOM     76  C   UNL     1       5.090  -5.765   5.099  1.00  0.00     0.198 A 
ATOM     77  F   UNL     1       3.126  -4.469   5.080  1.00  0.00    -0.203 F 
ATOM     78  F   UNL     1       8.065  -5.518   7.153  1.00  0.00    -0.200 F 
ATOM     79  C   UNL     1       6.346  -6.038   5.620  1.00  0.00     0.200 A 
ATOM     80  F   UNL     1       4.607  -6.508   4.093  1.00  0.00    -0.200 F 
ATOM     81  F   UNL     1       7.085  -7.030   5.105  1.00  0.00    -0.200 F 
ENDBRANCH  57  71
BRANCH  58  82
ATOM     82  C   UNL     1      -0.487   3.701  10.344  1.00  0.00     0.064 A 
ATOM     83  C   UNL     1      -0.588   3.897  11.729  1.00  0.00     0.173 A 
ATOM     84  C   UNL     1      -1.184   4.583   9.507  1.00  0.00     0.173 A 
ATOM     85  F   UNL     1       0.044   3.065  12.570  1.00  0.00    -0.203 F 
ATOM     86  C   UNL     1      -1.379   4.915  12.257  1.00  0.00     0.198 A 
ATOM     87  C   UNL     1      -1.952   5.619  10.036  1.00  0.00     0.198 A 
ATOM     88  F   UNL     1      -1.118   4.441   8.175  1.00  0.00    -0.203 F 
ATOM     89  F   UNL     1      -1.501   5.045  13.585  1.00  0.00    -0.200 F 
ATOM     90  C   UNL     1      -2.057   5.778  11.409  1.00  0.00     0.200 A 
ATOM     91  F   UNL     1      -2.596   6.458   9.213  1.00  0.00    -0.200 F 
ATOM     92  F   UNL     1      -2.821   6.755  11.917  1.00  0.00    -0.200 F 
ENDBRANCH  58  82
BRANCH  70  93
ATOM     93  C   UNL     1      -1.174  -3.219  10.647  1.00  0.00     0.064 A 
ATOM     94  C   UNL     1      -2.491  -3.356  10.186  1.00  0.00     0.173 A 
ATOM     95  C   UNL     1      -0.788  -3.969  11.768  1.00  0.00     0.173 A 
ATOM     96  F   UNL     1      -2.913  -2.648   9.127  1.00  0.00    -0.203 F 
ATOM     97  C   UNL     1      -3.394  -4.191  10.839  1.00  0.00     0.198 A 
ATOM     98  C   UNL     1      -1.684  -4.825  12.401  1.00  0.00     0.198 A 
ATOM     99  F   UNL     1       0.463  -3.877  12.244  1.00  0.00    -0.203 F 
ATOM    100  F   UNL     1      -4.661  -4.270  10.411  1.00  0.00    -0.200 F 
ATOM    101  C   UNL     1      -2.988  -4.929  11.941  1.00  0.00     0.200 A 
ATOM    102  F   UNL     1      -1.287  -5.547  13.458  1.00  0.00    -0.200 F 
ATOM    103  F   UNL     1      -3.857  -5.736  12.565  1.00  0.00    -0.200 F 
ENDBRANCH  70  93
ENDBRANCH  44  45
ENDBRANCH  36  39
ENDBRANCH  34  35
ENDBRANCH  33  34
ENDBRANCH  32  33
ENDBRANCH  31  32
ENDBRANCH   1  31
TORSDOF 19
