REMARK SMILES C[C@@](COc1ccccc1)(NC(=O)CN1CSCC1=O)C(=O)NCCCCCCNC(=O)c1ccc(-c2c3nc(c(-c4c(F)c(F)c(F)c(F)c4F)c4ccc([nH]4)c(-c4c(F)c(F)c(F)c(F)c4F)c4nc(c(-c5c(F)c(F)c(F)c(F)c5F)c5ccc2[nH]5)C=C4)C=C3)cc1
REMARK SMILES IDX 26 1 25 2 24 3 23 4 21 5 22 6 2 8 1 9 3 10 4 11 5 12 6 13
REMARK SMILES IDX 10 14 7 15 9 16 8 17 11 18 12 19 13 21 14 22 15 23 16 24
REMARK SMILES IDX 19 25 17 26 18 27 20 28 27 29 28 30 29 31 30 32 31 33 32 35
REMARK SMILES IDX 33 36 34 37 95 38 35 39 94 40 36 41 37 42 38 43 88 44 39 45
REMARK SMILES IDX 93 46 87 47 89 48 40 49 92 50 86 51 85 52 41 54 73 55 53 56
REMARK SMILES IDX 72 57 54 58 57 59 71 60 90 61 55 62 56 63 70 65 91 66 58 67
REMARK SMILES IDX 42 68 43 69 51 70 44 71 45 72 49 73 52 74 46 75 47 76 50 77
REMARK SMILES IDX 48 78 74 79 75 80 83 81 76 82 77 83 81 84 84 85 78 86 79 87
REMARK SMILES IDX 82 88 80 89 59 90 60 91 68 92 61 93 62 94 66 95 69 96 63 97
REMARK SMILES IDX 64 98 67 99 65 100
REMARK H PARENT 23 7 11 20 30 34 89 53 57 64
REMARK Flexibility Score: inf
ROOT
ATOM      1  C   UNL     1      -0.806   2.092   5.814  1.00  0.00     0.002 C 
ENDROOT
BRANCH   1   2
ATOM      2  C   UNL     1      -1.288   2.520   4.423  1.00  0.00     0.021 C 
BRANCH   2   3
ATOM      3  C   UNL     1      -0.191   2.977   3.463  1.00  0.00     0.116 C 
BRANCH   3   4
ATOM      4  N   UNL     1       0.977   2.116   3.437  1.00  0.00    -0.354 N 
ATOM      5  C   UNL     1       1.504   1.335   2.453  1.00  0.00     0.249 C 
ATOM      6  O   UNL     1       2.693   1.021   2.572  1.00  0.00    -0.272 OA
ATOM      7  H   UNL     1       1.478   2.091   4.284  1.00  0.00     0.163 HD
BRANCH   5   8
ATOM      8  C   UNL     1       0.736   1.034   1.145  1.00  0.00     0.150 C 
ATOM      9  C   UNL     1       1.335  -0.216   0.460  1.00  0.00     0.049 C 
BRANCH   8  10
ATOM     10  C   UNL     1       1.007   2.296   0.257  1.00  0.00     0.267 C 
BRANCH  10  11
ATOM     11  O   UNL     1       0.020   2.428  -0.788  1.00  0.00    -0.491 OA
BRANCH  11  12
ATOM     12  C   UNL     1       0.513   2.005  -1.989  1.00  0.00     0.119 A 
ATOM     13  C   UNL     1       1.374   2.810  -2.732  1.00  0.00     0.046 A 
ATOM     14  C   UNL     1       0.114   0.759  -2.463  1.00  0.00     0.046 A 
ATOM     15  C   UNL     1       1.900   2.324  -3.928  1.00  0.00     0.004 A 
ATOM     16  C   UNL     1       0.658   0.266  -3.645  1.00  0.00     0.004 A 
ATOM     17  C   UNL     1       1.558   1.045  -4.373  1.00  0.00     0.000 A 
ENDBRANCH  11  12
ENDBRANCH  10  11
ENDBRANCH   8  10
BRANCH   8  18
ATOM     18  N   UNL     1      -0.733   0.854   1.288  1.00  0.00    -0.338 N 
ATOM     19  C   UNL     1      -1.480  -0.068   1.955  1.00  0.00     0.240 C 
ATOM     20  H   UNL     1      -1.266   1.529   0.809  1.00  0.00     0.164 HD
ATOM     21  O   UNL     1      -2.631  -0.266   1.556  1.00  0.00    -0.273 OA
BRANCH  19  22
ATOM     22  C   UNL     1      -0.969  -0.781   3.209  1.00  0.00     0.220 C 
BRANCH  22  23
ATOM     23  N   UNL     1      -0.025  -1.855   3.007  1.00  0.00    -0.323 N 
ATOM     24  C   UNL     1      -0.434  -3.049   2.322  1.00  0.00     0.190 C 
ATOM     25  C   UNL     1       1.193  -1.875   3.661  1.00  0.00     0.233 C 
ATOM     26  S   UNL     1       0.965  -4.178   2.343  1.00  0.00    -0.130 SA
ATOM     27  C   UNL     1       2.057  -3.023   3.208  1.00  0.00     0.171 C 
ATOM     28  O   UNL     1       1.551  -1.037   4.480  1.00  0.00    -0.274 OA
ENDBRANCH  22  23
ENDBRANCH  19  22
ENDBRANCH   8  18
ENDBRANCH   5   8
ENDBRANCH   3   4
ENDBRANCH   2   3
ENDBRANCH   1   2
BRANCH   1  29
ATOM     29  C   UNL     1      -0.053   3.170   6.596  1.00  0.00     0.002 C 
BRANCH  29  30
ATOM     30  C   UNL     1      -0.782   4.507   6.704  1.00  0.00     0.021 C 
BRANCH  30  31
ATOM     31  C   UNL     1      -2.193   4.410   7.269  1.00  0.00     0.116 C 
BRANCH  31  32
ATOM     32  N   UNL     1      -2.198   4.006   8.664  1.00  0.00    -0.352 N 
ATOM     33  C   UNL     1      -2.761   4.649   9.739  1.00  0.00     0.251 C 
ATOM     34  H   UNL     1      -1.737   3.160   8.866  1.00  0.00     0.163 HD
ATOM     35  O   UNL     1      -2.515   4.291  10.883  1.00  0.00    -0.269 OA
BRANCH  33  36
ATOM     36  C   UNL     1      -3.650   5.805   9.499  1.00  0.00     0.039 A 
ATOM     37  C   UNL     1      -3.436   6.981  10.219  1.00  0.00     0.014 A 
ATOM     38  C   UNL     1      -4.669   5.734   8.544  1.00  0.00     0.014 A 
ATOM     39  C   UNL     1      -4.207   8.110   9.936  1.00  0.00     0.010 A 
ATOM     40  C   UNL     1      -5.384   6.880   8.211  1.00  0.00     0.010 A 
ATOM     41  C   UNL     1      -5.161   8.079   8.904  1.00  0.00    -0.014 A 
BRANCH  41  42
ATOM     42  C   UNL     1      -5.922   9.298   8.531  1.00  0.00     0.031 A 
ATOM     43  C   UNL     1      -7.414   9.342   8.700  1.00  0.00     0.074 A 
ATOM     44  C   UNL     1      -5.272  10.344   7.984  1.00  0.00     0.049 A 
ATOM     45  N   UNL     1      -8.255  10.297   8.389  1.00  0.00    -0.248 NA
ATOM     46  C   UNL     1      -8.051   8.145   9.269  1.00  0.00     0.031 C 
ATOM     47  C   UNL     1      -3.833  10.400   7.722  1.00  0.00     0.029 A 
ATOM     48  N   UNL     1      -5.738  11.557   7.542  1.00  0.00    -0.354 N 
ATOM     49  C   UNL     1      -9.514   9.812   8.715  1.00  0.00     0.074 A 
ATOM     50  C   UNL     1      -9.336   8.459   9.194  1.00  0.00     0.031 C 
ATOM     51  C   UNL     1      -3.530  11.594   7.187  1.00  0.00     0.029 A 
ATOM     52  C   UNL     1      -4.756  12.371   7.031  1.00  0.00     0.049 A 
ATOM     53  H   UNL     1      -6.686  11.819   7.587  1.00  0.00     0.167 HD
ATOM     54  C   UNL     1     -10.708  10.448   8.642  1.00  0.00     0.037 A 
ATOM     55  C   UNL     1      -4.837  13.600   6.488  1.00  0.00     0.037 A 
ATOM     56  C   UNL     1     -10.877  11.802   8.181  1.00  0.00     0.049 A 
ATOM     57  C   UNL     1      -6.178  14.279   6.406  1.00  0.00     0.074 A 
ATOM     58  C   UNL     1     -12.034  12.559   8.134  1.00  0.00     0.029 A 
ATOM     59  N   UNL     1      -9.859  12.598   7.676  1.00  0.00    -0.354 N 
ATOM     60  N   UNL     1      -7.352  13.842   6.794  1.00  0.00    -0.248 NA
ATOM     61  C   UNL     1      -6.204  15.624   5.816  1.00  0.00     0.031 C 
ATOM     62  C   UNL     1     -11.728  13.790   7.546  1.00  0.00     0.029 A 
ATOM     63  C   UNL     1     -10.368  13.826   7.284  1.00  0.00     0.049 A 
ATOM     64  H   UNL     1      -8.914  12.330   7.607  1.00  0.00     0.167 HD
ATOM     65  C   UNL     1      -8.250  14.864   6.518  1.00  0.00     0.074 A 
ATOM     66  C   UNL     1      -7.481  15.951   5.948  1.00  0.00     0.031 C 
ATOM     67  C   UNL     1      -9.591  14.898   6.716  1.00  0.00     0.037 A 
BRANCH  54  68
ATOM     68  C   UNL     1     -11.930   9.685   9.070  1.00  0.00     0.064 A 
ATOM     69  C   UNL     1     -12.153   9.339  10.412  1.00  0.00     0.173 A 
ATOM     70  C   UNL     1     -12.911   9.329   8.131  1.00  0.00     0.173 A 
ATOM     71  F   UNL     1     -11.243   9.647  11.348  1.00  0.00    -0.203 F 
ATOM     72  C   UNL     1     -13.294   8.639  10.792  1.00  0.00     0.198 A 
ATOM     73  C   UNL     1     -14.067   8.658   8.520  1.00  0.00     0.198 A 
ATOM     74  F   UNL     1     -12.752   9.641   6.836  1.00  0.00    -0.203 F 
ATOM     75  F   UNL     1     -13.459   8.274  12.071  1.00  0.00    -0.200 F 
ATOM     76  C   UNL     1     -14.254   8.306   9.848  1.00  0.00     0.200 A 
ATOM     77  F   UNL     1     -15.000   8.351   7.609  1.00  0.00    -0.200 F 
ATOM     78  F   UNL     1     -15.357   7.639  10.217  1.00  0.00    -0.200 F 
ENDBRANCH  54  68
BRANCH  55  79
ATOM     79  C   UNL     1      -3.608  14.275   5.993  1.00  0.00     0.064 A 
ATOM     80  C   UNL     1      -3.096  15.408   6.641  1.00  0.00     0.173 A 
ATOM     81  C   UNL     1      -2.923  13.805   4.864  1.00  0.00     0.173 A 
ATOM     82  F   UNL     1      -3.727  15.908   7.714  1.00  0.00    -0.203 F 
ATOM     83  C   UNL     1      -1.958  16.056   6.166  1.00  0.00     0.198 A 
ATOM     84  C   UNL     1      -1.767  14.435   4.408  1.00  0.00     0.198 A 
ATOM     85  F   UNL     1      -3.368  12.721   4.210  1.00  0.00    -0.203 F 
ATOM     86  F   UNL     1      -1.517  17.165   6.776  1.00  0.00    -0.200 F 
ATOM     87  C   UNL     1      -1.290  15.566   5.054  1.00  0.00     0.200 A 
ATOM     88  F   UNL     1      -1.116  13.947   3.343  1.00  0.00    -0.200 F 
ATOM     89  F   UNL     1      -0.193  16.186   4.601  1.00  0.00    -0.200 F 
ENDBRANCH  55  79
BRANCH  67  90
ATOM     90  C   UNL     1     -10.311  16.161   6.335  1.00  0.00     0.064 A 
ATOM     91  C   UNL     1     -10.487  16.533   4.994  1.00  0.00     0.173 A 
ATOM     92  C   UNL     1     -10.863  16.989   7.324  1.00  0.00     0.173 A 
ATOM     93  F   UNL     1      -9.965  15.784   4.011  1.00  0.00    -0.203 F 
ATOM     94  C   UNL     1     -11.164  17.703   4.659  1.00  0.00     0.198 A 
ATOM     95  C   UNL     1     -11.569  18.140   6.984  1.00  0.00     0.198 A 
ATOM     96  F   UNL     1     -10.730  16.676   8.622  1.00  0.00    -0.203 F 
ATOM     97  F   UNL     1     -11.274  18.066   3.374  1.00  0.00    -0.200 F 
ATOM     98  C   UNL     1     -11.711  18.500   5.653  1.00  0.00     0.200 A 
ATOM     99  F   UNL     1     -12.110  18.901   7.945  1.00  0.00    -0.200 F 
ATOM    100  F   UNL     1     -12.370  19.621   5.328  1.00  0.00    -0.200 F 
ENDBRANCH  67  90
ENDBRANCH  41  42
ENDBRANCH  33  36
ENDBRANCH  31  32
ENDBRANCH  30  31
ENDBRANCH  29  30
ENDBRANCH   1  29
TORSDOF 19
