REMARK SMILES CCCCCCNC(=O)Oc1cccc(-c2ccc([C@@H](C)C(=O)NCCCCCCNC(=O)c3ccc(-c4c5nc(c(-c6c(F)c(F)c(F)c(F)c6F)c6ccc([nH]6)c(-c6c(F)c(F)c(F)c(F)c6F)c6nc(c(-c7c(F)c(F)c(F)c(F)c7F)c7ccc4[nH]7)C=C6)C=C5)cc3)cc2[N+](=O)[O-])c1
REMARK SMILES IDX 22 1 23 2 24 3 20 5 21 6 19 7 16 8 17 9 98 10 18 11 97 12
REMARK SMILES IDX 15 13 11 14 12 15 102 16 13 17 14 18 10 19 8 20 7 21 9 23
REMARK SMILES IDX 6 24 5 25 4 26 3 27 2 28 1 29 99 30 100 31 101 32 25 33
REMARK SMILES IDX 26 34 27 35 28 36 29 37 30 38 31 39 32 40 33 42 34 43 35 44
REMARK SMILES IDX 96 45 36 46 95 47 37 48 38 49 39 50 89 51 40 52 94 53 88 54
REMARK SMILES IDX 90 55 41 56 93 57 87 58 86 59 42 61 74 62 54 63 73 64 55 65
REMARK SMILES IDX 58 66 72 67 91 68 56 69 57 70 71 72 92 73 59 74 43 75 44 76
REMARK SMILES IDX 52 77 45 78 46 79 50 80 53 81 47 82 48 83 51 84 49 85 75 86
REMARK SMILES IDX 76 87 84 88 77 89 78 90 82 91 85 92 79 93 80 94 83 95 81 96
REMARK SMILES IDX 60 97 61 98 69 99 62 100 63 101 67 102 70 103 64 104 65 105
REMARK SMILES IDX 68 106 66 107
REMARK H PARENT 24 4 7 22 31 41 90 60 58 71
REMARK Flexibility Score: inf
ROOT
ATOM      1  C   UNL     1      -3.583  12.839   6.408  1.00  0.00     0.227 C 
ATOM      2  O   UNL     1      -2.602  13.210   5.753  1.00  0.00    -0.274 OA
ATOM      3  N   UNL     1      -3.442  12.851   7.760  1.00  0.00    -0.356 N 
ATOM      4  H   UNL     1      -2.593  13.243   8.070  1.00  0.00     0.163 HD
ENDROOT
BRANCH   1   5
ATOM      5  C   UNL     1      -4.867  12.412   5.678  1.00  0.00     0.105 C 
ATOM      6  C   UNL     1      -6.106  13.222   6.055  1.00  0.00     0.023 C 
BRANCH   5   7
ATOM      7  C   UNL     1      -5.066  10.904   5.610  1.00  0.00    -0.029 A 
ATOM      8  C   UNL     1      -5.257   8.034   5.499  1.00  0.00     0.060 A 
ATOM      9  C   UNL     1      -5.712   8.774   6.604  1.00  0.00     0.016 A 
ATOM     10  C   UNL     1      -4.770   8.788   4.414  1.00  0.00     0.277 A 
ATOM     11  C   UNL     1      -5.660  10.173   6.639  1.00  0.00     0.005 A 
ATOM     12  C   UNL     1      -4.636  10.193   4.479  1.00  0.00     0.090 A 
BRANCH   8  13
ATOM     13  C   UNL     1      -5.296   6.556   5.580  1.00  0.00    -0.008 A 
ATOM     14  C   UNL     1      -4.262   4.373   5.326  1.00  0.00     0.133 A 
ATOM     15  C   UNL     1      -5.406   3.738   5.800  1.00  0.00     0.047 A 
ATOM     16  C   UNL     1      -4.191   5.764   5.226  1.00  0.00     0.056 A 
ATOM     17  C   UNL     1      -6.500   4.505   6.179  1.00  0.00     0.004 A 
ATOM     18  C   UNL     1      -6.449   5.896   6.056  1.00  0.00     0.009 A 
BRANCH  14  19
ATOM     19  O   UNL     1      -3.262   3.535   4.801  1.00  0.00    -0.410 OA
BRANCH  19  20
ATOM     20  C   UNL     1      -1.920   3.791   5.037  1.00  0.00     0.412 C 
ATOM     21  N   UNL     1      -1.094   3.010   4.275  1.00  0.00    -0.321 N 
ATOM     22  H   UNL     1      -0.126   3.106   4.428  1.00  0.00     0.167 HD
ATOM     23  O   UNL     1      -1.476   4.605   5.836  1.00  0.00    -0.224 OA
BRANCH  21  24
ATOM     24  C   UNL     1      -1.506   2.056   3.263  1.00  0.00     0.119 C 
BRANCH  24  25
ATOM     25  C   UNL     1      -0.922   2.388   1.889  1.00  0.00     0.021 C 
BRANCH  25  26
ATOM     26  C   UNL     1       0.605   2.294   1.800  1.00  0.00     0.002 C 
BRANCH  26  27
ATOM     27  C   UNL     1       1.203   0.929   2.158  1.00  0.00    -0.000 C 
BRANCH  27  28
ATOM     28  C   UNL     1       0.708  -0.247   1.313  1.00  0.00    -0.003 C 
ATOM     29  C   UNL     1       1.067  -0.123  -0.160  1.00  0.00     0.004 C 
ENDBRANCH  27  28
ENDBRANCH  26  27
ENDBRANCH  25  26
ENDBRANCH  24  25
ENDBRANCH  21  24
ENDBRANCH  19  20
ENDBRANCH  14  19
ENDBRANCH   8  13
BRANCH  10  30
ATOM     30  N   UNL     1      -4.456   8.162   3.132  1.00  0.00     0.063 N 
ATOM     31  O   UNL     1      -3.428   8.540   2.553  1.00  0.00    -0.258 OA
ATOM     32  O   UNL     1      -5.263   7.339   2.679  1.00  0.00    -0.258 OA
ENDBRANCH  10  30
ENDBRANCH   5   7
ENDBRANCH   1   5
BRANCH   3  33
ATOM     33  C   UNL     1      -4.304  12.395   8.829  1.00  0.00     0.116 C 
BRANCH  33  34
ATOM     34  C   UNL     1      -3.856  11.035   9.371  1.00  0.00     0.021 C 
BRANCH  34  35
ATOM     35  C   UNL     1      -2.853  11.126  10.525  1.00  0.00     0.002 C 
BRANCH  35  36
ATOM     36  C   UNL     1      -3.389  11.791  11.800  1.00  0.00     0.002 C 
BRANCH  36  37
ATOM     37  C   UNL     1      -4.673  11.182  12.372  1.00  0.00     0.021 C 
BRANCH  37  38
ATOM     38  C   UNL     1      -4.564   9.709  12.758  1.00  0.00     0.116 C 
BRANCH  38  39
ATOM     39  N   UNL     1      -3.598   9.498  13.824  1.00  0.00    -0.352 N 
ATOM     40  C   UNL     1      -3.775   8.975  15.079  1.00  0.00     0.251 C 
ATOM     41  H   UNL     1      -2.676   9.774  13.612  1.00  0.00     0.163 HD
ATOM     42  O   UNL     1      -2.893   9.089  15.924  1.00  0.00    -0.269 OA
BRANCH  40  43
ATOM     43  C   UNL     1      -5.031   8.275  15.423  1.00  0.00     0.039 A 
ATOM     44  C   UNL     1      -5.621   8.519  16.667  1.00  0.00     0.014 A 
ATOM     45  C   UNL     1      -5.603   7.351  14.545  1.00  0.00     0.014 A 
ATOM     46  C   UNL     1      -6.812   7.873  17.009  1.00  0.00     0.010 A 
ATOM     47  C   UNL     1      -6.822   6.757  14.859  1.00  0.00     0.010 A 
ATOM     48  C   UNL     1      -7.435   7.006  16.096  1.00  0.00    -0.014 A 
BRANCH  48  49
ATOM     49  C   UNL     1      -8.722   6.342  16.423  1.00  0.00     0.031 A 
ATOM     50  C   UNL     1      -8.784   4.847  16.564  1.00  0.00     0.074 A 
ATOM     51  C   UNL     1      -9.844   7.079  16.527  1.00  0.00     0.049 A 
ATOM     52  N   UNL     1      -9.823   4.076  16.767  1.00  0.00    -0.248 NA
ATOM     53  C   UNL     1      -7.513   4.118  16.431  1.00  0.00     0.031 C 
ATOM     54  C   UNL     1      -9.919   8.531  16.367  1.00  0.00     0.029 A 
ATOM     55  N   UNL     1     -11.140   6.704  16.778  1.00  0.00    -0.354 N 
ATOM     56  C   UNL     1      -9.335   2.776  16.767  1.00  0.00     0.074 A 
ATOM     57  C   UNL     1      -7.915   2.857  16.498  1.00  0.00     0.031 C 
ATOM     58  C   UNL     1     -11.190   8.927  16.539  1.00  0.00     0.029 A 
ATOM     59  C   UNL     1     -12.025   7.755  16.787  1.00  0.00     0.049 A 
ATOM     60  H   UNL     1     -11.411   5.771  16.937  1.00  0.00     0.167 HD
ATOM     61  C   UNL     1     -10.006   1.622  16.994  1.00  0.00     0.037 A 
ATOM     62  C   UNL     1     -13.359   7.769  16.966  1.00  0.00     0.037 A 
ATOM     63  C   UNL     1     -11.412   1.548  17.293  1.00  0.00     0.049 A 
ATOM     64  C   UNL     1     -14.079   6.474  17.224  1.00  0.00     0.074 A 
ATOM     65  C   UNL     1     -12.172   0.434  17.601  1.00  0.00     0.029 A 
ATOM     66  N   UNL     1     -12.270   2.638  17.321  1.00  0.00    -0.354 N 
ATOM     67  N   UNL     1     -13.596   5.257  17.288  1.00  0.00    -0.248 NA
ATOM     68  C   UNL     1     -15.530   6.555  17.444  1.00  0.00     0.031 C 
ATOM     69  C   UNL     1     -13.499   0.843  17.773  1.00  0.00     0.029 A 
ATOM     70  C   UNL     1     -13.557   2.219  17.622  1.00  0.00     0.049 A 
ATOM     71  H   UNL     1     -12.005   3.571  17.152  1.00  0.00     0.167 HD
ATOM     72  C   UNL     1     -14.674   4.433  17.581  1.00  0.00     0.074 A 
ATOM     73  C   UNL     1     -15.836   5.290  17.697  1.00  0.00     0.031 C 
ATOM     74  C   UNL     1     -14.700   3.087  17.741  1.00  0.00     0.037 A 
BRANCH  61  75
ATOM     75  C   UNL     1      -9.226   0.340  16.930  1.00  0.00     0.064 A 
ATOM     76  C   UNL     1      -8.283   0.003  17.912  1.00  0.00     0.173 A 
ATOM     77  C   UNL     1      -9.452  -0.579  15.894  1.00  0.00     0.173 A 
ATOM     78  F   UNL     1      -8.022   0.852  18.918  1.00  0.00    -0.203 F 
ATOM     79  C   UNL     1      -7.574  -1.194  17.844  1.00  0.00     0.198 A 
ATOM     80  C   UNL     1      -8.762  -1.788  15.846  1.00  0.00     0.198 A 
ATOM     81  F   UNL     1     -10.347  -0.309  14.932  1.00  0.00    -0.203 F 
ATOM     82  F   UNL     1      -6.643  -1.472  18.768  1.00  0.00    -0.200 F 
ATOM     83  C   UNL     1      -7.819  -2.091  16.816  1.00  0.00     0.200 A 
ATOM     84  F   UNL     1      -9.010  -2.660  14.858  1.00  0.00    -0.200 F 
ATOM     85  F   UNL     1      -7.141  -3.246  16.756  1.00  0.00    -0.200 F 
ENDBRANCH  61  75
BRANCH  62  86
ATOM     86  C   UNL     1     -14.097   9.059  16.933  1.00  0.00     0.064 A 
ATOM     87  C   UNL     1     -14.649   9.601  18.102  1.00  0.00     0.173 A 
ATOM     88  C   UNL     1     -14.264   9.774  15.739  1.00  0.00     0.173 A 
ATOM     89  F   UNL     1     -14.531   8.943  19.265  1.00  0.00    -0.203 F 
ATOM     90  C   UNL     1     -15.357  10.800  18.075  1.00  0.00     0.198 A 
ATOM     91  C   UNL     1     -14.949  10.987  15.718  1.00  0.00     0.198 A 
ATOM     92  F   UNL     1     -13.749   9.301  14.595  1.00  0.00    -0.203 F 
ATOM     93  F   UNL     1     -15.912  11.274  19.199  1.00  0.00    -0.200 F 
ATOM     94  C   UNL     1     -15.502  11.495  16.884  1.00  0.00     0.200 A 
ATOM     95  F   UNL     1     -15.074  11.663  14.567  1.00  0.00    -0.200 F 
ATOM     96  F   UNL     1     -16.179  12.651  16.858  1.00  0.00    -0.200 F 
ENDBRANCH  62  86
BRANCH  74  97
ATOM     97  C   UNL     1     -16.017   2.462  18.093  1.00  0.00     0.064 A 
ATOM     98  C   UNL     1     -17.052   2.348  17.154  1.00  0.00     0.173 A 
ATOM     99  C   UNL     1     -16.230   1.932  19.375  1.00  0.00     0.173 A 
ATOM    100  F   UNL     1     -16.903   2.852  15.920  1.00  0.00    -0.203 F 
ATOM    101  C   UNL     1     -18.262   1.748  17.494  1.00  0.00     0.198 A 
ATOM    102  C   UNL     1     -17.430   1.307  19.702  1.00  0.00     0.198 A 
ATOM    103  F   UNL     1     -15.269   2.010  20.308  1.00  0.00    -0.203 F 
ATOM    104  F   UNL     1     -19.254   1.690  16.594  1.00  0.00    -0.200 F 
ATOM    105  C   UNL     1     -18.447   1.222  18.764  1.00  0.00     0.200 A 
ATOM    106  F   UNL     1     -17.602   0.788  20.926  1.00  0.00    -0.200 F 
ATOM    107  F   UNL     1     -19.610   0.638  19.085  1.00  0.00    -0.200 F 
ENDBRANCH  74  97
ENDBRANCH  48  49
ENDBRANCH  40  43
ENDBRANCH  38  39
ENDBRANCH  37  38
ENDBRANCH  36  37
ENDBRANCH  35  36
ENDBRANCH  34  35
ENDBRANCH  33  34
ENDBRANCH   3  33
TORSDOF 23
