REMARK SMILES O=C(NCCCCCCNC(=O)c1nn2cc(Br)cnc2c1Br)c1ccc(-c2c3nc(c(-c4c(F)c(F)c(F)c(F)c4F)c4ccc([nH]4)c(-c4c(F)c(F)c(F)c(F)c4F)c4nc(c(-c5c(F)c(F)c(F)c(F)c5F)c5ccc2[nH]5)C=C4)C=C3)cc1
REMARK SMILES IDX 5 1 4 2 3 3 1 4 2 5 24 7 25 8 86 9 26 10 85 11 27 12 28 13
REMARK SMILES IDX 29 14 79 15 30 16 84 17 78 18 80 19 31 20 83 21 77 22 76 23
REMARK SMILES IDX 32 25 64 26 44 27 63 28 45 29 48 30 62 31 81 32 46 33 47 34
REMARK SMILES IDX 61 36 82 37 49 38 33 39 34 40 42 41 35 42 36 43 40 44 43 45
REMARK SMILES IDX 37 46 38 47 41 48 39 49 65 50 66 51 74 52 67 53 68 54 72 55
REMARK SMILES IDX 75 56 69 57 70 58 73 59 71 60 50 61 51 62 59 63 52 64 53 65
REMARK SMILES IDX 57 66 60 67 54 68 55 69 58 70 56 71 6 72 7 73 8 74 9 75
REMARK SMILES IDX 10 76 11 77 12 79 13 80 14 81 22 82 15 83 21 84 23 85 16 86
REMARK SMILES IDX 20 87 17 88 19 89 18 90
REMARK H PARENT 3 6 80 24 48 35 10 78
REMARK Flexibility Score: inf
ROOT
ATOM      1  C   UNL     1       4.883   1.051  -2.119  1.00  0.00     0.021 C 
ENDROOT
BRANCH   1   2
ATOM      2  C   UNL     1       4.704   0.991  -0.604  1.00  0.00     0.116 C 
BRANCH   2   3
ATOM      3  N   UNL     1       3.330   1.087  -0.161  1.00  0.00    -0.352 N 
ATOM      4  O   UNL     1       1.274   0.638   0.520  1.00  0.00    -0.269 OA
ATOM      5  C   UNL     1       2.305   0.199   0.006  1.00  0.00     0.251 C 
ATOM      6  H   UNL     1       3.073   2.007   0.077  1.00  0.00     0.163 HD
BRANCH   5   7
ATOM      7  C   UNL     1       2.319  -1.212  -0.459  1.00  0.00     0.039 A 
ATOM      8  C   UNL     1       3.455  -1.980  -0.718  1.00  0.00     0.014 A 
ATOM      9  C   UNL     1       1.053  -1.796  -0.648  1.00  0.00     0.014 A 
ATOM     10  C   UNL     1       3.329  -3.258  -1.259  1.00  0.00     0.010 A 
ATOM     11  C   UNL     1       0.921  -3.077  -1.165  1.00  0.00     0.010 A 
ATOM     12  C   UNL     1       2.062  -3.791  -1.514  1.00  0.00    -0.014 A 
BRANCH  12  13
ATOM     13  C   UNL     1       1.960  -5.161  -2.010  1.00  0.00     0.031 A 
ATOM     14  C   UNL     1       2.470  -6.203  -1.067  1.00  0.00     0.074 A 
ATOM     15  C   UNL     1       1.322  -5.484  -3.155  1.00  0.00     0.049 A 
ATOM     16  N   UNL     1       3.405  -7.076  -1.264  1.00  0.00    -0.248 NA
ATOM     17  C   UNL     1       1.935  -6.209   0.306  1.00  0.00     0.031 C 
ATOM     18  C   UNL     1       0.539  -4.616  -4.038  1.00  0.00     0.029 A 
ATOM     19  N   UNL     1       1.172  -6.710  -3.733  1.00  0.00    -0.354 N 
ATOM     20  C   UNL     1       3.484  -7.838  -0.098  1.00  0.00     0.074 A 
ATOM     21  C   UNL     1       2.638  -7.191   0.871  1.00  0.00     0.031 C 
ATOM     22  C   UNL     1      -0.179  -5.377  -4.898  1.00  0.00     0.029 A 
ATOM     23  C   UNL     1       0.199  -6.769  -4.724  1.00  0.00     0.049 A 
ATOM     24  H   UNL     1       1.710  -7.492  -3.469  1.00  0.00     0.167 HD
ATOM     25  C   UNL     1       4.109  -9.048  -0.069  1.00  0.00     0.037 A 
ATOM     26  C   UNL     1      -0.289  -7.891  -5.314  1.00  0.00     0.037 A 
ATOM     27  C   UNL     1       4.987  -9.214  -1.194  1.00  0.00     0.049 A 
ATOM     28  C   UNL     1       0.701  -8.973  -5.089  1.00  0.00     0.074 A 
ATOM     29  C   UNL     1       6.150  -8.603  -1.616  1.00  0.00     0.029 A 
ATOM     30  N   UNL     1       4.518  -9.910  -2.278  1.00  0.00    -0.354 N 
ATOM     31  N   UNL     1       1.888  -8.994  -5.627  1.00  0.00    -0.248 NA
ATOM     32  C   UNL     1       0.530  -9.798  -3.904  1.00  0.00     0.031 C 
ATOM     33  C   UNL     1       6.045  -8.556  -3.037  1.00  0.00     0.029 A 
ATOM     34  C   UNL     1       4.858  -9.194  -3.396  1.00  0.00     0.049 A 
ATOM     35  H   UNL     1       4.030 -10.765  -2.257  1.00  0.00     0.167 HD
ATOM     36  C   UNL     1       2.715  -9.471  -4.623  1.00  0.00     0.074 A 
ATOM     37  C   UNL     1       1.814 -10.018  -3.610  1.00  0.00     0.031 C 
ATOM     38  C   UNL     1       4.034  -9.125  -4.577  1.00  0.00     0.037 A 
BRANCH  25  39
ATOM     39  C   UNL     1       3.695 -10.211   0.796  1.00  0.00     0.064 A 
ATOM     40  C   UNL     1       4.525 -11.348   0.882  1.00  0.00     0.173 A 
ATOM     41  C   UNL     1       2.385 -10.373   1.295  1.00  0.00     0.173 A 
ATOM     42  F   UNL     1       5.783 -11.313   0.416  1.00  0.00    -0.203 F 
ATOM     43  C   UNL     1       4.053 -12.572   1.366  1.00  0.00     0.198 A 
ATOM     44  C   UNL     1       1.934 -11.582   1.823  1.00  0.00     0.198 A 
ATOM     45  F   UNL     1       1.464  -9.409   1.187  1.00  0.00    -0.203 F 
ATOM     46  F   UNL     1       4.840 -13.655   1.318  1.00  0.00    -0.200 F 
ATOM     47  C   UNL     1       2.756 -12.689   1.831  1.00  0.00     0.200 A 
ATOM     48  F   UNL     1       0.666 -11.682   2.248  1.00  0.00    -0.200 F 
ATOM     49  F   UNL     1       2.283 -13.874   2.239  1.00  0.00    -0.200 F 
ENDBRANCH  25  39
BRANCH  26  50
ATOM     50  C   UNL     1      -1.686  -8.195  -5.719  1.00  0.00     0.064 A 
ATOM     51  C   UNL     1      -1.978  -9.300  -6.540  1.00  0.00     0.173 A 
ATOM     52  C   UNL     1      -2.780  -7.606  -5.056  1.00  0.00     0.173 A 
ATOM     53  F   UNL     1      -0.989  -9.948  -7.173  1.00  0.00    -0.203 F 
ATOM     54  C   UNL     1      -3.277  -9.807  -6.659  1.00  0.00     0.198 A 
ATOM     55  C   UNL     1      -4.076  -8.111  -5.178  1.00  0.00     0.198 A 
ATOM     56  F   UNL     1      -2.597  -6.596  -4.194  1.00  0.00    -0.203 F 
ATOM     57  F   UNL     1      -3.504 -10.905  -7.394  1.00  0.00    -0.200 F 
ATOM     58  C   UNL     1      -4.323  -9.220  -5.965  1.00  0.00     0.200 A 
ATOM     59  F   UNL     1      -5.073  -7.559  -4.471  1.00  0.00    -0.200 F 
ATOM     60  F   UNL     1      -5.554  -9.748  -6.020  1.00  0.00    -0.200 F 
ENDBRANCH  26  50
BRANCH  38  61
ATOM     61  C   UNL     1       4.610  -8.406  -5.766  1.00  0.00     0.064 A 
ATOM     62  C   UNL     1       4.203  -7.127  -6.185  1.00  0.00     0.173 A 
ATOM     63  C   UNL     1       5.720  -8.970  -6.407  1.00  0.00     0.173 A 
ATOM     64  F   UNL     1       3.214  -6.477  -5.559  1.00  0.00    -0.203 F 
ATOM     65  C   UNL     1       4.857  -6.462  -7.221  1.00  0.00     0.198 A 
ATOM     66  C   UNL     1       6.395  -8.288  -7.416  1.00  0.00     0.198 A 
ATOM     67  F   UNL     1       6.188 -10.164  -6.013  1.00  0.00    -0.203 F 
ATOM     68  F   UNL     1       4.447  -5.243  -7.604  1.00  0.00    -0.200 F 
ATOM     69  C   UNL     1       5.958  -7.040  -7.830  1.00  0.00     0.200 A 
ATOM     70  F   UNL     1       7.491  -8.829  -7.966  1.00  0.00    -0.200 F 
ATOM     71  F   UNL     1       6.619  -6.381  -8.793  1.00  0.00    -0.200 F 
ENDBRANCH  38  61
ENDBRANCH  12  13
ENDBRANCH   5   7
ENDBRANCH   2   3
ENDBRANCH   1   2
BRANCH   1  72
ATOM     72  C   UNL     1       4.376   2.343  -2.775  1.00  0.00     0.002 C 
BRANCH  72  73
ATOM     73  C   UNL     1       4.895   3.652  -2.167  1.00  0.00     0.002 C 
BRANCH  73  74
ATOM     74  C   UNL     1       6.418   3.790  -2.080  1.00  0.00     0.021 C 
BRANCH  74  75
ATOM     75  C   UNL     1       7.150   3.716  -3.416  1.00  0.00     0.116 C 
BRANCH  75  76
ATOM     76  N   UNL     1       6.837   4.840  -4.280  1.00  0.00    -0.351 N 
ATOM     77  C   UNL     1       7.699   5.690  -4.935  1.00  0.00     0.273 C 
ATOM     78  H   UNL     1       5.878   5.019  -4.416  1.00  0.00     0.163 HD
ATOM     79  O   UNL     1       7.228   6.650  -5.552  1.00  0.00    -0.267 OA
BRANCH  77  80
ATOM     80  C   UNL     1       9.137   5.433  -4.857  1.00  0.00     0.167 A 
ATOM     81  N   UNL     1       9.971   6.330  -4.296  1.00  0.00    -0.160 NA
ATOM     82  C   UNL     1       9.854   4.302  -5.307  1.00  0.00     0.095 A 
ATOM     83  N   UNL     1      11.198   5.765  -4.366  1.00  0.00    -0.219 N 
ATOM     84  C   UNL     1      11.157   4.482  -4.919  1.00  0.00     0.170 A 
ATOM     85  Br  UNL     1       9.159   2.831  -6.239  1.00  0.00    -0.044 Br
ATOM     86  C   UNL     1      12.403   6.319  -3.951  1.00  0.00     0.132 A 
ATOM     87  N   UNL     1      12.273   3.692  -5.009  1.00  0.00    -0.235 NA
ATOM     88  C   UNL     1      13.537   5.613  -4.043  1.00  0.00     0.054 A 
ATOM     89  C   UNL     1      13.381   4.231  -4.589  1.00  0.00     0.131 A 
ATOM     90  Br  UNL     1      15.211   6.216  -3.547  1.00  0.00    -0.047 Br
ENDBRANCH  77  80
ENDBRANCH  75  76
ENDBRANCH  74  75
ENDBRANCH  73  74
ENDBRANCH  72  73
ENDBRANCH   1  72
TORSDOF 13
