REMARK SMILES CCOc1ccccc1N1CCN(c2ncc(N)cc2C(=O)NCCCCCCNC(=O)c2ccc(-c3c4nc(c(-c5c(F)c(F)c(F)c(F)c5F)c5ccc([nH]5)c(-c5c(F)c(F)c(F)c(F)c5F)c5nc(c(-c6c(F)c(F)c(F)c(F)c6F)c6ccc3[nH]6)C=C5)C=C4)cc2)CC1
REMARK SMILES IDX 25 1 24 2 23 3 21 4 22 5 20 7 14 8 15 9 16 10 19 11 17 12
REMARK SMILES IDX 13 13 10 14 11 15 97 16 12 17 96 18 9 19 4 20 5 21 6 22 8 23
REMARK SMILES IDX 7 24 3 25 2 26 1 27 18 28 26 31 27 32 28 33 29 34 30 35
REMARK SMILES IDX 31 36 32 38 33 39 34 40 95 41 35 42 94 43 36 44 37 45 38 46
REMARK SMILES IDX 88 47 39 48 93 49 87 50 89 51 40 52 92 53 86 54 85 55 41 57
REMARK SMILES IDX 73 58 53 59 72 60 54 61 57 62 71 63 90 64 55 65 56 66 70 68
REMARK SMILES IDX 91 69 58 70 42 71 43 72 51 73 44 74 45 75 49 76 52 77 46 78
REMARK SMILES IDX 47 79 50 80 48 81 74 82 75 83 83 84 76 85 77 86 81 87 84 88
REMARK SMILES IDX 78 89 79 90 82 91 80 92 59 93 60 94 68 95 61 96 62 97 66 98
REMARK SMILES IDX 69 99 63 100 64 101 67 102 65 103
REMARK H PARENT 23 6 18 29 18 30 30 37 89 56 57 67
REMARK Flexibility Score: inf
ROOT
ATOM      1  C   UNL     1      -0.813  -6.693   3.083  1.00  0.00     0.021 C 
ENDROOT
BRANCH   1   2
ATOM      2  C   UNL     1       0.132  -5.845   3.917  1.00  0.00     0.116 C 
BRANCH   2   3
ATOM      3  N   UNL     1       1.004  -5.019   3.125  1.00  0.00    -0.352 N 
ATOM      4  C   UNL     1       1.279  -3.681   3.081  1.00  0.00     0.255 C 
ATOM      5  O   UNL     1       2.281  -3.399   2.421  1.00  0.00    -0.269 OA
ATOM      6  H   UNL     1       1.521  -5.535   2.465  1.00  0.00     0.163 HD
BRANCH   4   7
ATOM      7  C   UNL     1       0.447  -2.626   3.740  1.00  0.00     0.084 A 
ATOM      8  C   UNL     1       0.416  -1.339   3.176  1.00  0.00     0.141 A 
ATOM      9  N   UNL     1      -0.201  -0.297   3.792  1.00  0.00    -0.236 NA
ATOM     10  C   UNL     1      -0.843  -0.534   4.957  1.00  0.00     0.139 A 
ATOM     11  C   UNL     1      -0.196  -2.803   4.971  1.00  0.00     0.044 A 
ATOM     12  C   UNL     1      -0.924  -1.775   5.567  1.00  0.00     0.051 A 
BRANCH   8  13
ATOM     13  N   UNL     1       1.083  -1.050   2.008  1.00  0.00    -0.352 N 
ATOM     14  N   UNL     1       2.424  -0.271  -0.358  1.00  0.00    -0.365 N 
ATOM     15  C   UNL     1       3.103  -0.128   0.935  1.00  0.00     0.138 C 
ATOM     16  C   UNL     1       1.520  -1.430  -0.440  1.00  0.00     0.138 C 
ATOM     17  C   UNL     1       2.060   0.031   2.057  1.00  0.00     0.139 C 
ATOM     18  C   UNL     1       0.497  -1.445   0.724  1.00  0.00     0.139 C 
BRANCH  14  19
ATOM     19  C   UNL     1       3.030   0.183  -1.519  1.00  0.00     0.079 A 
ATOM     20  C   UNL     1       2.290   0.824  -2.534  1.00  0.00     0.142 A 
ATOM     21  C   UNL     1       2.912   1.338  -3.677  1.00  0.00     0.048 A 
ATOM     22  C   UNL     1       4.292   1.222  -3.830  1.00  0.00     0.004 A 
ATOM     23  C   UNL     1       4.415   0.061  -1.713  1.00  0.00     0.030 A 
ATOM     24  C   UNL     1       5.041   0.571  -2.854  1.00  0.00     0.002 A 
BRANCH  20  25
ATOM     25  O   UNL     1       0.920   0.906  -2.452  1.00  0.00    -0.492 OA
BRANCH  25  26
ATOM     26  C   UNL     1       0.482   2.168  -1.936  1.00  0.00     0.226 C 
ATOM     27  C   UNL     1      -0.018   2.005  -0.514  1.00  0.00     0.049 C 
ENDBRANCH  25  26
ENDBRANCH  20  25
ENDBRANCH  14  19
ENDBRANCH   8  13
BRANCH  12  28
ATOM     28  N   UNL     1      -1.541  -1.966   6.795  1.00  0.00    -0.397 N 
ATOM     29  H   UNL     1      -2.053  -1.234   7.208  1.00  0.00     0.156 HD
ATOM     30  H   UNL     1      -1.467  -2.834   7.253  1.00  0.00     0.156 HD
ENDBRANCH  12  28
ENDBRANCH   4   7
ENDBRANCH   2   3
ENDBRANCH   1   2
BRANCH   1  31
ATOM     31  C   UNL     1      -0.146  -7.689   2.134  1.00  0.00     0.002 C 
BRANCH  31  32
ATOM     32  C   UNL     1       0.985  -8.532   2.731  1.00  0.00     0.002 C 
BRANCH  32  33
ATOM     33  C   UNL     1       0.683  -9.208   4.069  1.00  0.00     0.021 C 
BRANCH  33  34
ATOM     34  C   UNL     1      -0.569 -10.067   4.073  1.00  0.00     0.116 C 
BRANCH  34  35
ATOM     35  N   UNL     1      -0.430 -11.216   3.202  1.00  0.00    -0.352 N 
ATOM     36  C   UNL     1      -0.557 -12.545   3.517  1.00  0.00     0.251 C 
ATOM     37  H   UNL     1      -0.216 -11.018   2.262  1.00  0.00     0.163 HD
ATOM     38  O   UNL     1      -0.169 -13.408   2.741  1.00  0.00    -0.269 OA
BRANCH  36  39
ATOM     39  C   UNL     1      -1.158 -12.927   4.813  1.00  0.00     0.039 A 
ATOM     40  C   UNL     1      -0.571 -13.957   5.548  1.00  0.00     0.014 A 
ATOM     41  C   UNL     1      -2.300 -12.277   5.293  1.00  0.00     0.014 A 
ATOM     42  C   UNL     1      -1.115 -14.318   6.780  1.00  0.00     0.010 A 
ATOM     43  C   UNL     1      -2.786 -12.577   6.561  1.00  0.00     0.010 A 
ATOM     44  C   UNL     1      -2.214 -13.618   7.306  1.00  0.00    -0.014 A 
BRANCH  44  45
ATOM     45  C   UNL     1      -2.798 -13.993   8.617  1.00  0.00     0.031 A 
ATOM     46  C   UNL     1      -4.208 -14.513   8.691  1.00  0.00     0.074 A 
ATOM     47  C   UNL     1      -2.071 -13.837   9.739  1.00  0.00     0.049 A 
ATOM     48  N   UNL     1      -4.902 -14.876   9.740  1.00  0.00    -0.248 NA
ATOM     49  C   UNL     1      -4.947 -14.611   7.422  1.00  0.00     0.031 C 
ATOM     50  C   UNL     1      -0.712 -13.296   9.796  1.00  0.00     0.029 A 
ATOM     51  N   UNL     1      -2.373 -14.117  11.047  1.00  0.00    -0.354 N 
ATOM     52  C   UNL     1      -6.155 -15.235   9.258  1.00  0.00     0.074 A 
ATOM     53  C   UNL     1      -6.149 -14.983   7.835  1.00  0.00     0.031 C 
ATOM     54  C   UNL     1      -0.285 -13.315  11.069  1.00  0.00     0.029 A 
ATOM     55  C   UNL     1      -1.352 -13.831  11.921  1.00  0.00     0.049 A 
ATOM     56  H   UNL     1      -3.239 -14.489  11.333  1.00  0.00     0.167 HD
ATOM     57  C   UNL     1      -7.205 -15.754   9.938  1.00  0.00     0.037 A 
ATOM     58  C   UNL     1      -1.288 -13.969  13.258  1.00  0.00     0.037 A 
ATOM     59  C   UNL     1      -7.195 -16.022  11.352  1.00  0.00     0.049 A 
ATOM     60  C   UNL     1      -2.472 -14.545  13.989  1.00  0.00     0.074 A 
ATOM     61  C   UNL     1      -8.187 -16.594  12.129  1.00  0.00     0.029 A 
ATOM     62  N   UNL     1      -6.138 -15.731  12.203  1.00  0.00    -0.354 N 
ATOM     63  N   UNL     1      -3.626 -14.946  13.514  1.00  0.00    -0.248 NA
ATOM     64  C   UNL     1      -2.337 -14.699  15.444  1.00  0.00     0.031 C 
ATOM     65  C   UNL     1      -7.753 -16.597  13.459  1.00  0.00     0.029 A 
ATOM     66  C   UNL     1      -6.464 -16.090  13.501  1.00  0.00     0.049 A 
ATOM     67  H   UNL     1      -5.284 -15.329  11.925  1.00  0.00     0.167 HD
ATOM     68  C   UNL     1      -4.339 -15.432  14.601  1.00  0.00     0.074 A 
ATOM     69  C   UNL     1      -3.479 -15.291  15.758  1.00  0.00     0.031 C 
ATOM     70  C   UNL     1      -5.592 -15.950  14.640  1.00  0.00     0.037 A 
BRANCH  57  71
ATOM     71  C   UNL     1      -8.452 -16.067   9.160  1.00  0.00     0.064 A 
ATOM     72  C   UNL     1      -8.493 -17.102   8.213  1.00  0.00     0.173 A 
ATOM     73  C   UNL     1      -9.634 -15.346   9.390  1.00  0.00     0.173 A 
ATOM     74  F   UNL     1      -7.388 -17.815   7.944  1.00  0.00    -0.203 F 
ATOM     75  C   UNL     1      -9.659 -17.383   7.505  1.00  0.00     0.198 A 
ATOM     76  C   UNL     1     -10.807 -15.652   8.706  1.00  0.00     0.198 A 
ATOM     77  F   UNL     1      -9.654 -14.348  10.286  1.00  0.00    -0.203 F 
ATOM     78  F   UNL     1      -9.657 -18.340   6.567  1.00  0.00    -0.200 F 
ATOM     79  C   UNL     1     -10.817 -16.664   7.758  1.00  0.00     0.200 A 
ATOM     80  F   UNL     1     -11.929 -14.966   8.963  1.00  0.00    -0.200 F 
ATOM     81  F   UNL     1     -11.941 -16.942   7.083  1.00  0.00    -0.200 F 
ENDBRANCH  57  71
BRANCH  58  82
ATOM     82  C   UNL     1      -0.054 -13.580  13.990  1.00  0.00     0.064 A 
ATOM     83  C   UNL     1       0.750 -14.543  14.616  1.00  0.00     0.173 A 
ATOM     84  C   UNL     1       0.341 -12.238  14.092  1.00  0.00     0.173 A 
ATOM     85  F   UNL     1       0.406 -15.839  14.562  1.00  0.00    -0.203 F 
ATOM     86  C   UNL     1       1.882 -14.177  15.341  1.00  0.00     0.198 A 
ATOM     87  C   UNL     1       1.492 -11.876  14.788  1.00  0.00     0.198 A 
ATOM     88  F   UNL     1      -0.387 -11.276  13.505  1.00  0.00    -0.203 F 
ATOM     89  F   UNL     1       2.599 -15.114  15.976  1.00  0.00    -0.200 F 
ATOM     90  C   UNL     1       2.255 -12.844  15.422  1.00  0.00     0.200 A 
ATOM     91  F   UNL     1       1.858 -10.588  14.849  1.00  0.00    -0.200 F 
ATOM     92  F   UNL     1       3.345 -12.492  16.118  1.00  0.00    -0.200 F 
ENDBRANCH  58  82
BRANCH  70  93
ATOM     93  C   UNL     1      -6.088 -16.448  15.968  1.00  0.00     0.064 A 
ATOM     94  C   UNL     1      -6.381 -15.574  17.026  1.00  0.00     0.173 A 
ATOM     95  C   UNL     1      -6.294 -17.821  16.176  1.00  0.00     0.173 A 
ATOM     96  F   UNL     1      -6.191 -14.254  16.884  1.00  0.00    -0.203 F 
ATOM     97  C   UNL     1      -6.821 -16.060  18.255  1.00  0.00     0.198 A 
ATOM     98  C   UNL     1      -6.770 -18.299  17.393  1.00  0.00     0.198 A 
ATOM     99  F   UNL     1      -6.040 -18.700  15.195  1.00  0.00    -0.203 F 
ATOM    100  F   UNL     1      -7.031 -15.212  19.271  1.00  0.00    -0.200 F 
ATOM    101  C   UNL     1      -7.021 -17.421  18.435  1.00  0.00     0.200 A 
ATOM    102  F   UNL     1      -6.981 -19.613  17.559  1.00  0.00    -0.200 F 
ATOM    103  F   UNL     1      -7.448 -17.886  19.617  1.00  0.00    -0.200 F 
ENDBRANCH  70  93
ENDBRANCH  44  45
ENDBRANCH  36  39
ENDBRANCH  34  35
ENDBRANCH  33  34
ENDBRANCH  32  33
ENDBRANCH  31  32
ENDBRANCH   1  31
TORSDOF 18
