REMARK SMILES CCC[C@@H]1SC[C@H](C(=O)NCCCCCCNC(=O)c2ccc(-c3c4nc(c(-c5c(F)c(F)c(F)c(F)c5F)c5ccc([nH]5)c(-c5c(F)c(F)c(F)c(F)c5F)c5nc(c(-c6c(F)c(F)c(F)c(F)c6F)c6ccc3[nH]6)C=C5)C=C4)cc2)N1C(=O)C[NH+]1CCC([NH3+])CC1
REMARK SMILES IDX 12 1 11 2 10 3 8 4 9 5 7 7 4 8 5 9 83 10 6 11 3 12 2 13 1 14
REMARK SMILES IDX 84 15 85 16 86 17 87 18 88 19 93 20 89 22 92 23 90 24 91 25
REMARK SMILES IDX 13 29 14 30 15 31 16 32 17 33 18 34 19 36 20 37 21 38 82 39
REMARK SMILES IDX 22 40 81 41 23 42 24 43 25 44 75 45 26 46 80 47 74 48 76 49
REMARK SMILES IDX 27 50 79 51 73 52 72 53 28 55 60 56 40 57 59 58 41 59 44 60
REMARK SMILES IDX 58 61 77 62 42 63 43 64 57 66 78 67 45 68 29 69 30 70 38 71
REMARK SMILES IDX 31 72 32 73 36 74 39 75 33 76 34 77 37 78 35 79 61 80 62 81
REMARK SMILES IDX 70 82 63 83 64 84 68 85 71 86 65 87 66 88 69 89 67 90 46 91
REMARK SMILES IDX 47 92 55 93 48 94 49 95 53 96 56 97 50 98 51 99 54 100
REMARK SMILES IDX 52 101
REMARK H PARENT 10 6 87 21 91 26 91 27 91 28 17 35 76 54 44 65
REMARK Flexibility Score: inf
ROOT
ATOM      1  C   UNL     1      -4.074   1.962  -2.942  1.00  0.00     0.021 C 
ENDROOT
BRANCH   1   2
ATOM      2  C   UNL     1      -3.233   1.793  -1.675  1.00  0.00     0.116 C 
BRANCH   2   3
ATOM      3  N   UNL     1      -3.366   0.470  -1.092  1.00  0.00    -0.354 N 
ATOM      4  C   UNL     1      -2.452  -0.543  -0.956  1.00  0.00     0.243 C 
ATOM      5  O   UNL     1      -2.860  -1.619  -0.512  1.00  0.00    -0.273 OA
ATOM      6  H   UNL     1      -4.261   0.268  -0.734  1.00  0.00     0.163 HD
BRANCH   4   7
ATOM      7  C   UNL     1      -0.969  -0.293  -1.332  1.00  0.00     0.185 C 
ATOM      8  C   UNL     1       0.924  -0.668  -2.837  1.00  0.00     0.144 C 
ATOM      9  S   UNL     1       1.408  -1.566  -1.318  1.00  0.00    -0.134 SA
ATOM     10  N   UNL     1      -0.517  -0.506  -2.723  1.00  0.00    -0.313 N 
ATOM     11  C   UNL     1      -0.088  -1.138  -0.401  1.00  0.00     0.107 C 
BRANCH   8  12
ATOM     12  C   UNL     1       1.441  -1.394  -4.089  1.00  0.00     0.036 C 
BRANCH  12  13
ATOM     13  C   UNL     1       2.817  -0.879  -4.546  1.00  0.00    -0.000 C 
ATOM     14  C   UNL     1       3.949  -1.144  -3.567  1.00  0.00     0.004 C 
ENDBRANCH  12  13
ENDBRANCH   8  12
BRANCH  10  15
ATOM     15  C   UNL     1      -1.364  -0.154  -3.742  1.00  0.00     0.279 C 
ATOM     16  O   UNL     1      -2.505  -0.635  -3.750  1.00  0.00    -0.268 OA
BRANCH  15  17
ATOM     17  C   UNL     1      -1.004   0.805  -4.891  1.00  0.00     0.363 C 
BRANCH  17  18
ATOM     18  N   UNL     1       0.268   1.549  -4.831  1.00  0.00    -0.327 N 
ATOM     19  C   UNL     1       0.535   2.202  -6.132  1.00  0.00     0.268 C 
ATOM     20  C   UNL     1       0.401   2.510  -3.729  1.00  0.00     0.268 C 
ATOM     21  H   UNL     1       0.975   0.842  -4.630  1.00  0.00     0.348 HD
ATOM     22  C   UNL     1      -0.215   3.524  -6.358  1.00  0.00     0.126 C 
ATOM     23  C   UNL     1      -0.319   3.842  -3.896  1.00  0.00     0.126 C 
ATOM     24  C   UNL     1       0.077   4.495  -5.215  1.00  0.00     0.192 C 
BRANCH  24  25
ATOM     25  N   UNL     1      -0.632   5.763  -5.368  1.00  0.00    -0.355 N 
ATOM     26  H   UNL     1      -1.638   5.593  -5.360  1.00  0.00     0.344 HD
ATOM     27  H   UNL     1      -0.367   6.196  -6.253  1.00  0.00     0.344 HD
ATOM     28  H   UNL     1      -0.386   6.386  -4.599  1.00  0.00     0.344 HD
ENDBRANCH  24  25
ENDBRANCH  17  18
ENDBRANCH  15  17
ENDBRANCH  10  15
ENDBRANCH   4   7
ENDBRANCH   2   3
ENDBRANCH   1   2
BRANCH   1  29
ATOM     29  C   UNL     1      -5.584   1.845  -2.736  1.00  0.00     0.002 C 
BRANCH  29  30
ATOM     30  C   UNL     1      -6.203   2.987  -1.932  1.00  0.00     0.002 C 
BRANCH  30  31
ATOM     31  C   UNL     1      -5.905   4.387  -2.474  1.00  0.00     0.021 C 
BRANCH  31  32
ATOM     32  C   UNL     1      -6.216   4.582  -3.955  1.00  0.00     0.116 C 
BRANCH  32  33
ATOM     33  N   UNL     1      -7.630   4.418  -4.247  1.00  0.00    -0.352 N 
ATOM     34  C   UNL     1      -8.513   5.317  -4.794  1.00  0.00     0.251 C 
ATOM     35  H   UNL     1      -8.009   3.538  -4.019  1.00  0.00     0.163 HD
ATOM     36  O   UNL     1      -9.716   5.094  -4.790  1.00  0.00    -0.269 OA
BRANCH  34  37
ATOM     37  C   UNL     1      -7.997   6.577  -5.369  1.00  0.00     0.039 A 
ATOM     38  C   UNL     1      -8.591   7.782  -4.992  1.00  0.00     0.014 A 
ATOM     39  C   UNL     1      -6.918   6.566  -6.257  1.00  0.00     0.014 A 
ATOM     40  C   UNL     1      -8.051   8.986  -5.446  1.00  0.00     0.010 A 
ATOM     41  C   UNL     1      -6.339   7.768  -6.654  1.00  0.00     0.010 A 
ATOM     42  C   UNL     1      -6.893   8.990  -6.242  1.00  0.00    -0.014 A 
BRANCH  42  43
ATOM     43  C   UNL     1      -6.225  10.264  -6.614  1.00  0.00     0.031 A 
ATOM     44  C   UNL     1      -6.133  10.686  -8.052  1.00  0.00     0.074 A 
ATOM     45  C   UNL     1      -5.640  11.005  -5.652  1.00  0.00     0.049 A 
ATOM     46  N   UNL     1      -5.535  11.730  -8.570  1.00  0.00    -0.248 NA
ATOM     47  C   UNL     1      -6.775   9.809  -9.043  1.00  0.00     0.031 C 
ATOM     48  C   UNL     1      -5.625  10.677  -4.225  1.00  0.00     0.029 A 
ATOM     49  N   UNL     1      -4.938  12.182  -5.728  1.00  0.00    -0.354 N 
ATOM     50  C   UNL     1      -5.721  11.630  -9.943  1.00  0.00     0.074 A 
ATOM     51  C   UNL     1      -6.445  10.400 -10.183  1.00  0.00     0.031 C 
ATOM     52  C   UNL     1      -4.971  11.640  -3.559  1.00  0.00     0.029 A 
ATOM     53  C   UNL     1      -4.481  12.630  -4.512  1.00  0.00     0.049 A 
ATOM     54  H   UNL     1      -4.777  12.660  -6.574  1.00  0.00     0.167 HD
ATOM     55  C   UNL     1      -5.338  12.497 -10.910  1.00  0.00     0.037 A 
ATOM     56  C   UNL     1      -3.738  13.710  -4.203  1.00  0.00     0.037 A 
ATOM     57  C   UNL     1      -4.637  13.730 -10.662  1.00  0.00     0.049 A 
ATOM     58  C   UNL     1      -3.300  14.638  -5.304  1.00  0.00     0.074 A 
ATOM     59  C   UNL     1      -4.275  14.712 -11.568  1.00  0.00     0.029 A 
ATOM     60  N   UNL     1      -4.182  14.146  -9.419  1.00  0.00    -0.354 N 
ATOM     61  N   UNL     1      -3.555  14.577  -6.588  1.00  0.00    -0.248 NA
ATOM     62  C   UNL     1      -2.470  15.786  -4.911  1.00  0.00     0.031 C 
ATOM     63  C   UNL     1      -3.546  15.691 -10.884  1.00  0.00     0.029 A 
ATOM     64  C   UNL     1      -3.505  15.350  -9.542  1.00  0.00     0.049 A 
ATOM     65  H   UNL     1      -4.320  13.659  -8.575  1.00  0.00     0.167 HD
ATOM     66  C   UNL     1      -2.939  15.686  -7.152  1.00  0.00     0.074 A 
ATOM     67  C   UNL     1      -2.317  16.416  -6.067  1.00  0.00     0.031 C 
ATOM     68  C   UNL     1      -2.889  16.065  -8.453  1.00  0.00     0.037 A 
BRANCH  55  69
ATOM     69  C   UNL     1      -5.661  12.146 -12.334  1.00  0.00     0.064 A 
ATOM     70  C   UNL     1      -6.978  12.164 -12.819  1.00  0.00     0.173 A 
ATOM     71  C   UNL     1      -4.633  11.844 -13.241  1.00  0.00     0.173 A 
ATOM     72  F   UNL     1      -7.998  12.437 -11.992  1.00  0.00    -0.203 F 
ATOM     73  C   UNL     1      -7.255  11.871 -14.152  1.00  0.00     0.198 A 
ATOM     74  C   UNL     1      -4.911  11.583 -14.580  1.00  0.00     0.198 A 
ATOM     75  F   UNL     1      -3.356  11.818 -12.832  1.00  0.00    -0.203 F 
ATOM     76  F   UNL     1      -8.524  11.853 -14.582  1.00  0.00    -0.200 F 
ATOM     77  C   UNL     1      -6.221  11.590 -15.033  1.00  0.00     0.200 A 
ATOM     78  F   UNL     1      -3.910  11.326 -15.433  1.00  0.00    -0.200 F 
ATOM     79  F   UNL     1      -6.489  11.321 -16.318  1.00  0.00    -0.200 F 
ENDBRANCH  55  69
BRANCH  56  80
ATOM     80  C   UNL     1      -3.366  13.981  -2.789  1.00  0.00     0.064 A 
ATOM     81  C   UNL     1      -3.881  15.095  -2.110  1.00  0.00     0.173 A 
ATOM     82  C   UNL     1      -2.477  13.149  -2.093  1.00  0.00     0.173 A 
ATOM     83  F   UNL     1      -4.718  15.933  -2.739  1.00  0.00    -0.203 F 
ATOM     84  C   UNL     1      -3.503  15.379  -0.799  1.00  0.00     0.198 A 
ATOM     85  C   UNL     1      -2.125  13.415  -0.771  1.00  0.00     0.198 A 
ATOM     86  F   UNL     1      -1.957  12.068  -2.694  1.00  0.00    -0.203 F 
ATOM     87  F   UNL     1      -3.969  16.479  -0.194  1.00  0.00    -0.200 F 
ATOM     88  C   UNL     1      -2.630  14.536  -0.129  1.00  0.00     0.200 A 
ATOM     89  F   UNL     1      -1.293  12.589  -0.122  1.00  0.00    -0.200 F 
ATOM     90  F   UNL     1      -2.267  14.808   1.132  1.00  0.00    -0.200 F 
ENDBRANCH  56  80
BRANCH  68  91
ATOM     91  C   UNL     1      -2.154  17.334  -8.773  1.00  0.00     0.064 A 
ATOM     92  C   UNL     1      -0.756  17.415  -8.686  1.00  0.00     0.173 A 
ATOM     93  C   UNL     1      -2.851  18.471  -9.210  1.00  0.00     0.173 A 
ATOM     94  F   UNL     1      -0.044  16.362  -8.258  1.00  0.00    -0.203 F 
ATOM     95  C   UNL     1      -0.086  18.595  -9.000  1.00  0.00     0.198 A 
ATOM     96  C   UNL     1      -2.175  19.638  -9.556  1.00  0.00     0.198 A 
ATOM     97  F   UNL     1      -4.188  18.445  -9.317  1.00  0.00    -0.203 F 
ATOM     98  F   UNL     1       1.245  18.664  -8.861  1.00  0.00    -0.200 F 
ATOM     99  C   UNL     1      -0.795  19.702  -9.443  1.00  0.00     0.200 A 
ATOM    100  F   UNL     1      -2.860  20.701  -9.998  1.00  0.00    -0.200 F 
ATOM    101  F   UNL     1      -0.147  20.833  -9.754  1.00  0.00    -0.200 F 
ENDBRANCH  68  91
ENDBRANCH  42  43
ENDBRANCH  34  37
ENDBRANCH  32  33
ENDBRANCH  31  32
ENDBRANCH  30  31
ENDBRANCH  29  30
ENDBRANCH   1  29
TORSDOF 19
