REMARK SMILES C[C@H]1Oc2ccccc2C=C1/C=C/C(=O)N[C@H](C(=O)NCCCCCCNC(=O)c1ccc(-c2c3nc(c(-c4c(F)c(F)c(F)c(F)c4F)c4ccc([nH]4)c(-c4c(F)c(F)c(F)c(F)c4F)c4nc(c(-c5c(F)c(F)c(F)c(F)c5F)c5ccc2[nH]5)C=C4)C=C3)cc1)c1ccccc1
REMARK SMILES IDX 23 1 22 2 21 3 20 4 18 5 19 6 17 8 16 9 14 10 15 11 13 13
REMARK SMILES IDX 12 14 11 15 1 16 2 17 3 18 4 19 10 20 5 21 9 22 6 23 8 24
REMARK SMILES IDX 7 25 93 26 94 27 98 28 95 29 97 30 96 31 24 32 25 33 26 34
REMARK SMILES IDX 27 35 28 36 29 38 30 39 31 40 92 41 32 42 91 43 33 44 34 45
REMARK SMILES IDX 35 46 85 47 36 48 90 49 84 50 86 51 37 52 89 53 83 54 82 55
REMARK SMILES IDX 38 57 70 58 50 59 69 60 51 61 54 62 68 63 87 64 52 65 53 66
REMARK SMILES IDX 67 68 88 69 55 70 39 71 40 72 48 73 41 74 42 75 46 76 49 77
REMARK SMILES IDX 43 78 44 79 47 80 45 81 71 82 72 83 80 84 73 85 74 86 78 87
REMARK SMILES IDX 81 88 75 89 76 90 79 91 77 92 56 93 57 94 65 95 58 96 59 97
REMARK SMILES IDX 63 98 66 99 60 100 61 101 64 102 62 103
REMARK H PARENT 20 7 16 12 27 37 86 56 54 67
REMARK Flexibility Score: inf
ROOT
ATOM      1  C   UNL     1       5.619  -6.193  -0.444  1.00  0.00     0.002 C 
ENDROOT
BRANCH   1   2
ATOM      2  C   UNL     1       5.000  -4.793  -0.593  1.00  0.00     0.021 C 
BRANCH   2   3
ATOM      3  C   UNL     1       5.646  -3.833  -1.609  1.00  0.00     0.116 C 
BRANCH   3   4
ATOM      4  N   UNL     1       5.433  -4.142  -3.019  1.00  0.00    -0.354 N 
ATOM      5  C   UNL     1       5.014  -3.330  -4.057  1.00  0.00     0.247 C 
ATOM      6  O   UNL     1       5.394  -3.652  -5.188  1.00  0.00    -0.272 OA
ATOM      7  H   UNL     1       5.615  -5.076  -3.271  1.00  0.00     0.163 HD
BRANCH   5   8
ATOM      8  C   UNL     1       4.071  -2.104  -3.812  1.00  0.00     0.202 C 
BRANCH   8   9
ATOM      9  N   UNL     1       4.798  -0.929  -3.325  1.00  0.00    -0.337 N 
ATOM     10  C   UNL     1       4.576  -0.176  -2.210  1.00  0.00     0.244 C 
ATOM     11  O   UNL     1       5.133   0.905  -2.054  1.00  0.00    -0.270 OA
ATOM     12  H   UNL     1       5.555  -0.641  -3.883  1.00  0.00     0.164 HD
BRANCH  10  13
ATOM     13  C   UNL     1       3.847  -0.801  -1.089  1.00  0.00     0.071 C 
ATOM     14  C   UNL     1       2.580  -1.250  -1.111  1.00  0.00     0.013 C 
BRANCH  14  15
ATOM     15  C   UNL     1       2.104  -2.246  -0.152  1.00  0.00    -0.007 C 
ATOM     16  C   UNL     1       1.375  -3.913  -1.995  1.00  0.00     0.058 C 
ATOM     17  C   UNL     1       1.089  -3.297  -0.622  1.00  0.00     0.200 C 
ATOM     18  O   UNL     1       0.908  -4.440   0.238  1.00  0.00    -0.485 OA
ATOM     19  C   UNL     1       1.454  -4.418   1.481  1.00  0.00     0.127 A 
ATOM     20  C   UNL     1       2.585  -2.268   1.101  1.00  0.00     0.019 C 
ATOM     21  C   UNL     1       1.185  -5.524   2.278  1.00  0.00     0.047 A 
ATOM     22  C   UNL     1       2.259  -3.387   1.958  1.00  0.00     0.017 A 
ATOM     23  C   UNL     1       1.706  -5.586   3.563  1.00  0.00     0.004 A 
ATOM     24  C   UNL     1       2.811  -3.466   3.236  1.00  0.00     0.012 A 
ATOM     25  C   UNL     1       2.524  -4.561   4.040  1.00  0.00     0.001 A 
ENDBRANCH  14  15
ENDBRANCH  10  13
ENDBRANCH   8   9
BRANCH   8  26
ATOM     26  C   UNL     1       3.191  -1.706  -5.022  1.00  0.00    -0.016 A 
ATOM     27  C   UNL     1       2.531  -2.683  -5.787  1.00  0.00     0.006 A 
ATOM     28  C   UNL     1       2.951  -0.355  -5.363  1.00  0.00     0.006 A 
ATOM     29  C   UNL     1       1.715  -2.330  -6.871  1.00  0.00     0.000 A 
ATOM     30  C   UNL     1       2.136  -0.003  -6.445  1.00  0.00     0.000 A 
ATOM     31  C   UNL     1       1.523  -0.992  -7.204  1.00  0.00     0.000 A 
ENDBRANCH   8  26
ENDBRANCH   5   8
ENDBRANCH   3   4
ENDBRANCH   2   3
ENDBRANCH   1   2
BRANCH   1  32
ATOM     32  C   UNL     1       6.710  -6.375   0.632  1.00  0.00     0.002 C 
BRANCH  32  33
ATOM     33  C   UNL     1       6.370  -6.023   2.097  1.00  0.00     0.021 C 
BRANCH  33  34
ATOM     34  C   UNL     1       5.271  -6.840   2.804  1.00  0.00     0.116 C 
BRANCH  34  35
ATOM     35  N   UNL     1       5.770  -8.053   3.449  1.00  0.00    -0.352 N 
ATOM     36  C   UNL     1       5.721  -8.463   4.768  1.00  0.00     0.251 C 
ATOM     37  H   UNL     1       6.217  -8.685   2.841  1.00  0.00     0.163 HD
ATOM     38  O   UNL     1       6.293  -9.495   5.108  1.00  0.00    -0.269 OA
BRANCH  36  39
ATOM     39  C   UNL     1       5.002  -7.681   5.806  1.00  0.00     0.039 A 
ATOM     40  C   UNL     1       3.632  -7.467   5.724  1.00  0.00     0.014 A 
ATOM     41  C   UNL     1       5.679  -7.229   6.941  1.00  0.00     0.014 A 
ATOM     42  C   UNL     1       2.986  -6.644   6.670  1.00  0.00     0.010 A 
ATOM     43  C   UNL     1       5.011  -6.455   7.914  1.00  0.00     0.010 A 
ATOM     44  C   UNL     1       3.668  -6.064   7.753  1.00  0.00    -0.014 A 
BRANCH  44  45
ATOM     45  C   UNL     1       3.044  -4.982   8.619  1.00  0.00     0.031 A 
ATOM     46  C   UNL     1       3.806  -3.691   8.903  1.00  0.00     0.074 A 
ATOM     47  C   UNL     1       1.789  -5.054   9.122  1.00  0.00     0.049 A 
ATOM     48  N   UNL     1       3.547  -2.736   9.769  1.00  0.00    -0.248 NA
ATOM     49  C   UNL     1       5.028  -3.450   8.121  1.00  0.00     0.031 C 
ATOM     50  C   UNL     1       0.852  -6.160   8.940  1.00  0.00     0.029 A 
ATOM     51  N   UNL     1       1.070  -4.149   9.884  1.00  0.00    -0.354 N 
ATOM     52  C   UNL     1       4.618  -1.849   9.703  1.00  0.00     0.074 A 
ATOM     53  C   UNL     1       5.529  -2.373   8.709  1.00  0.00     0.031 C 
ATOM     54  C   UNL     1      -0.329  -5.840   9.493  1.00  0.00     0.029 A 
ATOM     55  C   UNL     1      -0.215  -4.551  10.171  1.00  0.00     0.049 A 
ATOM     56  H   UNL     1       1.445  -3.293  10.194  1.00  0.00     0.167 HD
ATOM     57  C   UNL     1       4.832  -0.698  10.389  1.00  0.00     0.037 A 
ATOM     58  C   UNL     1      -1.188  -3.987  10.921  1.00  0.00     0.037 A 
ATOM     59  C   UNL     1       3.889  -0.067  11.276  1.00  0.00     0.049 A 
ATOM     60  C   UNL     1      -0.936  -2.708  11.678  1.00  0.00     0.074 A 
ATOM     61  C   UNL     1       4.022   1.134  11.956  1.00  0.00     0.029 A 
ATOM     62  N   UNL     1       2.629  -0.553  11.574  1.00  0.00    -0.354 N 
ATOM     63  N   UNL     1       0.122  -1.938  11.675  1.00  0.00    -0.248 NA
ATOM     64  C   UNL     1      -2.006  -2.241  12.579  1.00  0.00     0.031 C 
ATOM     65  C   UNL     1       2.853   1.361  12.688  1.00  0.00     0.029 A 
ATOM     66  C   UNL     1       1.981   0.318  12.437  1.00  0.00     0.049 A 
ATOM     67  H   UNL     1       2.250  -1.392  11.225  1.00  0.00     0.167 HD
ATOM     68  C   UNL     1      -0.150  -0.910  12.570  1.00  0.00     0.074 A 
ATOM     69  C   UNL     1      -1.486  -1.127  13.075  1.00  0.00     0.031 C 
ATOM     70  C   UNL     1       0.653   0.112  12.949  1.00  0.00     0.037 A 
BRANCH  57  71
ATOM     71  C   UNL     1       6.160  -0.013  10.224  1.00  0.00     0.064 A 
ATOM     72  C   UNL     1       6.485   0.711   9.070  1.00  0.00     0.173 A 
ATOM     73  C   UNL     1       7.078  -0.004  11.287  1.00  0.00     0.173 A 
ATOM     74  F   UNL     1       5.644   0.728   8.024  1.00  0.00    -0.203 F 
ATOM     75  C   UNL     1       7.689   1.404   8.978  1.00  0.00     0.198 A 
ATOM     76  C   UNL     1       8.267   0.714  11.204  1.00  0.00     0.198 A 
ATOM     77  F   UNL     1       6.805  -0.667  12.422  1.00  0.00    -0.203 F 
ATOM     78  F   UNL     1       7.996   2.063   7.851  1.00  0.00    -0.200 F 
ATOM     79  C   UNL     1       8.573   1.414  10.047  1.00  0.00     0.200 A 
ATOM     80  F   UNL     1       9.109   0.739  12.245  1.00  0.00    -0.200 F 
ATOM     81  F   UNL     1       9.722   2.099   9.963  1.00  0.00    -0.200 F 
ENDBRANCH  57  71
BRANCH  58  82
ATOM     82  C   UNL     1      -2.513  -4.658  11.045  1.00  0.00     0.064 A 
ATOM     83  C   UNL     1      -3.668  -4.080  10.498  1.00  0.00     0.173 A 
ATOM     84  C   UNL     1      -2.657  -5.872  11.732  1.00  0.00     0.173 A 
ATOM     85  F   UNL     1      -3.591  -2.897   9.870  1.00  0.00    -0.203 F 
ATOM     86  C   UNL     1      -4.913  -4.691  10.633  1.00  0.00     0.198 A 
ATOM     87  C   UNL     1      -3.897  -6.499  11.838  1.00  0.00     0.198 A 
ATOM     88  F   UNL     1      -1.588  -6.458  12.290  1.00  0.00    -0.203 F 
ATOM     89  F   UNL     1      -6.007  -4.095  10.138  1.00  0.00    -0.200 F 
ATOM     90  C   UNL     1      -5.025  -5.905  11.293  1.00  0.00     0.200 A 
ATOM     91  F   UNL     1      -3.998  -7.676  12.469  1.00  0.00    -0.200 F 
ATOM     92  F   UNL     1      -6.220  -6.498  11.413  1.00  0.00    -0.200 F 
ENDBRANCH  58  82
BRANCH  70  93
ATOM     93  C   UNL     1       0.135   1.085  13.968  1.00  0.00     0.064 A 
ATOM     94  C   UNL     1       0.058   0.740  15.325  1.00  0.00     0.173 A 
ATOM     95  C   UNL     1      -0.206   2.396  13.604  1.00  0.00     0.173 A 
ATOM     96  F   UNL     1       0.362  -0.505  15.723  1.00  0.00    -0.203 F 
ATOM     97  C   UNL     1      -0.345   1.670  16.280  1.00  0.00     0.198 A 
ATOM     98  C   UNL     1      -0.589   3.330  14.565  1.00  0.00     0.198 A 
ATOM     99  F   UNL     1      -0.143   2.780  12.321  1.00  0.00    -0.203 F 
ATOM    100  F   UNL     1      -0.430   1.312  17.569  1.00  0.00    -0.200 F 
ATOM    101  C   UNL     1      -0.659   2.967  15.901  1.00  0.00     0.200 A 
ATOM    102  F   UNL     1      -0.881   4.586  14.198  1.00  0.00    -0.200 F 
ATOM    103  F   UNL     1      -1.030   3.865  16.823  1.00  0.00    -0.200 F 
ENDBRANCH  70  93
ENDBRANCH  44  45
ENDBRANCH  36  39
ENDBRANCH  34  35
ENDBRANCH  33  34
ENDBRANCH  32  33
ENDBRANCH   1  32
TORSDOF 17
