REMARK SMILES CCCCCCNC(=O)Oc1cccc(-c2ccc([C@@H](C)C(=O)NCCCCCCNC(=O)c3ccc(-c4c5nc(c(-c6c(F)c(F)c(F)c(F)c6F)c6ccc([nH]6)c(-c6c(F)c(F)c(F)c(F)c6F)c6nc(c(-c7c(F)c(F)c(F)c(F)c7F)c7ccc4[nH]7)C=C6)C=C5)cc3)cc2N)c1
REMARK SMILES IDX 22 1 23 2 24 3 20 5 21 6 19 7 16 8 17 9 98 10 18 11 97 12
REMARK SMILES IDX 15 13 11 14 12 15 100 16 13 17 14 18 10 19 8 20 7 21 9 23
REMARK SMILES IDX 6 24 5 25 4 26 3 27 2 28 1 29 99 30 25 33 26 34 27 35 28 36
REMARK SMILES IDX 29 37 30 38 31 39 32 40 33 42 34 43 35 44 96 45 36 46 95 47
REMARK SMILES IDX 37 48 38 49 39 50 89 51 40 52 94 53 88 54 90 55 41 56 93 57
REMARK SMILES IDX 87 58 86 59 42 61 74 62 54 63 73 64 55 65 58 66 72 67 91 68
REMARK SMILES IDX 56 69 57 70 71 72 92 73 59 74 43 75 44 76 52 77 45 78 46 79
REMARK SMILES IDX 50 80 53 81 47 82 48 83 51 84 49 85 75 86 76 87 84 88 77 89
REMARK SMILES IDX 78 90 82 91 85 92 79 93 80 94 83 95 81 96 60 97 61 98 69 99
REMARK SMILES IDX 62 100 63 101 67 102 70 103 64 104 65 105 68 106 66 107
REMARK H PARENT 24 4 7 22 99 31 99 32 31 41 90 60 58 71
REMARK Flexibility Score: inf
ROOT
ATOM      1  C   UNL     1      -3.312  14.027  -0.463  1.00  0.00     0.227 C 
ATOM      2  O   UNL     1      -2.384  13.923  -1.274  1.00  0.00    -0.274 OA
ATOM      3  N   UNL     1      -3.045  14.728   0.672  1.00  0.00    -0.356 N 
ATOM      4  H   UNL     1      -2.153  15.144   0.688  1.00  0.00     0.163 HD
ENDROOT
BRANCH   1   5
ATOM      5  C   UNL     1      -4.680  13.404  -0.782  1.00  0.00     0.105 C 
ATOM      6  C   UNL     1      -5.833  14.406  -0.834  1.00  0.00     0.023 C 
BRANCH   5   7
ATOM      7  C   UNL     1      -4.962  12.112  -0.031  1.00  0.00    -0.034 A 
ATOM      8  C   UNL     1      -5.275   9.635   1.357  1.00  0.00     0.005 A 
ATOM      9  C   UNL     1      -5.641  10.864   1.937  1.00  0.00     0.011 A 
ATOM     10  C   UNL     1      -4.850   9.652   0.008  1.00  0.00     0.040 A 
ATOM     11  C   UNL     1      -5.531  12.071   1.241  1.00  0.00     0.005 A 
ATOM     12  C   UNL     1      -4.627  10.886  -0.629  1.00  0.00     0.030 A 
BRANCH   8  13
ATOM     13  C   UNL     1      -5.346   8.400   2.175  1.00  0.00    -0.013 A 
ATOM     14  C   UNL     1      -4.375   6.305   2.944  1.00  0.00     0.133 A 
ATOM     15  C   UNL     1      -5.500   6.030   3.715  1.00  0.00     0.047 A 
ATOM     16  C   UNL     1      -4.285   7.478   2.194  1.00  0.00     0.056 A 
ATOM     17  C   UNL     1      -6.545   6.947   3.742  1.00  0.00     0.004 A 
ATOM     18  C   UNL     1      -6.473   8.113   2.972  1.00  0.00     0.009 A 
BRANCH  14  19
ATOM     19  O   UNL     1      -3.421   5.280   2.822  1.00  0.00    -0.410 OA
BRANCH  19  20
ATOM     20  C   UNL     1      -2.075   5.586   2.955  1.00  0.00     0.412 C 
ATOM     21  N   UNL     1      -1.257   4.546   2.603  1.00  0.00    -0.321 N 
ATOM     22  H   UNL     1      -0.289   4.695   2.699  1.00  0.00     0.167 HD
ATOM     23  O   UNL     1      -1.614   6.649   3.351  1.00  0.00    -0.224 OA
BRANCH  21  24
ATOM     24  C   UNL     1      -1.668   3.249   2.103  1.00  0.00     0.119 C 
BRANCH  24  25
ATOM     25  C   UNL     1      -1.068   2.944   0.730  1.00  0.00     0.021 C 
BRANCH  25  26
ATOM     26  C   UNL     1       0.461   2.829   0.703  1.00  0.00     0.002 C 
BRANCH  26  27
ATOM     27  C   UNL     1       1.062   1.774   1.638  1.00  0.00    -0.000 C 
BRANCH  27  28
ATOM     28  C   UNL     1       0.575   0.341   1.413  1.00  0.00    -0.003 C 
ATOM     29  C   UNL     1       0.939  -0.210   0.043  1.00  0.00     0.004 C 
ENDBRANCH  27  28
ENDBRANCH  26  27
ENDBRANCH  25  26
ENDBRANCH  24  25
ENDBRANCH  21  24
ENDBRANCH  19  20
ENDBRANCH  14  19
ENDBRANCH   8  13
BRANCH  10  30
ATOM     30  N   UNL     1      -4.528   8.487  -0.693  1.00  0.00    -0.398 N 
ATOM     31  H   UNL     1      -4.671   7.607  -0.276  1.00  0.00     0.156 HD
ATOM     32  H   UNL     1      -4.158   8.547  -1.603  1.00  0.00     0.156 HD
ENDBRANCH  10  30
ENDBRANCH   5   7
ENDBRANCH   1   5
BRANCH   3  33
ATOM     33  C   UNL     1      -3.834  14.972   1.859  1.00  0.00     0.116 C 
BRANCH  33  34
ATOM     34  C   UNL     1      -3.397  14.079   3.021  1.00  0.00     0.021 C 
BRANCH  34  35
ATOM     35  C   UNL     1      -2.280  14.682   3.880  1.00  0.00     0.002 C 
BRANCH  35  36
ATOM     36  C   UNL     1      -2.648  15.982   4.607  1.00  0.00     0.002 C 
BRANCH  36  37
ATOM     37  C   UNL     1      -3.907  15.916   5.478  1.00  0.00     0.021 C 
BRANCH  37  38
ATOM     38  C   UNL     1      -3.854  14.881   6.598  1.00  0.00     0.116 C 
BRANCH  38  39
ATOM     39  N   UNL     1      -2.806  15.179   7.561  1.00  0.00    -0.352 N 
ATOM     40  C   UNL     1      -2.896  15.423   8.908  1.00  0.00     0.251 C 
ATOM     41  H   UNL     1      -1.894  15.210   7.191  1.00  0.00     0.163 HD
ATOM     42  O   UNL     1      -1.934  15.879   9.518  1.00  0.00    -0.269 OA
BRANCH  40  43
ATOM     43  C   UNL     1      -4.155  15.145   9.631  1.00  0.00     0.039 A 
ATOM     44  C   UNL     1      -4.610  16.069  10.576  1.00  0.00     0.014 A 
ATOM     45  C   UNL     1      -4.863  13.960   9.410  1.00  0.00     0.014 A 
ATOM     46  C   UNL     1      -5.802  15.829  11.263  1.00  0.00     0.010 A 
ATOM     47  C   UNL     1      -6.085  13.754  10.045  1.00  0.00     0.010 A 
ATOM     48  C   UNL     1      -6.561  14.681  10.984  1.00  0.00    -0.014 A 
BRANCH  48  49
ATOM     49  C   UNL     1      -7.848  14.424  11.676  1.00  0.00     0.031 A 
ATOM     50  C   UNL     1      -7.984  13.251  12.605  1.00  0.00     0.074 A 
ATOM     51  C   UNL     1      -8.909  15.214  11.425  1.00  0.00     0.049 A 
ATOM     52  N   UNL     1      -9.037  12.827  13.258  1.00  0.00    -0.248 NA
ATOM     53  C   UNL     1      -6.781  12.430  12.807  1.00  0.00     0.031 C 
ATOM     54  C   UNL     1      -8.912  16.362  10.518  1.00  0.00     0.029 A 
ATOM     55  N   UNL     1     -10.193  15.167  11.908  1.00  0.00    -0.354 N 
ATOM     56  C   UNL     1      -8.626  11.687  13.936  1.00  0.00     0.074 A 
ATOM     57  C   UNL     1      -7.246  11.452  13.569  1.00  0.00     0.031 C 
ATOM     58  C   UNL     1     -10.128  16.930  10.534  1.00  0.00     0.029 A 
ATOM     59  C   UNL     1     -10.999  16.166  11.422  1.00  0.00     0.049 A 
ATOM     60  H   UNL     1     -10.505  14.482  12.542  1.00  0.00     0.167 HD
ATOM     61  C   UNL     1      -9.328  10.919  14.804  1.00  0.00     0.037 A 
ATOM     62  C   UNL     1     -12.295  16.433  11.667  1.00  0.00     0.037 A 
ATOM     63  C   UNL     1     -10.695  11.166  15.179  1.00  0.00     0.049 A 
ATOM     64  C   UNL     1     -13.061  15.551  12.614  1.00  0.00     0.074 A 
ATOM     65  C   UNL     1     -11.482  10.478  16.086  1.00  0.00     0.029 A 
ATOM     66  N   UNL     1     -11.482  12.185  14.661  1.00  0.00    -0.354 N 
ATOM     67  N   UNL     1     -12.648  14.510  13.294  1.00  0.00    -0.248 NA
ATOM     68  C   UNL     1     -14.476  15.885  12.827  1.00  0.00     0.031 C 
ATOM     69  C   UNL     1     -12.758  11.054  16.085  1.00  0.00     0.029 A 
ATOM     70  C   UNL     1     -12.752  12.130  15.212  1.00  0.00     0.049 A 
ATOM     71  H   UNL     1     -11.182  12.848  13.998  1.00  0.00     0.167 HD
ATOM     72  C   UNL     1     -13.738  14.084  14.040  1.00  0.00     0.074 A 
ATOM     73  C   UNL     1     -14.830  14.985  13.734  1.00  0.00     0.031 C 
ATOM     74  C   UNL     1     -13.826  13.041  14.902  1.00  0.00     0.037 A 
BRANCH  61  75
ATOM     75  C   UNL     1      -8.619   9.738  15.404  1.00  0.00     0.064 A 
ATOM     76  C   UNL     1      -7.568   9.899  16.321  1.00  0.00     0.173 A 
ATOM     77  C   UNL     1      -8.993   8.431  15.061  1.00  0.00     0.173 A 
ATOM     78  F   UNL     1      -7.162  11.128  16.674  1.00  0.00    -0.203 F 
ATOM     79  C   UNL     1      -6.892   8.797  16.838  1.00  0.00     0.198 A 
ATOM     80  C   UNL     1      -8.336   7.330  15.605  1.00  0.00     0.198 A 
ATOM     81  F   UNL     1      -9.995   8.218  14.194  1.00  0.00    -0.203 F 
ATOM     82  F   UNL     1      -5.851   8.978  17.663  1.00  0.00    -0.200 F 
ATOM     83  C   UNL     1      -7.279   7.514  16.484  1.00  0.00     0.200 A 
ATOM     84  F   UNL     1      -8.720   6.090  15.271  1.00  0.00    -0.200 F 
ATOM     85  F   UNL     1      -6.626   6.454  16.980  1.00  0.00    -0.200 F 
ENDBRANCH  61  75
BRANCH  62  86
ATOM     86  C   UNL     1     -12.936  17.619  11.043  1.00  0.00     0.064 A 
ATOM     87  C   UNL     1     -13.273  18.737  11.818  1.00  0.00     0.173 A 
ATOM     88  C   UNL     1     -13.216  17.666   9.670  1.00  0.00     0.173 A 
ATOM     89  F   UNL     1     -13.044  18.729  13.139  1.00  0.00    -0.203 F 
ATOM     90  C   UNL     1     -13.878  19.854  11.245  1.00  0.00     0.198 A 
ATOM     91  C   UNL     1     -13.797  18.794   9.094  1.00  0.00     0.198 A 
ATOM     92  F   UNL     1     -12.909  16.623   8.885  1.00  0.00    -0.203 F 
ATOM     93  F   UNL     1     -14.222  20.895  12.016  1.00  0.00    -0.200 F 
ATOM     94  C   UNL     1     -14.133  19.884   9.883  1.00  0.00     0.200 A 
ATOM     95  F   UNL     1     -14.031  18.825   7.775  1.00  0.00    -0.200 F 
ATOM     96  F   UNL     1     -14.708  20.961   9.331  1.00  0.00    -0.200 F 
ENDBRANCH  62  86
BRANCH  74  97
ATOM     97  C   UNL     1     -15.136  12.843  15.607  1.00  0.00     0.064 A 
ATOM     98  C   UNL     1     -16.268  12.357  14.935  1.00  0.00     0.173 A 
ATOM     99  C   UNL     1     -15.251  13.113  16.979  1.00  0.00     0.173 A 
ATOM    100  F   UNL     1     -16.213  12.101  13.620  1.00  0.00    -0.203 F 
ATOM    101  C   UNL     1     -17.473  12.173  15.607  1.00  0.00     0.198 A 
ATOM    102  C   UNL     1     -16.449  12.900  17.654  1.00  0.00     0.198 A 
ATOM    103  F   UNL     1     -14.196  13.575  17.668  1.00  0.00    -0.203 F 
ATOM    104  F   UNL     1     -18.555  11.753  14.936  1.00  0.00    -0.200 F 
ATOM    105  C   UNL     1     -17.561  12.437  16.966  1.00  0.00     0.200 A 
ATOM    106  F   UNL     1     -16.529  13.145  18.969  1.00  0.00    -0.200 F 
ATOM    107  F   UNL     1     -18.721  12.254  17.612  1.00  0.00    -0.200 F 
ENDBRANCH  74  97
ENDBRANCH  48  49
ENDBRANCH  40  43
ENDBRANCH  38  39
ENDBRANCH  37  38
ENDBRANCH  36  37
ENDBRANCH  35  36
ENDBRANCH  34  35
ENDBRANCH  33  34
ENDBRANCH   3  33
TORSDOF 23
