REMARK SMILES CCC1(CC)CCN(C(=O)NC(CC)(CC)C(=O)NCCCCCCNC(=O)c2ccc(-c3c4nc(c(-c5c(F)c(F)c(F)c(F)c5F)c5ccc([nH]5)c(-c5c(F)c(F)c(F)c(F)c5F)c5nc(c(-c6c(F)c(F)c(F)c(F)c6F)c6ccc3[nH]6)C=C5)C=C4)cc2)CC1
REMARK SMILES IDX 22 1 21 2 20 3 19 4 17 5 18 6 12 8 11 9 3 10 6 11 93 12 7 13
REMARK SMILES IDX 92 14 8 15 9 16 10 17 2 19 1 20 4 21 5 22 13 23 14 24 15 25
REMARK SMILES IDX 16 26 23 27 24 28 25 29 26 30 27 31 28 33 29 34 30 35 91 36
REMARK SMILES IDX 31 37 90 38 32 39 33 40 34 41 84 42 35 43 89 44 83 45 85 46
REMARK SMILES IDX 36 47 88 48 82 49 81 50 37 52 69 53 49 54 68 55 50 56 53 57
REMARK SMILES IDX 67 58 86 59 51 60 52 61 66 63 87 64 54 65 38 66 39 67 47 68
REMARK SMILES IDX 40 69 41 70 45 71 48 72 42 73 43 74 46 75 44 76 70 77 71 78
REMARK SMILES IDX 79 79 72 80 73 81 77 82 80 83 74 84 75 85 78 86 76 87 55 88
REMARK SMILES IDX 56 89 64 90 57 91 58 92 62 93 65 94 59 95 60 96 63 97 61 98
REMARK H PARENT 19 7 11 18 26 32 85 51 53 62
REMARK Flexibility Score: inf
ROOT
ATOM      1  C   UNL     1      -3.371   3.407  -3.627  1.00  0.00     0.002 C 
ENDROOT
BRANCH   1   2
ATOM      2  C   UNL     1      -3.447   4.939  -3.712  1.00  0.00     0.021 C 
BRANCH   2   3
ATOM      3  C   UNL     1      -3.812   5.629  -2.397  1.00  0.00     0.116 C 
BRANCH   3   4
ATOM      4  N   UNL     1      -2.893   5.290  -1.333  1.00  0.00    -0.354 N 
ATOM      5  C   UNL     1      -1.613   5.793  -1.395  1.00  0.00     0.245 C 
ATOM      6  O   UNL     1      -0.816   5.255  -2.159  1.00  0.00    -0.272 OA
ATOM      7  H   UNL     1      -3.175   4.714  -0.586  1.00  0.00     0.163 HD
BRANCH   5   8
ATOM      8  C   UNL     1      -1.288   7.037  -0.514  1.00  0.00     0.120 C 
BRANCH   8   9
ATOM      9  N   UNL     1      -0.077   6.929   0.362  1.00  0.00    -0.323 N 
ATOM     10  C   UNL     1       1.193   2.240   0.085  1.00  0.00    -0.027 C 
ATOM     11  C   UNL     1       2.188   3.120   0.914  1.00  0.00     0.028 C 
ATOM     12  C   UNL     1      -0.014   3.148  -0.309  1.00  0.00     0.028 C 
ATOM     13  C   UNL     1       1.531   4.037   1.970  1.00  0.00     0.122 C 
ATOM     14  C   UNL     1      -0.596   3.945   0.856  1.00  0.00     0.122 C 
ATOM     15  N   UNL     1       0.432   4.809   1.378  1.00  0.00    -0.325 N 
ATOM     16  C   UNL     1       0.584   6.152   1.230  1.00  0.00     0.318 C 
ATOM     17  O   UNL     1       1.456   6.763   1.863  1.00  0.00    -0.249 OA
ATOM     18  H   UNL     1       0.439   7.761   0.257  1.00  0.00     0.166 HD
BRANCH  10  19
ATOM     19  C   UNL     1       0.628   1.061   0.945  1.00  0.00     0.004 C 
ATOM     20  C   UNL     1       1.023  -0.360   0.578  1.00  0.00     0.004 C 
ENDBRANCH  10  19
BRANCH  10  21
ATOM     21  C   UNL     1       1.856   1.821  -1.272  1.00  0.00     0.004 C 
ATOM     22  C   UNL     1       3.220   1.142  -1.236  1.00  0.00     0.004 C 
ENDBRANCH  10  21
ENDBRANCH   8   9
BRANCH   8  23
ATOM     23  C   UNL     1      -2.512   7.483   0.357  1.00  0.00     0.035 C 
ATOM     24  C   UNL     1      -2.661   8.983   0.611  1.00  0.00     0.007 C 
ENDBRANCH   8  23
BRANCH   8  25
ATOM     25  C   UNL     1      -0.943   8.137  -1.593  1.00  0.00     0.035 C 
ATOM     26  C   UNL     1       0.370   7.936  -2.364  1.00  0.00     0.007 C 
ENDBRANCH   8  25
ENDBRANCH   5   8
ENDBRANCH   3   4
ENDBRANCH   2   3
ENDBRANCH   1   2
BRANCH   1  27
ATOM     27  C   UNL     1      -4.649   2.715  -3.143  1.00  0.00     0.002 C 
BRANCH  27  28
ATOM     28  C   UNL     1      -5.927   3.159  -3.853  1.00  0.00     0.021 C 
BRANCH  28  29
ATOM     29  C   UNL     1      -5.867   3.085  -5.372  1.00  0.00     0.116 C 
BRANCH  29  30
ATOM     30  N   UNL     1      -5.837   1.718  -5.859  1.00  0.00    -0.352 N 
ATOM     31  C   UNL     1      -6.648   1.136  -6.801  1.00  0.00     0.251 C 
ATOM     32  H   UNL     1      -5.148   1.136  -5.465  1.00  0.00     0.163 HD
ATOM     33  O   UNL     1      -6.614  -0.075  -6.998  1.00  0.00    -0.269 OA
BRANCH  31  34
ATOM     34  C   UNL     1      -7.599   1.982  -7.552  1.00  0.00     0.039 A 
ATOM     35  C   UNL     1      -8.940   1.601  -7.606  1.00  0.00     0.014 A 
ATOM     36  C   UNL     1      -7.175   3.171  -8.154  1.00  0.00     0.014 A 
ATOM     37  C   UNL     1      -9.873   2.449  -8.205  1.00  0.00     0.010 A 
ATOM     38  C   UNL     1      -8.115   4.047  -8.688  1.00  0.00     0.010 A 
ATOM     39  C   UNL     1      -9.474   3.696  -8.714  1.00  0.00    -0.014 A 
BRANCH  39  40
ATOM     40  C   UNL     1     -10.470   4.655  -9.255  1.00  0.00     0.031 A 
ATOM     41  C   UNL     1     -10.443   5.040 -10.706  1.00  0.00     0.074 A 
ATOM     42  C   UNL     1     -11.361   5.226  -8.421  1.00  0.00     0.049 A 
ATOM     43  N   UNL     1     -11.192   5.900 -11.348  1.00  0.00    -0.248 NA
ATOM     44  C   UNL     1      -9.423   4.389 -11.543  1.00  0.00     0.031 C 
ATOM     45  C   UNL     1     -11.456   4.970  -6.982  1.00  0.00     0.029 A 
ATOM     46  N   UNL     1     -12.351   6.146  -8.660  1.00  0.00    -0.354 N 
ATOM     47  C   UNL     1     -10.730   5.900 -12.657  1.00  0.00     0.074 A 
ATOM     48  C   UNL     1      -9.603   4.994 -12.709  1.00  0.00     0.031 C 
ATOM     49  C   UNL     1     -12.461   5.699  -6.471  1.00  0.00     0.029 A 
ATOM     50  C   UNL     1     -13.056   6.502  -7.535  1.00  0.00     0.049 A 
ATOM     51  H   UNL     1     -12.538   6.517  -9.552  1.00  0.00     0.167 HD
ATOM     52  C   UNL     1     -11.218   6.576 -13.724  1.00  0.00     0.037 A 
ATOM     53  C   UNL     1     -14.062   7.383  -7.379  1.00  0.00     0.037 A 
ATOM     54  C   UNL     1     -12.353   7.461 -13.674  1.00  0.00     0.049 A 
ATOM     55  C   UNL     1     -14.572   8.136  -8.578  1.00  0.00     0.074 A 
ATOM     56  C   UNL     1     -12.964   8.140 -14.713  1.00  0.00     0.029 A 
ATOM     57  N   UNL     1     -13.043   7.795 -12.518  1.00  0.00    -0.354 N 
ATOM     58  N   UNL     1     -14.176   8.070  -9.825  1.00  0.00    -0.248 NA
ATOM     59  C   UNL     1     -15.671   9.083  -8.346  1.00  0.00     0.031 C 
ATOM     60  C   UNL     1     -13.993   8.923 -14.179  1.00  0.00     0.029 A 
ATOM     61  C   UNL     1     -14.055   8.694 -12.814  1.00  0.00     0.049 A 
ATOM     62  H   UNL     1     -12.843   7.444 -11.619  1.00  0.00     0.167 HD
ATOM     63  C   UNL     1     -14.988   8.948 -10.530  1.00  0.00     0.074 A 
ATOM     64  C   UNL     1     -15.913   9.520  -9.574  1.00  0.00     0.031 C 
ATOM     65  C   UNL     1     -14.966   9.256 -11.850  1.00  0.00     0.037 A 
BRANCH  52  66
ATOM     66  C   UNL     1     -10.529   6.384 -15.044  1.00  0.00     0.064 A 
ATOM     67  C   UNL     1     -10.620   5.175 -15.751  1.00  0.00     0.173 A 
ATOM     68  C   UNL     1      -9.808   7.434 -15.631  1.00  0.00     0.173 A 
ATOM     69  F   UNL     1     -11.289   4.136 -15.229  1.00  0.00    -0.203 F 
ATOM     70  C   UNL     1      -9.994   5.017 -16.985  1.00  0.00     0.198 A 
ATOM     71  C   UNL     1      -9.208   7.283 -16.878  1.00  0.00     0.198 A 
ATOM     72  F   UNL     1      -9.694   8.613 -15.000  1.00  0.00    -0.203 F 
ATOM     73  F   UNL     1     -10.058   3.840 -17.621  1.00  0.00    -0.200 F 
ATOM     74  C   UNL     1      -9.295   6.073 -17.551  1.00  0.00     0.200 A 
ATOM     75  F   UNL     1      -8.544   8.308 -17.430  1.00  0.00    -0.200 F 
ATOM     76  F   UNL     1      -8.701   5.923 -18.742  1.00  0.00    -0.200 F 
ENDBRANCH  52  66
BRANCH  53  77
ATOM     77  C   UNL     1     -14.663   7.594  -6.036  1.00  0.00     0.064 A 
ATOM     78  C   UNL     1     -15.970   7.172  -5.758  1.00  0.00     0.173 A 
ATOM     79  C   UNL     1     -13.948   8.226  -5.008  1.00  0.00     0.173 A 
ATOM     80  F   UNL     1     -16.701   6.582  -6.715  1.00  0.00    -0.203 F 
ATOM     81  C   UNL     1     -16.547   7.391  -4.509  1.00  0.00     0.198 A 
ATOM     82  C   UNL     1     -14.516   8.419  -3.750  1.00  0.00     0.198 A 
ATOM     83  F   UNL     1     -12.692   8.645  -5.221  1.00  0.00    -0.203 F 
ATOM     84  F   UNL     1     -17.815   7.019  -4.284  1.00  0.00    -0.200 F 
ATOM     85  C   UNL     1     -15.818   8.009  -3.504  1.00  0.00     0.200 A 
ATOM     86  F   UNL     1     -13.803   9.003  -2.778  1.00  0.00    -0.200 F 
ATOM     87  F   UNL     1     -16.372   8.217  -2.302  1.00  0.00    -0.200 F 
ENDBRANCH  53  77
BRANCH  65  88
ATOM     88  C   UNL     1     -15.985  10.243 -12.341  1.00  0.00     0.064 A 
ATOM     89  C   UNL     1     -15.892  11.608 -12.031  1.00  0.00     0.173 A 
ATOM     90  C   UNL     1     -17.043   9.825 -13.162  1.00  0.00     0.173 A 
ATOM     91  F   UNL     1     -14.908  12.054 -11.236  1.00  0.00    -0.203 F 
ATOM     92  C   UNL     1     -16.836  12.514 -12.506  1.00  0.00     0.198 A 
ATOM     93  C   UNL     1     -17.968  10.739 -13.660  1.00  0.00     0.198 A 
ATOM     94  F   UNL     1     -17.173   8.532 -13.493  1.00  0.00    -0.203 F 
ATOM     95  F   UNL     1     -16.755  13.806 -12.158  1.00  0.00    -0.200 F 
ATOM     96  C   UNL     1     -17.868  12.081 -13.325  1.00  0.00     0.200 A 
ATOM     97  F   UNL     1     -18.956  10.321 -14.462  1.00  0.00    -0.200 F 
ATOM     98  F   UNL     1     -18.771  12.957 -13.787  1.00  0.00    -0.200 F 
ENDBRANCH  65  88
ENDBRANCH  39  40
ENDBRANCH  31  34
ENDBRANCH  29  30
ENDBRANCH  28  29
ENDBRANCH  27  28
ENDBRANCH   1  27
TORSDOF 18
