REMARK SMILES CC(C)(C(=O)NCCCCCCNC(=O)c1ccc(-c2c3nc(c(-c4c(F)c(F)c(F)c(F)c4F)c4ccc([nH]4)c(-c4c(F)c(F)c(F)c(F)c4F)c4nc(c(-c5c(F)c(F)c(F)c(F)c5F)c5ccc2[nH]5)C=C4)C=C3)cc1)C1CCCCC1
REMARK SMILES IDX 10 1 9 2 8 3 7 4 6 5 4 6 5 7 2 9 1 10 3 11 79 12 80 13 84 14
REMARK SMILES IDX 81 15 83 16 82 17 11 18 12 19 13 20 14 21 15 23 16 24 17 25
REMARK SMILES IDX 78 26 18 27 77 28 19 29 20 30 21 31 71 32 22 33 76 34 70 35
REMARK SMILES IDX 72 36 23 37 75 38 69 39 68 40 24 42 56 43 36 44 55 45 37 46
REMARK SMILES IDX 40 47 54 48 73 49 38 50 39 51 53 53 74 54 41 55 25 56 26 57
REMARK SMILES IDX 34 58 27 59 28 60 32 61 35 62 29 63 30 64 33 65 31 66 57 67
REMARK SMILES IDX 58 68 66 69 59 70 60 71 64 72 67 73 61 74 62 75 65 76 63 77
REMARK SMILES IDX 42 78 43 79 51 80 44 81 45 82 49 83 52 84 46 85 47 86 50 87
REMARK SMILES IDX 48 88
REMARK H PARENT 6 8 13 22 72 41 40 52
REMARK Flexibility Score: inf
ROOT
ATOM      1  C   UNL     1      -3.619   2.475   2.978  1.00  0.00     0.002 C 
ENDROOT
BRANCH   1   2
ATOM      2  C   UNL     1      -3.130   2.482   1.526  1.00  0.00     0.002 C 
BRANCH   2   3
ATOM      3  C   UNL     1      -1.615   2.325   1.351  1.00  0.00     0.021 C 
BRANCH   3   4
ATOM      4  C   UNL     1      -1.034   1.077   2.012  1.00  0.00     0.116 C 
BRANCH   4   5
ATOM      5  N   UNL     1      -1.487  -0.119   1.329  1.00  0.00    -0.356 N 
ATOM      6  C   UNL     1      -0.831  -1.078   0.624  1.00  0.00     0.225 C 
ATOM      7  O   UNL     1      -1.547  -1.767  -0.108  1.00  0.00    -0.275 OA
ATOM      8  H   UNL     1      -2.458  -0.266   1.388  1.00  0.00     0.163 HD
BRANCH   6   9
ATOM      9  C   UNL     1       0.707  -1.264   0.686  1.00  0.00     0.046 C 
ATOM     10  C   UNL     1       1.337  -0.080  -0.087  1.00  0.00     0.022 C 
ATOM     11  C   UNL     1       1.211  -1.296   2.145  1.00  0.00     0.022 C 
BRANCH   9  12
ATOM     12  C   UNL     1       1.127  -2.611  -0.052  1.00  0.00     0.004 C 
ATOM     13  C   UNL     1       2.662  -2.833  -0.057  1.00  0.00     0.005 C 
ATOM     14  C   UNL     1       0.441  -3.887   0.502  1.00  0.00     0.005 C 
ATOM     15  C   UNL     1       3.079  -4.108  -0.787  1.00  0.00     0.000 C 
ATOM     16  C   UNL     1       0.853  -5.138  -0.274  1.00  0.00     0.000 C 
ATOM     17  C   UNL     1       2.361  -5.332  -0.236  1.00  0.00     0.000 C 
ENDBRANCH   9  12
ENDBRANCH   6   9
ENDBRANCH   4   5
ENDBRANCH   3   4
ENDBRANCH   2   3
ENDBRANCH   1   2
BRANCH   1  18
ATOM     18  C   UNL     1      -2.910   3.462   3.908  1.00  0.00     0.021 C 
BRANCH  18  19
ATOM     19  C   UNL     1      -2.954   4.914   3.446  1.00  0.00     0.116 C 
BRANCH  19  20
ATOM     20  N   UNL     1      -4.310   5.434   3.397  1.00  0.00    -0.352 N 
ATOM     21  C   UNL     1      -4.800   6.606   3.906  1.00  0.00     0.251 C 
ATOM     22  H   UNL     1      -4.966   4.865   2.934  1.00  0.00     0.163 HD
ATOM     23  O   UNL     1      -6.014   6.813   3.931  1.00  0.00    -0.269 OA
BRANCH  21  24
ATOM     24  C   UNL     1      -3.873   7.621   4.447  1.00  0.00     0.039 A 
ATOM     25  C   UNL     1      -4.186   8.243   5.658  1.00  0.00     0.014 A 
ATOM     26  C   UNL     1      -2.711   7.975   3.754  1.00  0.00     0.014 A 
ATOM     27  C   UNL     1      -3.313   9.191   6.195  1.00  0.00     0.010 A 
ATOM     28  C   UNL     1      -1.808   8.868   4.324  1.00  0.00     0.010 A 
ATOM     29  C   UNL     1      -2.108   9.497   5.542  1.00  0.00    -0.014 A 
BRANCH  29  30
ATOM     30  C   UNL     1      -1.169  10.504   6.096  1.00  0.00     0.031 A 
ATOM     31  C   UNL     1      -0.911  11.779   5.339  1.00  0.00     0.074 A 
ATOM     32  C   UNL     1      -0.517  10.255   7.248  1.00  0.00     0.049 A 
ATOM     33  N   UNL     1      -0.068  12.745   5.605  1.00  0.00    -0.248 NA
ATOM     34  C   UNL     1      -1.686  11.983   4.104  1.00  0.00     0.031 C 
ATOM     35  C   UNL     1      -0.654   9.041   8.053  1.00  0.00     0.029 A 
ATOM     36  N   UNL     1       0.402  11.008   7.936  1.00  0.00    -0.354 N 
ATOM     37  C   UNL     1      -0.207  13.662   4.571  1.00  0.00     0.074 A 
ATOM     38  C   UNL     1      -1.169  13.112   3.642  1.00  0.00     0.031 C 
ATOM     39  C   UNL     1       0.141   9.137   9.131  1.00  0.00     0.029 A 
ATOM     40  C   UNL     1       0.869  10.401   9.076  1.00  0.00     0.049 A 
ATOM     41  H   UNL     1       0.699  11.899   7.639  1.00  0.00     0.167 HD
ATOM     42  C   UNL     1       0.390  14.868   4.425  1.00  0.00     0.037 A 
ATOM     43  C   UNL     1       1.789  10.816   9.969  1.00  0.00     0.037 A 
ATOM     44  C   UNL     1       1.329  15.425   5.362  1.00  0.00     0.049 A 
ATOM     45  C   UNL     1       2.439  12.161   9.778  1.00  0.00     0.074 A 
ATOM     46  C   UNL     1       1.978  16.646   5.313  1.00  0.00     0.029 A 
ATOM     47  N   UNL     1       1.744  14.797   6.527  1.00  0.00    -0.354 N 
ATOM     48  N   UNL     1       2.268  13.037   8.818  1.00  0.00    -0.248 NA
ATOM     49  C   UNL     1       3.403  12.582  10.806  1.00  0.00     0.031 C 
ATOM     50  C   UNL     1       2.809  16.745   6.433  1.00  0.00     0.029 A 
ATOM     51  C   UNL     1       2.641  15.607   7.204  1.00  0.00     0.049 A 
ATOM     52  H   UNL     1       1.445  13.909   6.828  1.00  0.00     0.167 HD
ATOM     53  C   UNL     1       3.068  14.123   9.144  1.00  0.00     0.074 A 
ATOM     54  C   UNL     1       3.716  13.803  10.398  1.00  0.00     0.031 C 
ATOM     55  C   UNL     1       3.252  15.282   8.466  1.00  0.00     0.037 A 
BRANCH  42  56
ATOM     56  C   UNL     1       0.031  15.680   3.215  1.00  0.00     0.064 A 
ATOM     57  C   UNL     1      -1.232  16.278   3.087  1.00  0.00     0.173 A 
ATOM     58  C   UNL     1       0.971  15.909   2.199  1.00  0.00     0.173 A 
ATOM     59  F   UNL     1      -2.171  16.079   4.024  1.00  0.00    -0.203 F 
ATOM     60  C   UNL     1      -1.547  17.058   1.977  1.00  0.00     0.198 A 
ATOM     61  C   UNL     1       0.662  16.714   1.105  1.00  0.00     0.198 A 
ATOM     62  F   UNL     1       2.195  15.365   2.275  1.00  0.00    -0.203 F 
ATOM     63  F   UNL     1      -2.774  17.584   1.857  1.00  0.00    -0.200 F 
ATOM     64  C   UNL     1      -0.597  17.282   0.993  1.00  0.00     0.200 A 
ATOM     65  F   UNL     1       1.586  16.941   0.161  1.00  0.00    -0.200 F 
ATOM     66  F   UNL     1      -0.897  18.044  -0.068  1.00  0.00    -0.200 F 
ENDBRANCH  42  56
BRANCH  43  67
ATOM     67  C   UNL     1       2.143   9.962  11.133  1.00  0.00     0.064 A 
ATOM     68  C   UNL     1       1.813  10.349  12.440  1.00  0.00     0.173 A 
ATOM     69  C   UNL     1       2.852   8.764  10.968  1.00  0.00     0.173 A 
ATOM     70  F   UNL     1       1.152  11.497  12.651  1.00  0.00    -0.203 F 
ATOM     71  C   UNL     1       2.210   9.589  13.538  1.00  0.00     0.198 A 
ATOM     72  C   UNL     1       3.221   7.988  12.066  1.00  0.00     0.198 A 
ATOM     73  F   UNL     1       3.187   8.344   9.739  1.00  0.00    -0.203 F 
ATOM     74  F   UNL     1       1.936  10.016  14.779  1.00  0.00    -0.200 F 
ATOM     75  C   UNL     1       2.911   8.408  13.351  1.00  0.00     0.200 A 
ATOM     76  F   UNL     1       3.886   6.840  11.879  1.00  0.00    -0.200 F 
ATOM     77  F   UNL     1       3.299   7.681  14.407  1.00  0.00    -0.200 F 
ENDBRANCH  43  67
BRANCH  55  78
ATOM     78  C   UNL     1       4.141  16.315   9.095  1.00  0.00     0.064 A 
ATOM     79  C   UNL     1       5.532  16.152   9.162  1.00  0.00     0.173 A 
ATOM     80  C   UNL     1       3.592  17.503   9.603  1.00  0.00     0.173 A 
ATOM     81  F   UNL     1       6.103  15.029   8.702  1.00  0.00    -0.203 F 
ATOM     82  C   UNL     1       6.338  17.128   9.741  1.00  0.00     0.198 A 
ATOM     83  C   UNL     1       4.404  18.489  10.154  1.00  0.00     0.198 A 
ATOM     84  F   UNL     1       2.267  17.710   9.556  1.00  0.00    -0.203 F 
ATOM     85  F   UNL     1       7.660  16.930   9.840  1.00  0.00    -0.200 F 
ATOM     86  C   UNL     1       5.775  18.298  10.230  1.00  0.00     0.200 A 
ATOM     87  F   UNL     1       3.860  19.625  10.612  1.00  0.00    -0.200 F 
ATOM     88  F   UNL     1       6.554  19.239  10.781  1.00  0.00    -0.200 F 
ENDBRANCH  55  78
ENDBRANCH  29  30
ENDBRANCH  21  24
ENDBRANCH  19  20
ENDBRANCH  18  19
ENDBRANCH   1  18
TORSDOF 14
