REMARK SMILES C/C(=C\C(=O)NCCCCCCNC(=O)c1ccc(-c2c3nc(c(-c4c(F)c(F)c(F)c(F)c4F)c4ccc([nH]4)c(-c4c(F)c(F)c(F)c(F)c4F)c4nc(c(-c5c(F)c(F)c(F)c(F)c5F)c5ccc2[nH]5)C=C4)C=C3)cc1)CSc1ccc(N)c(C)c1
REMARK SMILES IDX 8 1 7 2 6 3 4 4 5 5 3 7 1 8 2 9 79 10 80 11 81 12 82 13
REMARK SMILES IDX 88 14 83 15 86 16 84 17 87 18 85 19 9 22 10 23 11 24 12 25
REMARK SMILES IDX 13 26 14 27 15 29 16 30 17 31 78 32 18 33 77 34 19 35 20 36
REMARK SMILES IDX 21 37 71 38 22 39 76 40 70 41 72 42 23 43 75 44 69 45 68 46
REMARK SMILES IDX 24 48 56 49 36 50 55 51 37 52 40 53 54 54 73 55 38 56 39 57
REMARK SMILES IDX 53 59 74 60 41 61 25 62 26 63 34 64 27 65 28 66 32 67 35 68
REMARK SMILES IDX 29 69 30 70 33 71 31 72 57 73 58 74 66 75 59 76 60 77 64 78
REMARK SMILES IDX 67 79 61 80 62 81 65 82 63 83 42 84 43 85 51 86 44 87 45 88
REMARK SMILES IDX 49 89 52 90 46 91 47 92 50 93 48 94
REMARK H PARENT 6 6 85 20 85 21 13 28 72 47 40 58
REMARK Flexibility Score: inf
ROOT
ATOM      1  C   UNL     1      -0.163  -1.761  -1.803  1.00  0.00     0.021 C 
ENDROOT
BRANCH   1   2
ATOM      2  C   UNL     1       0.642  -0.492  -2.065  1.00  0.00     0.116 C 
BRANCH   2   3
ATOM      3  N   UNL     1      -0.178   0.682  -2.217  1.00  0.00    -0.353 N 
ATOM      4  C   UNL     1      -0.534   1.703  -1.415  1.00  0.00     0.243 C 
ATOM      5  O   UNL     1      -1.263   2.566  -1.919  1.00  0.00    -0.270 OA
ATOM      6  H   UNL     1      -0.570   0.755  -3.117  1.00  0.00     0.163 HD
BRANCH   4   7
ATOM      7  C   UNL     1      -0.200   1.881   0.026  1.00  0.00     0.071 C 
ATOM      8  C   UNL     1       1.931   0.661   0.758  1.00  0.00     0.040 C 
ATOM      9  C   UNL     1       0.721   1.524   0.947  1.00  0.00    -0.058 C 
BRANCH   9  10
ATOM     10  C   UNL     1       0.634   2.145   2.334  1.00  0.00     0.105 C 
BRANCH  10  11
ATOM     11  S   UNL     1       0.180   0.913   3.595  1.00  0.00    -0.122 SA
BRANCH  11  12
ATOM     12  C   UNL     1      -1.564   0.701   3.286  1.00  0.00     0.008 A 
ATOM     13  C   UNL     1      -2.447   1.775   3.198  1.00  0.00     0.017 A 
ATOM     14  C   UNL     1      -2.074  -0.598   3.216  1.00  0.00     0.020 A 
ATOM     15  C   UNL     1      -3.814   1.550   3.015  1.00  0.00     0.027 A 
ATOM     16  C   UNL     1      -3.450  -0.836   3.037  1.00  0.00    -0.027 A 
ATOM     17  C   UNL     1      -4.330   0.253   2.914  1.00  0.00     0.034 A 
ATOM     18  C   UNL     1      -3.944  -2.256   3.016  1.00  0.00     0.046 C 
BRANCH  17  19
ATOM     19  N   UNL     1      -5.704   0.080   2.834  1.00  0.00    -0.399 N 
ATOM     20  H   UNL     1      -6.295   0.863   2.748  1.00  0.00     0.156 HD
ATOM     21  H   UNL     1      -6.089  -0.826   2.862  1.00  0.00     0.156 HD
ENDBRANCH  17  19
ENDBRANCH  11  12
ENDBRANCH  10  11
ENDBRANCH   9  10
ENDBRANCH   4   7
ENDBRANCH   2   3
ENDBRANCH   1   2
BRANCH   1  22
ATOM     22  C   UNL     1      -0.326  -2.652  -3.041  1.00  0.00     0.002 C 
BRANCH  22  23
ATOM     23  C   UNL     1       0.981  -3.110  -3.707  1.00  0.00     0.002 C 
BRANCH  23  24
ATOM     24  C   UNL     1       1.983  -3.813  -2.787  1.00  0.00     0.021 C 
BRANCH  24  25
ATOM     25  C   UNL     1       1.466  -5.094  -2.136  1.00  0.00     0.116 C 
BRANCH  25  26
ATOM     26  N   UNL     1       1.048  -6.074  -3.126  1.00  0.00    -0.352 N 
ATOM     27  C   UNL     1       1.500  -7.343  -3.364  1.00  0.00     0.251 C 
ATOM     28  H   UNL     1       0.322  -5.776  -3.721  1.00  0.00     0.163 HD
ATOM     29  O   UNL     1       1.179  -7.918  -4.404  1.00  0.00    -0.269 OA
BRANCH  27  30
ATOM     30  C   UNL     1       2.369  -8.036  -2.390  1.00  0.00     0.039 A 
ATOM     31  C   UNL     1       3.411  -8.834  -2.871  1.00  0.00     0.014 A 
ATOM     32  C   UNL     1       2.126  -7.960  -1.015  1.00  0.00     0.014 A 
ATOM     33  C   UNL     1       4.234  -9.518  -1.974  1.00  0.00     0.010 A 
ATOM     34  C   UNL     1       2.988  -8.588  -0.118  1.00  0.00     0.010 A 
ATOM     35  C   UNL     1       4.044  -9.380  -0.590  1.00  0.00    -0.014 A 
BRANCH  35  36
ATOM     36  C   UNL     1       4.955 -10.057   0.367  1.00  0.00     0.031 A 
ATOM     37  C   UNL     1       4.449 -11.154   1.261  1.00  0.00     0.074 A 
ATOM     38  C   UNL     1       6.235  -9.649   0.454  1.00  0.00     0.049 A 
ATOM     39  N   UNL     1       5.099 -11.860   2.153  1.00  0.00    -0.248 NA
ATOM     40  C   UNL     1       3.020 -11.488   1.158  1.00  0.00     0.031 C 
ATOM     41  C   UNL     1       6.824  -8.553  -0.316  1.00  0.00     0.029 A 
ATOM     42  N   UNL     1       7.271 -10.106   1.228  1.00  0.00    -0.354 N 
ATOM     43  C   UNL     1       4.160 -12.711   2.721  1.00  0.00     0.074 A 
ATOM     44  C   UNL     1       2.885 -12.399   2.111  1.00  0.00     0.031 C 
ATOM     45  C   UNL     1       8.123  -8.440   0.003  1.00  0.00     0.029 A 
ATOM     46  C   UNL     1       8.451  -9.437   1.017  1.00  0.00     0.049 A 
ATOM     47  H   UNL     1       7.177 -10.844   1.874  1.00  0.00     0.167 HD
ATOM     48  C   UNL     1       4.349 -13.679   3.649  1.00  0.00     0.037 A 
ATOM     49  C   UNL     1       9.663  -9.613   1.576  1.00  0.00     0.037 A 
ATOM     50  C   UNL     1       5.625 -14.000   4.237  1.00  0.00     0.049 A 
ATOM     51  C   UNL     1       9.850 -10.711   2.585  1.00  0.00     0.074 A 
ATOM     52  C   UNL     1       5.934 -15.005   5.136  1.00  0.00     0.029 A 
ATOM     53  N   UNL     1       6.804 -13.314   3.983  1.00  0.00    -0.354 N 
ATOM     54  N   UNL     1       8.972 -11.563   3.055  1.00  0.00    -0.248 NA
ATOM     55  C   UNL     1      11.203 -10.880   3.132  1.00  0.00     0.031 C 
ATOM     56  C   UNL     1       7.292 -14.901   5.459  1.00  0.00     0.029 A 
ATOM     57  C   UNL     1       7.839 -13.861   4.726  1.00  0.00     0.049 A 
ATOM     58  H   UNL     1       6.893 -12.551   3.368  1.00  0.00     0.167 HD
ATOM     59  C   UNL     1       9.666 -12.380   3.936  1.00  0.00     0.074 A 
ATOM     60  C   UNL     1      11.046 -11.937   3.915  1.00  0.00     0.031 C 
ATOM     61  C   UNL     1       9.204 -13.401   4.699  1.00  0.00     0.037 A 
BRANCH  48  62
ATOM     62  C   UNL     1       3.148 -14.469   4.084  1.00  0.00     0.064 A 
ATOM     63  C   UNL     1       2.523 -15.388   3.227  1.00  0.00     0.173 A 
ATOM     64  C   UNL     1       2.639 -14.336   5.384  1.00  0.00     0.173 A 
ATOM     65  F   UNL     1       2.964 -15.546   1.970  1.00  0.00    -0.203 F 
ATOM     66  C   UNL     1       1.416 -16.122   3.646  1.00  0.00     0.198 A 
ATOM     67  C   UNL     1       1.550 -15.093   5.810  1.00  0.00     0.198 A 
ATOM     68  F   UNL     1       3.201 -13.476   6.247  1.00  0.00    -0.203 F 
ATOM     69  F   UNL     1       0.808 -16.959   2.794  1.00  0.00    -0.200 F 
ATOM     70  C   UNL     1       0.935 -15.980   4.939  1.00  0.00     0.200 A 
ATOM     71  F   UNL     1       1.093 -14.963   7.063  1.00  0.00    -0.200 F 
ATOM     72  F   UNL     1      -0.125 -16.692   5.343  1.00  0.00    -0.200 F 
ENDBRANCH  48  62
BRANCH  49  73
ATOM     73  C   UNL     1      10.800  -8.751   1.163  1.00  0.00     0.064 A 
ATOM     74  C   UNL     1      11.858  -9.270   0.405  1.00  0.00     0.173 A 
ATOM     75  C   UNL     1      10.851  -7.394   1.513  1.00  0.00     0.173 A 
ATOM     76  F   UNL     1      11.862 -10.567   0.062  1.00  0.00    -0.203 F 
ATOM     77  C   UNL     1      12.935  -8.471   0.030  1.00  0.00     0.198 A 
ATOM     78  C   UNL     1      11.915  -6.588   1.114  1.00  0.00     0.198 A 
ATOM     79  F   UNL     1       9.860  -6.847   2.232  1.00  0.00    -0.203 F 
ATOM     80  F   UNL     1      13.955  -9.004  -0.657  1.00  0.00    -0.200 F 
ATOM     81  C   UNL     1      12.960  -7.129   0.380  1.00  0.00     0.200 A 
ATOM     82  F   UNL     1      11.929  -5.289   1.441  1.00  0.00    -0.200 F 
ATOM     83  F   UNL     1      13.994  -6.359   0.015  1.00  0.00    -0.200 F 
ENDBRANCH  49  73
BRANCH  61  84
ATOM     84  C   UNL     1      10.207 -14.113   5.559  1.00  0.00     0.064 A 
ATOM     85  C   UNL     1      10.768 -13.502   6.690  1.00  0.00     0.173 A 
ATOM     86  C   UNL     1      10.607 -15.422   5.253  1.00  0.00     0.173 A 
ATOM     87  F   UNL     1      10.431 -12.244   7.015  1.00  0.00    -0.203 F 
ATOM     88  C   UNL     1      11.720 -14.162   7.462  1.00  0.00     0.198 A 
ATOM     89  C   UNL     1      11.536 -16.091   6.046  1.00  0.00     0.198 A 
ATOM     90  F   UNL     1      10.095 -16.055   4.186  1.00  0.00    -0.203 F 
ATOM     91  F   UNL     1      12.287 -13.535   8.503  1.00  0.00    -0.200 F 
ATOM     92  C   UNL     1      12.100 -15.457   7.142  1.00  0.00     0.200 A 
ATOM     93  F   UNL     1      11.893 -17.346   5.742  1.00  0.00    -0.200 F 
ATOM     94  F   UNL     1      13.018 -16.089   7.885  1.00  0.00    -0.200 F 
ENDBRANCH  61  84
ENDBRANCH  35  36
ENDBRANCH  27  30
ENDBRANCH  25  26
ENDBRANCH  24  25
ENDBRANCH  23  24
ENDBRANCH  22  23
ENDBRANCH   1  22
TORSDOF 17
