REMARK SMILES CCCC#C[C@](C)(O)C[NH2+][C@H](C)C(=O)NCCCCCCNC(=O)c1ccc(-c2c3nc(c(-c4c(F)c(F)c(F)c(F)c4F)c4ccc([nH]4)c(-c4c(F)c(F)c(F)c(F)c4F)c4nc(c(-c5c(F)c(F)c(F)c(F)c5F)c5ccc2[nH]5)C=C4)C=C3)cc1
REMARK SMILES IDX 16 1 15 2 13 3 14 4 11 6 12 7 10 8 9 11 6 12 7 13 5 14 4 15
REMARK SMILES IDX 3 16 2 17 1 18 8 19 17 21 18 22 19 23 20 24 21 25 22 26
REMARK SMILES IDX 23 27 24 29 25 30 26 31 87 32 27 33 86 34 28 35 29 36 30 37
REMARK SMILES IDX 80 38 31 39 85 40 79 41 81 42 32 43 84 44 78 45 77 46 33 48
REMARK SMILES IDX 65 49 45 50 64 51 46 52 49 53 63 54 82 55 47 56 48 57 62 59
REMARK SMILES IDX 83 60 50 61 34 62 35 63 43 64 36 65 37 66 41 67 44 68 38 69
REMARK SMILES IDX 39 70 42 71 40 72 66 73 67 74 75 75 68 76 69 77 73 78 76 79
REMARK SMILES IDX 70 80 71 81 74 82 72 83 51 84 52 85 60 86 53 87 54 88 58 89
REMARK SMILES IDX 61 90 55 91 56 92 59 93 57 94
REMARK H PARENT 15 5 10 9 10 10 8 20 22 28 81 47 49 58
REMARK Flexibility Score: inf
ROOT
ATOM      1  C   UNL     1      -4.897  -3.671   0.118  1.00  0.00     0.116 C 
ENDROOT
BRANCH   1   2
ATOM      2  N   UNL     1      -5.332  -2.867  -1.008  1.00  0.00    -0.351 N 
ATOM      3  C   UNL     1      -4.919  -2.825  -2.305  1.00  0.00     0.277 C 
ATOM      4  O   UNL     1      -5.438  -1.975  -3.036  1.00  0.00    -0.268 OA
ATOM      5  H   UNL     1      -6.058  -2.236  -0.795  1.00  0.00     0.163 HD
BRANCH   3   6
ATOM      6  C   UNL     1      -3.876  -3.812  -2.868  1.00  0.00     0.269 C 
ATOM      7  C   UNL     1      -2.490  -3.609  -2.265  1.00  0.00     0.086 C 
BRANCH   6   8
ATOM      8  N   UNL     1      -4.330  -5.216  -2.738  1.00  0.00    -0.333 N 
ATOM      9  H   UNL     1      -3.544  -5.839  -2.924  1.00  0.00     0.347 HD
ATOM     10  H   UNL     1      -4.681  -5.358  -1.790  1.00  0.00     0.347 HD
BRANCH   8  11
ATOM     11  C   UNL     1      -5.420  -5.512  -3.694  1.00  0.00     0.310 C 
BRANCH  11  12
ATOM     12  C   UNL     1      -6.194  -6.815  -3.344  1.00  0.00     0.171 C 
ATOM     13  C   UNL     1      -5.272  -8.035  -3.284  1.00  0.00     0.063 C 
BRANCH  12  14
ATOM     14  C   UNL     1      -7.251  -7.031  -4.348  1.00  0.00    -0.063 C 
ATOM     15  C   UNL     1      -8.096  -7.239  -5.319  1.00  0.00    -0.100 C 
BRANCH  15  16
ATOM     16  C   UNL     1      -9.082  -7.482  -6.450  1.00  0.00     0.089 C 
BRANCH  16  17
ATOM     17  C   UNL     1     -10.474  -7.813  -5.916  1.00  0.00     0.010 C 
ATOM     18  C   UNL     1     -11.113  -6.659  -5.153  1.00  0.00     0.005 C 
ENDBRANCH  16  17
ENDBRANCH  15  16
ENDBRANCH  12  14
BRANCH  12  19
ATOM     19  O   UNL     1      -6.799  -6.650  -2.053  1.00  0.00    -0.372 OA
ATOM     20  H   UNL     1      -6.107  -6.508  -1.388  1.00  0.00     0.212 HD
ENDBRANCH  12  19
ENDBRANCH  11  12
ENDBRANCH   8  11
ENDBRANCH   6   8
ENDBRANCH   3   6
ENDBRANCH   1   2
BRANCH   1  21
ATOM     21  C   UNL     1      -4.321  -2.798   1.230  1.00  0.00     0.021 C 
BRANCH  21  22
ATOM     22  C   UNL     1      -5.348  -1.895   1.922  1.00  0.00     0.002 C 
BRANCH  22  23
ATOM     23  C   UNL     1      -6.531  -2.622   2.570  1.00  0.00     0.002 C 
BRANCH  23  24
ATOM     24  C   UNL     1      -6.162  -3.720   3.572  1.00  0.00     0.021 C 
BRANCH  24  25
ATOM     25  C   UNL     1      -5.257  -3.280   4.721  1.00  0.00     0.116 C 
BRANCH  25  26
ATOM     26  N   UNL     1      -5.851  -2.230   5.530  1.00  0.00    -0.352 N 
ATOM     27  C   UNL     1      -5.941  -2.112   6.892  1.00  0.00     0.251 C 
ATOM     28  H   UNL     1      -6.251  -1.489   5.021  1.00  0.00     0.163 HD
ATOM     29  O   UNL     1      -6.615  -1.207   7.381  1.00  0.00    -0.269 OA
BRANCH  27  30
ATOM     30  C   UNL     1      -5.259  -3.075   7.785  1.00  0.00     0.039 A 
ATOM     31  C   UNL     1      -5.946  -3.530   8.915  1.00  0.00     0.014 A 
ATOM     32  C   UNL     1      -3.947  -3.499   7.551  1.00  0.00     0.014 A 
ATOM     33  C   UNL     1      -5.341  -4.445   9.778  1.00  0.00     0.010 A 
ATOM     34  C   UNL     1      -3.364  -4.457   8.382  1.00  0.00     0.010 A 
ATOM     35  C   UNL     1      -4.054  -4.936   9.505  1.00  0.00    -0.014 A 
BRANCH  35  36
ATOM     36  C   UNL     1      -3.443  -5.964  10.384  1.00  0.00     0.031 A 
ATOM     37  C   UNL     1      -2.250  -5.639  11.237  1.00  0.00     0.074 A 
ATOM     38  C   UNL     1      -3.952  -7.211  10.387  1.00  0.00     0.049 A 
ATOM     39  N   UNL     1      -1.611  -6.403  12.088  1.00  0.00    -0.248 NA
ATOM     40  C   UNL     1      -1.685  -4.289  11.100  1.00  0.00     0.031 C 
ATOM     41  C   UNL     1      -5.062  -7.671   9.550  1.00  0.00     0.029 A 
ATOM     42  N   UNL     1      -3.602  -8.320  11.116  1.00  0.00    -0.354 N 
ATOM     43  C   UNL     1      -0.566  -5.632  12.579  1.00  0.00     0.074 A 
ATOM     44  C   UNL     1      -0.629  -4.356  11.898  1.00  0.00     0.031 C 
ATOM     45  C   UNL     1      -5.319  -8.958   9.832  1.00  0.00     0.029 A 
ATOM     46  C   UNL     1      -4.385  -9.417  10.856  1.00  0.00     0.049 A 
ATOM     47  H   UNL     1      -2.861  -8.327  11.764  1.00  0.00     0.167 HD
ATOM     48  C   UNL     1       0.348  -5.951  13.526  1.00  0.00     0.037 A 
ATOM     49  C   UNL     1      -4.361 -10.651  11.392  1.00  0.00     0.037 A 
ATOM     50  C   UNL     1       0.393  -7.211  14.223  1.00  0.00     0.049 A 
ATOM     51  C   UNL     1      -3.372 -10.962  12.480  1.00  0.00     0.074 A 
ATOM     52  C   UNL     1       1.235  -7.602  15.250  1.00  0.00     0.029 A 
ATOM     53  N   UNL     1      -0.441  -8.288  13.960  1.00  0.00    -0.354 N 
ATOM     54  N   UNL     1      -2.446 -10.195  13.000  1.00  0.00    -0.248 NA
ATOM     55  C   UNL     1      -3.439 -12.307  13.068  1.00  0.00     0.031 C 
ATOM     56  C   UNL     1       0.933  -8.928  15.585  1.00  0.00     0.029 A 
ATOM     57  C   UNL     1      -0.123  -9.349  14.793  1.00  0.00     0.049 A 
ATOM     58  H   UNL     1      -1.154  -8.297  13.281  1.00  0.00     0.167 HD
ATOM     59  C   UNL     1      -1.831 -10.954  13.985  1.00  0.00     0.074 A 
ATOM     60  C   UNL     1      -2.506 -12.236  14.007  1.00  0.00     0.031 C 
ATOM     61  C   UNL     1      -0.798 -10.621  14.797  1.00  0.00     0.037 A 
BRANCH  48  62
ATOM     62  C   UNL     1       1.377  -4.915  13.872  1.00  0.00     0.064 A 
ATOM     63  C   UNL     1       1.041  -3.760  14.594  1.00  0.00     0.173 A 
ATOM     64  C   UNL     1       2.720  -5.094  13.508  1.00  0.00     0.173 A 
ATOM     65  F   UNL     1      -0.232  -3.536  14.955  1.00  0.00    -0.203 F 
ATOM     66  C   UNL     1       2.006  -2.809  14.916  1.00  0.00     0.198 A 
ATOM     67  C   UNL     1       3.688  -4.155  13.855  1.00  0.00     0.198 A 
ATOM     68  F   UNL     1       3.095  -6.184  12.822  1.00  0.00    -0.203 F 
ATOM     69  F   UNL     1       1.654  -1.693  15.568  1.00  0.00    -0.200 F 
ATOM     70  C   UNL     1       3.329  -3.010  14.552  1.00  0.00     0.200 A 
ATOM     71  F   UNL     1       4.968  -4.355  13.512  1.00  0.00    -0.200 F 
ATOM     72  F   UNL     1       4.258  -2.097  14.867  1.00  0.00    -0.200 F 
ENDBRANCH  48  62
BRANCH  49  73
ATOM     73  C   UNL     1      -5.342 -11.668  10.939  1.00  0.00     0.064 A 
ATOM     74  C   UNL     1      -6.411 -12.051  11.760  1.00  0.00     0.173 A 
ATOM     75  C   UNL     1      -5.238 -12.268   9.676  1.00  0.00     0.173 A 
ATOM     76  F   UNL     1      -6.539 -11.517  12.984  1.00  0.00    -0.203 F 
ATOM     77  C   UNL     1      -7.332 -13.008  11.341  1.00  0.00     0.198 A 
ATOM     78  C   UNL     1      -6.173 -13.208   9.249  1.00  0.00     0.198 A 
ATOM     79  F   UNL     1      -4.236 -11.929   8.852  1.00  0.00    -0.203 F 
ATOM     80  F   UNL     1      -8.324 -13.384  12.160  1.00  0.00    -0.200 F 
ATOM     81  C   UNL     1      -7.215 -13.582  10.084  1.00  0.00     0.200 A 
ATOM     82  F   UNL     1      -6.065 -13.751   8.029  1.00  0.00    -0.200 F 
ATOM     83  F   UNL     1      -8.105 -14.499   9.679  1.00  0.00    -0.200 F 
ENDBRANCH  49  73
BRANCH  61  84
ATOM     84  C   UNL     1      -0.348 -11.658  15.783  1.00  0.00     0.064 A 
ATOM     85  C   UNL     1       0.356 -12.800  15.373  1.00  0.00     0.173 A 
ATOM     86  C   UNL     1      -0.615 -11.505  17.151  1.00  0.00     0.173 A 
ATOM     87  F   UNL     1       0.622 -12.998  14.072  1.00  0.00    -0.203 F 
ATOM     88  C   UNL     1       0.748 -13.768  16.294  1.00  0.00     0.198 A 
ATOM     89  C   UNL     1      -0.199 -12.462  18.072  1.00  0.00     0.198 A 
ATOM     90  F   UNL     1      -1.281 -10.428  17.594  1.00  0.00    -0.203 F 
ATOM     91  F   UNL     1       1.372 -14.877  15.873  1.00  0.00    -0.200 F 
ATOM     92  C   UNL     1       0.473 -13.596  17.642  1.00  0.00     0.200 A 
ATOM     93  F   UNL     1      -0.458 -12.292  19.376  1.00  0.00    -0.200 F 
ATOM     94  F   UNL     1       0.847 -14.531  18.527  1.00  0.00    -0.200 F 
ENDBRANCH  61  84
ENDBRANCH  35  36
ENDBRANCH  27  30
ENDBRANCH  25  26
ENDBRANCH  24  25
ENDBRANCH  23  24
ENDBRANCH  22  23
ENDBRANCH  21  22
ENDBRANCH   1  21
TORSDOF 20
