REMARK SMILES O=C(NCCCCCCNC(=O)c1cccc(S(=O)(=O)Nc2ccccc2N2CCOCC2)c1)c1ccc(-c2c3nc(c(-c4c(F)c(F)c(F)c(F)c4F)c4ccc([nH]4)c(-c4c(F)c(F)c(F)c(F)c4F)c4nc(c(-c5c(F)c(F)c(F)c(F)c5F)c5ccc2[nH]5)C=C4)C=C3)cc1
REMARK SMILES IDX 7 1 6 2 5 3 4 4 3 5 1 6 2 7 35 9 36 10 97 11 37 12 96 13
REMARK SMILES IDX 38 14 39 15 40 16 90 17 41 18 95 19 89 20 91 21 42 22 94 23
REMARK SMILES IDX 88 24 87 25 43 27 75 28 55 29 74 30 56 31 59 32 73 33 92 34
REMARK SMILES IDX 57 35 58 36 72 38 93 39 60 40 44 41 45 42 53 43 46 44 47 45
REMARK SMILES IDX 51 46 54 47 48 48 49 49 52 50 50 51 76 52 77 53 85 54 78 55
REMARK SMILES IDX 79 56 83 57 86 58 80 59 81 60 84 61 82 62 61 63 62 64 70 65
REMARK SMILES IDX 63 66 64 67 68 68 71 69 65 70 66 71 69 72 67 73 8 74 9 75
REMARK SMILES IDX 10 76 11 77 12 79 13 80 14 81 34 82 15 83 17 84 16 85 18 86
REMARK SMILES IDX 19 87 20 88 21 89 22 91 23 92 27 93 24 94 26 95 25 96 28 97
REMARK SMILES IDX 29 98 33 99 30 100 32 101 31 102
REMARK H PARENT 3 8 91 26 59 37 10 78 21 90
REMARK Flexibility Score: inf
ROOT
ATOM      1  C   UNL     1       4.347  -3.497  -2.692  1.00  0.00     0.002 C 
ENDROOT
BRANCH   1   2
ATOM      2  C   UNL     1       4.031  -3.786  -1.222  1.00  0.00     0.002 C 
BRANCH   2   3
ATOM      3  C   UNL     1       4.539  -2.782  -0.188  1.00  0.00     0.021 C 
BRANCH   3   4
ATOM      4  C   UNL     1       4.256  -1.312  -0.467  1.00  0.00     0.116 C 
BRANCH   4   5
ATOM      5  N   UNL     1       2.847  -0.987  -0.577  1.00  0.00    -0.352 N 
ATOM      6  O   UNL     1       0.962   0.209  -0.234  1.00  0.00    -0.269 OA
ATOM      7  C   UNL     1       2.177   0.113  -0.093  1.00  0.00     0.251 C 
ATOM      8  H   UNL     1       2.296  -1.641  -1.064  1.00  0.00     0.163 HD
BRANCH   7   9
ATOM      9  C   UNL     1       2.917   1.159   0.650  1.00  0.00     0.039 A 
ATOM     10  C   UNL     1       4.131   1.665   0.179  1.00  0.00     0.014 A 
ATOM     11  C   UNL     1       2.390   1.623   1.859  1.00  0.00     0.014 A 
ATOM     12  C   UNL     1       4.890   2.505   0.988  1.00  0.00     0.010 A 
ATOM     13  C   UNL     1       3.117   2.532   2.634  1.00  0.00     0.010 A 
ATOM     14  C   UNL     1       4.394   2.946   2.226  1.00  0.00    -0.014 A 
BRANCH  14  15
ATOM     15  C   UNL     1       5.220   3.853   3.065  1.00  0.00     0.031 A 
ATOM     16  C   UNL     1       5.748   3.406   4.401  1.00  0.00     0.074 A 
ATOM     17  C   UNL     1       5.521   5.079   2.598  1.00  0.00     0.049 A 
ATOM     18  N   UNL     1       6.508   4.056   5.248  1.00  0.00    -0.248 NA
ATOM     19  C   UNL     1       5.367   2.060   4.853  1.00  0.00     0.031 C 
ATOM     20  C   UNL     1       5.057   5.631   1.324  1.00  0.00     0.029 A 
ATOM     21  N   UNL     1       6.304   6.074   3.126  1.00  0.00    -0.354 N 
ATOM     22  C   UNL     1       6.672   3.213   6.340  1.00  0.00     0.074 A 
ATOM     23  C   UNL     1       5.917   2.011   6.059  1.00  0.00     0.031 C 
ATOM     24  C   UNL     1       5.604   6.842   1.145  1.00  0.00     0.029 A 
ATOM     25  C   UNL     1       6.415   7.173   2.311  1.00  0.00     0.049 A 
ATOM     26  H   UNL     1       6.743   6.006   4.005  1.00  0.00     0.167 HD
ATOM     27  C   UNL     1       7.394   3.420   7.468  1.00  0.00     0.037 A 
ATOM     28  C   UNL     1       7.093   8.322   2.485  1.00  0.00     0.037 A 
ATOM     29  C   UNL     1       8.173   4.604   7.730  1.00  0.00     0.049 A 
ATOM     30  C   UNL     1       7.894   8.520   3.740  1.00  0.00     0.074 A 
ATOM     31  C   UNL     1       8.973   4.887   8.824  1.00  0.00     0.029 A 
ATOM     32  N   UNL     1       8.252   5.701   6.885  1.00  0.00    -0.354 N 
ATOM     33  N   UNL     1       8.068   7.700   4.747  1.00  0.00    -0.248 NA
ATOM     34  C   UNL     1       8.592   9.804   3.881  1.00  0.00     0.031 C 
ATOM     35  C   UNL     1       9.505   6.171   8.659  1.00  0.00     0.029 A 
ATOM     36  C   UNL     1       9.072   6.670   7.441  1.00  0.00     0.049 A 
ATOM     37  H   UNL     1       7.792   5.779   6.018  1.00  0.00     0.167 HD
ATOM     38  C   UNL     1       8.913   8.356   5.629  1.00  0.00     0.074 A 
ATOM     39  C   UNL     1       9.229   9.637   5.031  1.00  0.00     0.031 C 
ATOM     40  C   UNL     1       9.384   7.935   6.828  1.00  0.00     0.037 A 
BRANCH  27  41
ATOM     41  C   UNL     1       7.364   2.350   8.521  1.00  0.00     0.064 A 
ATOM     42  C   UNL     1       8.034   1.129   8.354  1.00  0.00     0.173 A 
ATOM     43  C   UNL     1       6.692   2.569   9.734  1.00  0.00     0.173 A 
ATOM     44  F   UNL     1       8.681   0.865   7.209  1.00  0.00    -0.203 F 
ATOM     45  C   UNL     1       8.011   0.157   9.352  1.00  0.00     0.198 A 
ATOM     46  C   UNL     1       6.694   1.606  10.740  1.00  0.00     0.198 A 
ATOM     47  F   UNL     1       6.042   3.723   9.948  1.00  0.00    -0.203 F 
ATOM     48  F   UNL     1       8.623  -1.019   9.155  1.00  0.00    -0.200 F 
ATOM     49  C   UNL     1       7.348   0.399  10.546  1.00  0.00     0.200 A 
ATOM     50  F   UNL     1       6.061   1.846  11.897  1.00  0.00    -0.200 F 
ATOM     51  F   UNL     1       7.332  -0.535  11.508  1.00  0.00    -0.200 F 
ENDBRANCH  27  41
BRANCH  28  52
ATOM     52  C   UNL     1       7.062   9.362   1.425  1.00  0.00     0.064 A 
ATOM     53  C   UNL     1       8.198   9.632   0.651  1.00  0.00     0.173 A 
ATOM     54  C   UNL     1       5.895  10.091   1.153  1.00  0.00     0.173 A 
ATOM     55  F   UNL     1       9.342   8.973   0.887  1.00  0.00    -0.203 F 
ATOM     56  C   UNL     1       8.173  10.602  -0.348  1.00  0.00     0.198 A 
ATOM     57  C   UNL     1       5.863  11.041   0.136  1.00  0.00     0.198 A 
ATOM     58  F   UNL     1       4.781   9.864   1.863  1.00  0.00    -0.203 F 
ATOM     59  F   UNL     1       9.283  10.867  -1.050  1.00  0.00    -0.200 F 
ATOM     60  C   UNL     1       7.003  11.301  -0.610  1.00  0.00     0.200 A 
ATOM     61  F   UNL     1       4.728  11.703  -0.124  1.00  0.00    -0.200 F 
ATOM     62  F   UNL     1       6.977  12.228  -1.577  1.00  0.00    -0.200 F 
ENDBRANCH  28  52
BRANCH  40  63
ATOM     63  C   UNL     1      10.323   8.854   7.552  1.00  0.00     0.064 A 
ATOM     64  C   UNL     1       9.871  10.028   8.171  1.00  0.00     0.173 A 
ATOM     65  C   UNL     1      11.689   8.546   7.640  1.00  0.00     0.173 A 
ATOM     66  F   UNL     1       8.577  10.374   8.099  1.00  0.00    -0.203 F 
ATOM     67  C   UNL     1      10.758  10.876   8.829  1.00  0.00     0.198 A 
ATOM     68  C   UNL     1      12.568   9.382   8.321  1.00  0.00     0.198 A 
ATOM     69  F   UNL     1      12.169   7.432   7.068  1.00  0.00    -0.203 F 
ATOM     70  F   UNL     1      10.314  12.018   9.370  1.00  0.00    -0.200 F 
ATOM     71  C   UNL     1      12.104  10.550   8.907  1.00  0.00     0.200 A 
ATOM     72  F   UNL     1      13.867   9.061   8.404  1.00  0.00    -0.200 F 
ATOM     73  F   UNL     1      12.957  11.367   9.540  1.00  0.00    -0.200 F 
ENDBRANCH  40  63
ENDBRANCH  14  15
ENDBRANCH   7   9
ENDBRANCH   4   5
ENDBRANCH   3   4
ENDBRANCH   2   3
ENDBRANCH   1   2
BRANCH   1  74
ATOM     74  C   UNL     1       5.795  -3.143  -3.041  1.00  0.00     0.021 C 
BRANCH  74  75
ATOM     75  C   UNL     1       6.851  -4.128  -2.568  1.00  0.00     0.116 C 
BRANCH  75  76
ATOM     76  N   UNL     1       6.801  -5.395  -3.271  1.00  0.00    -0.352 N 
ATOM     77  C   UNL     1       7.837  -6.204  -3.670  1.00  0.00     0.251 C 
ATOM     78  H   UNL     1       5.899  -5.721  -3.492  1.00  0.00     0.163 HD
ATOM     79  O   UNL     1       7.606  -7.196  -4.357  1.00  0.00    -0.269 OA
BRANCH  77  80
ATOM     80  C   UNL     1       9.236  -5.923  -3.260  1.00  0.00     0.041 A 
ATOM     81  C   UNL     1      10.283  -6.228  -4.136  1.00  0.00     0.014 A 
ATOM     82  C   UNL     1       9.531  -5.486  -1.970  1.00  0.00     0.036 A 
ATOM     83  C   UNL     1      11.611  -6.074  -3.724  1.00  0.00     0.002 A 
ATOM     84  C   UNL     1      10.852  -5.370  -1.542  1.00  0.00     0.088 A 
ATOM     85  C   UNL     1      11.900  -5.648  -2.423  1.00  0.00     0.022 A 
BRANCH  84  86
ATOM     86  S   UNL     1      11.165  -4.775   0.106  1.00  0.00     0.261 S 
ATOM     87  O   UNL     1      12.603  -4.786   0.290  1.00  0.00    -0.201 OA
ATOM     88  O   UNL     1      10.399  -3.557   0.263  1.00  0.00    -0.201 OA
BRANCH  86  89
ATOM     89  N   UNL     1      10.575  -5.960   1.158  1.00  0.00    -0.278 N 
ATOM     90  H   UNL     1      11.180  -6.391   1.805  1.00  0.00     0.180 HD
BRANCH  89  91
ATOM     91  C   UNL     1       9.190  -6.338   1.107  1.00  0.00     0.072 A 
ATOM     92  C   UNL     1       8.221  -5.441   1.571  1.00  0.00     0.029 A 
ATOM     93  C   UNL     1       8.822  -7.548   0.464  1.00  0.00     0.061 A 
ATOM     94  C   UNL     1       6.868  -5.727   1.402  1.00  0.00     0.002 A 
ATOM     95  C   UNL     1       7.452  -7.800   0.297  1.00  0.00     0.028 A 
ATOM     96  C   UNL     1       6.484  -6.902   0.761  1.00  0.00     0.002 A 
BRANCH  93  97
ATOM     97  N   UNL     1       9.795  -8.404  -0.045  1.00  0.00    -0.365 N 
ATOM     98  C   UNL     1      10.609  -9.184   0.906  1.00  0.00     0.145 C 
ATOM     99  C   UNL     1       9.554  -9.137  -1.305  1.00  0.00     0.145 C 
ATOM    100  C   UNL     1      11.938  -9.534   0.216  1.00  0.00     0.181 C 
ATOM    101  C   UNL     1      10.908  -9.536  -1.917  1.00  0.00     0.181 C 
ATOM    102  O   UNL     1      11.713 -10.287  -0.989  1.00  0.00    -0.378 OA
ENDBRANCH  93  97
ENDBRANCH  89  91
ENDBRANCH  86  89
ENDBRANCH  84  86
ENDBRANCH  77  80
ENDBRANCH  75  76
ENDBRANCH  74  75
ENDBRANCH   1  74
TORSDOF 17
