REMARK SMILES Cc1cscc1-c1nnnn1C[C@@H](C)C(=O)NCCCCCCNC(=O)c1ccc(-c2c3nc(c(-c4c(F)c(F)c(F)c(F)c4F)c4ccc([nH]4)c(-c4c(F)c(F)c(F)c(F)c4F)c4nc(c(-c5c(F)c(F)c(F)c(F)c5F)c5ccc2[nH]5)C=C4)C=C3)cc1
REMARK SMILES IDX 20 1 19 2 18 3 17 4 15 5 16 6 13 8 14 9 12 10 11 11 7 12
REMARK SMILES IDX 8 13 9 14 10 15 6 16 1 17 2 18 3 19 4 20 5 21 21 22 22 23
REMARK SMILES IDX 23 24 24 25 25 26 26 28 27 29 28 30 89 31 29 32 88 33 30 34
REMARK SMILES IDX 31 35 32 36 82 37 33 38 87 39 81 40 83 41 34 42 86 43 80 44
REMARK SMILES IDX 79 45 35 47 67 48 47 49 66 50 48 51 51 52 65 53 84 54 49 55
REMARK SMILES IDX 50 56 64 58 85 59 52 60 36 61 37 62 45 63 38 64 39 65 43 66
REMARK SMILES IDX 46 67 40 68 41 69 44 70 42 71 68 72 69 73 77 74 70 75 71 76
REMARK SMILES IDX 75 77 78 78 72 79 73 80 76 81 74 82 53 83 54 84 62 85 55 86
REMARK SMILES IDX 56 87 60 88 63 89 57 90 58 91 61 92 59 93
REMARK H PARENT 17 7 24 27 83 46 51 57
REMARK Flexibility Score: inf
ROOT
ATOM      1  C   UNL     1       6.330  -0.008  -4.758  1.00  0.00     0.002 C 
ENDROOT
BRANCH   1   2
ATOM      2  C   UNL     1       5.728   0.794  -3.600  1.00  0.00     0.021 C 
BRANCH   2   3
ATOM      3  C   UNL     1       5.133   2.138  -4.018  1.00  0.00     0.116 C 
BRANCH   3   4
ATOM      4  N   UNL     1       3.905   1.956  -4.771  1.00  0.00    -0.356 N 
ATOM      5  C   UNL     1       2.628   2.349  -4.519  1.00  0.00     0.224 C 
ATOM      6  O   UNL     1       1.755   2.010  -5.319  1.00  0.00    -0.275 OA
ATOM      7  H   UNL     1       4.017   1.460  -5.614  1.00  0.00     0.163 HD
BRANCH   5   8
ATOM      8  C   UNL     1       2.272   3.171  -3.291  1.00  0.00     0.097 C 
ATOM      9  C   UNL     1       2.908   4.557  -3.376  1.00  0.00     0.020 C 
BRANCH   8  10
ATOM     10  C   UNL     1       2.525   2.335  -2.030  1.00  0.00     0.161 C 
BRANCH  10  11
ATOM     11  N   UNL     1       2.158   2.938  -0.775  1.00  0.00    -0.225 N 
ATOM     12  C   UNL     1       1.220   2.539   0.135  1.00  0.00     0.183 A 
ATOM     13  N   UNL     1       1.026   3.543   0.966  1.00  0.00    -0.108 NA
ATOM     14  N   UNL     1       1.988   4.478   0.665  1.00  0.00    -0.023 NA
ATOM     15  N   UNL     1       2.712   4.095  -0.377  1.00  0.00    -0.045 NA
BRANCH  12  16
ATOM     16  C   UNL     1       0.492   1.241   0.170  1.00  0.00     0.034 A 
ATOM     17  C   UNL     1       2.530  -0.409   0.092  1.00  0.00     0.046 C 
ATOM     18  C   UNL     1       1.071  -0.075   0.081  1.00  0.00    -0.029 A 
ATOM     19  C   UNL     1       0.074  -1.035   0.066  1.00  0.00     0.069 A 
ATOM     20  S   UNL     1      -1.494  -0.376   0.228  1.00  0.00    -0.151 S 
ATOM     21  C   UNL     1      -0.874   1.210   0.342  1.00  0.00     0.077 A 
ENDBRANCH  12  16
ENDBRANCH  10  11
ENDBRANCH   8  10
ENDBRANCH   5   8
ENDBRANCH   3   4
ENDBRANCH   2   3
ENDBRANCH   1   2
BRANCH   1  22
ATOM     22  C   UNL     1       7.341   0.747  -5.636  1.00  0.00     0.002 C 
BRANCH  22  23
ATOM     23  C   UNL     1       8.487   1.465  -4.907  1.00  0.00     0.021 C 
BRANCH  23  24
ATOM     24  C   UNL     1       9.448   0.530  -4.193  1.00  0.00     0.116 C 
BRANCH  24  25
ATOM     25  N   UNL     1      10.188  -0.333  -5.117  1.00  0.00    -0.352 N 
ATOM     26  C   UNL     1      11.051  -1.378  -4.826  1.00  0.00     0.251 C 
ATOM     27  H   UNL     1      10.055  -0.145  -6.075  1.00  0.00     0.163 HD
ATOM     28  O   UNL     1      11.868  -1.775  -5.636  1.00  0.00    -0.269 OA
BRANCH  26  29
ATOM     29  C   UNL     1      10.941  -2.014  -3.503  1.00  0.00     0.039 A 
ATOM     30  C   UNL     1      12.056  -2.429  -2.770  1.00  0.00     0.014 A 
ATOM     31  C   UNL     1       9.660  -2.152  -2.988  1.00  0.00     0.014 A 
ATOM     32  C   UNL     1      11.861  -2.921  -1.480  1.00  0.00     0.010 A 
ATOM     33  C   UNL     1       9.497  -2.394  -1.657  1.00  0.00     0.010 A 
ATOM     34  C   UNL     1      10.570  -2.890  -0.933  1.00  0.00    -0.014 A 
BRANCH  34  35
ATOM     35  C   UNL     1      10.280  -3.334   0.420  1.00  0.00     0.031 A 
ATOM     36  C   UNL     1      10.994  -2.601   1.495  1.00  0.00     0.074 A 
ATOM     37  C   UNL     1       9.235  -4.154   0.674  1.00  0.00     0.049 A 
ATOM     38  N   UNL     1      11.847  -3.070   2.344  1.00  0.00    -0.248 NA
ATOM     39  C   UNL     1      10.826  -1.141   1.564  1.00  0.00     0.031 C 
ATOM     40  C   UNL     1       8.234  -4.687  -0.265  1.00  0.00     0.029 A 
ATOM     41  N   UNL     1       8.775  -4.600   1.871  1.00  0.00    -0.354 N 
ATOM     42  C   UNL     1      12.189  -2.006   3.176  1.00  0.00     0.074 A 
ATOM     43  C   UNL     1      11.679  -0.821   2.540  1.00  0.00     0.031 C 
ATOM     44  C   UNL     1       7.177  -5.174   0.420  1.00  0.00     0.029 A 
ATOM     45  C   UNL     1       7.505  -5.160   1.831  1.00  0.00     0.049 A 
ATOM     46  H   UNL     1       9.300  -4.531   2.701  1.00  0.00     0.167 HD
ATOM     47  C   UNL     1      12.652  -2.228   4.439  1.00  0.00     0.037 A 
ATOM     48  C   UNL     1       6.770  -5.564   2.895  1.00  0.00     0.037 A 
ATOM     49  C   UNL     1      13.089  -3.596   4.588  1.00  0.00     0.049 A 
ATOM     50  C   UNL     1       7.714  -5.745   4.027  1.00  0.00     0.074 A 
ATOM     51  C   UNL     1      14.056  -4.378   3.987  1.00  0.00     0.029 A 
ATOM     52  N   UNL     1      12.239  -4.479   5.210  1.00  0.00    -0.354 N 
ATOM     53  N   UNL     1       8.640  -6.664   4.056  1.00  0.00    -0.248 NA
ATOM     54  C   UNL     1       7.937  -4.605   4.904  1.00  0.00     0.031 C 
ATOM     55  C   UNL     1      13.459  -5.669   3.859  1.00  0.00     0.029 A 
ATOM     56  C   UNL     1      12.195  -5.617   4.447  1.00  0.00     0.049 A 
ATOM     57  H   UNL     1      11.750  -4.322   6.050  1.00  0.00     0.167 HD
ATOM     58  C   UNL     1       9.745  -6.037   4.613  1.00  0.00     0.074 A 
ATOM     59  C   UNL     1       9.227  -4.799   5.192  1.00  0.00     0.031 C 
ATOM     60  C   UNL     1      11.014  -6.436   4.298  1.00  0.00     0.037 A 
BRANCH  47  61
ATOM     61  C   UNL     1      12.359  -1.349   5.638  1.00  0.00     0.064 A 
ATOM     62  C   UNL     1      12.927  -1.695   6.884  1.00  0.00     0.173 A 
ATOM     63  C   UNL     1      11.325  -0.390   5.698  1.00  0.00     0.173 A 
ATOM     64  F   UNL     1      13.926  -2.587   6.957  1.00  0.00    -0.203 F 
ATOM     65  C   UNL     1      12.417  -1.213   8.092  1.00  0.00     0.198 A 
ATOM     66  C   UNL     1      10.854   0.129   6.904  1.00  0.00     0.198 A 
ATOM     67  F   UNL     1      10.650   0.010   4.616  1.00  0.00    -0.203 F 
ATOM     68  F   UNL     1      12.895  -1.686   9.251  1.00  0.00    -0.200 F 
ATOM     69  C   UNL     1      11.370  -0.312   8.102  1.00  0.00     0.200 A 
ATOM     70  F   UNL     1       9.832   0.997   6.890  1.00  0.00    -0.200 F 
ATOM     71  F   UNL     1      10.828   0.093   9.257  1.00  0.00    -0.200 F 
ENDBRANCH  47  61
BRANCH  48  72
ATOM     72  C   UNL     1       5.301  -5.498   3.071  1.00  0.00     0.064 A 
ATOM     73  C   UNL     1       4.656  -6.245   4.069  1.00  0.00     0.173 A 
ATOM     74  C   UNL     1       4.535  -4.495   2.446  1.00  0.00     0.173 A 
ATOM     75  F   UNL     1       5.328  -7.191   4.741  1.00  0.00    -0.203 F 
ATOM     76  C   UNL     1       3.332  -5.986   4.439  1.00  0.00     0.198 A 
ATOM     77  C   UNL     1       3.212  -4.240   2.812  1.00  0.00     0.198 A 
ATOM     78  F   UNL     1       5.082  -3.678   1.533  1.00  0.00    -0.203 F 
ATOM     79  F   UNL     1       2.769  -6.679   5.438  1.00  0.00    -0.200 F 
ATOM     80  C   UNL     1       2.615  -4.976   3.818  1.00  0.00     0.200 A 
ATOM     81  F   UNL     1       2.543  -3.237   2.225  1.00  0.00    -0.200 F 
ATOM     82  F   UNL     1       1.369  -4.685   4.214  1.00  0.00    -0.200 F 
ENDBRANCH  48  72
BRANCH  60  83
ATOM     83  C   UNL     1      11.171  -7.718   3.525  1.00  0.00     0.064 A 
ATOM     84  C   UNL     1      10.703  -7.909   2.213  1.00  0.00     0.173 A 
ATOM     85  C   UNL     1      11.954  -8.739   4.078  1.00  0.00     0.173 A 
ATOM     86  F   UNL     1      10.035  -6.944   1.573  1.00  0.00    -0.203 F 
ATOM     87  C   UNL     1      10.968  -9.081   1.507  1.00  0.00     0.198 A 
ATOM     88  C   UNL     1      12.249  -9.895   3.358  1.00  0.00     0.198 A 
ATOM     89  F   UNL     1      12.479  -8.592   5.304  1.00  0.00    -0.203 F 
ATOM     90  F   UNL     1      10.498  -9.237   0.260  1.00  0.00    -0.200 F 
ATOM     91  C   UNL     1      11.747 -10.071   2.079  1.00  0.00     0.200 A 
ATOM     92  F   UNL     1      13.045 -10.829   3.897  1.00  0.00    -0.200 F 
ATOM     93  F   UNL     1      12.039 -11.181   1.387  1.00  0.00    -0.200 F 
ENDBRANCH  60  83
ENDBRANCH  34  35
ENDBRANCH  26  29
ENDBRANCH  24  25
ENDBRANCH  23  24
ENDBRANCH  22  23
ENDBRANCH   1  22
TORSDOF 16
