REMARK SMILES O=C(NCCCCCCNC(=O)[C@H]1CCCN(C(=O)C2CCN(S(=O)(=O)c3ccccc3)CC2)C1)c1ccc(-c2c3nc(c(-c4c(F)c(F)c(F)c(F)c4F)c4ccc([nH]4)c(-c4c(F)c(F)c(F)c(F)c4F)c4nc(c(-c5c(F)c(F)c(F)c(F)c5F)c5ccc2[nH]5)C=C4)C=C3)cc1
REMARK SMILES IDX 7 1 6 2 5 3 4 4 3 5 1 6 2 7 36 9 37 10 98 11 38 12 97 13
REMARK SMILES IDX 39 14 40 15 41 16 91 17 42 18 96 19 90 20 92 21 43 22 95 23
REMARK SMILES IDX 89 24 88 25 44 27 76 28 56 29 75 30 57 31 60 32 74 33 93 34
REMARK SMILES IDX 58 35 59 36 73 38 94 39 61 40 45 41 46 42 54 43 47 44 48 45
REMARK SMILES IDX 52 46 55 47 49 48 50 49 53 50 51 51 77 52 78 53 86 54 79 55
REMARK SMILES IDX 80 56 84 57 87 58 81 59 82 60 85 61 83 62 62 63 63 64 71 65
REMARK SMILES IDX 64 66 65 67 69 68 72 69 66 70 67 71 70 72 68 73 8 74 9 75
REMARK SMILES IDX 10 76 11 77 12 79 13 80 14 81 35 82 15 83 17 84 16 85 18 86
REMARK SMILES IDX 19 87 20 88 21 89 34 90 22 91 33 92 23 93 24 94 25 95 26 96
REMARK SMILES IDX 27 97 28 98 32 99 29 100 31 101 30 102
REMARK H PARENT 3 8 92 26 60 37 10 78
REMARK Flexibility Score: inf
ROOT
ATOM      1  C   UNL     1      13.309   5.949  -7.864  1.00  0.00     0.002 C 
ENDROOT
BRANCH   1   2
ATOM      2  C   UNL     1      13.361   7.410  -8.333  1.00  0.00     0.002 C 
BRANCH   2   3
ATOM      3  C   UNL     1      13.412   8.447  -7.210  1.00  0.00     0.021 C 
BRANCH   3   4
ATOM      4  C   UNL     1      14.661   8.354  -6.348  1.00  0.00     0.116 C 
BRANCH   4   5
ATOM      5  N   UNL     1      15.848   8.760  -7.083  1.00  0.00    -0.352 N 
ATOM      6  O   UNL     1      17.561  10.133  -7.617  1.00  0.00    -0.269 OA
ATOM      7  C   UNL     1      16.745   9.755  -6.783  1.00  0.00     0.251 C 
ATOM      8  H   UNL     1      16.033   8.254  -7.906  1.00  0.00     0.163 HD
BRANCH   7   9
ATOM      9  C   UNL     1      16.715  10.373  -5.441  1.00  0.00     0.039 A 
ATOM     10  C   UNL     1      16.575   9.571  -4.307  1.00  0.00     0.014 A 
ATOM     11  C   UNL     1      16.844  11.759  -5.315  1.00  0.00     0.014 A 
ATOM     12  C   UNL     1      16.436  10.162  -3.060  1.00  0.00     0.010 A 
ATOM     13  C   UNL     1      16.801  12.346  -4.047  1.00  0.00     0.010 A 
ATOM     14  C   UNL     1      16.580  11.552  -2.912  1.00  0.00    -0.014 A 
BRANCH  14  15
ATOM     15  C   UNL     1      16.593  12.113  -1.539  1.00  0.00     0.031 A 
ATOM     16  C   UNL     1      15.517  13.038  -1.055  1.00  0.00     0.074 A 
ATOM     17  C   UNL     1      17.576  11.713  -0.708  1.00  0.00     0.049 A 
ATOM     18  N   UNL     1      15.348  13.548   0.140  1.00  0.00    -0.248 NA
ATOM     19  C   UNL     1      14.501  13.455  -2.033  1.00  0.00     0.031 C 
ATOM     20  C   UNL     1      18.689  10.839  -1.088  1.00  0.00     0.029 A 
ATOM     21  N   UNL     1      17.783  11.953   0.625  1.00  0.00    -0.354 N 
ATOM     22  C   UNL     1      14.218  14.349   0.057  1.00  0.00     0.074 A 
ATOM     23  C   UNL     1      13.755  14.283  -1.313  1.00  0.00     0.031 C 
ATOM     24  C   UNL     1      19.423  10.563  -0.002  1.00  0.00     0.029 A 
ATOM     25  C   UNL     1      18.872  11.289   1.135  1.00  0.00     0.049 A 
ATOM     26  H   UNL     1      17.208  12.543   1.164  1.00  0.00     0.167 HD
ATOM     27  C   UNL     1      13.620  15.062   1.042  1.00  0.00     0.037 A 
ATOM     28  C   UNL     1      19.377  11.272   2.381  1.00  0.00     0.037 A 
ATOM     29  C   UNL     1      14.088  15.116   2.404  1.00  0.00     0.049 A 
ATOM     30  C   UNL     1      18.685  12.065   3.450  1.00  0.00     0.074 A 
ATOM     31  C   UNL     1      13.552  15.809   3.477  1.00  0.00     0.029 A 
ATOM     32  N   UNL     1      15.205  14.446   2.883  1.00  0.00    -0.354 N 
ATOM     33  N   UNL     1      17.605  12.803   3.362  1.00  0.00    -0.248 NA
ATOM     34  C   UNL     1      19.279  12.023   4.792  1.00  0.00     0.031 C 
ATOM     35  C   UNL     1      14.364  15.585   4.595  1.00  0.00     0.029 A 
ATOM     36  C   UNL     1      15.381  14.717   4.231  1.00  0.00     0.049 A 
ATOM     37  H   UNL     1      15.788  13.863   2.344  1.00  0.00     0.167 HD
ATOM     38  C   UNL     1      17.391  13.315   4.631  1.00  0.00     0.074 A 
ATOM     39  C   UNL     1      18.429  12.769   5.482  1.00  0.00     0.031 C 
ATOM     40  C   UNL     1      16.430  14.172   5.054  1.00  0.00     0.037 A 
BRANCH  27  41
ATOM     41  C   UNL     1      12.393  15.852   0.686  1.00  0.00     0.064 A 
ATOM     42  C   UNL     1      11.165  15.224   0.433  1.00  0.00     0.173 A 
ATOM     43  C   UNL     1      12.431  17.255   0.656  1.00  0.00     0.173 A 
ATOM     44  F   UNL     1      11.078  13.886   0.437  1.00  0.00    -0.203 F 
ATOM     45  C   UNL     1      10.023  15.970   0.149  1.00  0.00     0.198 A 
ATOM     46  C   UNL     1      11.282  17.998   0.397  1.00  0.00     0.198 A 
ATOM     47  F   UNL     1      13.579  17.906   0.896  1.00  0.00    -0.203 F 
ATOM     48  F   UNL     1       8.867  15.347  -0.121  1.00  0.00    -0.200 F 
ATOM     49  C   UNL     1      10.080  17.356   0.140  1.00  0.00     0.200 A 
ATOM     50  F   UNL     1      11.336  19.337   0.400  1.00  0.00    -0.200 F 
ATOM     51  F   UNL     1       8.978  18.072  -0.121  1.00  0.00    -0.200 F 
ENDBRANCH  27  41
BRANCH  28  52
ATOM     52  C   UNL     1      20.602  10.484   2.670  1.00  0.00     0.064 A 
ATOM     53  C   UNL     1      20.559   9.346   3.486  1.00  0.00     0.173 A 
ATOM     54  C   UNL     1      21.841  10.847   2.119  1.00  0.00     0.173 A 
ATOM     55  F   UNL     1      19.402   8.968   4.048  1.00  0.00    -0.203 F 
ATOM     56  C   UNL     1      21.712   8.611   3.755  1.00  0.00     0.198 A 
ATOM     57  C   UNL     1      22.986  10.093   2.362  1.00  0.00     0.198 A 
ATOM     58  F   UNL     1      21.933  11.923   1.325  1.00  0.00    -0.203 F 
ATOM     59  F   UNL     1      21.652   7.552   4.573  1.00  0.00    -0.200 F 
ATOM     60  C   UNL     1      22.922   8.980   3.187  1.00  0.00     0.200 A 
ATOM     61  F   UNL     1      24.148  10.442   1.794  1.00  0.00    -0.200 F 
ATOM     62  F   UNL     1      24.028   8.267   3.438  1.00  0.00    -0.200 F 
ENDBRANCH  28  52
BRANCH  40  63
ATOM     63  C   UNL     1      16.467  14.561   6.502  1.00  0.00     0.064 A 
ATOM     64  C   UNL     1      17.462  15.414   7.004  1.00  0.00     0.173 A 
ATOM     65  C   UNL     1      15.503  14.075   7.396  1.00  0.00     0.173 A 
ATOM     66  F   UNL     1      18.417  15.889   6.190  1.00  0.00    -0.203 F 
ATOM     67  C   UNL     1      17.510  15.738   8.356  1.00  0.00     0.198 A 
ATOM     68  C   UNL     1      15.537  14.425   8.743  1.00  0.00     0.198 A 
ATOM     69  F   UNL     1      14.529  13.260   6.965  1.00  0.00    -0.203 F 
ATOM     70  F   UNL     1      18.504  16.506   8.824  1.00  0.00    -0.200 F 
ATOM     71  C   UNL     1      16.546  15.246   9.224  1.00  0.00     0.200 A 
ATOM     72  F   UNL     1      14.600  13.957   9.579  1.00  0.00    -0.200 F 
ATOM     73  F   UNL     1      16.597  15.555  10.527  1.00  0.00    -0.200 F 
ENDBRANCH  40  63
ENDBRANCH  14  15
ENDBRANCH   7   9
ENDBRANCH   4   5
ENDBRANCH   3   4
ENDBRANCH   2   3
ENDBRANCH   1   2
BRANCH   1  74
ATOM     74  C   UNL     1      12.255   5.647  -6.790  1.00  0.00     0.021 C 
BRANCH  74  75
ATOM     75  C   UNL     1      10.849   6.106  -7.174  1.00  0.00     0.116 C 
BRANCH  75  76
ATOM     76  N   UNL     1      10.201   5.173  -8.072  1.00  0.00    -0.356 N 
ATOM     77  C   UNL     1       9.290   4.187  -7.912  1.00  0.00     0.224 C 
ATOM     78  H   UNL     1      10.488   5.281  -9.008  1.00  0.00     0.163 HD
ATOM     79  O   UNL     1       8.917   3.636  -8.957  1.00  0.00    -0.275 OA
BRANCH  77  80
ATOM     80  C   UNL     1       8.769   3.658  -6.577  1.00  0.00     0.098 C 
ATOM     81  C   UNL     1       9.329   2.238  -6.386  1.00  0.00     0.017 C 
ATOM     82  C   UNL     1       8.965   4.517  -5.329  1.00  0.00     0.133 C 
ATOM     83  C   UNL     1       8.849   1.637  -5.074  1.00  0.00     0.022 C 
ATOM     84  N   UNL     1       8.560   3.860  -4.084  1.00  0.00    -0.342 N 
ATOM     85  C   UNL     1       9.189   2.571  -3.925  1.00  0.00     0.119 C 
BRANCH  84  86
ATOM     86  C   UNL     1       7.920   4.605  -3.109  1.00  0.00     0.225 C 
ATOM     87  O   UNL     1       7.700   5.808  -3.322  1.00  0.00    -0.275 OA
BRANCH  86  88
ATOM     88  C   UNL     1       7.449   4.054  -1.737  1.00  0.00     0.081 C 
ATOM     89  C   UNL     1       8.488   3.904  -0.640  1.00  0.00     0.030 C 
ATOM     90  C   UNL     1       6.453   2.910  -1.689  1.00  0.00     0.030 C 
ATOM     91  C   UNL     1       9.139   2.539  -0.533  1.00  0.00     0.103 C 
ATOM     92  C   UNL     1       7.048   1.516  -1.619  1.00  0.00     0.103 C 
ATOM     93  N   UNL     1       8.243   1.347  -0.749  1.00  0.00    -0.198 NA
BRANCH  93  94
ATOM     94  S   UNL     1       9.252  -0.049  -1.071  1.00  0.00     0.243 S 
ATOM     95  O   UNL     1      10.016   0.230  -2.277  1.00  0.00    -0.207 OA
ATOM     96  O   UNL     1       9.948  -0.341   0.160  1.00  0.00    -0.207 OA
BRANCH  94  97
ATOM     97  C   UNL     1       8.209  -1.428  -1.479  1.00  0.00     0.082 A 
ATOM     98  C   UNL     1       8.227  -2.564  -0.669  1.00  0.00     0.022 A 
ATOM     99  C   UNL     1       7.566  -1.472  -2.725  1.00  0.00     0.022 A 
ATOM    100  C   UNL     1       7.559  -3.719  -1.086  1.00  0.00     0.001 A 
ATOM    101  C   UNL     1       6.860  -2.608  -3.114  1.00  0.00     0.001 A 
ATOM    102  C   UNL     1       6.862  -3.734  -2.295  1.00  0.00     0.000 A 
ENDBRANCH  94  97
ENDBRANCH  93  94
ENDBRANCH  86  88
ENDBRANCH  84  86
ENDBRANCH  77  80
ENDBRANCH  75  76
ENDBRANCH  74  75
ENDBRANCH   1  74
TORSDOF 17
