REMARK SMILES C/C(=N/[NH+]=C1\NC(=O)[C@H](CC(=O)NCCCCCCNC(=O)c2ccc(-c3c4nc(c(-c5c(F)c(F)c(F)c(F)c5F)c5ccc([nH]5)c(-c5c(F)c(F)c(F)c(F)c5F)c5nc(c(-c6c(F)c(F)c(F)c(F)c6F)c6ccc3[nH]6)C=C5)C=C4)cc2)S1)c1ccc(OC(C)C)cc1
REMARK SMILES IDX 15 1 14 2 13 3 11 4 12 5 10 7 9 8 4 9 5 10 6 12 86 13 7 14
REMARK SMILES IDX 8 16 3 17 1 18 2 19 87 20 88 21 96 22 89 23 95 24 90 25
REMARK SMILES IDX 91 26 92 27 93 28 94 29 16 30 17 31 18 32 19 33 20 34 21 35
REMARK SMILES IDX 22 37 23 38 24 39 85 40 25 41 84 42 26 43 27 44 28 45 78 46
REMARK SMILES IDX 29 47 83 48 77 49 79 50 30 51 82 52 76 53 75 54 31 56 63 57
REMARK SMILES IDX 43 58 62 59 44 60 47 61 61 62 80 63 45 64 46 65 60 67 81 68
REMARK SMILES IDX 48 69 32 70 33 71 41 72 34 73 35 74 39 75 42 76 36 77 37 78
REMARK SMILES IDX 40 79 38 80 64 81 65 82 73 83 66 84 67 85 71 86 74 87 68 88
REMARK SMILES IDX 69 89 72 90 70 91 49 92 50 93 58 94 51 95 52 96 56 97 59 98
REMARK SMILES IDX 53 99 54 100 57 101 55 102
REMARK H PARENT 13 6 4 11 6 15 20 36 79 55 47 66
REMARK Flexibility Score: inf
ROOT
ATOM      1  C   UNL     1       4.857   2.299  -3.517  1.00  0.00     0.021 C 
ENDROOT
BRANCH   1   2
ATOM      2  C   UNL     1       3.812   3.353  -3.859  1.00  0.00     0.116 C 
BRANCH   2   3
ATOM      3  N   UNL     1       3.949   3.874  -5.203  1.00  0.00    -0.356 N 
ATOM      4  C   UNL     1       2.978   4.135  -6.124  1.00  0.00     0.221 C 
ATOM      5  O   UNL     1       3.295   4.588  -7.222  1.00  0.00    -0.275 OA
ATOM      6  H   UNL     1       4.870   4.067  -5.492  1.00  0.00     0.163 HD
BRANCH   4   7
ATOM      7  C   UNL     1       1.531   3.876  -5.776  1.00  0.00     0.127 C 
BRANCH   7   8
ATOM      8  C   UNL     1       1.065   2.489  -6.205  1.00  0.00     0.183 C 
ATOM      9  N   UNL     1      -0.897   1.106  -3.239  1.00  0.00    -0.142 N 
ATOM     10  C   UNL     1      -0.155   1.308  -4.272  1.00  0.00     0.337 C 
ATOM     11  H   UNL     1      -1.812   1.462  -3.180  1.00  0.00     0.343 HD
ATOM     12  N   UNL     1       1.105   0.861  -4.450  1.00  0.00    -0.202 N 
ATOM     13  S   UNL     1      -0.665   2.284  -5.617  1.00  0.00    -0.020 SA
ATOM     14  C   UNL     1       1.800   1.345  -5.519  1.00  0.00     0.322 C 
ATOM     15  H   UNL     1       1.508   0.209  -3.832  1.00  0.00     0.316 HD
ATOM     16  O   UNL     1       2.911   0.936  -5.830  1.00  0.00    -0.246 OA
BRANCH   9  17
ATOM     17  N   UNL     1      -0.333   0.354  -2.205  1.00  0.00    -0.090 NA
ATOM     18  C   UNL     1       0.721   0.171  -0.058  1.00  0.00     0.071 C 
ATOM     19  C   UNL     1       0.246   1.007  -1.233  1.00  0.00     0.088 C 
BRANCH  19  20
ATOM     20  C   UNL     1       0.587   2.468  -1.213  1.00  0.00    -0.000 A 
ATOM     21  C   UNL     1      -0.263   3.440  -1.734  1.00  0.00     0.014 A 
ATOM     22  C   UNL     1       1.861   2.859  -0.790  1.00  0.00     0.014 A 
ATOM     23  C   UNL     1       0.205   4.745  -1.943  1.00  0.00     0.047 A 
ATOM     24  C   UNL     1       2.311   4.179  -0.982  1.00  0.00     0.047 A 
ATOM     25  C   UNL     1       1.509   5.123  -1.603  1.00  0.00     0.119 A 
BRANCH  25  26
ATOM     26  O   UNL     1       1.831   6.389  -1.966  1.00  0.00    -0.491 OA
BRANCH  26  27
ATOM     27  C   UNL     1       3.049   7.105  -1.736  1.00  0.00     0.167 C 
ATOM     28  C   UNL     1       3.683   6.997  -0.355  1.00  0.00     0.052 C 
ATOM     29  C   UNL     1       4.063   6.954  -2.867  1.00  0.00     0.052 C 
ENDBRANCH  26  27
ENDBRANCH  25  26
ENDBRANCH  19  20
ENDBRANCH   9  17
ENDBRANCH   7   8
ENDBRANCH   4   7
ENDBRANCH   2   3
ENDBRANCH   1   2
BRANCH   1  30
ATOM     30  C   UNL     1       6.253   2.861  -3.228  1.00  0.00     0.002 C 
BRANCH  30  31
ATOM     31  C   UNL     1       6.409   3.654  -1.925  1.00  0.00     0.002 C 
BRANCH  31  32
ATOM     32  C   UNL     1       5.911   2.964  -0.659  1.00  0.00     0.021 C 
BRANCH  32  33
ATOM     33  C   UNL     1       6.483   1.579  -0.414  1.00  0.00     0.116 C 
BRANCH  33  34
ATOM     34  N   UNL     1       7.906   1.619  -0.139  1.00  0.00    -0.352 N 
ATOM     35  C   UNL     1       8.580   1.300   1.014  1.00  0.00     0.251 C 
ATOM     36  H   UNL     1       8.471   1.919  -0.887  1.00  0.00     0.163 HD
ATOM     37  O   UNL     1       9.759   1.604   1.144  1.00  0.00    -0.269 OA
BRANCH  35  38
ATOM     38  C   UNL     1       7.869   0.609   2.113  1.00  0.00     0.039 A 
ATOM     39  C   UNL     1       8.103   1.014   3.429  1.00  0.00     0.014 A 
ATOM     40  C   UNL     1       6.979  -0.436   1.850  1.00  0.00     0.014 A 
ATOM     41  C   UNL     1       7.400   0.409   4.473  1.00  0.00     0.010 A 
ATOM     42  C   UNL     1       6.204  -0.962   2.877  1.00  0.00     0.010 A 
ATOM     43  C   UNL     1       6.419  -0.559   4.203  1.00  0.00    -0.014 A 
BRANCH  43  44
ATOM     44  C   UNL     1       5.630  -1.186   5.294  1.00  0.00     0.031 A 
ATOM     45  C   UNL     1       5.718  -2.670   5.527  1.00  0.00     0.074 A 
ATOM     46  C   UNL     1       4.794  -0.433   6.035  1.00  0.00     0.049 A 
ATOM     47  N   UNL     1       5.060  -3.417   6.378  1.00  0.00    -0.248 NA
ATOM     48  C   UNL     1       6.646  -3.422   4.666  1.00  0.00     0.031 C 
ATOM     49  C   UNL     1       4.586   1.007   5.876  1.00  0.00     0.029 A 
ATOM     50  N   UNL     1       3.956  -0.776   7.067  1.00  0.00    -0.354 N 
ATOM     51  C   UNL     1       5.483  -4.719   6.143  1.00  0.00     0.074 A 
ATOM     52  C   UNL     1       6.402  -4.672   5.028  1.00  0.00     0.031 C 
ATOM     53  C   UNL     1       3.703   1.429   6.795  1.00  0.00     0.029 A 
ATOM     54  C   UNL     1       3.248   0.284   7.578  1.00  0.00     0.049 A 
ATOM     55  H   UNL     1       3.870  -1.696   7.408  1.00  0.00     0.167 HD
ATOM     56  C   UNL     1       5.157  -5.848   6.815  1.00  0.00     0.037 A 
ATOM     57  C   UNL     1       2.330   0.326   8.562  1.00  0.00     0.037 A 
ATOM     58  C   UNL     1       4.264  -5.885   7.942  1.00  0.00     0.049 A 
ATOM     59  C   UNL     1       1.974  -0.946   9.285  1.00  0.00     0.074 A 
ATOM     60  C   UNL     1       3.914  -6.966   8.731  1.00  0.00     0.029 A 
ATOM     61  N   UNL     1       3.574  -4.787   8.438  1.00  0.00    -0.354 N 
ATOM     62  N   UNL     1       2.434  -2.160   9.100  1.00  0.00    -0.248 NA
ATOM     63  C   UNL     1       0.975  -0.841  10.357  1.00  0.00     0.031 C 
ATOM     64  C   UNL     1       2.968  -6.535   9.667  1.00  0.00     0.029 A 
ATOM     65  C   UNL     1       2.778  -5.172   9.505  1.00  0.00     0.049 A 
ATOM     66  H   UNL     1       3.641  -3.871   8.085  1.00  0.00     0.167 HD
ATOM     67  C   UNL     1       1.807  -2.955  10.050  1.00  0.00     0.074 A 
ATOM     68  C   UNL     1       0.945  -2.083  10.820  1.00  0.00     0.031 C 
ATOM     69  C   UNL     1       1.933  -4.288  10.266  1.00  0.00     0.037 A 
BRANCH  56  70
ATOM     70  C   UNL     1       5.772  -7.138   6.351  1.00  0.00     0.064 A 
ATOM     71  C   UNL     1       7.146  -7.394   6.487  1.00  0.00     0.173 A 
ATOM     72  C   UNL     1       4.973  -8.147   5.792  1.00  0.00     0.173 A 
ATOM     73  F   UNL     1       7.959  -6.459   7.003  1.00  0.00    -0.203 F 
ATOM     74  C   UNL     1       7.700  -8.595   6.051  1.00  0.00     0.198 A 
ATOM     75  C   UNL     1       5.524  -9.361   5.391  1.00  0.00     0.198 A 
ATOM     76  F   UNL     1       3.653  -7.959   5.643  1.00  0.00    -0.203 F 
ATOM     77  F   UNL     1       9.023  -8.792   6.139  1.00  0.00    -0.200 F 
ATOM     78  C   UNL     1       6.888  -9.581   5.511  1.00  0.00     0.200 A 
ATOM     79  F   UNL     1       4.735 -10.318   4.883  1.00  0.00    -0.200 F 
ATOM     80  F   UNL     1       7.420 -10.740   5.101  1.00  0.00    -0.200 F 
ENDBRANCH  56  70
BRANCH  57  81
ATOM     81  C   UNL     1       1.696   1.619   8.936  1.00  0.00     0.064 A 
ATOM     82  C   UNL     1       1.948   2.213  10.181  1.00  0.00     0.173 A 
ATOM     83  C   UNL     1       0.820   2.282   8.064  1.00  0.00     0.173 A 
ATOM     84  F   UNL     1       2.764   1.610  11.057  1.00  0.00    -0.203 F 
ATOM     85  C   UNL     1       1.329   3.406  10.549  1.00  0.00     0.198 A 
ATOM     86  C   UNL     1       0.227   3.492   8.420  1.00  0.00     0.198 A 
ATOM     87  F   UNL     1       0.550   1.761   6.858  1.00  0.00    -0.203 F 
ATOM     88  F   UNL     1       1.549   3.925  11.764  1.00  0.00    -0.200 F 
ATOM     89  C   UNL     1       0.474   4.048   9.666  1.00  0.00     0.200 A 
ATOM     90  F   UNL     1      -0.584   4.117   7.556  1.00  0.00    -0.200 F 
ATOM     91  F   UNL     1      -0.117   5.198  10.018  1.00  0.00    -0.200 F 
ENDBRANCH  57  81
BRANCH  69  92
ATOM     92  C   UNL     1       1.153  -4.880  11.405  1.00  0.00     0.064 A 
ATOM     93  C   UNL     1      -0.243  -5.011  11.357  1.00  0.00     0.173 A 
ATOM     94  C   UNL     1       1.818  -5.364  12.543  1.00  0.00     0.173 A 
ATOM     95  F   UNL     1      -0.928  -4.552  10.299  1.00  0.00    -0.203 F 
ATOM     96  C   UNL     1      -0.945  -5.580  12.416  1.00  0.00     0.198 A 
ATOM     97  C   UNL     1       1.116  -5.964  13.584  1.00  0.00     0.198 A 
ATOM     98  F   UNL     1       3.153  -5.271  12.636  1.00  0.00    -0.203 F 
ATOM     99  F   UNL     1      -2.283  -5.647  12.370  1.00  0.00    -0.200 F 
ATOM    100  C   UNL     1      -0.265  -6.064  13.524  1.00  0.00     0.200 A 
ATOM    101  F   UNL     1       1.778  -6.447  14.645  1.00  0.00    -0.200 F 
ATOM    102  F   UNL     1      -0.942  -6.620  14.537  1.00  0.00    -0.200 F 
ENDBRANCH  69  92
ENDBRANCH  43  44
ENDBRANCH  35  38
ENDBRANCH  33  34
ENDBRANCH  32  33
ENDBRANCH  31  32
ENDBRANCH  30  31
ENDBRANCH   1  30
TORSDOF 18
