REMARK SMILES C[C@@H](OCC(F)(F)F)C(=O)NCCCCCCNC(=O)c1ccc(-c2c3nc(c(-c4c(F)c(F)c(F)c(F)c4F)c4ccc([nH]4)c(-c4c(F)c(F)c(F)c(F)c4F)c4nc(c(-c5c(F)c(F)c(F)c(F)c5F)c5ccc2[nH]5)C=C4)C=C3)cc1
REMARK SMILES IDX 14 1 13 2 12 3 11 4 9 5 10 6 2 8 1 9 3 10 4 11 5 12 6 13
REMARK SMILES IDX 7 14 8 15 15 16 16 17 17 18 18 19 19 20 20 22 21 23 22 24
REMARK SMILES IDX 83 25 23 26 82 27 24 28 25 29 26 30 76 31 27 32 81 33 75 34
REMARK SMILES IDX 77 35 28 36 80 37 74 38 73 39 29 41 61 42 41 43 60 44 42 45
REMARK SMILES IDX 45 46 59 47 78 48 43 49 44 50 58 52 79 53 46 54 30 55 31 56
REMARK SMILES IDX 39 57 32 58 33 59 37 60 40 61 34 62 35 63 38 64 36 65 62 66
REMARK SMILES IDX 63 67 71 68 64 69 65 70 69 71 72 72 66 73 67 74 70 75 68 76
REMARK SMILES IDX 47 77 48 78 56 79 49 80 50 81 54 82 57 83 51 84 52 85 55 86
REMARK SMILES IDX 53 87
REMARK H PARENT 11 7 18 21 77 40 45 51
REMARK Flexibility Score: inf
ROOT
ATOM      1  C   UNL     1      -3.064   2.485  -1.342  1.00  0.00     0.002 C 
ENDROOT
BRANCH   1   2
ATOM      2  C   UNL     1      -1.555   2.247  -1.198  1.00  0.00     0.021 C 
BRANCH   2   3
ATOM      3  C   UNL     1      -1.075   2.188   0.252  1.00  0.00     0.116 C 
BRANCH   3   4
ATOM      4  N   UNL     1      -1.616   1.021   0.920  1.00  0.00    -0.354 N 
ATOM      5  C   UNL     1      -0.976  -0.091   1.382  1.00  0.00     0.248 C 
ATOM      6  O   UNL     1      -1.667  -1.011   1.830  1.00  0.00    -0.272 OA
ATOM      7  H   UNL     1      -2.590   1.034   1.062  1.00  0.00     0.163 HD
BRANCH   5   8
ATOM      8  C   UNL     1       0.558  -0.203   1.322  1.00  0.00     0.204 C 
ATOM      9  C   UNL     1       1.029  -0.419  -0.114  1.00  0.00     0.049 C 
BRANCH   8  10
ATOM     10  O   UNL     1       1.137   0.947   1.944  1.00  0.00    -0.359 OA
BRANCH  10  11
ATOM     11  C   UNL     1       2.562   0.948   2.095  1.00  0.00     0.276 C 
BRANCH  11  12
ATOM     12  C   UNL     1       3.184  -0.218   2.862  1.00  0.00     0.411 C 
ATOM     13  F   UNL     1       3.102  -1.372   2.162  1.00  0.00    -0.168 F 
ATOM     14  F   UNL     1       4.498   0.018   3.087  1.00  0.00    -0.168 F 
ATOM     15  F   UNL     1       2.591  -0.409   4.058  1.00  0.00    -0.168 F 
ENDBRANCH  11  12
ENDBRANCH  10  11
ENDBRANCH   8  10
ENDBRANCH   5   8
ENDBRANCH   3   4
ENDBRANCH   2   3
ENDBRANCH   1   2
BRANCH   1  16
ATOM     16  C   UNL     1      -3.581   3.763  -0.675  1.00  0.00     0.002 C 
BRANCH  16  17
ATOM     17  C   UNL     1      -2.876   5.047  -1.114  1.00  0.00     0.021 C 
BRANCH  17  18
ATOM     18  C   UNL     1      -2.958   5.327  -2.609  1.00  0.00     0.116 C 
BRANCH  18  19
ATOM     19  N   UNL     1      -4.325   5.569  -3.045  1.00  0.00    -0.352 N 
ATOM     20  C   UNL     1      -4.830   6.633  -3.748  1.00  0.00     0.251 C 
ATOM     21  H   UNL     1      -4.978   4.874  -2.801  1.00  0.00     0.163 HD
ATOM     22  O   UNL     1      -6.043   6.786  -3.866  1.00  0.00    -0.269 OA
BRANCH  20  23
ATOM     23  C   UNL     1      -3.901   7.609  -4.353  1.00  0.00     0.039 A 
ATOM     24  C   UNL     1      -4.151   8.974  -4.194  1.00  0.00     0.014 A 
ATOM     25  C   UNL     1      -2.782   7.174  -5.068  1.00  0.00     0.014 A 
ATOM     26  C   UNL     1      -3.244   9.905  -4.705  1.00  0.00     0.010 A 
ATOM     27  C   UNL     1      -1.842   8.099  -5.507  1.00  0.00     0.010 A 
ATOM     28  C   UNL     1      -2.066   9.475  -5.337  1.00  0.00    -0.014 A 
BRANCH  28  29
ATOM     29  C   UNL     1      -1.061  10.441  -5.849  1.00  0.00     0.031 A 
ATOM     30  C   UNL     1      -0.762  10.495  -7.323  1.00  0.00     0.074 A 
ATOM     31  C   UNL     1      -0.368  11.211  -4.987  1.00  0.00     0.049 A 
ATOM     32  N   UNL     1       0.154  11.181  -7.958  1.00  0.00    -0.248 NA
ATOM     33  C   UNL     1      -1.585   9.643  -8.197  1.00  0.00     0.031 C 
ATOM     34  C   UNL     1      -0.542  11.224  -3.534  1.00  0.00     0.029 A 
ATOM     35  N   UNL     1       0.636  12.122  -5.208  1.00  0.00    -0.354 N 
ATOM     36  C   UNL     1       0.031  10.828  -9.295  1.00  0.00     0.074 A 
ATOM     37  C   UNL     1      -1.014   9.832  -9.378  1.00  0.00     0.031 C 
ATOM     38  C   UNL     1       0.314  12.107  -2.996  1.00  0.00     0.029 A 
ATOM     39  C   UNL     1       1.129  12.690  -4.058  1.00  0.00     0.049 A 
ATOM     40  H   UNL     1       0.971  12.347  -6.106  1.00  0.00     0.167 HD
ATOM     41  C   UNL     1       0.715  11.308 -10.360  1.00  0.00     0.037 A 
ATOM     42  C   UNL     1       2.136  13.566  -3.880  1.00  0.00     0.037 A 
ATOM     43  C   UNL     1       1.729  12.325 -10.277  1.00  0.00     0.049 A 
ATOM     44  C   UNL     1       2.889  14.071  -5.085  1.00  0.00     0.074 A 
ATOM     45  C   UNL     1       2.434  12.923 -11.306  1.00  0.00     0.029 A 
ATOM     46  N   UNL     1       2.182  12.895  -9.097  1.00  0.00    -0.354 N 
ATOM     47  N   UNL     1       2.717  13.779  -6.352  1.00  0.00    -0.248 NA
ATOM     48  C   UNL     1       3.973  15.032  -4.836  1.00  0.00     0.031 C 
ATOM     49  C   UNL     1       3.354  13.814 -10.746  1.00  0.00     0.029 A 
ATOM     50  C   UNL     1       3.175  13.820  -9.372  1.00  0.00     0.049 A 
ATOM     51  H   UNL     1       1.847  12.674  -8.197  1.00  0.00     0.167 HD
ATOM     52  C   UNL     1       3.637  14.551  -7.049  1.00  0.00     0.074 A 
ATOM     53  C   UNL     1       4.359  15.330  -6.067  1.00  0.00     0.031 C 
ATOM     54  C   UNL     1       3.862  14.611  -8.384  1.00  0.00     0.037 A 
BRANCH  41  55
ATOM     55  C   UNL     1       0.394  10.747 -11.715  1.00  0.00     0.064 A 
ATOM     56  C   UNL     1      -0.820  11.026 -12.360  1.00  0.00     0.173 A 
ATOM     57  C   UNL     1       1.343   9.979 -12.408  1.00  0.00     0.173 A 
ATOM     58  F   UNL     1      -1.766  11.746 -11.738  1.00  0.00    -0.203 F 
ATOM     59  C   UNL     1      -1.079  10.544 -13.640  1.00  0.00     0.198 A 
ATOM     60  C   UNL     1       1.094   9.525 -13.700  1.00  0.00     0.198 A 
ATOM     61  F   UNL     1       2.522   9.687 -11.839  1.00  0.00    -0.203 F 
ATOM     62  F   UNL     1      -2.261  10.792 -14.222  1.00  0.00    -0.200 F 
ATOM     63  C   UNL     1      -0.118   9.804 -14.313  1.00  0.00     0.200 A 
ATOM     64  F   UNL     1       2.030   8.824 -14.355  1.00  0.00    -0.200 F 
ATOM     65  F   UNL     1      -0.361   9.357 -15.553  1.00  0.00    -0.200 F 
ENDBRANCH  41  55
BRANCH  42  66
ATOM     66  C   UNL     1       2.500  14.032  -2.514  1.00  0.00     0.064 A 
ATOM     67  C   UNL     1       2.326  15.372  -2.139  1.00  0.00     0.173 A 
ATOM     68  C   UNL     1       3.069  13.163  -1.573  1.00  0.00     0.173 A 
ATOM     69  F   UNL     1       1.804  16.249  -3.010  1.00  0.00    -0.203 F 
ATOM     70  C   UNL     1       2.744  15.833  -0.892  1.00  0.00     0.198 A 
ATOM     71  C   UNL     1       3.454  13.617  -0.312  1.00  0.00     0.198 A 
ATOM     72  F   UNL     1       3.253  11.869  -1.876  1.00  0.00    -0.203 F 
ATOM     73  F   UNL     1       2.629  17.133  -0.588  1.00  0.00    -0.200 F 
ATOM     74  C   UNL     1       3.305  14.954   0.021  1.00  0.00     0.200 A 
ATOM     75  F   UNL     1       3.982  12.760   0.573  1.00  0.00    -0.200 F 
ATOM     76  F   UNL     1       3.714  15.398   1.218  1.00  0.00    -0.200 F 
ENDBRANCH  42  66
BRANCH  54  77
ATOM     77  C   UNL     1       4.883  15.596  -8.875  1.00  0.00     0.064 A 
ATOM     78  C   UNL     1       6.257  15.410  -8.663  1.00  0.00     0.173 A 
ATOM     79  C   UNL     1       4.479  16.715  -9.621  1.00  0.00     0.173 A 
ATOM     80  F   UNL     1       6.694  14.365  -7.946  1.00  0.00    -0.203 F 
ATOM     81  C   UNL     1       7.186  16.321  -9.160  1.00  0.00     0.198 A 
ATOM     82  C   UNL     1       5.413  17.604 -10.145  1.00  0.00     0.198 A 
ATOM     83  F   UNL     1       3.177  16.934  -9.860  1.00  0.00    -0.203 F 
ATOM     84  F   UNL     1       8.491  16.148  -8.906  1.00  0.00    -0.200 F 
ATOM     85  C   UNL     1       6.764  17.410  -9.908  1.00  0.00     0.200 A 
ATOM     86  F   UNL     1       5.004  18.645 -10.883  1.00  0.00    -0.200 F 
ATOM     87  F   UNL     1       7.662  18.276 -10.398  1.00  0.00    -0.200 F 
ENDBRANCH  54  77
ENDBRANCH  28  29
ENDBRANCH  20  23
ENDBRANCH  18  19
ENDBRANCH  17  18
ENDBRANCH  16  17
ENDBRANCH   1  16
TORSDOF 16
