REMARK SMILES C[C@H]1CC[C@@](NC(=O)N[C@H]2CCOC2)(C(=O)NCCCCCCNC(=O)c2ccc(-c3c4nc(c(-c5c(F)c(F)c(F)c(F)c5F)c5ccc([nH]5)c(-c5c(F)c(F)c(F)c(F)c5F)c5nc(c(-c6c(F)c(F)c(F)c(F)c6F)c6ccc3[nH]6)C=C5)C=C4)cc2)CC1
REMARK SMILES IDX 20 1 19 2 18 3 17 4 15 5 16 6 5 8 1 9 2 10 91 11 3 12 90 13
REMARK SMILES IDX 4 14 6 15 7 16 8 18 9 19 10 21 11 22 14 23 12 24 13 25 21 26
REMARK SMILES IDX 22 27 23 28 24 29 25 30 26 32 27 33 28 34 89 35 29 36 88 37
REMARK SMILES IDX 30 38 31 39 32 40 82 41 33 42 87 43 81 44 83 45 34 46 86 47
REMARK SMILES IDX 80 48 79 49 35 51 67 52 47 53 66 54 48 55 51 56 65 57 84 58
REMARK SMILES IDX 49 59 50 60 64 62 85 63 52 64 36 65 37 66 45 67 38 68 39 69
REMARK SMILES IDX 43 70 46 71 40 72 41 73 44 74 42 75 68 76 69 77 77 78 70 79
REMARK SMILES IDX 71 80 75 81 78 82 72 83 73 84 76 85 74 86 53 87 54 88 62 89
REMARK SMILES IDX 55 90 56 91 60 92 63 93 57 94 58 95 61 96 59 97
REMARK H PARENT 17 7 6 17 9 20 24 31 83 50 51 61
REMARK Flexibility Score: inf
ROOT
ATOM      1  C   UNL     1      -4.467   3.807  -1.801  1.00  0.00     0.002 C 
ENDROOT
BRANCH   1   2
ATOM      2  C   UNL     1      -5.672   2.930  -2.161  1.00  0.00     0.021 C 
BRANCH   2   3
ATOM      3  C   UNL     1      -5.259   1.564  -2.685  1.00  0.00     0.116 C 
BRANCH   3   4
ATOM      4  N   UNL     1      -4.735   0.770  -1.594  1.00  0.00    -0.354 N 
ATOM      5  C   UNL     1      -4.488  -0.564  -1.510  1.00  0.00     0.245 C 
ATOM      6  O   UNL     1      -3.954  -0.940  -0.462  1.00  0.00    -0.272 OA
ATOM      7  H   UNL     1      -4.522   1.280  -0.779  1.00  0.00     0.163 HD
BRANCH   5   8
ATOM      8  C   UNL     1      -4.963  -1.545  -2.614  1.00  0.00     0.120 C 
ATOM      9  C   UNL     1      -6.178  -3.320   1.005  1.00  0.00     0.007 C 
ATOM     10  C   UNL     1      -6.218  -3.318  -0.529  1.00  0.00    -0.014 C 
ATOM     11  C   UNL     1      -4.807  -3.608  -1.079  1.00  0.00     0.006 C 
ATOM     12  C   UNL     1      -6.889  -2.025  -1.019  1.00  0.00     0.006 C 
ATOM     13  C   UNL     1      -4.480  -2.996  -2.442  1.00  0.00     0.039 C 
ATOM     14  C   UNL     1      -6.509  -1.637  -2.448  1.00  0.00     0.039 C 
BRANCH   8  15
ATOM     15  N   UNL     1      -4.634  -1.060  -3.980  1.00  0.00    -0.324 N 
ATOM     16  C   UNL     1      -3.534  -0.767  -4.684  1.00  0.00     0.315 C 
ATOM     17  H   UNL     1      -5.449  -0.913  -4.513  1.00  0.00     0.166 HD
ATOM     18  O   UNL     1      -3.675  -0.676  -5.908  1.00  0.00    -0.249 OA
ATOM     19  N   UNL     1      -2.314  -0.514  -4.202  1.00  0.00    -0.333 N 
ATOM     20  H   UNL     1      -1.651  -0.392  -4.919  1.00  0.00     0.165 HD
BRANCH  19  21
ATOM     21  C   UNL     1      -1.724  -0.374  -2.888  1.00  0.00     0.112 C 
ATOM     22  C   UNL     1      -0.920  -1.560  -2.416  1.00  0.00     0.056 C 
ATOM     23  C   UNL     1      -0.709   0.753  -2.707  1.00  0.00     0.185 C 
ATOM     24  C   UNL     1      -0.250  -0.961  -1.199  1.00  0.00     0.162 C 
ATOM     25  O   UNL     1       0.096   0.386  -1.567  1.00  0.00    -0.379 OA
ENDBRANCH  19  21
ENDBRANCH   8  15
ENDBRANCH   5   8
ENDBRANCH   3   4
ENDBRANCH   2   3
ENDBRANCH   1   2
BRANCH   1  26
ATOM     26  C   UNL     1      -3.651   4.282  -3.007  1.00  0.00     0.002 C 
BRANCH  26  27
ATOM     27  C   UNL     1      -4.453   5.046  -4.063  1.00  0.00     0.021 C 
BRANCH  27  28
ATOM     28  C   UNL     1      -5.348   6.146  -3.504  1.00  0.00     0.116 C 
BRANCH  28  29
ATOM     29  N   UNL     1      -4.607   7.133  -2.739  1.00  0.00    -0.352 N 
ATOM     30  C   UNL     1      -4.828   8.480  -2.643  1.00  0.00     0.251 C 
ATOM     31  H   UNL     1      -3.844   6.788  -2.220  1.00  0.00     0.163 HD
ATOM     32  O   UNL     1      -4.027   9.205  -2.056  1.00  0.00    -0.269 OA
BRANCH  30  33
ATOM     33  C   UNL     1      -6.019   9.067  -3.286  1.00  0.00     0.039 A 
ATOM     34  C   UNL     1      -5.855  10.211  -4.067  1.00  0.00     0.014 A 
ATOM     35  C   UNL     1      -7.284   8.487  -3.135  1.00  0.00     0.014 A 
ATOM     36  C   UNL     1      -6.954  10.750  -4.732  1.00  0.00     0.010 A 
ATOM     37  C   UNL     1      -8.364   8.981  -3.861  1.00  0.00     0.010 A 
ATOM     38  C   UNL     1      -8.211  10.124  -4.658  1.00  0.00    -0.014 A 
BRANCH  38  39
ATOM     39  C   UNL     1      -9.355  10.669  -5.429  1.00  0.00     0.031 A 
ATOM     40  C   UNL     1     -10.550  11.245  -4.724  1.00  0.00     0.074 A 
ATOM     41  C   UNL     1      -9.309  10.642  -6.774  1.00  0.00     0.049 A 
ATOM     42  N   UNL     1     -11.600  11.841  -5.232  1.00  0.00    -0.248 NA
ATOM     43  C   UNL     1     -10.587  11.114  -3.259  1.00  0.00     0.031 C 
ATOM     44  C   UNL     1      -8.234  10.044  -7.569  1.00  0.00     0.029 A 
ATOM     45  N   UNL     1     -10.177  11.140  -7.712  1.00  0.00    -0.354 N 
ATOM     46  C   UNL     1     -12.414  12.158  -4.153  1.00  0.00     0.074 A 
ATOM     47  C   UNL     1     -11.773  11.628  -2.970  1.00  0.00     0.031 C 
ATOM     48  C   UNL     1      -8.481  10.254  -8.871  1.00  0.00     0.029 A 
ATOM     49  C   UNL     1      -9.742  10.975  -9.004  1.00  0.00     0.049 A 
ATOM     50  H   UNL     1     -11.030  11.575  -7.481  1.00  0.00     0.167 HD
ATOM     51  C   UNL     1     -13.576  12.854  -4.148  1.00  0.00     0.037 A 
ATOM     52  C   UNL     1     -10.294  11.375 -10.165  1.00  0.00     0.037 A 
ATOM     53  C   UNL     1     -14.202  13.389  -5.330  1.00  0.00     0.049 A 
ATOM     54  C   UNL     1     -11.578  12.158 -10.129  1.00  0.00     0.074 A 
ATOM     55  C   UNL     1     -15.348  14.158  -5.428  1.00  0.00     0.029 A 
ATOM     56  N   UNL     1     -13.736  13.201  -6.623  1.00  0.00    -0.354 N 
ATOM     57  N   UNL     1     -12.292  12.534  -9.096  1.00  0.00    -0.248 NA
ATOM     58  C   UNL     1     -12.125  12.584 -11.424  1.00  0.00     0.031 C 
ATOM     59  C   UNL     1     -15.604  14.390  -6.784  1.00  0.00     0.029 A 
ATOM     60  C   UNL     1     -14.587  13.816  -7.529  1.00  0.00     0.049 A 
ATOM     61  H   UNL     1     -12.920  12.704  -6.863  1.00  0.00     0.167 HD
ATOM     62  C   UNL     1     -13.360  13.255  -9.611  1.00  0.00     0.074 A 
ATOM     63  C   UNL     1     -13.180  13.292 -11.049  1.00  0.00     0.031 C 
ATOM     64  C   UNL     1     -14.399  13.832  -8.957  1.00  0.00     0.037 A 
BRANCH  51  65
ATOM     65  C   UNL     1     -14.243  13.083  -2.821  1.00  0.00     0.064 A 
ATOM     66  C   UNL     1     -13.681  13.927  -1.850  1.00  0.00     0.173 A 
ATOM     67  C   UNL     1     -15.476  12.480  -2.529  1.00  0.00     0.173 A 
ATOM     68  F   UNL     1     -12.498  14.519  -2.072  1.00  0.00    -0.203 F 
ATOM     69  C   UNL     1     -14.313  14.134  -0.626  1.00  0.00     0.198 A 
ATOM     70  C   UNL     1     -16.121  12.716  -1.317  1.00  0.00     0.198 A 
ATOM     71  F   UNL     1     -16.060  11.667  -3.421  1.00  0.00    -0.203 F 
ATOM     72  F   UNL     1     -13.732  14.903   0.305  1.00  0.00    -0.200 F 
ATOM     73  C   UNL     1     -15.536  13.536  -0.364  1.00  0.00     0.200 A 
ATOM     74  F   UNL     1     -17.309  12.146  -1.070  1.00  0.00    -0.200 F 
ATOM     75  F   UNL     1     -16.147  13.743   0.810  1.00  0.00    -0.200 F 
ENDBRANCH  51  65
BRANCH  52  76
ATOM     76  C   UNL     1      -9.613  11.078 -11.452  1.00  0.00     0.064 A 
ATOM     77  C   UNL     1      -9.053  12.104 -12.227  1.00  0.00     0.173 A 
ATOM     78  C   UNL     1      -9.514   9.766 -11.938  1.00  0.00     0.173 A 
ATOM     79  F   UNL     1      -9.138  13.377 -11.815  1.00  0.00    -0.203 F 
ATOM     80  C   UNL     1      -8.442  11.832 -13.450  1.00  0.00     0.198 A 
ATOM     81  C   UNL     1      -8.874   9.492 -13.145  1.00  0.00     0.198 A 
ATOM     82  F   UNL     1     -10.026   8.748 -11.232  1.00  0.00    -0.203 F 
ATOM     83  F   UNL     1      -7.961  12.837 -14.194  1.00  0.00    -0.200 F 
ATOM     84  C   UNL     1      -8.348  10.525 -13.904  1.00  0.00     0.200 A 
ATOM     85  F   UNL     1      -8.771   8.226 -13.572  1.00  0.00    -0.200 F 
ATOM     86  F   UNL     1      -7.757  10.263 -15.078  1.00  0.00    -0.200 F 
ENDBRANCH  52  76
BRANCH  64  87
ATOM     87  C   UNL     1     -15.410  14.560  -9.797  1.00  0.00     0.064 A 
ATOM     88  C   UNL     1     -16.272  13.877 -10.669  1.00  0.00     0.173 A 
ATOM     89  C   UNL     1     -15.518  15.957  -9.730  1.00  0.00     0.173 A 
ATOM     90  F   UNL     1     -16.200  12.542 -10.781  1.00  0.00    -0.203 F 
ATOM     91  C   UNL     1     -17.173  14.569 -11.474  1.00  0.00     0.198 A 
ATOM     92  C   UNL     1     -16.446  16.643 -10.509  1.00  0.00     0.198 A 
ATOM     93  F   UNL     1     -14.726  16.659  -8.906  1.00  0.00    -0.203 F 
ATOM     94  F   UNL     1     -17.936  13.900 -12.349  1.00  0.00    -0.200 F 
ATOM     95  C   UNL     1     -17.262  15.950 -11.390  1.00  0.00     0.200 A 
ATOM     96  F   UNL     1     -16.542  17.976 -10.416  1.00  0.00    -0.200 F 
ATOM     97  F   UNL     1     -18.127  16.615 -12.168  1.00  0.00    -0.200 F 
ENDBRANCH  64  87
ENDBRANCH  38  39
ENDBRANCH  30  33
ENDBRANCH  28  29
ENDBRANCH  27  28
ENDBRANCH  26  27
ENDBRANCH   1  26
TORSDOF 15
