REMARK SMILES CCCc1n[nH]c(C(=O)N[C@H](C)CC(=O)NCCCCCCNC(=O)c2ccc(-c3c4nc(c(-c5c(F)c(F)c(F)c(F)c5F)c5ccc([nH]5)c(-c5c(F)c(F)c(F)c(F)c5F)c5nc(c(-c6c(F)c(F)c(F)c(F)c6F)c6ccc3[nH]6)C=C5)C=C4)cc2)n1
REMARK SMILES IDX 18 1 17 2 16 3 14 4 15 5 13 7 11 8 12 9 10 10 8 11 9 12 7 14
REMARK SMILES IDX 4 15 5 16 89 17 6 18 3 20 2 21 1 22 19 23 20 24 21 25 22 26
REMARK SMILES IDX 23 27 24 28 25 30 26 31 27 32 88 33 28 34 87 35 29 36 30 37
REMARK SMILES IDX 31 38 81 39 32 40 86 41 80 42 82 43 33 44 85 45 79 46 78 47
REMARK SMILES IDX 34 49 66 50 46 51 65 52 47 53 50 54 64 55 83 56 48 57 49 58
REMARK SMILES IDX 63 60 84 61 51 62 35 63 36 64 44 65 37 66 38 67 42 68 45 69
REMARK SMILES IDX 39 70 40 71 43 72 41 73 67 74 68 75 76 76 69 77 70 78 74 79
REMARK SMILES IDX 77 80 71 81 72 82 75 83 73 84 52 85 53 86 61 87 54 88 55 89
REMARK SMILES IDX 59 90 62 91 56 92 57 93 60 94 58 95
REMARK H PARENT 16 6 10 13 6 19 23 29 82 48 50 59
REMARK Flexibility Score: inf
ROOT
ATOM      1  C   UNL     1      -1.431  -7.149  -0.884  1.00  0.00     0.021 C 
ENDROOT
BRANCH   1   2
ATOM      2  C   UNL     1      -0.985  -7.807  -2.189  1.00  0.00     0.116 C 
BRANCH   2   3
ATOM      3  N   UNL     1      -0.964  -6.840  -3.270  1.00  0.00    -0.356 N 
ATOM      4  C   UNL     1       0.103  -6.288  -3.911  1.00  0.00     0.222 C 
ATOM      5  O   UNL     1      -0.095  -5.362  -4.699  1.00  0.00    -0.275 OA
ATOM      6  H   UNL     1      -1.847  -6.541  -3.586  1.00  0.00     0.163 HD
BRANCH   4   7
ATOM      7  C   UNL     1       1.502  -6.806  -3.656  1.00  0.00     0.124 C 
BRANCH   7   8
ATOM      8  C   UNL     1       2.351  -5.811  -2.865  1.00  0.00     0.088 C 
ATOM      9  C   UNL     1       1.760  -5.341  -1.537  1.00  0.00     0.031 C 
BRANCH   8  10
ATOM     10  N   UNL     1       3.746  -6.258  -2.763  1.00  0.00    -0.346 N 
ATOM     11  C   UNL     1       4.397  -7.208  -2.014  1.00  0.00     0.288 C 
ATOM     12  O   UNL     1       5.607  -7.319  -2.207  1.00  0.00    -0.266 OA
ATOM     13  H   UNL     1       4.350  -5.767  -3.366  1.00  0.00     0.164 HD
BRANCH  11  14
ATOM     14  C   UNL     1       3.733  -8.018  -1.020  1.00  0.00     0.214 A 
ATOM     15  C   UNL     1       2.426  -9.016   0.320  1.00  0.00     0.151 A 
ATOM     16  N   UNL     1       3.631  -9.412   0.739  1.00  0.00    -0.158 NA
ATOM     17  N   UNL     1       2.448  -8.186  -0.778  1.00  0.00    -0.207 NA
ATOM     18  N   UNL     1       4.438  -8.783  -0.131  1.00  0.00    -0.255 N 
ATOM     19  H   UNL     1       5.419  -8.862  -0.129  1.00  0.00     0.192 HD
BRANCH  15  20
ATOM     20  C   UNL     1       1.140  -9.414   0.954  1.00  0.00     0.079 C 
BRANCH  20  21
ATOM     21  C   UNL     1       1.217 -10.335   2.171  1.00  0.00     0.005 C 
ATOM     22  C   UNL     1       1.608  -9.601   3.447  1.00  0.00     0.004 C 
ENDBRANCH  20  21
ENDBRANCH  15  20
ENDBRANCH  11  14
ENDBRANCH   8  10
ENDBRANCH   7   8
ENDBRANCH   4   7
ENDBRANCH   2   3
ENDBRANCH   1   2
BRANCH   1  23
ATOM     23  C   UNL     1      -2.939  -7.193  -0.629  1.00  0.00     0.002 C 
BRANCH  23  24
ATOM     24  C   UNL     1      -3.542  -8.591  -0.449  1.00  0.00     0.002 C 
BRANCH  24  25
ATOM     25  C   UNL     1      -2.829  -9.518   0.542  1.00  0.00     0.021 C 
BRANCH  25  26
ATOM     26  C   UNL     1      -2.644  -8.968   1.955  1.00  0.00     0.116 C 
BRANCH  26  27
ATOM     27  N   UNL     1      -3.907  -8.762   2.636  1.00  0.00    -0.352 N 
ATOM     28  C   UNL     1      -4.388  -9.299   3.803  1.00  0.00     0.251 C 
ATOM     29  H   UNL     1      -4.520  -8.134   2.188  1.00  0.00     0.163 HD
ATOM     30  O   UNL     1      -5.568  -9.131   4.100  1.00  0.00    -0.269 OA
BRANCH  28  31
ATOM     31  C   UNL     1      -3.521 -10.091   4.708  1.00  0.00     0.039 A 
ATOM     32  C   UNL     1      -4.069 -11.225   5.318  1.00  0.00     0.014 A 
ATOM     33  C   UNL     1      -2.219  -9.697   5.031  1.00  0.00     0.014 A 
ATOM     34  C   UNL     1      -3.308 -11.979   6.215  1.00  0.00     0.010 A 
ATOM     35  C   UNL     1      -1.438 -10.483   5.887  1.00  0.00     0.010 A 
ATOM     36  C   UNL     1      -1.977 -11.627   6.495  1.00  0.00    -0.014 A 
BRANCH  36  37
ATOM     37  C   UNL     1      -1.161 -12.462   7.417  1.00  0.00     0.031 A 
ATOM     38  C   UNL     1      -0.720 -11.936   8.756  1.00  0.00     0.074 A 
ATOM     39  C   UNL     1      -0.805 -13.706   7.044  1.00  0.00     0.049 A 
ATOM     40  N   UNL     1      -0.045 -12.542   9.702  1.00  0.00    -0.248 NA
ATOM     41  C   UNL     1      -1.066 -10.541   9.067  1.00  0.00     0.031 C 
ATOM     42  C   UNL     1      -1.118 -14.320   5.753  1.00  0.00     0.029 A 
ATOM     43  N   UNL     1      -0.106 -14.679   7.715  1.00  0.00    -0.354 N 
ATOM     44  C   UNL     1       0.115 -11.606  10.716  1.00  0.00     0.074 A 
ATOM     45  C   UNL     1      -0.488 -10.376  10.249  1.00  0.00     0.031 C 
ATOM     46  C   UNL     1      -0.637 -15.574   5.736  1.00  0.00     0.029 A 
ATOM     47  C   UNL     1       0.034 -15.845   7.004  1.00  0.00     0.049 A 
ATOM     48  H   UNL     1       0.259 -14.553   8.621  1.00  0.00     0.167 HD
ATOM     49  C   UNL     1       0.691 -11.763  11.933  1.00  0.00     0.037 A 
ATOM     50  C   UNL     1       0.628 -17.007   7.337  1.00  0.00     0.037 A 
ATOM     51  C   UNL     1       1.279 -12.989  12.409  1.00  0.00     0.049 A 
ATOM     52  C   UNL     1       1.242 -17.162   8.701  1.00  0.00     0.074 A 
ATOM     53  C   UNL     1       1.838 -13.257  13.648  1.00  0.00     0.029 A 
ATOM     54  N   UNL     1       1.390 -14.154  11.665  1.00  0.00    -0.354 N 
ATOM     55  N   UNL     1       1.318 -16.292   9.679  1.00  0.00    -0.248 NA
ATOM     56  C   UNL     1       1.839 -18.468   9.012  1.00  0.00     0.031 C 
ATOM     57  C   UNL     1       2.321 -14.570  13.639  1.00  0.00     0.029 A 
ATOM     58  C   UNL     1       2.023 -15.137  12.411  1.00  0.00     0.049 A 
ATOM     59  H   UNL     1       1.066 -14.267  10.742  1.00  0.00     0.167 HD
ATOM     60  C   UNL     1       1.954 -16.949  10.724  1.00  0.00     0.074 A 
ATOM     61  C   UNL     1       2.218 -18.298  10.271  1.00  0.00     0.031 C 
ATOM     62  C   UNL     1       2.290 -16.474  11.948  1.00  0.00     0.037 A 
BRANCH  49  63
ATOM     63  C   UNL     1       0.706 -10.573  12.850  1.00  0.00     0.064 A 
ATOM     64  C   UNL     1      -0.468 -10.104  13.459  1.00  0.00     0.173 A 
ATOM     65  C   UNL     1       1.910  -9.922  13.156  1.00  0.00     0.173 A 
ATOM     66  F   UNL     1      -1.647 -10.686  13.192  1.00  0.00    -0.203 F 
ATOM     67  C   UNL     1      -0.440  -9.010  14.320  1.00  0.00     0.198 A 
ATOM     68  C   UNL     1       1.938  -8.846  14.040  1.00  0.00     0.198 A 
ATOM     69  F   UNL     1       3.062 -10.336  12.608  1.00  0.00    -0.203 F 
ATOM     70  F   UNL     1      -1.580  -8.552  14.856  1.00  0.00    -0.200 F 
ATOM     71  C   UNL     1       0.763  -8.386  14.615  1.00  0.00     0.200 A 
ATOM     72  F   UNL     1       3.103  -8.252  14.334  1.00  0.00    -0.200 F 
ATOM     73  F   UNL     1       0.789  -7.338  15.450  1.00  0.00    -0.200 F 
ENDBRANCH  49  63
BRANCH  50  74
ATOM     74  C   UNL     1       0.639 -18.133   6.369  1.00  0.00     0.064 A 
ATOM     75  C   UNL     1      -0.144 -19.275   6.584  1.00  0.00     0.173 A 
ATOM     76  C   UNL     1       1.431 -18.090   5.213  1.00  0.00     0.173 A 
ATOM     77  F   UNL     1      -0.900 -19.370   7.688  1.00  0.00    -0.203 F 
ATOM     78  C   UNL     1      -0.121 -20.342   5.689  1.00  0.00     0.198 A 
ATOM     79  C   UNL     1       1.433 -19.146   4.304  1.00  0.00     0.198 A 
ATOM     80  F   UNL     1       2.194 -17.017   4.961  1.00  0.00    -0.203 F 
ATOM     81  F   UNL     1      -0.846 -21.440   5.940  1.00  0.00    -0.200 F 
ATOM     82  C   UNL     1       0.663 -20.274   4.546  1.00  0.00     0.200 A 
ATOM     83  F   UNL     1       2.181 -19.071   3.195  1.00  0.00    -0.200 F 
ATOM     84  F   UNL     1       0.681 -21.298   3.683  1.00  0.00    -0.200 F 
ENDBRANCH  50  74
BRANCH  62  85
ATOM     85  C   UNL     1       2.970 -17.429  12.887  1.00  0.00     0.064 A 
ATOM     86  C   UNL     1       4.292 -17.849  12.676  1.00  0.00     0.173 A 
ATOM     87  C   UNL     1       2.295 -17.925  14.012  1.00  0.00     0.173 A 
ATOM     88  F   UNL     1       4.976 -17.416  11.606  1.00  0.00    -0.203 F 
ATOM     89  C   UNL     1       4.901 -18.759  13.538  1.00  0.00     0.198 A 
ATOM     90  C   UNL     1       2.917 -18.812  14.888  1.00  0.00     0.198 A 
ATOM     91  F   UNL     1       1.032 -17.551  14.263  1.00  0.00    -0.203 F 
ATOM     92  F   UNL     1       6.144 -19.190  13.284  1.00  0.00    -0.200 F 
ATOM     93  C   UNL     1       4.214 -19.236  14.645  1.00  0.00     0.200 A 
ATOM     94  F   UNL     1       2.256 -19.264  15.962  1.00  0.00    -0.200 F 
ATOM     95  F   UNL     1       4.800 -20.113  15.470  1.00  0.00    -0.200 F 
ENDBRANCH  62  85
ENDBRANCH  36  37
ENDBRANCH  28  31
ENDBRANCH  26  27
ENDBRANCH  25  26
ENDBRANCH  24  25
ENDBRANCH  23  24
ENDBRANCH   1  23
TORSDOF 18
