REMARK SMILES Cc1cccc(Cl)c1Nc1ccccc1CC(=O)NCCCCCCNC(=O)c1ccc(-c2c3nc(c(-c4c(F)c(F)c(F)c(F)c4F)c4ccc([nH]4)c(-c4c(F)c(F)c(F)c(F)c4F)c4nc(c(-c5c(F)c(F)c(F)c(F)c5F)c5ccc2[nH]5)C=C4)C=C3)cc1
REMARK SMILES IDX 22 1 21 2 20 3 19 4 17 5 18 6 16 8 15 9 10 10 11 11 12 12
REMARK SMILES IDX 14 13 13 14 9 15 8 17 1 18 2 19 3 20 4 21 6 22 5 23 7 24
REMARK SMILES IDX 23 25 24 26 25 27 26 28 27 29 28 31 29 32 30 33 91 34 31 35
REMARK SMILES IDX 90 36 32 37 33 38 34 39 84 40 35 41 89 42 83 43 85 44 36 45
REMARK SMILES IDX 88 46 82 47 81 48 37 50 69 51 49 52 68 53 50 54 53 55 67 56
REMARK SMILES IDX 86 57 51 58 52 59 66 61 87 62 54 63 38 64 39 65 47 66 40 67
REMARK SMILES IDX 41 68 45 69 48 70 42 71 43 72 46 73 44 74 70 75 71 76 79 77
REMARK SMILES IDX 72 78 73 79 77 80 80 81 74 82 75 83 78 84 76 85 55 86 56 87
REMARK SMILES IDX 64 88 57 89 58 90 62 91 65 92 59 93 60 94 63 95 61 96
REMARK H PARENT 19 7 9 16 26 30 85 49 53 60
REMARK Flexibility Score: inf
ROOT
ATOM      1  C   UNL     1       0.650   6.104  -3.638  1.00  0.00     0.002 C 
ENDROOT
BRANCH   1   2
ATOM      2  C   UNL     1       0.693   5.115  -2.466  1.00  0.00     0.021 C 
BRANCH   2   3
ATOM      3  C   UNL     1       0.127   3.737  -2.810  1.00  0.00     0.116 C 
BRANCH   3   4
ATOM      4  N   UNL     1       1.013   3.024  -3.707  1.00  0.00    -0.356 N 
ATOM      5  C   UNL     1       1.896   2.026  -3.404  1.00  0.00     0.224 C 
ATOM      6  O   UNL     1       2.678   1.650  -4.280  1.00  0.00    -0.275 OA
ATOM      7  H   UNL     1       0.973   3.291  -4.653  1.00  0.00     0.163 HD
BRANCH   5   8
ATOM      8  C   UNL     1       1.851   1.368  -2.035  1.00  0.00     0.137 C 
BRANCH   8   9
ATOM      9  C   UNL     1       2.353   2.236  -0.899  1.00  0.00    -0.015 A 
ATOM     10  C   UNL     1       1.588   2.521   0.255  1.00  0.00     0.042 A 
ATOM     11  C   UNL     1       2.116   3.413   1.209  1.00  0.00     0.026 A 
ATOM     12  C   UNL     1       3.377   3.988   1.052  1.00  0.00     0.002 A 
ATOM     13  C   UNL     1       3.638   2.804  -1.026  1.00  0.00     0.006 A 
ATOM     14  C   UNL     1       4.143   3.673  -0.061  1.00  0.00     0.000 A 
BRANCH  10  15
ATOM     15  N   UNL     1       0.341   1.935   0.557  1.00  0.00    -0.354 N 
ATOM     16  H   UNL     1      -0.317   2.571   0.920  1.00  0.00     0.167 HD
BRANCH  15  17
ATOM     17  C   UNL     1      -0.151   0.612   0.441  1.00  0.00     0.060 A 
ATOM     18  C   UNL     1      -2.470   1.603   0.004  1.00  0.00     0.046 C 
ATOM     19  C   UNL     1      -1.528   0.434   0.140  1.00  0.00    -0.026 A 
ATOM     20  C   UNL     1      -2.041  -0.857  -0.081  1.00  0.00     0.005 A 
ATOM     21  C   UNL     1      -1.219  -1.975   0.001  1.00  0.00     0.002 A 
ATOM     22  C   UNL     1       0.656  -0.544   0.552  1.00  0.00     0.064 A 
ATOM     23  C   UNL     1       0.124  -1.820   0.325  1.00  0.00     0.023 A 
ATOM     24  Cl  UNL     1       2.307  -0.501   1.077  1.00  0.00    -0.082 Cl
ENDBRANCH  15  17
ENDBRANCH  10  15
ENDBRANCH   8   9
ENDBRANCH   5   8
ENDBRANCH   3   4
ENDBRANCH   2   3
ENDBRANCH   1   2
BRANCH   1  25
ATOM     25  C   UNL     1      -0.751   6.381  -4.195  1.00  0.00     0.002 C 
BRANCH  25  26
ATOM     26  C   UNL     1      -1.766   6.885  -3.166  1.00  0.00     0.021 C 
BRANCH  26  27
ATOM     27  C   UNL     1      -1.381   8.197  -2.489  1.00  0.00     0.116 C 
BRANCH  27  28
ATOM     28  N   UNL     1      -1.285   9.292  -3.443  1.00  0.00    -0.352 N 
ATOM     29  C   UNL     1      -1.895  10.517  -3.430  1.00  0.00     0.251 C 
ATOM     30  H   UNL     1      -0.694   9.126  -4.212  1.00  0.00     0.163 HD
ATOM     31  O   UNL     1      -1.859  11.234  -4.430  1.00  0.00    -0.269 OA
BRANCH  29  32
ATOM     32  C   UNL     1      -2.610  10.983  -2.224  1.00  0.00     0.039 A 
ATOM     33  C   UNL     1      -3.838  11.632  -2.379  1.00  0.00     0.014 A 
ATOM     34  C   UNL     1      -2.062  10.813  -0.949  1.00  0.00     0.014 A 
ATOM     35  C   UNL     1      -4.538  12.067  -1.253  1.00  0.00     0.010 A 
ATOM     36  C   UNL     1      -2.793  11.185   0.176  1.00  0.00     0.010 A 
ATOM     37  C   UNL     1      -4.035  11.823   0.035  1.00  0.00    -0.014 A 
BRANCH  37  38
ATOM     38  C   UNL     1      -4.799  12.233   1.239  1.00  0.00     0.031 A 
ATOM     39  C   UNL     1      -4.256  13.286   2.165  1.00  0.00     0.074 A 
ATOM     40  C   UNL     1      -5.964  11.620   1.523  1.00  0.00     0.049 A 
ATOM     41  N   UNL     1      -4.769  13.758   3.273  1.00  0.00    -0.248 NA
ATOM     42  C   UNL     1      -2.951  13.867   1.814  1.00  0.00     0.031 C 
ATOM     43  C   UNL     1      -6.565  10.543   0.734  1.00  0.00     0.029 A 
ATOM     44  N   UNL     1      -6.848  11.809   2.556  1.00  0.00    -0.354 N 
ATOM     45  C   UNL     1      -3.848  14.678   3.755  1.00  0.00     0.074 A 
ATOM     46  C   UNL     1      -2.720  14.660   2.849  1.00  0.00     0.031 C 
ATOM     47  C   UNL     1      -7.730  10.185   1.296  1.00  0.00     0.029 A 
ATOM     48  C   UNL     1      -7.944  10.983   2.499  1.00  0.00     0.049 A 
ATOM     49  H   UNL     1      -6.710  12.473   3.269  1.00  0.00     0.167 HD
ATOM     50  C   UNL     1      -3.946  15.483   4.840  1.00  0.00     0.037 A 
ATOM     51  C   UNL     1      -9.002  10.883   3.326  1.00  0.00     0.037 A 
ATOM     52  C   UNL     1      -5.082  15.516   5.725  1.00  0.00     0.049 A 
ATOM     53  C   UNL     1      -9.094  11.800   4.514  1.00  0.00     0.074 A 
ATOM     54  C   UNL     1      -5.306  16.342   6.812  1.00  0.00     0.029 A 
ATOM     55  N   UNL     1      -6.185  14.681   5.623  1.00  0.00    -0.354 N 
ATOM     56  N   UNL     1      -8.253  12.722   4.915  1.00  0.00    -0.248 NA
ATOM     57  C   UNL     1     -10.289  11.669   5.358  1.00  0.00     0.031 C 
ATOM     58  C   UNL     1      -6.524  15.976   7.397  1.00  0.00     0.029 A 
ATOM     59  C   UNL     1      -7.083  14.957   6.642  1.00  0.00     0.049 A 
ATOM     60  H   UNL     1      -6.312  13.994   4.929  1.00  0.00     0.167 HD
ATOM     61  C   UNL     1      -8.826  13.298   6.041  1.00  0.00     0.074 A 
ATOM     62  C   UNL     1     -10.097  12.634   6.246  1.00  0.00     0.031 C 
ATOM     63  C   UNL     1      -8.344  14.286   6.834  1.00  0.00     0.037 A 
BRANCH  50  64
ATOM     64  C   UNL     1      -2.792  16.400   5.131  1.00  0.00     0.064 A 
ATOM     65  C   UNL     1      -2.497  17.498   4.309  1.00  0.00     0.173 A 
ATOM     66  C   UNL     1      -1.990  16.198   6.266  1.00  0.00     0.173 A 
ATOM     67  F   UNL     1      -3.225  17.729   3.205  1.00  0.00    -0.203 F 
ATOM     68  C   UNL     1      -1.427  18.342   4.593  1.00  0.00     0.198 A 
ATOM     69  C   UNL     1      -0.940  17.062   6.564  1.00  0.00     0.198 A 
ATOM     70  F   UNL     1      -2.231  15.167   7.089  1.00  0.00    -0.203 F 
ATOM     71  F   UNL     1      -1.135  19.354   3.765  1.00  0.00    -0.200 F 
ATOM     72  C   UNL     1      -0.654  18.128   5.724  1.00  0.00     0.200 A 
ATOM     73  F   UNL     1      -0.202  16.862   7.665  1.00  0.00    -0.200 F 
ATOM     74  F   UNL     1       0.372  18.945   6.001  1.00  0.00    -0.200 F 
ENDBRANCH  50  64
BRANCH  51  75
ATOM     75  C   UNL     1     -10.075   9.896   3.037  1.00  0.00     0.064 A 
ATOM     76  C   UNL     1     -11.347  10.316   2.624  1.00  0.00     0.173 A 
ATOM     77  C   UNL     1      -9.852   8.518   3.167  1.00  0.00     0.173 A 
ATOM     78  F   UNL     1     -11.613  11.625   2.504  1.00  0.00    -0.203 F 
ATOM     79  C   UNL     1     -12.362   9.396   2.372  1.00  0.00     0.198 A 
ATOM     80  C   UNL     1     -10.860   7.597   2.887  1.00  0.00     0.198 A 
ATOM     81  F   UNL     1      -8.650   8.064   3.552  1.00  0.00    -0.203 F 
ATOM     82  F   UNL     1     -13.582   9.827   2.023  1.00  0.00    -0.200 F 
ATOM     83  C   UNL     1     -12.116   8.037   2.498  1.00  0.00     0.200 A 
ATOM     84  F   UNL     1     -10.614   6.285   2.994  1.00  0.00    -0.200 F 
ATOM     85  F   UNL     1     -13.091   7.152   2.251  1.00  0.00    -0.200 F 
ENDBRANCH  51  75
BRANCH  63  86
ATOM     86  C   UNL     1      -9.208  14.726   7.980  1.00  0.00     0.064 A 
ATOM     87  C   UNL     1      -9.412  13.910   9.103  1.00  0.00     0.173 A 
ATOM     88  C   UNL     1      -9.822  15.987   7.964  1.00  0.00     0.173 A 
ATOM     89  F   UNL     1      -8.859  12.689   9.160  1.00  0.00    -0.203 F 
ATOM     90  C   UNL     1     -10.227  14.328  10.152  1.00  0.00     0.198 A 
ATOM     91  C   UNL     1     -10.610  16.415   9.029  1.00  0.00     0.198 A 
ATOM     92  F   UNL     1      -9.653  16.809   6.917  1.00  0.00    -0.203 F 
ATOM     93  F   UNL     1     -10.453  13.509  11.189  1.00  0.00    -0.200 F 
ATOM     94  C   UNL     1     -10.820  15.581  10.118  1.00  0.00     0.200 A 
ATOM     95  F   UNL     1     -11.171  17.631   9.000  1.00  0.00    -0.200 F 
ATOM     96  F   UNL     1     -11.602  15.982  11.129  1.00  0.00    -0.200 F 
ENDBRANCH  63  86
ENDBRANCH  37  38
ENDBRANCH  29  32
ENDBRANCH  27  28
ENDBRANCH  26  27
ENDBRANCH  25  26
ENDBRANCH   1  25
TORSDOF 16
