REMARK SMILES CC(/C=C1\SC(=S)N(CC(=O)NCC(=O)NCCCCCCNC(=O)c2ccc(-c3c4nc(c(-c5c(F)c(F)c(F)c(F)c5F)c5ccc([nH]5)c(-c5c(F)c(F)c(F)c(F)c5F)c5nc(c(-c6c(F)c(F)c(F)c(F)c6F)c6ccc3[nH]6)C=C5)C=C4)cc2)C1=O)=C\c1ccccc1
REMARK SMILES IDX 18 1 17 2 16 3 14 4 15 5 13 7 12 8 10 9 11 10 9 12 8 13 3 14
REMARK SMILES IDX 4 15 5 16 89 17 6 18 90 19 7 20 2 21 1 22 91 23 92 24 93 25
REMARK SMILES IDX 97 26 94 27 96 28 95 29 19 30 20 31 21 32 22 33 23 34 24 35
REMARK SMILES IDX 25 37 26 38 27 39 88 40 28 41 87 42 29 43 30 44 31 45 81 46
REMARK SMILES IDX 32 47 86 48 80 49 82 50 33 51 85 52 79 53 78 54 34 56 66 57
REMARK SMILES IDX 46 58 65 59 47 60 50 61 64 62 83 63 48 64 49 65 63 67 84 68
REMARK SMILES IDX 51 69 35 70 36 71 44 72 37 73 38 74 42 75 45 76 39 77 40 78
REMARK SMILES IDX 43 79 41 80 67 81 68 82 76 83 69 84 70 85 74 86 77 87 71 88
REMARK SMILES IDX 72 89 75 90 73 91 52 92 53 93 61 94 54 95 55 96 59 97 62 98
REMARK SMILES IDX 56 99 57 100 60 101 58 102
REMARK H PARENT 16 6 12 11 23 36 82 55 50 66
REMARK Flexibility Score: inf
ROOT
ATOM      1  C   UNL     1      -3.221  -0.677   4.490  1.00  0.00     0.021 C 
ENDROOT
BRANCH   1   2
ATOM      2  C   UNL     1      -3.461  -0.419   3.007  1.00  0.00     0.116 C 
BRANCH   2   3
ATOM      3  N   UNL     1      -4.667  -1.043   2.515  1.00  0.00    -0.355 N 
ATOM      4  C   UNL     1      -5.768  -0.463   1.952  1.00  0.00     0.239 C 
ATOM      5  O   UNL     1      -6.596  -1.204   1.416  1.00  0.00    -0.273 OA
ATOM      6  H   UNL     1      -4.701  -2.023   2.596  1.00  0.00     0.163 HD
BRANCH   4   7
ATOM      7  C   UNL     1      -5.880   1.066   1.819  1.00  0.00     0.216 C 
BRANCH   7   8
ATOM      8  N   UNL     1      -5.553   1.812   3.024  1.00  0.00    -0.345 N 
ATOM      9  C   UNL     1      -4.775   2.907   3.237  1.00  0.00     0.240 C 
ATOM     10  O   UNL     1      -4.799   3.374   4.381  1.00  0.00    -0.273 OA
ATOM     11  H   UNL     1      -5.975   1.457   3.839  1.00  0.00     0.164 HD
BRANCH   9  12
ATOM     12  C   UNL     1      -4.028   3.654   2.117  1.00  0.00     0.227 C 
BRANCH  12  13
ATOM     13  N   UNL     1      -3.133   2.873   1.255  1.00  0.00    -0.283 N 
ATOM     14  C   UNL     1      -0.086   0.912   1.123  1.00  0.00     0.024 C 
ATOM     15  C   UNL     1      -1.188   1.603   0.791  1.00  0.00     0.080 C 
ATOM     16  S   UNL     1      -2.000   1.660  -0.717  1.00  0.00    -0.054 SA
ATOM     17  C   UNL     1      -1.958   2.382   1.806  1.00  0.00     0.266 C 
ATOM     18  C   UNL     1      -3.274   2.709  -0.106  1.00  0.00     0.148 C 
ATOM     19  O   UNL     1      -1.605   2.508   2.966  1.00  0.00    -0.268 OA
ATOM     20  S   UNL     1      -4.432   3.360  -1.115  1.00  0.00    -0.052 S 
BRANCH  14  21
ATOM     21  C   UNL     1       0.737   0.030   0.295  1.00  0.00    -0.049 C 
ATOM     22  C   UNL     1       1.237   0.546  -1.026  1.00  0.00     0.044 C 
ATOM     23  C   UNL     1       1.030  -1.200   0.766  1.00  0.00     0.011 C 
BRANCH  23  24
ATOM     24  C   UNL     1       1.849  -2.245   0.136  1.00  0.00    -0.025 A 
ATOM     25  C   UNL     1       1.300  -3.524  -0.030  1.00  0.00     0.008 A 
ATOM     26  C   UNL     1       3.188  -2.033  -0.208  1.00  0.00     0.008 A 
ATOM     27  C   UNL     1       2.065  -4.560  -0.570  1.00  0.00     0.001 A 
ATOM     28  C   UNL     1       3.951  -3.068  -0.755  1.00  0.00     0.001 A 
ATOM     29  C   UNL     1       3.388  -4.329  -0.939  1.00  0.00     0.000 A 
ENDBRANCH  23  24
ENDBRANCH  14  21
ENDBRANCH  12  13
ENDBRANCH   9  12
ENDBRANCH   7   8
ENDBRANCH   4   7
ENDBRANCH   2   3
ENDBRANCH   1   2
BRANCH   1  30
ATOM     30  C   UNL     1      -2.457  -1.974   4.778  1.00  0.00     0.002 C 
BRANCH  30  31
ATOM     31  C   UNL     1      -1.075  -2.084   4.118  1.00  0.00     0.002 C 
BRANCH  31  32
ATOM     32  C   UNL     1      -0.113  -0.937   4.434  1.00  0.00     0.021 C 
BRANCH  32  33
ATOM     33  C   UNL     1       0.431  -0.950   5.854  1.00  0.00     0.116 C 
BRANCH  33  34
ATOM     34  N   UNL     1       1.407  -2.018   6.035  1.00  0.00    -0.352 N 
ATOM     35  C   UNL     1       2.758  -1.963   6.272  1.00  0.00     0.251 C 
ATOM     36  H   UNL     1       1.035  -2.928   5.979  1.00  0.00     0.163 HD
ATOM     37  O   UNL     1       3.434  -2.982   6.151  1.00  0.00    -0.269 OA
BRANCH  35  38
ATOM     38  C   UNL     1       3.417  -0.696   6.671  1.00  0.00     0.039 A 
ATOM     39  C   UNL     1       4.728  -0.447   6.248  1.00  0.00     0.014 A 
ATOM     40  C   UNL     1       2.781   0.217   7.513  1.00  0.00     0.014 A 
ATOM     41  C   UNL     1       5.380   0.729   6.635  1.00  0.00     0.010 A 
ATOM     42  C   UNL     1       3.390   1.431   7.814  1.00  0.00     0.010 A 
ATOM     43  C   UNL     1       4.707   1.689   7.404  1.00  0.00    -0.014 A 
BRANCH  43  44
ATOM     44  C   UNL     1       5.361   2.940   7.869  1.00  0.00     0.031 A 
ATOM     45  C   UNL     1       5.491   3.195   9.348  1.00  0.00     0.074 A 
ATOM     46  C   UNL     1       5.748   3.880   6.987  1.00  0.00     0.049 A 
ATOM     47  N   UNL     1       5.836   4.289   9.978  1.00  0.00    -0.248 NA
ATOM     48  C   UNL     1       5.142   2.077  10.240  1.00  0.00     0.031 C 
ATOM     49  C   UNL     1       5.652   3.769   5.531  1.00  0.00     0.029 A 
ATOM     50  N   UNL     1       6.280   5.129   7.191  1.00  0.00    -0.354 N 
ATOM     51  C   UNL     1       5.696   4.005  11.331  1.00  0.00     0.074 A 
ATOM     52  C   UNL     1       5.197   2.651  11.431  1.00  0.00     0.031 C 
ATOM     53  C   UNL     1       6.121   4.898   4.973  1.00  0.00     0.029 A 
ATOM     54  C   UNL     1       6.507   5.828   6.030  1.00  0.00     0.049 A 
ATOM     55  H   UNL     1       6.480   5.490   8.085  1.00  0.00     0.167 HD
ATOM     56  C   UNL     1       5.977   4.794  12.395  1.00  0.00     0.037 A 
ATOM     57  C   UNL     1       6.958   7.083   5.844  1.00  0.00     0.037 A 
ATOM     58  C   UNL     1       6.536   6.115  12.291  1.00  0.00     0.049 A 
ATOM     59  C   UNL     1       7.298   7.929   7.042  1.00  0.00     0.074 A 
ATOM     60  C   UNL     1       6.917   6.974  13.307  1.00  0.00     0.029 A 
ATOM     61  N   UNL     1       6.809   6.761  11.095  1.00  0.00    -0.354 N 
ATOM     62  N   UNL     1       7.193   7.639   8.316  1.00  0.00    -0.248 NA
ATOM     63  C   UNL     1       7.824   9.276   6.776  1.00  0.00     0.031 C 
ATOM     64  C   UNL     1       7.396   8.152  12.725  1.00  0.00     0.029 A 
ATOM     65  C   UNL     1       7.352   8.009  11.347  1.00  0.00     0.049 A 
ATOM     66  H   UNL     1       6.641   6.388  10.199  1.00  0.00     0.167 HD
ATOM     67  C   UNL     1       7.672   8.748   9.001  1.00  0.00     0.074 A 
ATOM     68  C   UNL     1       8.071   9.717   8.002  1.00  0.00     0.031 C 
ATOM     69  C   UNL     1       7.774   8.944  10.337  1.00  0.00     0.037 A 
BRANCH  56  70
ATOM     70  C   UNL     1       5.693   4.246  13.763  1.00  0.00     0.064 A 
ATOM     71  C   UNL     1       6.454   3.203  14.312  1.00  0.00     0.173 A 
ATOM     72  C   UNL     1       4.665   4.790  14.547  1.00  0.00     0.173 A 
ATOM     73  F   UNL     1       7.441   2.640  13.599  1.00  0.00    -0.203 F 
ATOM     74  C   UNL     1       6.175   2.704  15.582  1.00  0.00     0.198 A 
ATOM     75  C   UNL     1       4.409   4.310  15.829  1.00  0.00     0.198 A 
ATOM     76  F   UNL     1       3.910   5.794  14.074  1.00  0.00    -0.203 F 
ATOM     77  F   UNL     1       6.882   1.672  16.063  1.00  0.00    -0.200 F 
ATOM     78  C   UNL     1       5.158   3.262  16.341  1.00  0.00     0.200 A 
ATOM     79  F   UNL     1       3.435   4.859  16.567  1.00  0.00    -0.200 F 
ATOM     80  F   UNL     1       4.896   2.784  17.566  1.00  0.00    -0.200 F 
ENDBRANCH  56  70
BRANCH  57  81
ATOM     81  C   UNL     1       7.143   7.607   4.466  1.00  0.00     0.064 A 
ATOM     82  C   UNL     1       8.429   7.812   3.945  1.00  0.00     0.173 A 
ATOM     83  C   UNL     1       6.050   7.913   3.644  1.00  0.00     0.173 A 
ATOM     84  F   UNL     1       9.505   7.553   4.702  1.00  0.00    -0.203 F 
ATOM     85  C   UNL     1       8.614   8.320   2.662  1.00  0.00     0.198 A 
ATOM     86  C   UNL     1       6.236   8.397   2.350  1.00  0.00     0.198 A 
ATOM     87  F   UNL     1       4.799   7.730   4.092  1.00  0.00    -0.203 F 
ATOM     88  F   UNL     1       9.853   8.546   2.205  1.00  0.00    -0.200 F 
ATOM     89  C   UNL     1       7.517   8.608   1.863  1.00  0.00     0.200 A 
ATOM     90  F   UNL     1       5.174   8.661   1.576  1.00  0.00    -0.200 F 
ATOM     91  F   UNL     1       7.695   9.093   0.627  1.00  0.00    -0.200 F 
ENDBRANCH  57  81
BRANCH  69  92
ATOM     92  C   UNL     1       8.399  10.224  10.805  1.00  0.00     0.064 A 
ATOM     93  C   UNL     1       7.708  11.443  10.754  1.00  0.00     0.173 A 
ATOM     94  C   UNL     1       9.680  10.214  11.376  1.00  0.00     0.173 A 
ATOM     95  F   UNL     1       6.486  11.504  10.204  1.00  0.00    -0.203 F 
ATOM     96  C   UNL     1       8.284  12.610  11.248  1.00  0.00     0.198 A 
ATOM     97  C   UNL     1      10.243  11.377  11.892  1.00  0.00     0.198 A 
ATOM     98  F   UNL     1      10.377   9.070  11.453  1.00  0.00    -0.203 F 
ATOM     99  F   UNL     1       7.620  13.771  11.163  1.00  0.00    -0.200 F 
ATOM    100  C   UNL     1       9.546  12.574  11.824  1.00  0.00     0.200 A 
ATOM    101  F   UNL     1      11.456  11.339  12.459  1.00  0.00    -0.200 F 
ATOM    102  F   UNL     1      10.092  13.697  12.312  1.00  0.00    -0.200 F 
ENDBRANCH  69  92
ENDBRANCH  43  44
ENDBRANCH  35  38
ENDBRANCH  33  34
ENDBRANCH  32  33
ENDBRANCH  31  32
ENDBRANCH  30  31
ENDBRANCH   1  30
TORSDOF 18
