REMARK SMILES Cc1noc(C)c1C[NH2+][C@H](C)[C@H](C)C(=O)NCCCCCCNC(=O)c1ccc(-c2c3nc(c(-c4c(F)c(F)c(F)c(F)c4F)c4ccc([nH]4)c(-c4c(F)c(F)c(F)c(F)c4F)c4nc(c(-c5c(F)c(F)c(F)c(F)c5F)c5ccc2[nH]5)C=C4)C=C3)cc1
REMARK SMILES IDX 18 1 17 2 16 3 14 4 15 5 12 7 13 8 10 9 11 10 9 11 8 14 7 15
REMARK SMILES IDX 1 16 2 17 3 18 4 19 5 20 6 21 19 22 20 23 21 24 22 25 23 26
REMARK SMILES IDX 24 27 25 29 26 30 27 31 88 32 28 33 87 34 29 35 30 36 31 37
REMARK SMILES IDX 81 38 32 39 86 40 80 41 82 42 33 43 85 44 79 45 78 46 34 48
REMARK SMILES IDX 66 49 46 50 65 51 47 52 50 53 64 54 83 55 48 56 49 57 63 59
REMARK SMILES IDX 84 60 51 61 35 62 36 63 44 64 37 65 38 66 42 67 45 68 39 69
REMARK SMILES IDX 40 70 43 71 41 72 67 73 68 74 76 75 69 76 70 77 74 78 77 79
REMARK SMILES IDX 71 80 72 81 75 82 73 83 52 84 53 85 61 86 54 87 55 88 59 89
REMARK SMILES IDX 62 90 56 91 57 92 60 93 58 94
REMARK H PARENT 16 6 9 12 9 13 23 28 82 47 50 58
REMARK Flexibility Score: inf
ROOT
ATOM      1  C   UNL     1      -1.868   7.257   1.145  1.00  0.00     0.021 C 
ENDROOT
BRANCH   1   2
ATOM      2  C   UNL     1      -2.482   6.621  -0.098  1.00  0.00     0.116 C 
BRANCH   2   3
ATOM      3  N   UNL     1      -1.878   7.122  -1.315  1.00  0.00    -0.356 N 
ATOM      4  C   UNL     1      -1.418   6.476  -2.418  1.00  0.00     0.228 C 
ATOM      5  O   UNL     1      -0.955   7.168  -3.328  1.00  0.00    -0.275 OA
ATOM      6  H   UNL     1      -1.783   8.102  -1.349  1.00  0.00     0.163 HD
BRANCH   4   7
ATOM      7  C   UNL     1      -1.481   4.957  -2.556  1.00  0.00     0.133 C 
ATOM      8  C   UNL     1      -0.615   4.266  -1.497  1.00  0.00     0.024 C 
BRANCH   7   9
ATOM      9  C   UNL     1      -2.942   4.450  -2.629  1.00  0.00     0.191 C 
ATOM     10  C   UNL     1      -3.691   5.081  -3.811  1.00  0.00     0.076 C 
BRANCH   9  11
ATOM     11  N   UNL     1      -3.030   2.991  -2.804  1.00  0.00    -0.339 N 
ATOM     12  H   UNL     1      -3.465   2.793  -3.705  1.00  0.00     0.346 HD
ATOM     13  H   UNL     1      -2.085   2.611  -2.757  1.00  0.00     0.346 HD
BRANCH  11  14
ATOM     14  C   UNL     1      -3.821   2.358  -1.752  1.00  0.00     0.303 C 
BRANCH  14  15
ATOM     15  C   UNL     1      -3.983   0.922  -2.084  1.00  0.00     0.071 A 
ATOM     16  C   UNL     1      -5.467   1.052  -4.229  1.00  0.00     0.071 C 
ATOM     17  C   UNL     1      -4.715   0.350  -3.162  1.00  0.00     0.090 A 
ATOM     18  N   UNL     1      -4.668  -0.987  -3.133  1.00  0.00    -0.085 NA
ATOM     19  O   UNL     1      -3.900  -1.312  -2.033  1.00  0.00    -0.361 OA
ATOM     20  C   UNL     1      -3.495  -0.176  -1.408  1.00  0.00     0.142 A 
ATOM     21  C   UNL     1      -2.672  -0.355  -0.197  1.00  0.00     0.091 C 
ENDBRANCH  14  15
ENDBRANCH  11  14
ENDBRANCH   9  11
ENDBRANCH   7   9
ENDBRANCH   4   7
ENDBRANCH   2   3
ENDBRANCH   1   2
BRANCH   1  22
ATOM     22  C   UNL     1      -2.136   8.758   1.298  1.00  0.00     0.002 C 
BRANCH  22  23
ATOM     23  C   UNL     1      -3.611   9.170   1.283  1.00  0.00     0.002 C 
BRANCH  23  24
ATOM     24  C   UNL     1      -4.514   8.441   2.281  1.00  0.00     0.021 C 
BRANCH  24  25
ATOM     25  C   UNL     1      -4.057   8.493   3.735  1.00  0.00     0.116 C 
BRANCH  25  26
ATOM     26  N   UNL     1      -3.970   9.847   4.249  1.00  0.00    -0.352 N 
ATOM     27  C   UNL     1      -4.345  10.340   5.469  1.00  0.00     0.251 C 
ATOM     28  H   UNL     1      -3.586  10.508   3.628  1.00  0.00     0.163 HD
ATOM     29  O   UNL     1      -4.310  11.556   5.672  1.00  0.00    -0.269 OA
BRANCH  27  30
ATOM     30  C   UNL     1      -4.810   9.438   6.545  1.00  0.00     0.039 A 
ATOM     31  C   UNL     1      -5.889   9.847   7.334  1.00  0.00     0.014 A 
ATOM     32  C   UNL     1      -4.164   8.228   6.822  1.00  0.00     0.014 A 
ATOM     33  C   UNL     1      -6.335   9.038   8.381  1.00  0.00     0.010 A 
ATOM     34  C   UNL     1      -4.650   7.391   7.826  1.00  0.00     0.010 A 
ATOM     35  C   UNL     1      -5.725   7.799   8.630  1.00  0.00    -0.014 A 
BRANCH  35  36
ATOM     36  C   UNL     1      -6.172   6.953   9.764  1.00  0.00     0.031 A 
ATOM     37  C   UNL     1      -5.266   6.736  10.945  1.00  0.00     0.074 A 
ATOM     38  C   UNL     1      -7.381   6.363   9.724  1.00  0.00     0.049 A 
ATOM     39  N   UNL     1      -5.473   6.034  12.032  1.00  0.00    -0.248 NA
ATOM     40  C   UNL     1      -3.939   7.369  10.886  1.00  0.00     0.031 C 
ATOM     41  C   UNL     1      -8.329   6.454   8.614  1.00  0.00     0.029 A 
ATOM     42  N   UNL     1      -8.018   5.569  10.644  1.00  0.00    -0.354 N 
ATOM     43  C   UNL     1      -4.303   6.131  12.773  1.00  0.00     0.074 A 
ATOM     44  C   UNL     1      -3.370   6.914  11.992  1.00  0.00     0.031 C 
ATOM     45  C   UNL     1      -9.439   5.766   8.928  1.00  0.00     0.029 A 
ATOM     46  C   UNL     1      -9.273   5.172  10.252  1.00  0.00     0.049 A 
ATOM     47  H   UNL     1      -7.615   5.309  11.504  1.00  0.00     0.167 HD
ATOM     48  C   UNL     1      -4.037   5.634  14.005  1.00  0.00     0.037 A 
ATOM     49  C   UNL     1     -10.189   4.425  10.896  1.00  0.00     0.037 A 
ATOM     50  C   UNL     1      -4.977   4.886  14.797  1.00  0.00     0.049 A 
ATOM     51  C   UNL     1      -9.888   3.925  12.282  1.00  0.00     0.074 A 
ATOM     52  C   UNL     1      -4.823   4.380  16.076  1.00  0.00     0.029 A 
ATOM     53  N   UNL     1      -6.256   4.543  14.384  1.00  0.00    -0.354 N 
ATOM     54  N   UNL     1      -8.802   4.077  13.000  1.00  0.00    -0.248 NA
ATOM     55  C   UNL     1     -10.951   3.166  12.956  1.00  0.00     0.031 C 
ATOM     56  C   UNL     1      -5.999   3.707  16.426  1.00  0.00     0.029 A 
ATOM     57  C   UNL     1      -6.900   3.828  15.380  1.00  0.00     0.049 A 
ATOM     58  H   UNL     1      -6.649   4.774  13.511  1.00  0.00     0.167 HD
ATOM     59  C   UNL     1      -9.060   3.462  14.217  1.00  0.00     0.074 A 
ATOM     60  C   UNL     1     -10.411   2.946  14.146  1.00  0.00     0.031 C 
ATOM     61  C   UNL     1      -8.250   3.335  15.297  1.00  0.00     0.037 A 
BRANCH  48  62
ATOM     62  C   UNL     1      -2.673   5.894  14.574  1.00  0.00     0.064 A 
ATOM     63  C   UNL     1      -2.286   7.175  14.996  1.00  0.00     0.173 A 
ATOM     64  C   UNL     1      -1.749   4.848  14.718  1.00  0.00     0.173 A 
ATOM     65  F   UNL     1      -3.127   8.211  14.866  1.00  0.00    -0.203 F 
ATOM     66  C   UNL     1      -1.013   7.405  15.512  1.00  0.00     0.198 A 
ATOM     67  C   UNL     1      -0.487   5.077  15.262  1.00  0.00     0.198 A 
ATOM     68  F   UNL     1      -2.070   3.604  14.334  1.00  0.00    -0.203 F 
ATOM     69  F   UNL     1      -0.648   8.647  15.860  1.00  0.00    -0.200 F 
ATOM     70  C   UNL     1      -0.118   6.356  15.650  1.00  0.00     0.200 A 
ATOM     71  F   UNL     1       0.374   4.060  15.403  1.00  0.00    -0.200 F 
ATOM     72  F   UNL     1       1.106   6.579  16.149  1.00  0.00    -0.200 F 
ENDBRANCH  48  62
BRANCH  49  73
ATOM     73  C   UNL     1     -11.501   4.151  10.257  1.00  0.00     0.064 A 
ATOM     74  C   UNL     1     -12.669   4.770  10.724  1.00  0.00     0.173 A 
ATOM     75  C   UNL     1     -11.616   3.270   9.174  1.00  0.00     0.173 A 
ATOM     76  F   UNL     1     -12.611   5.606  11.771  1.00  0.00    -0.203 F 
ATOM     77  C   UNL     1     -13.907   4.501  10.144  1.00  0.00     0.198 A 
ATOM     78  C   UNL     1     -12.851   3.020   8.579  1.00  0.00     0.198 A 
ATOM     79  F   UNL     1     -10.526   2.659   8.687  1.00  0.00    -0.203 F 
ATOM     80  F   UNL     1     -15.014   5.073  10.637  1.00  0.00    -0.200 F 
ATOM     81  C   UNL     1     -13.996   3.630   9.069  1.00  0.00     0.200 A 
ATOM     82  F   UNL     1     -12.932   2.188   7.532  1.00  0.00    -0.200 F 
ATOM     83  F   UNL     1     -15.186   3.373   8.510  1.00  0.00    -0.200 F 
ENDBRANCH  49  73
BRANCH  61  84
ATOM     84  C   UNL     1      -8.820   2.647  16.501  1.00  0.00     0.064 A 
ATOM     85  C   UNL     1      -9.032   1.261  16.526  1.00  0.00     0.173 A 
ATOM     86  C   UNL     1      -9.139   3.382  17.653  1.00  0.00     0.173 A 
ATOM     87  F   UNL     1      -8.757   0.517  15.443  1.00  0.00    -0.203 F 
ATOM     88  C   UNL     1      -9.572   0.640  17.649  1.00  0.00     0.198 A 
ATOM     89  C   UNL     1      -9.653   2.755  18.784  1.00  0.00     0.198 A 
ATOM     90  F   UNL     1      -8.948   4.710  17.681  1.00  0.00    -0.203 F 
ATOM     91  F   UNL     1      -9.814  -0.678  17.632  1.00  0.00    -0.200 F 
ATOM     92  C   UNL     1      -9.877   1.386  18.778  1.00  0.00     0.200 A 
ATOM     93  F   UNL     1      -9.938   3.475  19.877  1.00  0.00    -0.200 F 
ATOM     94  F   UNL     1     -10.396   0.787  19.858  1.00  0.00    -0.200 F 
ENDBRANCH  61  84
ENDBRANCH  35  36
ENDBRANCH  27  30
ENDBRANCH  25  26
ENDBRANCH  24  25
ENDBRANCH  23  24
ENDBRANCH  22  23
ENDBRANCH   1  22
TORSDOF 17
