REMARK SMILES [NH3+]CCOCC(=O)N[C@H](C(=O)NCCCCCCNC(=O)c1ccc(-c2c3nc(c(-c4c(F)c(F)c(F)c(F)c4F)c4ccc([nH]4)c(-c4c(F)c(F)c(F)c(F)c4F)c4nc(c(-c5c(F)c(F)c(F)c(F)c5F)c5ccc2[nH]5)C=C4)C=C3)cc1)c1ccccc1
REMARK SMILES IDX 13 1 12 2 10 3 11 4 9 6 8 7 6 8 7 9 5 11 4 12 3 13 2 14 1 15
REMARK SMILES IDX 85 19 86 20 90 21 87 22 89 23 88 24 14 25 15 26 16 27 17 28
REMARK SMILES IDX 18 29 19 30 20 31 21 33 22 34 23 35 84 36 24 37 83 38 25 39
REMARK SMILES IDX 26 40 27 41 77 42 28 43 82 44 76 45 78 46 29 47 81 48 75 49
REMARK SMILES IDX 74 50 30 52 62 53 42 54 61 55 43 56 46 57 60 58 79 59 44 60
REMARK SMILES IDX 45 61 59 63 80 64 47 65 31 66 32 67 40 68 33 69 34 70 38 71
REMARK SMILES IDX 41 72 35 73 36 74 39 75 37 76 63 77 64 78 72 79 65 80 66 81
REMARK SMILES IDX 70 82 73 83 67 84 68 85 71 86 69 87 48 88 49 89 57 90 50 91
REMARK SMILES IDX 51 92 55 93 58 94 52 95 53 96 56 97 54 98
REMARK H PARENT 12 5 8 10 1 16 1 17 1 18 19 32 78 51 46 62
REMARK Flexibility Score: inf
ROOT
ATOM      1  C   UNL     1       2.183  -0.399  -2.780  1.00  0.00     0.116 C 
ENDROOT
BRANCH   1   2
ATOM      2  N   UNL     1       3.080  -1.297  -2.080  1.00  0.00    -0.354 N 
ATOM      3  C   UNL     1       3.336  -2.628  -2.281  1.00  0.00     0.247 C 
ATOM      4  O   UNL     1       3.890  -3.216  -1.350  1.00  0.00    -0.272 OA
ATOM      5  H   UNL     1       3.587  -0.886  -1.343  1.00  0.00     0.163 HD
BRANCH   3   6
ATOM      6  C   UNL     1       2.768  -3.336  -3.539  1.00  0.00     0.202 C 
BRANCH   6   7
ATOM      7  N   UNL     1       2.954  -2.609  -4.800  1.00  0.00    -0.339 N 
ATOM      8  C   UNL     1       4.073  -2.283  -5.496  1.00  0.00     0.246 C 
ATOM      9  O   UNL     1       3.933  -1.605  -6.519  1.00  0.00    -0.272 OA
ATOM     10  H   UNL     1       2.116  -2.301  -5.216  1.00  0.00     0.164 HD
BRANCH   8  11
ATOM     11  C   UNL     1       5.468  -2.721  -5.040  1.00  0.00     0.260 C 
BRANCH  11  12
ATOM     12  O   UNL     1       5.913  -2.305  -3.765  1.00  0.00    -0.366 OA
BRANCH  12  13
ATOM     13  C   UNL     1       6.038  -0.892  -3.598  1.00  0.00     0.222 C 
BRANCH  13  14
ATOM     14  C   UNL     1       7.421  -0.343  -3.982  1.00  0.00     0.287 C 
BRANCH  14  15
ATOM     15  N   UNL     1       7.677  -0.273  -5.421  1.00  0.00    -0.356 N 
ATOM     16  H   UNL     1       8.613   0.101  -5.582  1.00  0.00     0.344 HD
ATOM     17  H   UNL     1       6.988   0.337  -5.860  1.00  0.00     0.344 HD
ATOM     18  H   UNL     1       7.610  -1.207  -5.825  1.00  0.00     0.344 HD
ENDBRANCH  14  15
ENDBRANCH  13  14
ENDBRANCH  12  13
ENDBRANCH  11  12
ENDBRANCH   8  11
ENDBRANCH   6   7
BRANCH   6  19
ATOM     19  C   UNL     1       3.026  -4.827  -3.667  1.00  0.00    -0.016 A 
ATOM     20  C   UNL     1       1.993  -5.669  -4.120  1.00  0.00     0.006 A 
ATOM     21  C   UNL     1       4.261  -5.411  -3.352  1.00  0.00     0.006 A 
ATOM     22  C   UNL     1       2.190  -7.045  -4.245  1.00  0.00     0.000 A 
ATOM     23  C   UNL     1       4.465  -6.785  -3.498  1.00  0.00     0.000 A 
ATOM     24  C   UNL     1       3.429  -7.601  -3.941  1.00  0.00     0.000 A 
ENDBRANCH   6  19
ENDBRANCH   3   6
ENDBRANCH   1   2
BRANCH   1  25
ATOM     25  C   UNL     1       1.229   0.290  -1.803  1.00  0.00     0.021 C 
BRANCH  25  26
ATOM     26  C   UNL     1       1.915   1.141  -0.727  1.00  0.00     0.002 C 
BRANCH  26  27
ATOM     27  C   UNL     1       2.803   2.269  -1.258  1.00  0.00     0.002 C 
BRANCH  27  28
ATOM     28  C   UNL     1       2.091   3.287  -2.152  1.00  0.00     0.021 C 
BRANCH  28  29
ATOM     29  C   UNL     1       0.863   3.945  -1.530  1.00  0.00     0.116 C 
BRANCH  29  30
ATOM     30  N   UNL     1       1.177   4.685  -0.319  1.00  0.00    -0.352 N 
ATOM     31  C   UNL     1       0.777   5.939   0.063  1.00  0.00     0.251 C 
ATOM     32  H   UNL     1       1.763   4.218   0.320  1.00  0.00     0.163 HD
ATOM     33  O   UNL     1       1.269   6.463   1.063  1.00  0.00    -0.269 OA
BRANCH  31  34
ATOM     34  C   UNL     1      -0.224   6.680  -0.733  1.00  0.00     0.039 A 
ATOM     35  C   UNL     1      -0.008   8.037  -0.982  1.00  0.00     0.014 A 
ATOM     36  C   UNL     1      -1.377   6.054  -1.217  1.00  0.00     0.014 A 
ATOM     37  C   UNL     1      -0.919   8.753  -1.760  1.00  0.00     0.010 A 
ATOM     38  C   UNL     1      -2.248   6.751  -2.053  1.00  0.00     0.010 A 
ATOM     39  C   UNL     1      -2.031   8.109  -2.328  1.00  0.00    -0.014 A 
BRANCH  39  40
ATOM     40  C   UNL     1      -2.963   8.852  -3.214  1.00  0.00     0.031 A 
ATOM     41  C   UNL     1      -4.393   9.076  -2.807  1.00  0.00     0.074 A 
ATOM     42  C   UNL     1      -2.527   9.295  -4.409  1.00  0.00     0.049 A 
ATOM     43  N   UNL     1      -5.346   9.708  -3.446  1.00  0.00    -0.248 NA
ATOM     44  C   UNL     1      -4.816   8.493  -1.525  1.00  0.00     0.031 C 
ATOM     45  C   UNL     1      -1.181   9.085  -4.946  1.00  0.00     0.029 A 
ATOM     46  N   UNL     1      -3.167  10.013  -5.388  1.00  0.00    -0.354 N 
ATOM     47  C   UNL     1      -6.478   9.591  -2.650  1.00  0.00     0.074 A 
ATOM     48  C   UNL     1      -6.110   8.780  -1.510  1.00  0.00     0.031 C 
ATOM     49  C   UNL     1      -1.087   9.688  -6.141  1.00  0.00     0.029 A 
ATOM     50  C   UNL     1      -2.370  10.302  -6.468  1.00  0.00     0.049 A 
ATOM     51  H   UNL     1      -4.108  10.293  -5.322  1.00  0.00     0.167 HD
ATOM     52  C   UNL     1      -7.706  10.133  -2.839  1.00  0.00     0.037 A 
ATOM     53  C   UNL     1      -2.642  10.991  -7.592  1.00  0.00     0.037 A 
ATOM     54  C   UNL     1      -8.064  10.957  -3.964  1.00  0.00     0.049 A 
ATOM     55  C   UNL     1      -4.007  11.598  -7.768  1.00  0.00     0.074 A 
ATOM     56  C   UNL     1      -9.261  11.604  -4.216  1.00  0.00     0.029 A 
ATOM     57  N   UNL     1      -7.223  11.246  -5.030  1.00  0.00    -0.354 N 
ATOM     58  N   UNL     1      -5.045  11.550  -6.969  1.00  0.00    -0.248 NA
ATOM     59  C   UNL     1      -4.231  12.370  -8.998  1.00  0.00     0.031 C 
ATOM     60  C   UNL     1      -9.162  12.245  -5.456  1.00  0.00     0.029 A 
ATOM     61  C   UNL     1      -7.884  12.044  -5.952  1.00  0.00     0.049 A 
ATOM     62  H   UNL     1      -6.295  10.932  -5.119  1.00  0.00     0.167 HD
ATOM     63  C   UNL     1      -6.036  12.302  -7.585  1.00  0.00     0.074 A 
ATOM     64  C   UNL     1      -5.465  12.816  -8.814  1.00  0.00     0.031 C 
ATOM     65  C   UNL     1      -7.305  12.544  -7.173  1.00  0.00     0.037 A 
BRANCH  52  66
ATOM     66  C   UNL     1      -8.754   9.854  -1.800  1.00  0.00     0.064 A 
ATOM     67  C   UNL     1      -8.675  10.401  -0.509  1.00  0.00     0.173 A 
ATOM     68  C   UNL     1      -9.869   9.059  -2.106  1.00  0.00     0.173 A 
ATOM     69  F   UNL     1      -7.624  11.158  -0.160  1.00  0.00    -0.203 F 
ATOM     70  C   UNL     1      -9.655  10.136   0.444  1.00  0.00     0.198 A 
ATOM     71  C   UNL     1     -10.864   8.823  -1.160  1.00  0.00     0.198 A 
ATOM     72  F   UNL     1      -9.998   8.517  -3.326  1.00  0.00    -0.203 F 
ATOM     73  F   UNL     1      -9.531  10.626   1.685  1.00  0.00    -0.200 F 
ATOM     74  C   UNL     1     -10.752   9.354   0.116  1.00  0.00     0.200 A 
ATOM     75  F   UNL     1     -11.929   8.077  -1.483  1.00  0.00    -0.200 F 
ATOM     76  F   UNL     1     -11.698   9.105   1.032  1.00  0.00    -0.200 F 
ENDBRANCH  52  66
BRANCH  53  77
ATOM     77  C   UNL     1      -1.587  11.176  -8.622  1.00  0.00     0.064 A 
ATOM     78  C   UNL     1      -1.014  12.436  -8.848  1.00  0.00     0.173 A 
ATOM     79  C   UNL     1      -1.131  10.103  -9.401  1.00  0.00     0.173 A 
ATOM     80  F   UNL     1      -1.431  13.496  -8.140  1.00  0.00    -0.203 F 
ATOM     81  C   UNL     1      -0.043  12.620  -9.830  1.00  0.00     0.198 A 
ATOM     82  C   UNL     1      -0.139  10.282 -10.363  1.00  0.00     0.198 A 
ATOM     83  F   UNL     1      -1.643   8.876  -9.219  1.00  0.00    -0.203 F 
ATOM     84  F   UNL     1       0.452  13.844 -10.057  1.00  0.00    -0.200 F 
ATOM     85  C   UNL     1       0.398  11.542 -10.582  1.00  0.00     0.200 A 
ATOM     86  F   UNL     1       0.294   9.235 -11.078  1.00  0.00    -0.200 F 
ATOM     87  F   UNL     1       1.334  11.718 -11.524  1.00  0.00    -0.200 F 
ENDBRANCH  53  77
BRANCH  65  88
ATOM     88  C   UNL     1      -8.150  13.425  -8.049  1.00  0.00     0.064 A 
ATOM     89  C   UNL     1      -8.611  12.993  -9.302  1.00  0.00     0.173 A 
ATOM     90  C   UNL     1      -8.509  14.713  -7.625  1.00  0.00     0.173 A 
ATOM     91  F   UNL     1      -8.284  11.775  -9.759  1.00  0.00    -0.203 F 
ATOM     92  C   UNL     1      -9.367  13.834 -10.115  1.00  0.00     0.198 A 
ATOM     93  C   UNL     1      -9.293  15.539  -8.427  1.00  0.00     0.198 A 
ATOM     94  F   UNL     1      -8.101  15.172  -6.433  1.00  0.00    -0.203 F 
ATOM     95  F   UNL     1      -9.742  13.424 -11.334  1.00  0.00    -0.200 F 
ATOM     96  C   UNL     1      -9.711  15.104  -9.675  1.00  0.00     0.200 A 
ATOM     97  F   UNL     1      -9.636  16.760  -7.995  1.00  0.00    -0.200 F 
ATOM     98  F   UNL     1     -10.436  15.912 -10.460  1.00  0.00    -0.200 F 
ENDBRANCH  65  88
ENDBRANCH  39  40
ENDBRANCH  31  34
ENDBRANCH  29  30
ENDBRANCH  28  29
ENDBRANCH  27  28
ENDBRANCH  26  27
ENDBRANCH  25  26
ENDBRANCH   1  25
TORSDOF 20
