REMARK SMILES C[C@]12C=CC(=O)C=C1CC[C@H]1[C@H]2[C@H](O)C[C@]2(C)[C@H]1CC[C@]2(O)C(=O)COC(=O)CCC(=O)NCCCCCCNC(=O)c1ccc(-c2c3nc(c(-c4c(F)c(F)c(F)c(F)c4F)c4ccc([nH]4)c(-c4c(F)c(F)c(F)c(F)c4F)c4nc(c(-c5c(F)c(F)c(F)c(F)c5F)c5ccc2[nH]5)C=C4)C=C3)cc1
REMARK SMILES IDX 34 1 33 2 31 3 32 4 30 6 29 7 27 8 28 9 26 10 25 11 23 12
REMARK SMILES IDX 24 13 21 14 1 15 2 16 3 17 8 18 12 19 4 20 7 21 9 22 11 23
REMARK SMILES IDX 13 24 5 25 10 26 18 27 15 28 6 29 16 30 19 31 17 32 20 33
REMARK SMILES IDX 14 34 22 36 35 38 36 39 37 40 38 41 39 42 40 43 41 44 42 46
REMARK SMILES IDX 43 47 44 48 105 49 45 50 104 51 46 52 47 53 48 54 98 55
REMARK SMILES IDX 49 56 103 57 97 58 99 59 50 60 102 61 96 62 95 63 51 65
REMARK SMILES IDX 83 66 63 67 82 68 64 69 67 70 81 71 100 72 65 73 66 74 80 76
REMARK SMILES IDX 101 77 68 78 52 79 53 80 61 81 54 82 55 83 59 84 62 85 56 86
REMARK SMILES IDX 57 87 60 88 58 89 84 90 85 91 93 92 86 93 87 94 91 95 94 96
REMARK SMILES IDX 88 97 89 98 92 99 90 100 69 101 70 102 78 103 71 104 72 105
REMARK SMILES IDX 76 106 79 107 73 108 74 109 77 110 75 111
REMARK H PARENT 33 5 14 35 22 37 40 45 99 64 67 75
REMARK Flexibility Score: inf
ROOT
ATOM      1  C   UNL     1       6.024  -8.526  -1.110  1.00  0.00     0.116 C 
ENDROOT
BRANCH   1   2
ATOM      2  N   UNL     1       5.939  -9.954  -0.848  1.00  0.00    -0.356 N 
ATOM      3  C   UNL     1       4.987 -10.697  -0.218  1.00  0.00     0.220 C 
ATOM      4  O   UNL     1       5.096 -11.925  -0.257  1.00  0.00    -0.275 OA
ATOM      5  H   UNL     1       6.704 -10.474  -1.183  1.00  0.00     0.163 HD
BRANCH   3   6
ATOM      6  C   UNL     1       3.851 -10.061   0.556  1.00  0.00     0.111 C 
BRANCH   6   7
ATOM      7  C   UNL     1       4.199  -9.967   2.037  1.00  0.00     0.132 C 
BRANCH   7   8
ATOM      8  C   UNL     1       3.974  -8.600   2.629  1.00  0.00     0.306 C 
ATOM      9  O   UNL     1       3.027  -8.322   3.359  1.00  0.00    -0.252 OA
BRANCH   8  10
ATOM     10  O   UNL     1       4.968  -7.743   2.288  1.00  0.00    -0.458 OA
BRANCH  10  11
ATOM     11  C   UNL     1       4.912  -6.402   2.779  1.00  0.00     0.311 C 
BRANCH  11  12
ATOM     12  C   UNL     1       4.436  -5.267   1.821  1.00  0.00     0.202 C 
ATOM     13  O   UNL     1       4.896  -4.133   1.969  1.00  0.00    -0.293 OA
BRANCH  12  14
ATOM     14  C   UNL     1       3.313  -5.600   0.797  1.00  0.00     0.132 C 
ATOM     15  C   UNL     1       0.784   0.480  -0.002  1.00  0.00     0.021 C 
ATOM     16  C   UNL     1       0.295  -0.740  -0.831  1.00  0.00     0.013 C 
ATOM     17  C   UNL     1       0.446  -0.413  -2.332  1.00  0.00    -0.012 C 
ATOM     18  C   UNL     1      -1.228  -0.947  -0.638  1.00  0.00    -0.056 C 
ATOM     19  C   UNL     1       1.186  -1.957  -0.349  1.00  0.00     0.035 C 
ATOM     20  C   UNL     1      -0.243   0.638  -2.834  1.00  0.00     0.048 C 
ATOM     21  C   UNL     1      -2.130  -0.306  -1.414  1.00  0.00     0.052 C 
ATOM     22  C   UNL     1      -1.794  -2.083   0.158  1.00  0.00     0.032 C 
ATOM     23  C   UNL     1       0.415  -3.281  -0.379  1.00  0.00    -0.000 C 
ATOM     24  C   UNL     1       2.582  -2.073  -1.010  1.00  0.00     0.119 C 
ATOM     25  C   UNL     1      -1.717   0.533  -2.564  1.00  0.00     0.178 C 
ATOM     26  C   UNL     1      -0.814  -3.161   0.535  1.00  0.00     0.009 C 
ATOM     27  C   UNL     1       1.230  -4.495   0.087  1.00  0.00     0.002 C 
ATOM     28  C   UNL     1       3.403  -3.184  -0.337  1.00  0.00     0.042 C 
ATOM     29  O   UNL     1      -2.543   1.100  -3.266  1.00  0.00    -0.290 OA
ATOM     30  C   UNL     1       2.730  -4.581  -0.311  1.00  0.00     0.009 C 
ATOM     31  C   UNL     1       1.256  -4.726   1.593  1.00  0.00     0.008 C 
ATOM     32  C   UNL     1       2.771  -5.178  -1.755  1.00  0.00     0.015 C 
ATOM     33  C   UNL     1       2.113  -5.954   1.677  1.00  0.00     0.044 C 
BRANCH  24  34
ATOM     34  O   UNL     1       2.512  -2.346  -2.402  1.00  0.00    -0.393 OA
ATOM     35  H   UNL     1       2.087  -3.206  -2.542  1.00  0.00     0.210 HD
ENDBRANCH  24  34
BRANCH  14  36
ATOM     36  O   UNL     1       3.744  -6.761   0.114  1.00  0.00    -0.381 OA
ATOM     37  H   UNL     1       3.078  -7.016  -0.543  1.00  0.00     0.212 HD
ENDBRANCH  14  36
ENDBRANCH  12  14
ENDBRANCH  11  12
ENDBRANCH  10  11
ENDBRANCH   8  10
ENDBRANCH   7   8
ENDBRANCH   6   7
ENDBRANCH   3   6
ENDBRANCH   1   2
BRANCH   1  38
ATOM     38  C   UNL     1       6.823  -7.758  -0.046  1.00  0.00     0.021 C 
BRANCH  38  39
ATOM     39  C   UNL     1       8.013  -6.926  -0.543  1.00  0.00     0.002 C 
BRANCH  39  40
ATOM     40  C   UNL     1       7.683  -5.650  -1.332  1.00  0.00     0.002 C 
BRANCH  40  41
ATOM     41  C   UNL     1       6.964  -4.505  -0.600  1.00  0.00     0.021 C 
BRANCH  41  42
ATOM     42  C   UNL     1       7.619  -3.887   0.644  1.00  0.00     0.116 C 
BRANCH  42  43
ATOM     43  N   UNL     1       8.845  -3.175   0.347  1.00  0.00    -0.352 N 
ATOM     44  C   UNL     1       9.194  -1.855   0.502  1.00  0.00     0.251 C 
ATOM     45  H   UNL     1       9.557  -3.738  -0.034  1.00  0.00     0.163 HD
ATOM     46  O   UNL     1      10.238  -1.473  -0.027  1.00  0.00    -0.269 OA
BRANCH  44  47
ATOM     47  C   UNL     1       8.384  -0.858   1.264  1.00  0.00     0.039 A 
ATOM     48  C   UNL     1       8.414   0.471   0.814  1.00  0.00     0.014 A 
ATOM     49  C   UNL     1       7.715  -1.138   2.461  1.00  0.00     0.014 A 
ATOM     50  C   UNL     1       7.778   1.492   1.533  1.00  0.00     0.010 A 
ATOM     51  C   UNL     1       7.032  -0.119   3.157  1.00  0.00     0.010 A 
ATOM     52  C   UNL     1       7.060   1.212   2.707  1.00  0.00    -0.014 A 
BRANCH  52  53
ATOM     53  C   UNL     1       6.334   2.315   3.412  1.00  0.00     0.031 A 
ATOM     54  C   UNL     1       6.743   2.791   4.785  1.00  0.00     0.074 A 
ATOM     55  C   UNL     1       5.301   2.924   2.795  1.00  0.00     0.049 A 
ATOM     56  N   UNL     1       6.276   3.797   5.487  1.00  0.00    -0.248 NA
ATOM     57  C   UNL     1       7.802   2.033   5.464  1.00  0.00     0.031 C 
ATOM     58  C   UNL     1       4.767   2.548   1.486  1.00  0.00     0.029 A 
ATOM     59  N   UNL     1       4.525   3.996   3.172  1.00  0.00    -0.354 N 
ATOM     60  C   UNL     1       6.985   3.796   6.684  1.00  0.00     0.074 A 
ATOM     61  C   UNL     1       7.877   2.656   6.633  1.00  0.00     0.031 C 
ATOM     62  C   UNL     1       3.785   3.398   1.149  1.00  0.00     0.029 A 
ATOM     63  C   UNL     1       3.590   4.358   2.232  1.00  0.00     0.049 A 
ATOM     64  H   UNL     1       4.630   4.459   4.035  1.00  0.00     0.167 HD
ATOM     65  C   UNL     1       6.915   4.671   7.720  1.00  0.00     0.037 A 
ATOM     66  C   UNL     1       2.679   5.351   2.233  1.00  0.00     0.037 A 
ATOM     67  C   UNL     1       6.028   5.809   7.777  1.00  0.00     0.049 A 
ATOM     68  C   UNL     1       2.612   6.299   3.401  1.00  0.00     0.074 A 
ATOM     69  C   UNL     1       5.927   6.778   8.763  1.00  0.00     0.029 A 
ATOM     70  N   UNL     1       5.079   6.127   6.816  1.00  0.00    -0.354 N 
ATOM     71  N   UNL     1       3.346   6.332   4.486  1.00  0.00    -0.248 NA
ATOM     72  C   UNL     1       1.593   7.357   3.336  1.00  0.00     0.031 C 
ATOM     73  C   UNL     1       4.876   7.641   8.430  1.00  0.00     0.029 A 
ATOM     74  C   UNL     1       4.366   7.254   7.203  1.00  0.00     0.049 A 
ATOM     75  H   UNL     1       4.933   5.626   5.981  1.00  0.00     0.167 HD
ATOM     76  C   UNL     1       2.895   7.422   5.220  1.00  0.00     0.074 A 
ATOM     77  C   UNL     1       1.846   8.043   4.440  1.00  0.00     0.031 C 
ATOM     78  C   UNL     1       3.311   7.864   6.433  1.00  0.00     0.037 A 
BRANCH  65  79
ATOM     79  C   UNL     1       7.823   4.435   8.898  1.00  0.00     0.064 A 
ATOM     80  C   UNL     1       9.214   4.603   8.805  1.00  0.00     0.173 A 
ATOM     81  C   UNL     1       7.292   4.094  10.153  1.00  0.00     0.173 A 
ATOM     82  F   UNL     1       9.777   4.928   7.631  1.00  0.00    -0.203 F 
ATOM     83  C   UNL     1      10.039   4.406   9.910  1.00  0.00     0.198 A 
ATOM     84  C   UNL     1       8.117   3.932  11.264  1.00  0.00     0.198 A 
ATOM     85  F   UNL     1       5.969   3.935  10.308  1.00  0.00    -0.203 F 
ATOM     86  F   UNL     1      11.368   4.524   9.782  1.00  0.00    -0.200 F 
ATOM     87  C   UNL     1       9.490   4.078  11.140  1.00  0.00     0.200 A 
ATOM     88  F   UNL     1       7.582   3.634  12.457  1.00  0.00    -0.200 F 
ATOM     89  F   UNL     1      10.284   3.899  12.205  1.00  0.00    -0.200 F 
ENDBRANCH  65  79
BRANCH  66  90
ATOM     90  C   UNL     1       1.761   5.516   1.072  1.00  0.00     0.064 A 
ATOM     91  C   UNL     1       1.839   6.640   0.237  1.00  0.00     0.173 A 
ATOM     92  C   UNL     1       0.780   4.557   0.780  1.00  0.00     0.173 A 
ATOM     93  F   UNL     1       2.746   7.597   0.485  1.00  0.00    -0.203 F 
ATOM     94  C   UNL     1       0.958   6.808  -0.830  1.00  0.00     0.198 A 
ATOM     95  C   UNL     1      -0.074   4.706  -0.310  1.00  0.00     0.198 A 
ATOM     96  F   UNL     1       0.666   3.459   1.542  1.00  0.00    -0.203 F 
ATOM     97  F   UNL     1       1.022   7.917  -1.579  1.00  0.00    -0.200 F 
ATOM     98  C   UNL     1       0.008   5.838  -1.108  1.00  0.00     0.200 A 
ATOM     99  F   UNL     1      -0.969   3.749  -0.591  1.00  0.00    -0.200 F 
ATOM    100  F   UNL     1      -0.831   5.994  -2.140  1.00  0.00    -0.200 F 
ENDBRANCH  66  90
BRANCH  78 101
ATOM    101  C   UNL     1       2.638   9.094   6.982  1.00  0.00     0.064 A 
ATOM    102  C   UNL     1       1.289   9.087   7.372  1.00  0.00     0.173 A 
ATOM    103  C   UNL     1       3.348  10.297   7.114  1.00  0.00     0.173 A 
ATOM    104  F   UNL     1       0.558   7.968   7.256  1.00  0.00    -0.203 F 
ATOM    105  C   UNL     1       0.666  10.247   7.826  1.00  0.00     0.198 A 
ATOM    106  C   UNL     1       2.731  11.446   7.605  1.00  0.00     0.198 A 
ATOM    107  F   UNL     1       4.642  10.363   6.767  1.00  0.00    -0.203 F 
ATOM    108  F   UNL     1      -0.642  10.232   8.120  1.00  0.00    -0.200 F 
ATOM    109  C   UNL     1       1.388  11.425   7.946  1.00  0.00     0.200 A 
ATOM    110  F   UNL     1       3.436  12.579   7.736  1.00  0.00    -0.200 F 
ATOM    111  F   UNL     1       0.786  12.541   8.378  1.00  0.00    -0.200 F 
ENDBRANCH  78 101
ENDBRANCH  52  53
ENDBRANCH  44  47
ENDBRANCH  42  43
ENDBRANCH  41  42
ENDBRANCH  40  41
ENDBRANCH  39  40
ENDBRANCH  38  39
ENDBRANCH   1  38
TORSDOF 21
