REMARK SMILES CC(C)(C)C(=O)C[N@H+]1CCCC[C@H]1C(=O)NCCCCCCNC(=O)c1ccc(-c2c3nc(c(-c4c(F)c(F)c(F)c(F)c4F)c4ccc([nH]4)c(-c4c(F)c(F)c(F)c(F)c4F)c4nc(c(-c5c(F)c(F)c(F)c(F)c5F)c5ccc2[nH]5)C=C4)C=C3)cc1
REMARK SMILES IDX 19 1 18 2 17 3 16 4 14 5 15 6 13 8 8 9 9 10 10 12 12 13
REMARK SMILES IDX 11 14 7 15 5 16 6 17 2 18 1 19 3 20 4 21 20 22 21 23 22 24
REMARK SMILES IDX 23 25 24 26 25 28 26 29 27 30 88 31 28 32 87 33 29 34 30 35
REMARK SMILES IDX 31 36 81 37 32 38 86 39 80 40 82 41 33 42 85 43 79 44 78 45
REMARK SMILES IDX 34 47 66 48 46 49 65 50 47 51 50 52 64 53 83 54 48 55 49 56
REMARK SMILES IDX 63 58 84 59 51 60 35 61 36 62 44 63 37 64 38 65 42 66 45 67
REMARK SMILES IDX 39 68 40 69 43 70 41 71 67 72 68 73 76 74 69 75 70 76 74 77
REMARK SMILES IDX 77 78 71 79 72 80 75 81 73 82 52 83 53 84 61 85 54 86 55 87
REMARK SMILES IDX 59 88 62 89 56 90 57 91 60 92 58 93
REMARK H PARENT 16 7 8 11 23 27 82 46 50 57
REMARK Flexibility Score: inf
ROOT
ATOM      1  C   UNL     1      -3.224   3.647  -6.287  1.00  0.00     0.002 C 
ENDROOT
BRANCH   1   2
ATOM      2  C   UNL     1      -1.756   3.414  -6.658  1.00  0.00     0.021 C 
BRANCH   2   3
ATOM      3  C   UNL     1      -0.998   2.505  -5.697  1.00  0.00     0.116 C 
BRANCH   3   4
ATOM      4  N   UNL     1      -1.572   1.175  -5.663  1.00  0.00    -0.351 N 
ATOM      5  C   UNL     1      -0.971  -0.050  -5.686  1.00  0.00     0.278 C 
ATOM      6  O   UNL     1      -1.708  -1.032  -5.573  1.00  0.00    -0.268 OA
ATOM      7  H   UNL     1      -2.555   1.151  -5.616  1.00  0.00     0.163 HD
BRANCH   5   8
ATOM      8  C   UNL     1       0.573  -0.156  -5.766  1.00  0.00     0.274 C 
ATOM      9  N   UNL     1       1.198  -0.368  -4.426  1.00  0.00    -0.319 N 
ATOM     10  C   UNL     1       1.048  -1.744  -3.956  1.00  0.00     0.263 C 
ATOM     11  H   UNL     1       2.200  -0.216  -4.543  1.00  0.00     0.349 HD
ATOM     12  C   UNL     1       1.501  -2.808  -4.947  1.00  0.00     0.062 C 
ATOM     13  C   UNL     1       0.967  -1.237  -6.794  1.00  0.00     0.076 C 
ATOM     14  C   UNL     1       0.801  -2.661  -6.281  1.00  0.00     0.012 C 
BRANCH   9  15
ATOM     15  C   UNL     1       0.741   0.632  -3.428  1.00  0.00     0.340 C 
BRANCH  15  16
ATOM     16  C   UNL     1       1.348   0.472  -2.025  1.00  0.00     0.192 C 
ATOM     17  O   UNL     1       2.509   0.847  -1.817  1.00  0.00    -0.293 OA
BRANCH  16  18
ATOM     18  C   UNL     1       0.515  -0.177  -0.874  1.00  0.00     0.026 C 
ATOM     19  C   UNL     1       0.894   0.529   0.445  1.00  0.00     0.019 C 
ATOM     20  C   UNL     1       0.879  -1.661  -0.713  1.00  0.00     0.019 C 
ATOM     21  C   UNL     1      -1.004  -0.045  -1.053  1.00  0.00     0.019 C 
ENDBRANCH  16  18
ENDBRANCH  15  16
ENDBRANCH   9  15
ENDBRANCH   5   8
ENDBRANCH   3   4
ENDBRANCH   2   3
ENDBRANCH   1   2
BRANCH   1  22
ATOM     22  C   UNL     1      -3.463   4.196  -4.878  1.00  0.00     0.002 C 
BRANCH  22  23
ATOM     23  C   UNL     1      -2.715   5.490  -4.549  1.00  0.00     0.021 C 
BRANCH  23  24
ATOM     24  C   UNL     1      -2.929   6.627  -5.543  1.00  0.00     0.116 C 
BRANCH  24  25
ATOM     25  N   UNL     1      -4.327   6.999  -5.667  1.00  0.00    -0.352 N 
ATOM     26  C   UNL     1      -4.908   8.241  -5.633  1.00  0.00     0.251 C 
ATOM     27  H   UNL     1      -4.951   6.248  -5.794  1.00  0.00     0.163 HD
ATOM     28  O   UNL     1      -6.128   8.347  -5.590  1.00  0.00    -0.269 OA
BRANCH  26  29
ATOM     29  C   UNL     1      -4.063   9.455  -5.619  1.00  0.00     0.039 A 
ATOM     30  C   UNL     1      -4.407  10.494  -4.751  1.00  0.00     0.014 A 
ATOM     31  C   UNL     1      -2.951   9.581  -6.457  1.00  0.00     0.014 A 
ATOM     32  C   UNL     1      -3.603  11.632  -4.682  1.00  0.00     0.010 A 
ATOM     33  C   UNL     1      -2.108  10.684  -6.333  1.00  0.00     0.010 A 
ATOM     34  C   UNL     1      -2.426  11.721  -5.444  1.00  0.00    -0.014 A 
BRANCH  34  35
ATOM     35  C   UNL     1      -1.518  12.887  -5.296  1.00  0.00     0.031 A 
ATOM     36  C   UNL     1      -1.282  13.827  -6.445  1.00  0.00     0.074 A 
ATOM     37  C   UNL     1      -0.882  13.079  -4.123  1.00  0.00     0.049 A 
ATOM     38  N   UNL     1      -0.520  14.891  -6.498  1.00  0.00    -0.248 NA
ATOM     39  C   UNL     1      -1.974  13.523  -7.707  1.00  0.00     0.031 C 
ATOM     40  C   UNL     1      -0.986  12.205  -2.954  1.00  0.00     0.029 A 
ATOM     41  N   UNL     1      -0.021  14.069  -3.721  1.00  0.00    -0.354 N 
ATOM     42  C   UNL     1      -0.646  15.383  -7.790  1.00  0.00     0.074 A 
ATOM     43  C   UNL     1      -1.504  14.468  -8.509  1.00  0.00     0.031 C 
ATOM     44  C   UNL     1      -0.241  12.710  -1.958  1.00  0.00     0.029 A 
ATOM     45  C   UNL     1       0.423  13.921  -2.429  1.00  0.00     0.049 A 
ATOM     46  H   UNL     1       0.254  14.814  -4.303  1.00  0.00     0.167 HD
ATOM     47  C   UNL     1      -0.117  16.513  -8.320  1.00  0.00     0.037 A 
ATOM     48  C   UNL     1       1.275  14.673  -1.707  1.00  0.00     0.037 A 
ATOM     49  C   UNL     1       0.734  17.426  -7.600  1.00  0.00     0.049 A 
ATOM     50  C   UNL     1       1.860  15.913  -2.328  1.00  0.00     0.074 A 
ATOM     51  C   UNL     1       1.289  18.616  -8.037  1.00  0.00     0.029 A 
ATOM     52  N   UNL     1       1.155  17.248  -6.290  1.00  0.00    -0.354 N 
ATOM     53  N   UNL     1       1.675  16.406  -3.529  1.00  0.00    -0.248 NA
ATOM     54  C   UNL     1       2.764  16.709  -1.487  1.00  0.00     0.031 C 
ATOM     55  C   UNL     1       2.086  19.132  -7.010  1.00  0.00     0.029 A 
ATOM     56  C   UNL     1       1.981  18.295  -5.912  1.00  0.00     0.049 A 
ATOM     57  H   UNL     1       0.904  16.490  -5.714  1.00  0.00     0.167 HD
ATOM     58  C   UNL     1       2.419  17.577  -3.579  1.00  0.00     0.074 A 
ATOM     59  C   UNL     1       3.033  17.737  -2.278  1.00  0.00     0.031 C 
ATOM     60  C   UNL     1       2.586  18.440  -4.612  1.00  0.00     0.037 A 
BRANCH  47  61
ATOM     61  C   UNL     1      -0.452  16.837  -9.748  1.00  0.00     0.064 A 
ATOM     62  C   UNL     1      -1.744  17.233 -10.125  1.00  0.00     0.173 A 
ATOM     63  C   UNL     1       0.540  16.810 -10.741  1.00  0.00     0.173 A 
ATOM     64  F   UNL     1      -2.732  17.266  -9.218  1.00  0.00    -0.203 F 
ATOM     65  C   UNL     1      -2.036  17.570 -11.444  1.00  0.00     0.198 A 
ATOM     66  C   UNL     1       0.252  17.178 -12.053  1.00  0.00     0.198 A 
ATOM     67  F   UNL     1       1.794  16.444 -10.435  1.00  0.00    -0.203 F 
ATOM     68  F   UNL     1      -3.287  17.906 -11.787  1.00  0.00    -0.200 F 
ATOM     69  C   UNL     1      -1.036  17.552 -12.405  1.00  0.00     0.200 A 
ATOM     70  F   UNL     1       1.223  17.174 -12.977  1.00  0.00    -0.200 F 
ATOM     71  F   UNL     1      -1.315  17.891 -13.671  1.00  0.00    -0.200 F 
ENDBRANCH  47  61
BRANCH  48  72
ATOM     72  C   UNL     1       1.623  14.282  -0.315  1.00  0.00     0.064 A 
ATOM     73  C   UNL     1       1.234  15.067   0.779  1.00  0.00     0.173 A 
ATOM     74  C   UNL     1       2.376  13.128  -0.052  1.00  0.00     0.173 A 
ATOM     75  F   UNL     1       0.528  16.191   0.579  1.00  0.00    -0.203 F 
ATOM     76  C   UNL     1       1.613  14.733   2.078  1.00  0.00     0.198 A 
ATOM     77  C   UNL     1       2.724  12.775   1.250  1.00  0.00     0.198 A 
ATOM     78  F   UNL     1       2.768  12.336  -1.062  1.00  0.00    -0.203 F 
ATOM     79  F   UNL     1       1.280  15.536   3.097  1.00  0.00    -0.200 F 
ATOM     80  C   UNL     1       2.353  13.585   2.312  1.00  0.00     0.200 A 
ATOM     81  F   UNL     1       3.425  11.655   1.473  1.00  0.00    -0.200 F 
ATOM     82  F   UNL     1       2.719  13.264   3.561  1.00  0.00    -0.200 F 
ENDBRANCH  48  72
BRANCH  60  83
ATOM     83  C   UNL     1       3.446  19.646  -4.363  1.00  0.00     0.064 A 
ATOM     84  C   UNL     1       4.833  19.537  -4.181  1.00  0.00     0.173 A 
ATOM     85  C   UNL     1       2.878  20.929  -4.319  1.00  0.00     0.173 A 
ATOM     86  F   UNL     1       5.424  18.333  -4.199  1.00  0.00    -0.203 F 
ATOM     87  C   UNL     1       5.613  20.662  -3.924  1.00  0.00     0.198 A 
ATOM     88  C   UNL     1       3.666  22.055  -4.098  1.00  0.00     0.198 A 
ATOM     89  F   UNL     1       1.558  21.091  -4.496  1.00  0.00    -0.203 F 
ATOM     90  F   UNL     1       6.925  20.525  -3.688  1.00  0.00    -0.200 F 
ATOM     91  C   UNL     1       5.030  21.920  -3.889  1.00  0.00     0.200 A 
ATOM     92  F   UNL     1       3.103  23.271  -4.081  1.00  0.00    -0.200 F 
ATOM     93  F   UNL     1       5.782  23.001  -3.642  1.00  0.00    -0.200 F 
ENDBRANCH  60  83
ENDBRANCH  34  35
ENDBRANCH  26  29
ENDBRANCH  24  25
ENDBRANCH  23  24
ENDBRANCH  22  23
ENDBRANCH   1  22
TORSDOF 16
