REMARK SMILES CC1(C)S[C@H](c2ccc(Cl)cc2Cl)[NH2+][C@H]1C(=O)NCCCCCCNC(=O)c1ccc(-c2c3nc(c(-c4c(F)c(F)c(F)c(F)c4F)c4ccc([nH]4)c(-c4c(F)c(F)c(F)c(F)c4F)c4nc(c(-c5c(F)c(F)c(F)c(F)c5F)c5ccc2[nH]5)C=C4)C=C3)cc1
REMARK SMILES IDX 22 1 21 2 20 3 19 4 18 5 16 6 17 7 15 9 1 10 2 11 3 12 4 13
REMARK SMILES IDX 5 14 14 15 6 18 7 19 12 20 8 21 11 22 13 23 9 24 10 25 23 26
REMARK SMILES IDX 24 27 25 28 26 29 27 31 28 32 29 33 90 34 30 35 89 36 31 37
REMARK SMILES IDX 32 38 33 39 83 40 34 41 88 42 82 43 84 44 35 45 87 46 81 47
REMARK SMILES IDX 80 48 36 50 68 51 48 52 67 53 49 54 52 55 66 56 85 57 50 58
REMARK SMILES IDX 51 59 65 61 86 62 53 63 37 64 38 65 46 66 39 67 40 68 44 69
REMARK SMILES IDX 47 70 41 71 42 72 45 73 43 74 69 75 70 76 78 77 71 78 72 79
REMARK SMILES IDX 76 80 79 81 73 82 74 83 77 84 75 85 54 86 55 87 63 88 56 89
REMARK SMILES IDX 57 90 61 91 64 92 58 93 59 94 62 95 60 96
REMARK H PARENT 18 8 14 16 14 17 25 30 84 49 52 60
REMARK Flexibility Score: inf
ROOT
ATOM      1  C   UNL     1       0.935   4.372   4.832  1.00  0.00     0.002 C 
ENDROOT
BRANCH   1   2
ATOM      2  C   UNL     1       1.981   3.795   3.874  1.00  0.00     0.002 C 
BRANCH   2   3
ATOM      3  C   UNL     1       1.609   2.454   3.240  1.00  0.00     0.021 C 
BRANCH   3   4
ATOM      4  C   UNL     1       0.369   2.500   2.349  1.00  0.00     0.116 C 
BRANCH   4   5
ATOM      5  N   UNL     1       0.695   3.023   1.040  1.00  0.00    -0.351 N 
ATOM      6  C   UNL     1       0.644   2.499  -0.213  1.00  0.00     0.279 C 
ATOM      7  O   UNL     1       1.185   3.175  -1.099  1.00  0.00    -0.268 OA
ATOM      8  H   UNL     1       1.022   3.952   1.061  1.00  0.00     0.163 HD
BRANCH   6   9
ATOM      9  C   UNL     1       0.015   1.138  -0.574  1.00  0.00     0.289 C 
ATOM     10  C   UNL     1       1.672  -0.226   0.941  1.00  0.00     0.030 C 
ATOM     11  C   UNL     1       0.914  -0.095  -0.378  1.00  0.00     0.077 C 
ATOM     12  C   UNL     1       1.902  -0.245  -1.541  1.00  0.00     0.030 C 
ATOM     13  S   UNL     1      -0.295  -1.467  -0.424  1.00  0.00    -0.081 SA
ATOM     14  C   UNL     1      -1.788  -0.395  -0.348  1.00  0.00     0.276 C 
ATOM     15  N   UNL     1      -1.328   0.938   0.032  1.00  0.00    -0.320 N 
ATOM     16  H   UNL     1      -1.265   1.008   1.048  1.00  0.00     0.348 HD
ATOM     17  H   UNL     1      -1.980   1.650  -0.297  1.00  0.00     0.348 HD
BRANCH  14  18
ATOM     18  C   UNL     1      -2.655  -0.557  -1.595  1.00  0.00     0.039 A 
ATOM     19  C   UNL     1      -3.112  -1.878  -1.854  1.00  0.00     0.014 A 
ATOM     20  C   UNL     1      -3.081   0.442  -2.490  1.00  0.00     0.052 A 
ATOM     21  C   UNL     1      -3.878  -2.200  -2.974  1.00  0.00     0.021 A 
ATOM     22  C   UNL     1      -3.843   0.113  -3.626  1.00  0.00     0.041 A 
ATOM     23  Cl  UNL     1      -2.785   2.135  -2.297  1.00  0.00    -0.084 Cl
ATOM     24  C   UNL     1      -4.227  -1.201  -3.867  1.00  0.00     0.042 A 
ATOM     25  Cl  UNL     1      -5.151  -1.586  -5.264  1.00  0.00    -0.084 Cl
ENDBRANCH  14  18
ENDBRANCH   6   9
ENDBRANCH   4   5
ENDBRANCH   3   4
ENDBRANCH   2   3
ENDBRANCH   1   2
BRANCH   1  26
ATOM     26  C   UNL     1       0.435   3.414   5.917  1.00  0.00     0.021 C 
BRANCH  26  27
ATOM     27  C   UNL     1       1.525   2.746   6.750  1.00  0.00     0.116 C 
BRANCH  27  28
ATOM     28  N   UNL     1       2.372   3.709   7.427  1.00  0.00    -0.352 N 
ATOM     29  C   UNL     1       2.749   3.767   8.742  1.00  0.00     0.251 C 
ATOM     30  H   UNL     1       2.729   4.428   6.856  1.00  0.00     0.163 HD
ATOM     31  O   UNL     1       3.340   4.753   9.168  1.00  0.00    -0.269 OA
BRANCH  29  32
ATOM     32  C   UNL     1       2.434   2.650   9.659  1.00  0.00     0.039 A 
ATOM     33  C   UNL     1       1.977   2.954  10.943  1.00  0.00     0.014 A 
ATOM     34  C   UNL     1       2.637   1.318   9.283  1.00  0.00     0.014 A 
ATOM     35  C   UNL     1       1.704   1.924  11.844  1.00  0.00     0.010 A 
ATOM     36  C   UNL     1       2.300   0.288  10.159  1.00  0.00     0.010 A 
ATOM     37  C   UNL     1       1.854   0.583  11.456  1.00  0.00    -0.014 A 
BRANCH  37  38
ATOM     38  C   UNL     1       1.596  -0.512  12.424  1.00  0.00     0.031 A 
ATOM     39  C   UNL     1       2.732  -1.367  12.914  1.00  0.00     0.074 A 
ATOM     40  C   UNL     1       0.341  -0.746  12.848  1.00  0.00     0.049 A 
ATOM     41  N   UNL     1       2.714  -2.360  13.767  1.00  0.00    -0.248 NA
ATOM     42  C   UNL     1       4.063  -1.085  12.353  1.00  0.00     0.031 C 
ATOM     43  C   UNL     1      -0.850  -0.019  12.405  1.00  0.00     0.029 A 
ATOM     44  N   UNL     1      -0.143  -1.661  13.749  1.00  0.00    -0.354 N 
ATOM     45  C   UNL     1       4.021  -2.825  13.835  1.00  0.00     0.074 A 
ATOM     46  C   UNL     1       4.796  -2.046  12.895  1.00  0.00     0.031 C 
ATOM     47  C   UNL     1      -1.923  -0.496  13.057  1.00  0.00     0.029 A 
ATOM     48  C   UNL     1      -1.499  -1.574  13.946  1.00  0.00     0.049 A 
ATOM     49  H   UNL     1       0.428  -2.317  14.210  1.00  0.00     0.167 HD
ATOM     50  C   UNL     1       4.534  -3.795  14.629  1.00  0.00     0.037 A 
ATOM     51  C   UNL     1      -2.305  -2.280  14.760  1.00  0.00     0.037 A 
ATOM     52  C   UNL     1       3.766  -4.547  15.586  1.00  0.00     0.049 A 
ATOM     53  C   UNL     1      -1.706  -3.334  15.652  1.00  0.00     0.074 A 
ATOM     54  C   UNL     1       4.201  -5.509  16.480  1.00  0.00     0.029 A 
ATOM     55  N   UNL     1       2.397  -4.417  15.773  1.00  0.00    -0.354 N 
ATOM     56  N   UNL     1      -0.456  -3.715  15.760  1.00  0.00    -0.248 NA
ATOM     57  C   UNL     1      -2.630  -4.045  16.545  1.00  0.00     0.031 C 
ATOM     58  C   UNL     1       3.089  -5.987  17.183  1.00  0.00     0.029 A 
ATOM     59  C   UNL     1       1.969  -5.292  16.758  1.00  0.00     0.049 A 
ATOM     60  H   UNL     1       1.816  -3.794  15.279  1.00  0.00     0.167 HD
ATOM     61  C   UNL     1      -0.439  -4.692  16.746  1.00  0.00     0.074 A 
ATOM     62  C   UNL     1      -1.801  -4.828  17.221  1.00  0.00     0.031 C 
ATOM     63  C   UNL     1       0.609  -5.413  17.215  1.00  0.00     0.037 A 
BRANCH  50  64
ATOM     64  C   UNL     1       6.000  -4.091  14.499  1.00  0.00     0.064 A 
ATOM     65  C   UNL     1       6.975  -3.184  14.941  1.00  0.00     0.173 A 
ATOM     66  C   UNL     1       6.436  -5.306  13.949  1.00  0.00     0.173 A 
ATOM     67  F   UNL     1       6.611  -2.002  15.462  1.00  0.00    -0.203 F 
ATOM     68  C   UNL     1       8.332  -3.468  14.809  1.00  0.00     0.198 A 
ATOM     69  C   UNL     1       7.794  -5.599  13.846  1.00  0.00     0.198 A 
ATOM     70  F   UNL     1       5.547  -6.211  13.515  1.00  0.00    -0.203 F 
ATOM     71  F   UNL     1       9.244  -2.563  15.191  1.00  0.00    -0.200 F 
ATOM     72  C   UNL     1       8.740  -4.677  14.268  1.00  0.00     0.200 A 
ATOM     73  F   UNL     1       8.187  -6.773  13.333  1.00  0.00    -0.200 F 
ATOM     74  F   UNL     1      10.046  -4.951  14.145  1.00  0.00    -0.200 F 
ENDBRANCH  50  64
BRANCH  51  75
ATOM     75  C   UNL     1      -3.760  -1.983  14.803  1.00  0.00     0.064 A 
ATOM     76  C   UNL     1      -4.336  -1.370  15.924  1.00  0.00     0.173 A 
ATOM     77  C   UNL     1      -4.602  -2.308  13.730  1.00  0.00     0.173 A 
ATOM     78  F   UNL     1      -3.573  -1.058  16.982  1.00  0.00    -0.203 F 
ATOM     79  C   UNL     1      -5.704  -1.113  15.980  1.00  0.00     0.198 A 
ATOM     80  C   UNL     1      -5.966  -2.026  13.777  1.00  0.00     0.198 A 
ATOM     81  F   UNL     1      -4.098  -2.890  12.633  1.00  0.00    -0.203 F 
ATOM     82  F   UNL     1      -6.236  -0.567  17.082  1.00  0.00    -0.200 F 
ATOM     83  C   UNL     1      -6.517  -1.436  14.904  1.00  0.00     0.200 A 
ATOM     84  F   UNL     1      -6.746  -2.328  12.730  1.00  0.00    -0.200 F 
ATOM     85  F   UNL     1      -7.832  -1.187  14.957  1.00  0.00    -0.200 F 
ENDBRANCH  51  75
BRANCH  63  86
ATOM     86  C   UNL     1       0.321  -6.398  18.311  1.00  0.00     0.064 A 
ATOM     87  C   UNL     1      -0.386  -7.584  18.066  1.00  0.00     0.173 A 
ATOM     88  C   UNL     1       0.775  -6.160  19.617  1.00  0.00     0.173 A 
ATOM     89  F   UNL     1      -0.854  -7.848  16.836  1.00  0.00    -0.203 F 
ATOM     90  C   UNL     1      -0.657  -8.481  19.095  1.00  0.00     0.198 A 
ATOM     91  C   UNL     1       0.528  -7.074  20.638  1.00  0.00     0.198 A 
ATOM     92  F   UNL     1       1.462  -5.044  19.903  1.00  0.00    -0.203 F 
ATOM     93  F   UNL     1      -1.382  -9.581  18.849  1.00  0.00    -0.200 F 
ATOM     94  C   UNL     1      -0.196  -8.228  20.378  1.00  0.00     0.200 A 
ATOM     95  F   UNL     1       0.984  -6.834  21.875  1.00  0.00    -0.200 F 
ATOM     96  F   UNL     1      -0.458  -9.093  21.368  1.00  0.00    -0.200 F 
ENDBRANCH  63  86
ENDBRANCH  37  38
ENDBRANCH  29  32
ENDBRANCH  27  28
ENDBRANCH  26  27
ENDBRANCH   1  26
TORSDOF 14
