REMARK SMILES Cc1cccc(S(=O)(=O)N[C@@H](CCC(N)=O)C(=O)NCCCCCCNC(=O)c2ccc(-c3c4nc(c(-c5c(F)c(F)c(F)c(F)c5F)c5ccc([nH]5)c(-c5c(F)c(F)c(F)c(F)c5F)c5nc(c(-c6c(F)c(F)c(F)c(F)c6F)c6ccc3[nH]6)C=C5)C=C4)cc2)c1
REMARK SMILES IDX 22 1 21 2 20 3 19 4 17 5 18 6 11 8 10 9 7 11 8 12 9 13 6 14
REMARK SMILES IDX 1 15 2 16 3 17 92 18 4 19 5 20 12 21 13 22 14 23 15 24 16 25
REMARK SMILES IDX 23 28 24 29 25 30 26 31 27 32 28 34 29 35 30 36 91 37 31 38
REMARK SMILES IDX 90 39 32 40 33 41 34 42 84 43 35 44 89 45 83 46 85 47 36 48
REMARK SMILES IDX 88 49 82 50 81 51 37 53 69 54 49 55 68 56 50 57 53 58 67 59
REMARK SMILES IDX 86 60 51 61 52 62 66 64 87 65 54 66 38 67 39 68 47 69 40 70
REMARK SMILES IDX 41 71 45 72 48 73 42 74 43 75 46 76 44 77 70 78 71 79 79 80
REMARK SMILES IDX 72 81 73 82 77 83 80 84 74 85 75 86 78 87 76 88 55 89 56 90
REMARK SMILES IDX 64 91 57 92 58 93 62 94 65 95 59 96 60 97 63 98 61 99
REMARK H PARENT 19 7 10 10 15 26 15 27 26 33 85 52 53 63
REMARK Flexibility Score: inf
ROOT
ATOM      1  C   UNL     1      -0.175   9.268   0.301  1.00  0.00     0.002 C 
ENDROOT
BRANCH   1   2
ATOM      2  C   UNL     1      -0.980   8.011   0.649  1.00  0.00     0.021 C 
BRANCH   2   3
ATOM      3  C   UNL     1      -0.874   6.870  -0.357  1.00  0.00     0.116 C 
BRANCH   3   4
ATOM      4  N   UNL     1       0.459   6.307  -0.460  1.00  0.00    -0.355 N 
ATOM      5  C   UNL     1       0.882   5.112  -0.980  1.00  0.00     0.238 C 
ATOM      6  O   UNL     1       2.099   4.912  -1.030  1.00  0.00    -0.273 OA
ATOM      7  H   UNL     1       1.176   6.875  -0.097  1.00  0.00     0.163 HD
BRANCH   5   8
ATOM      8  C   UNL     1      -0.110   3.993  -1.369  1.00  0.00     0.159 C 
BRANCH   8   9
ATOM      9  N   UNL     1      -1.047   3.846  -0.236  1.00  0.00    -0.199 NA
ATOM     10  H   UNL     1      -0.461   3.870   0.599  1.00  0.00     0.142 HD
BRANCH   9  11
ATOM     11  S   UNL     1      -2.102   2.585   0.011  1.00  0.00     0.241 S 
ATOM     12  O   UNL     1      -2.969   2.510  -1.140  1.00  0.00    -0.207 OA
ATOM     13  O   UNL     1      -2.632   2.801   1.342  1.00  0.00    -0.207 OA
BRANCH  11  14
ATOM     14  C   UNL     1      -1.149   1.092   0.080  1.00  0.00     0.082 A 
ATOM     15  C   UNL     1       2.462  -0.094   0.178  1.00  0.00     0.044 C 
ATOM     16  C   UNL     1       0.961  -0.098   0.147  1.00  0.00    -0.050 A 
ATOM     17  C   UNL     1       0.267  -1.304  -0.015  1.00  0.00     0.003 A 
ATOM     18  C   UNL     1       0.238   1.097   0.251  1.00  0.00     0.025 A 
ATOM     19  C   UNL     1      -1.125  -1.316  -0.109  1.00  0.00     0.002 A 
ATOM     20  C   UNL     1      -1.834  -0.117  -0.083  1.00  0.00     0.022 A 
ENDBRANCH  11  14
ENDBRANCH   9  11
ENDBRANCH   8   9
BRANCH   8  21
ATOM     21  C   UNL     1      -0.714   4.035  -2.775  1.00  0.00     0.040 C 
BRANCH  21  22
ATOM     22  C   UNL     1      -1.451   5.282  -3.249  1.00  0.00     0.102 C 
BRANCH  22  23
ATOM     23  C   UNL     1      -0.520   6.380  -3.726  1.00  0.00     0.217 C 
ATOM     24  N   UNL     1      -1.142   7.493  -4.206  1.00  0.00    -0.370 N 
ATOM     25  O   UNL     1       0.702   6.323  -3.685  1.00  0.00    -0.275 OA
ATOM     26  H   UNL     1      -2.125   7.533  -4.236  1.00  0.00     0.159 HD
ATOM     27  H   UNL     1      -0.608   8.257  -4.523  1.00  0.00     0.159 HD
ENDBRANCH  22  23
ENDBRANCH  21  22
ENDBRANCH   8  21
ENDBRANCH   5   8
ENDBRANCH   3   4
ENDBRANCH   2   3
ENDBRANCH   1   2
BRANCH   1  28
ATOM     28  C   UNL     1      -0.327   9.825  -1.123  1.00  0.00     0.002 C 
BRANCH  28  29
ATOM     29  C   UNL     1      -1.751  10.006  -1.649  1.00  0.00     0.021 C 
BRANCH  29  30
ATOM     30  C   UNL     1      -2.619  10.934  -0.823  1.00  0.00     0.116 C 
BRANCH  30  31
ATOM     31  N   UNL     1      -2.430  12.348  -1.093  1.00  0.00    -0.352 N 
ATOM     32  C   UNL     1      -3.119  13.444  -0.605  1.00  0.00     0.251 C 
ATOM     33  H   UNL     1      -1.700  12.560  -1.720  1.00  0.00     0.163 HD
ATOM     34  O   UNL     1      -2.922  14.549  -1.101  1.00  0.00    -0.269 OA
BRANCH  32  35
ATOM     35  C   UNL     1      -3.932  13.332   0.636  1.00  0.00     0.039 A 
ATOM     36  C   UNL     1      -3.854  14.401   1.543  1.00  0.00     0.014 A 
ATOM     37  C   UNL     1      -4.427  12.109   1.058  1.00  0.00     0.014 A 
ATOM     38  C   UNL     1      -3.946  14.144   2.904  1.00  0.00     0.010 A 
ATOM     39  C   UNL     1      -4.327  11.807   2.389  1.00  0.00     0.010 A 
ATOM     40  C   UNL     1      -4.018  12.819   3.299  1.00  0.00    -0.014 A 
BRANCH  40  41
ATOM     41  C   UNL     1      -3.894  12.341   4.655  1.00  0.00     0.031 A 
ATOM     42  C   UNL     1      -5.149  12.041   5.360  1.00  0.00     0.074 A 
ATOM     43  C   UNL     1      -2.676  11.915   5.056  1.00  0.00     0.049 A 
ATOM     44  N   UNL     1      -5.220  11.672   6.585  1.00  0.00    -0.248 NA
ATOM     45  C   UNL     1      -6.464  12.174   4.726  1.00  0.00     0.031 C 
ATOM     46  C   UNL     1      -2.346  10.984   6.131  1.00  0.00     0.029 A 
ATOM     47  N   UNL     1      -1.429  12.425   4.654  1.00  0.00    -0.354 N 
ATOM     48  C   UNL     1      -6.499  11.212   6.797  1.00  0.00     0.074 A 
ATOM     49  C   UNL     1      -7.263  11.676   5.672  1.00  0.00     0.031 C 
ATOM     50  C   UNL     1      -1.079  11.207   6.525  1.00  0.00     0.029 A 
ATOM     51  C   UNL     1      -0.634  12.401   5.827  1.00  0.00     0.049 A 
ATOM     52  H   UNL     1      -1.165  12.730   3.756  1.00  0.00     0.167 HD
ATOM     53  C   UNL     1      -6.690  10.355   7.836  1.00  0.00     0.037 A 
ATOM     54  C   UNL     1      -0.292  13.572   6.449  1.00  0.00     0.037 A 
ATOM     55  C   UNL     1      -5.511  10.375   8.702  1.00  0.00     0.049 A 
ATOM     56  C   UNL     1      -0.862  13.665   7.846  1.00  0.00     0.074 A 
ATOM     57  C   UNL     1      -4.433   9.522   8.848  1.00  0.00     0.029 A 
ATOM     58  N   UNL     1      -5.148  11.583   9.297  1.00  0.00    -0.354 N 
ATOM     59  N   UNL     1      -1.965  13.075   8.225  1.00  0.00    -0.248 NA
ATOM     60  C   UNL     1      -0.202  14.381   8.932  1.00  0.00     0.031 C 
ATOM     61  C   UNL     1      -3.366  10.277   9.416  1.00  0.00     0.029 A 
ATOM     62  C   UNL     1      -3.816  11.565   9.661  1.00  0.00     0.049 A 
ATOM     63  H   UNL     1      -5.757  12.344   9.437  1.00  0.00     0.167 HD
ATOM     64  C   UNL     1      -2.148  13.278   9.568  1.00  0.00     0.074 A 
ATOM     65  C   UNL     1      -1.023  14.108   9.961  1.00  0.00     0.031 C 
ATOM     66  C   UNL     1      -3.192  12.736  10.264  1.00  0.00     0.037 A 
BRANCH  53  67
ATOM     67  C   UNL     1      -7.810   9.346   7.968  1.00  0.00     0.064 A 
ATOM     68  C   UNL     1      -7.838   8.485   9.088  1.00  0.00     0.173 A 
ATOM     69  C   UNL     1      -8.798   9.072   6.997  1.00  0.00     0.173 A 
ATOM     70  F   UNL     1      -6.960   8.624  10.091  1.00  0.00    -0.203 F 
ATOM     71  C   UNL     1      -8.754   7.433   9.209  1.00  0.00     0.198 A 
ATOM     72  C   UNL     1      -9.740   8.048   7.140  1.00  0.00     0.198 A 
ATOM     73  F   UNL     1      -8.874   9.735   5.841  1.00  0.00    -0.203 F 
ATOM     74  F   UNL     1      -8.692   6.616  10.270  1.00  0.00    -0.200 F 
ATOM     75  C   UNL     1      -9.710   7.219   8.238  1.00  0.00     0.200 A 
ATOM     76  F   UNL     1     -10.659   7.856   6.181  1.00  0.00    -0.200 F 
ATOM     77  F   UNL     1     -10.586   6.212   8.350  1.00  0.00    -0.200 F 
ENDBRANCH  53  67
BRANCH  54  78
ATOM     78  C   UNL     1      -0.157  14.697   5.473  1.00  0.00     0.064 A 
ATOM     79  C   UNL     1       0.797  14.536   4.444  1.00  0.00     0.173 A 
ATOM     80  C   UNL     1      -1.206  15.595   5.243  1.00  0.00     0.173 A 
ATOM     81  F   UNL     1       1.841  13.710   4.626  1.00  0.00    -0.203 F 
ATOM     82  C   UNL     1       0.590  15.074   3.176  1.00  0.00     0.198 A 
ATOM     83  C   UNL     1      -1.381  16.172   3.981  1.00  0.00     0.198 A 
ATOM     84  F   UNL     1      -2.135  15.811   6.184  1.00  0.00    -0.203 F 
ATOM     85  F   UNL     1       1.413  14.746   2.169  1.00  0.00    -0.200 F 
ATOM     86  C   UNL     1      -0.522  15.859   2.936  1.00  0.00     0.200 A 
ATOM     87  F   UNL     1      -2.453  16.942   3.744  1.00  0.00    -0.200 F 
ATOM     88  F   UNL     1      -0.795  16.276   1.691  1.00  0.00    -0.200 F 
ENDBRANCH  54  78
BRANCH  66  89
ATOM     89  C   UNL     1      -3.657  13.189  11.631  1.00  0.00     0.064 A 
ATOM     90  C   UNL     1      -3.412  14.469  12.155  1.00  0.00     0.173 A 
ATOM     91  C   UNL     1      -4.518  12.375  12.408  1.00  0.00     0.173 A 
ATOM     92  F   UNL     1      -2.744  15.397  11.456  1.00  0.00    -0.203 F 
ATOM     93  C   UNL     1      -3.904  14.869  13.400  1.00  0.00     0.198 A 
ATOM     94  C   UNL     1      -5.069  12.805  13.614  1.00  0.00     0.198 A 
ATOM     95  F   UNL     1      -4.882  11.148  12.008  1.00  0.00    -0.203 F 
ATOM     96  F   UNL     1      -3.585  16.079  13.879  1.00  0.00    -0.200 F 
ATOM     97  C   UNL     1      -4.740  14.042  14.123  1.00  0.00     0.200 A 
ATOM     98  F   UNL     1      -5.938  12.019  14.265  1.00  0.00    -0.200 F 
ATOM     99  F   UNL     1      -5.248  14.447  15.295  1.00  0.00    -0.200 F 
ENDBRANCH  66  89
ENDBRANCH  40  41
ENDBRANCH  32  35
ENDBRANCH  30  31
ENDBRANCH  29  30
ENDBRANCH  28  29
ENDBRANCH   1  28
TORSDOF 19
