REMARK SMILES CC(C)C[N@H+](CC[NH+](C)C)[C@@H]1CCC[C@]([NH3+])(C(=O)NCCCCCCNC(=O)c2ccc(-c3c4nc(c(-c5c(F)c(F)c(F)c(F)c5F)c5ccc([nH]5)c(-c5c(F)c(F)c(F)c(F)c5F)c5nc(c(-c6c(F)c(F)c(F)c(F)c6F)c6ccc3[nH]6)C=C5)C=C4)cc2)C1
REMARK SMILES IDX 21 1 20 2 19 3 17 4 18 5 15 7 11 8 12 9 92 10 13 11 14 12
REMARK SMILES IDX 5 13 4 15 2 16 1 17 3 18 6 19 7 20 8 21 9 22 10 23 16 25
REMARK SMILES IDX 22 29 23 30 24 31 25 32 26 33 27 34 28 36 29 37 30 38 91 39
REMARK SMILES IDX 31 40 90 41 32 42 33 43 34 44 84 45 35 46 89 47 83 48 85 49
REMARK SMILES IDX 36 50 88 51 82 52 81 53 37 55 69 56 49 57 68 58 50 59 53 60
REMARK SMILES IDX 67 61 86 62 51 63 52 64 66 66 87 67 54 68 38 69 39 70 47 71
REMARK SMILES IDX 40 72 41 73 45 74 48 75 42 76 43 77 46 78 44 79 70 80 71 81
REMARK SMILES IDX 79 82 72 83 73 84 77 85 80 86 74 87 75 88 78 89 76 90 55 91
REMARK SMILES IDX 56 92 64 93 57 94 58 95 62 96 65 97 59 98 60 99 63 100
REMARK SMILES IDX 61 101
REMARK H PARENT 19 6 5 14 8 24 16 26 16 27 16 28 26 35 85 54 53 65
REMARK Flexibility Score: inf
ROOT
ATOM      1  C   UNL     1      -6.465  -1.079  -3.205  1.00  0.00     0.021 C 
ENDROOT
BRANCH   1   2
ATOM      2  C   UNL     1      -6.030   0.269  -2.635  1.00  0.00     0.116 C 
BRANCH   2   3
ATOM      3  N   UNL     1      -6.973   0.833  -1.679  1.00  0.00    -0.351 N 
ATOM      4  C   UNL     1      -6.798   1.778  -0.711  1.00  0.00     0.281 C 
ATOM      5  O   UNL     1      -7.696   2.639  -0.672  1.00  0.00    -0.268 OA
ATOM      6  H   UNL     1      -7.887   0.472  -1.742  1.00  0.00     0.163 HD
BRANCH   4   7
ATOM      7  C   UNL     1      -5.675   1.791   0.414  1.00  0.00     0.179 C 
ATOM      8  C   UNL     1      -3.388   1.823  -0.825  1.00  0.00     0.191 C 
ATOM      9  C   UNL     1      -3.267   0.294  -0.480  1.00  0.00     0.065 C 
ATOM     10  C   UNL     1      -4.297   2.433   0.228  1.00  0.00     0.144 C 
ATOM     11  C   UNL     1      -4.464  -0.441   0.189  1.00  0.00     0.013 C 
ATOM     12  C   UNL     1      -5.452   0.400   1.000  1.00  0.00     0.079 C 
BRANCH   8  13
ATOM     13  N   UNL     1      -3.619   2.206  -2.258  1.00  0.00    -0.327 N 
ATOM     14  H   UNL     1      -4.146   1.407  -2.610  1.00  0.00     0.348 HD
BRANCH  13  15
ATOM     15  C   UNL     1      -2.349   2.300  -3.021  1.00  0.00     0.265 C 
BRANCH  15  16
ATOM     16  C   UNL     1      -2.229   2.542  -4.573  1.00  0.00     0.038 C 
ATOM     17  C   UNL     1      -3.474   2.637  -5.457  1.00  0.00     0.013 C 
ATOM     18  C   UNL     1      -1.364   3.781  -4.854  1.00  0.00     0.013 C 
ENDBRANCH  15  16
ENDBRANCH  13  15
BRANCH  13  19
ATOM     19  C   UNL     1      -4.589   3.277  -2.560  1.00  0.00     0.324 C 
BRANCH  19  20
ATOM     20  C   UNL     1      -4.783   4.704  -1.985  1.00  0.00     0.323 C 
BRANCH  20  21
ATOM     21  N   UNL     1      -3.743   5.715  -2.194  1.00  0.00    -0.335 N 
ATOM     22  C   UNL     1      -4.331   7.032  -1.893  1.00  0.00     0.332 C 
ATOM     23  C   UNL     1      -2.579   5.527  -1.332  1.00  0.00     0.332 C 
ATOM     24  H   UNL     1      -3.422   5.637  -3.159  1.00  0.00     0.347 HD
ENDBRANCH  20  21
ENDBRANCH  19  20
ENDBRANCH  13  19
ENDBRANCH   8  13
BRANCH   7  25
ATOM     25  N   UNL     1      -6.274   2.635   1.516  1.00  0.00    -0.345 N 
ATOM     26  H   UNL     1      -5.614   2.700   2.292  1.00  0.00     0.345 HD
ATOM     27  H   UNL     1      -7.139   2.205   1.842  1.00  0.00     0.345 HD
ATOM     28  H   UNL     1      -6.472   3.570   1.160  1.00  0.00     0.345 HD
ENDBRANCH   7  25
ENDBRANCH   4   7
ENDBRANCH   2   3
ENDBRANCH   1   2
BRANCH   1  29
ATOM     29  C   UNL     1      -6.191  -1.179  -4.712  1.00  0.00     0.002 C 
BRANCH  29  30
ATOM     30  C   UNL     1      -4.725  -1.042  -5.134  1.00  0.00     0.002 C 
BRANCH  30  31
ATOM     31  C   UNL     1      -3.763  -2.106  -4.620  1.00  0.00     0.021 C 
BRANCH  31  32
ATOM     32  C   UNL     1      -4.238  -3.537  -4.798  1.00  0.00     0.116 C 
BRANCH  32  33
ATOM     33  N   UNL     1      -4.586  -3.865  -6.171  1.00  0.00    -0.352 N 
ATOM     34  C   UNL     1      -4.413  -5.061  -6.830  1.00  0.00     0.251 C 
ATOM     35  H   UNL     1      -4.998  -3.141  -6.696  1.00  0.00     0.163 HD
ATOM     36  O   UNL     1      -4.685  -5.183  -8.010  1.00  0.00    -0.269 OA
BRANCH  34  37
ATOM     37  C   UNL     1      -3.846  -6.194  -6.071  1.00  0.00     0.039 A 
ATOM     38  C   UNL     1      -2.720  -6.849  -6.574  1.00  0.00     0.014 A 
ATOM     39  C   UNL     1      -4.391  -6.549  -4.835  1.00  0.00     0.014 A 
ATOM     40  C   UNL     1      -2.099  -7.830  -5.803  1.00  0.00     0.010 A 
ATOM     41  C   UNL     1      -3.724  -7.465  -4.036  1.00  0.00     0.010 A 
ATOM     42  C   UNL     1      -2.580  -8.122  -4.517  1.00  0.00    -0.014 A 
BRANCH  42  43
ATOM     43  C   UNL     1      -1.947  -9.149  -3.658  1.00  0.00     0.031 A 
ATOM     44  C   UNL     1      -2.740 -10.365  -3.276  1.00  0.00     0.074 A 
ATOM     45  C   UNL     1      -0.722  -8.940  -3.142  1.00  0.00     0.049 A 
ATOM     46  N   UNL     1      -2.464 -11.297  -2.401  1.00  0.00    -0.248 NA
ATOM     47  C   UNL     1      -4.045 -10.526  -3.938  1.00  0.00     0.031 C 
ATOM     48  C   UNL     1       0.124  -7.778  -3.414  1.00  0.00     0.029 A 
ATOM     49  N   UNL     1       0.010  -9.687  -2.255  1.00  0.00    -0.354 N 
ATOM     50  C   UNL     1      -3.575 -12.130  -2.383  1.00  0.00     0.074 A 
ATOM     51  C   UNL     1      -4.547 -11.566  -3.292  1.00  0.00     0.031 C 
ATOM     52  C   UNL     1       1.263  -7.892  -2.712  1.00  0.00     0.029 A 
ATOM     53  C   UNL     1       1.207  -9.110  -1.908  1.00  0.00     0.049 A 
ATOM     54  H   UNL     1      -0.293 -10.555  -1.901  1.00  0.00     0.167 HD
ATOM     55  C   UNL     1      -3.756 -13.274  -1.683  1.00  0.00     0.037 A 
ATOM     56  C   UNL     1       2.141  -9.511  -1.024  1.00  0.00     0.037 A 
ATOM     57  C   UNL     1      -2.765 -13.842  -0.810  1.00  0.00     0.049 A 
ATOM     58  C   UNL     1       1.927 -10.792  -0.265  1.00  0.00     0.074 A 
ATOM     59  C   UNL     1      -2.814 -15.031  -0.105  1.00  0.00     0.029 A 
ATOM     60  N   UNL     1      -1.540 -13.254  -0.523  1.00  0.00    -0.354 N 
ATOM     61  N   UNL     1       0.900 -11.607  -0.294  1.00  0.00    -0.248 NA
ATOM     62  C   UNL     1       3.001 -11.214   0.644  1.00  0.00     0.031 C 
ATOM     63  C   UNL     1      -1.640 -15.139   0.647  1.00  0.00     0.029 A 
ATOM     64  C   UNL     1      -0.833 -14.047   0.365  1.00  0.00     0.049 A 
ATOM     65  H   UNL     1      -1.222 -12.400  -0.895  1.00  0.00     0.167 HD
ATOM     66  C   UNL     1       1.216 -12.654   0.562  1.00  0.00     0.074 A 
ATOM     67  C   UNL     1       2.532 -12.370   1.097  1.00  0.00     0.031 C 
ATOM     68  C   UNL     1       0.486 -13.754   0.869  1.00  0.00     0.037 A 
BRANCH  55  69
ATOM     69  C   UNL     1      -5.080 -13.969  -1.828  1.00  0.00     0.064 A 
ATOM     70  C   UNL     1      -5.476 -14.565  -3.036  1.00  0.00     0.173 A 
ATOM     71  C   UNL     1      -5.969 -14.034  -0.745  1.00  0.00     0.173 A 
ATOM     72  F   UNL     1      -4.670 -14.521  -4.108  1.00  0.00    -0.203 F 
ATOM     73  C   UNL     1      -6.731 -15.154  -3.167  1.00  0.00     0.198 A 
ATOM     74  C   UNL     1      -7.207 -14.658  -0.869  1.00  0.00     0.198 A 
ATOM     75  F   UNL     1      -5.640 -13.487   0.435  1.00  0.00    -0.203 F 
ATOM     76  F   UNL     1      -7.115 -15.650  -4.352  1.00  0.00    -0.200 F 
ATOM     77  C   UNL     1      -7.593 -15.205  -2.083  1.00  0.00     0.200 A 
ATOM     78  F   UNL     1      -8.034 -14.718   0.184  1.00  0.00    -0.200 F 
ATOM     79  F   UNL     1      -8.801 -15.770  -2.212  1.00  0.00    -0.200 F 
ENDBRANCH  55  69
BRANCH  56  80
ATOM     80  C   UNL     1       3.369  -8.697  -0.837  1.00  0.00     0.064 A 
ATOM     81  C   UNL     1       4.607  -9.143  -1.320  1.00  0.00     0.173 A 
ATOM     82  C   UNL     1       3.326  -7.443  -0.209  1.00  0.00     0.173 A 
ATOM     83  F   UNL     1       4.701 -10.342  -1.912  1.00  0.00    -0.203 F 
ATOM     84  C   UNL     1       5.758  -8.370  -1.174  1.00  0.00     0.198 A 
ATOM     85  C   UNL     1       4.473  -6.660  -0.087  1.00  0.00     0.198 A 
ATOM     86  F   UNL     1       2.165  -6.967   0.262  1.00  0.00    -0.203 F 
ATOM     87  F   UNL     1       6.934  -8.833  -1.618  1.00  0.00    -0.200 F 
ATOM     88  C   UNL     1       5.688  -7.126  -0.565  1.00  0.00     0.200 A 
ATOM     89  F   UNL     1       4.398  -5.451   0.487  1.00  0.00    -0.200 F 
ATOM     90  F   UNL     1       6.792  -6.377  -0.438  1.00  0.00    -0.200 F 
ENDBRANCH  56  80
BRANCH  68  91
ATOM     91  C   UNL     1       1.106 -14.768   1.784  1.00  0.00     0.064 A 
ATOM     92  C   UNL     1       1.233 -14.544   3.161  1.00  0.00     0.173 A 
ATOM     93  C   UNL     1       1.497 -16.020   1.281  1.00  0.00     0.173 A 
ATOM     94  F   UNL     1       0.885 -13.359   3.687  1.00  0.00    -0.203 F 
ATOM     95  C   UNL     1       1.737 -15.533   4.002  1.00  0.00     0.198 A 
ATOM     96  C   UNL     1       1.974 -17.015   2.128  1.00  0.00     0.198 A 
ATOM     97  F   UNL     1       1.389 -16.285  -0.030  1.00  0.00    -0.203 F 
ATOM     98  F   UNL     1       1.876 -15.288   5.312  1.00  0.00    -0.200 F 
ATOM     99  C   UNL     1       2.095 -16.770   3.487  1.00  0.00     0.200 A 
ATOM    100  F   UNL     1       2.304 -18.215   1.630  1.00  0.00    -0.200 F 
ATOM    101  F   UNL     1       2.560 -17.728   4.301  1.00  0.00    -0.200 F 
ENDBRANCH  68  91
ENDBRANCH  42  43
ENDBRANCH  34  37
ENDBRANCH  32  33
ENDBRANCH  31  32
ENDBRANCH  30  31
ENDBRANCH  29  30
ENDBRANCH   1  29
TORSDOF 20
