REMARK SMILES CCC(CC)(NC(=O)CN1CCCCCC1=O)C(=O)NCCCCCCNC(=O)c1ccc(-c2c3nc(c(-c4c(F)c(F)c(F)c(F)c4F)c4ccc([nH]4)c(-c4c(F)c(F)c(F)c(F)c4F)c4nc(c(-c5c(F)c(F)c(F)c(F)c5F)c5ccc2[nH]5)C=C4)C=C3)cc1
REMARK SMILES IDX 21 1 20 2 18 3 19 4 3 6 2 7 1 8 4 9 5 10 6 11 7 12 8 14 9 15
REMARK SMILES IDX 10 16 11 17 12 18 13 19 14 20 16 22 17 23 15 24 22 26 23 27
REMARK SMILES IDX 24 28 25 29 26 30 27 31 28 32 29 34 30 35 31 36 92 37 32 38
REMARK SMILES IDX 91 39 33 40 34 41 35 42 85 43 36 44 90 45 84 46 86 47 37 48
REMARK SMILES IDX 89 49 83 50 82 51 38 53 70 54 50 55 69 56 51 57 54 58 68 59
REMARK SMILES IDX 87 60 52 61 53 62 67 64 88 65 55 66 39 67 40 68 48 69 41 70
REMARK SMILES IDX 42 71 46 72 49 73 43 74 44 75 47 76 45 77 71 78 72 79 80 80
REMARK SMILES IDX 73 81 74 82 78 83 81 84 75 85 76 86 79 87 77 88 56 89 57 90
REMARK SMILES IDX 65 91 58 92 59 93 63 94 66 95 60 96 61 97 64 98 62 99
REMARK H PARENT 20 5 6 13 27 33 86 52 54 63
REMARK Flexibility Score: 80.00
ROOT
ATOM      1  C   UNL     1       2.116  -3.619   4.122  1.00  0.00     0.116 C 
ENDROOT
BRANCH   1   2
ATOM      2  N   UNL     1       2.673  -2.524   3.346  1.00  0.00    -0.354 N 
ATOM      3  C   UNL     1       2.174  -1.779   2.315  1.00  0.00     0.245 C 
ATOM      4  O   UNL     1       2.858  -0.804   1.994  1.00  0.00    -0.272 OA
ATOM      5  H   UNL     1       3.586  -2.270   3.615  1.00  0.00     0.163 HD
BRANCH   3   6
ATOM      6  C   UNL     1       0.751  -2.038   1.729  1.00  0.00     0.118 C 
BRANCH   6   7
ATOM      7  C   UNL     1       0.481  -1.352   0.367  1.00  0.00     0.035 C 
ATOM      8  C   UNL     1       0.486   0.172   0.325  1.00  0.00     0.007 C 
ENDBRANCH   6   7
BRANCH   6   9
ATOM      9  C   UNL     1      -0.217  -1.481   2.828  1.00  0.00     0.035 C 
ATOM     10  C   UNL     1      -1.709  -1.555   2.532  1.00  0.00     0.007 C 
ENDBRANCH   6   9
BRANCH   6  11
ATOM     11  N   UNL     1       0.532  -3.492   1.542  1.00  0.00    -0.340 N 
ATOM     12  C   UNL     1       1.212  -4.441   0.831  1.00  0.00     0.240 C 
ATOM     13  H   UNL     1      -0.254  -3.840   2.021  1.00  0.00     0.164 HD
ATOM     14  O   UNL     1       0.634  -5.530   0.721  1.00  0.00    -0.273 OA
BRANCH  12  15
ATOM     15  C   UNL     1       2.688  -4.284   0.387  1.00  0.00     0.219 C 
BRANCH  15  16
ATOM     16  N   UNL     1       3.040  -3.442  -0.757  1.00  0.00    -0.333 N 
BRANCH  16  17
ATOM     17  C   UNL     1       4.226  -2.583  -0.645  1.00  0.00     0.120 C 
BRANCH  17  18
ATOM     18  C   UNL     1       3.984  -1.118  -0.996  1.00  0.00     0.022 C 
BRANCH  18  19
ATOM     19  C   UNL     1       3.738  -0.803  -2.466  1.00  0.00     0.002 C 
BRANCH  19  20
ATOM     20  C   UNL     1       2.667  -1.651  -3.142  1.00  0.00     0.010 CG0
ATOM     21  G   UNL     1       3.048  -3.121  -3.215  1.00  0.00     0.000 G0
ENDBRANCH  19  20
ENDBRANCH  18  19
ENDBRANCH  17  18
ENDBRANCH  16  17
BRANCH  16  22
ATOM     22  C   UNL     1       2.582  -3.879  -1.993  1.00  0.00     0.223 C 
ATOM     23  O   UNL     1       1.833  -4.847  -2.117  1.00  0.00    -0.275 OA
BRANCH  22  24
ATOM     24  C   UNL     1       3.048  -3.121  -3.215  1.00  0.00     0.100 CG0
ATOM     25  G   UNL     1       2.667  -1.651  -3.142  1.00  0.00     0.000 G0
ENDBRANCH  22  24
ENDBRANCH  16  22
ENDBRANCH  15  16
ENDBRANCH  12  15
ENDBRANCH   6  11
ENDBRANCH   3   6
ENDBRANCH   1   2
BRANCH   1  26
ATOM     26  C   UNL     1       2.831  -4.951   3.898  1.00  0.00     0.021 C 
BRANCH  26  27
ATOM     27  C   UNL     1       4.361  -4.898   3.952  1.00  0.00     0.002 C 
BRANCH  27  28
ATOM     28  C   UNL     1       4.953  -4.302   5.230  1.00  0.00     0.002 C 
BRANCH  28  29
ATOM     29  C   UNL     1       4.394  -4.874   6.530  1.00  0.00     0.021 C 
BRANCH  29  30
ATOM     30  C   UNL     1       4.459  -6.390   6.633  1.00  0.00     0.116 C 
BRANCH  30  31
ATOM     31  N   UNL     1       5.822  -6.874   6.739  1.00  0.00    -0.352 N 
ATOM     32  C   UNL     1       6.346  -7.726   7.678  1.00  0.00     0.251 C 
ATOM     33  H   UNL     1       6.449  -6.552   6.053  1.00  0.00     0.163 HD
ATOM     34  O   UNL     1       7.557  -7.908   7.754  1.00  0.00    -0.269 OA
BRANCH  32  35
ATOM     35  C   UNL     1       5.433  -8.407   8.620  1.00  0.00     0.039 A 
ATOM     36  C   UNL     1       5.742  -8.402   9.981  1.00  0.00     0.014 A 
ATOM     37  C   UNL     1       4.268  -9.030   8.162  1.00  0.00     0.014 A 
ATOM     38  C   UNL     1       4.863  -8.994  10.889  1.00  0.00     0.010 A 
ATOM     39  C   UNL     1       3.353  -9.544   9.075  1.00  0.00     0.010 A 
ATOM     40  C   UNL     1       3.652  -9.552  10.445  1.00  0.00    -0.014 A 
BRANCH  40  41
ATOM     41  C   UNL     1       2.715 -10.197  11.399  1.00  0.00     0.031 A 
ATOM     42  C   UNL     1       2.442 -11.674  11.293  1.00  0.00     0.074 A 
ATOM     43  C   UNL     1       2.092  -9.458  12.337  1.00  0.00     0.049 A 
ATOM     44  N   UNL     1       1.631 -12.420  12.000  1.00  0.00    -0.248 NA
ATOM     45  C   UNL     1       3.155 -12.404  10.233  1.00  0.00     0.031 C 
ATOM     46  C   UNL     1       2.238  -8.012  12.511  1.00  0.00     0.029 A 
ATOM     47  N   UNL     1       1.205  -9.823  13.319  1.00  0.00    -0.354 N 
ATOM     48  C   UNL     1       1.739 -13.700  11.470  1.00  0.00     0.074 A 
ATOM     49  C   UNL     1       2.634 -13.617  10.338  1.00  0.00     0.031 C 
ATOM     50  C   UNL     1       1.484  -7.616  13.550  1.00  0.00     0.029 A 
ATOM     51  C   UNL     1       0.778  -8.772  14.095  1.00  0.00     0.049 A 
ATOM     52  H   UNL     1       0.903 -10.750  13.454  1.00  0.00     0.167 HD
ATOM     53  C   UNL     1       1.173 -14.849  11.910  1.00  0.00     0.037 A 
ATOM     54  C   UNL     1      -0.087  -8.748  15.126  1.00  0.00     0.037 A 
ATOM     55  C   UNL     1       0.295 -14.933  13.046  1.00  0.00     0.049 A 
ATOM     56  C   UNL     1      -0.708 -10.040  15.590  1.00  0.00     0.074 A 
ATOM     57  C   UNL     1      -0.323 -16.050  13.580  1.00  0.00     0.029 A 
ATOM     58  N   UNL     1      -0.086 -13.852  13.827  1.00  0.00    -0.354 N 
ATOM     59  N   UNL     1      -0.557 -11.252  15.113  1.00  0.00    -0.248 NA
ATOM     60  C   UNL     1      -1.607  -9.963  16.750  1.00  0.00     0.031 C 
ATOM     61  C   UNL     1      -1.104 -15.639  14.666  1.00  0.00     0.029 A 
ATOM     62  C   UNL     1      -0.931 -14.276  14.839  1.00  0.00     0.049 A 
ATOM     63  H   UNL     1       0.203 -12.922  13.684  1.00  0.00     0.167 HD
ATOM     64  C   UNL     1      -1.307 -12.083  15.935  1.00  0.00     0.074 A 
ATOM     65  C   UNL     1      -1.899 -11.239  16.951  1.00  0.00     0.031 C 
ATOM     66  C   UNL     1      -1.490 -13.424  15.857  1.00  0.00     0.037 A 
BRANCH  53  67
ATOM     67  C   UNL     1       1.508 -16.112  11.170  1.00  0.00     0.064 A 
ATOM     68  C   UNL     1       2.793 -16.674  11.230  1.00  0.00     0.173 A 
ATOM     69  C   UNL     1       0.532 -16.788  10.424  1.00  0.00     0.173 A 
ATOM     70  F   UNL     1       3.768 -16.059  11.918  1.00  0.00    -0.203 F 
ATOM     71  C   UNL     1       3.095 -17.851  10.550  1.00  0.00     0.198 A 
ATOM     72  C   UNL     1       0.829 -17.983   9.771  1.00  0.00     0.198 A 
ATOM     73  F   UNL     1      -0.713 -16.298  10.335  1.00  0.00    -0.203 F 
ATOM     74  F   UNL     1       4.342 -18.341  10.583  1.00  0.00    -0.200 F 
ATOM     75  C   UNL     1       2.111 -18.508   9.829  1.00  0.00     0.200 A 
ATOM     76  F   UNL     1      -0.126 -18.625   9.085  1.00  0.00    -0.200 F 
ATOM     77  F   UNL     1       2.400 -19.647   9.183  1.00  0.00    -0.200 F 
ENDBRANCH  53  67
BRANCH  54  78
ATOM     78  C   UNL     1      -0.407  -7.466  15.809  1.00  0.00     0.064 A 
ATOM     79  C   UNL     1      -0.013  -7.233  17.134  1.00  0.00     0.173 A 
ATOM     80  C   UNL     1      -1.143  -6.462  15.163  1.00  0.00     0.173 A 
ATOM     81  F   UNL     1       0.678  -8.169  17.802  1.00  0.00    -0.203 F 
ATOM     82  C   UNL     1      -0.376  -6.063  17.799  1.00  0.00     0.198 A 
ATOM     83  C   UNL     1      -1.477  -5.278  15.818  1.00  0.00     0.198 A 
ATOM     84  F   UNL     1      -1.537  -6.629  13.892  1.00  0.00    -0.203 F 
ATOM     85  F   UNL     1      -0.042  -5.896  19.086  1.00  0.00    -0.200 F 
ATOM     86  C   UNL     1      -1.105  -5.086  17.140  1.00  0.00     0.200 A 
ATOM     87  F   UNL     1      -2.167  -4.329  15.172  1.00  0.00    -0.200 F 
ATOM     88  F   UNL     1      -1.459  -3.964  17.781  1.00  0.00    -0.200 F 
ENDBRANCH  54  78
BRANCH  66  89
ATOM     89  C   UNL     1      -2.315 -14.069  16.933  1.00  0.00     0.064 A 
ATOM     90  C   UNL     1      -3.701 -13.876  17.021  1.00  0.00     0.173 A 
ATOM     91  C   UNL     1      -1.708 -14.914  17.875  1.00  0.00     0.173 A 
ATOM     92  F   UNL     1      -4.327 -13.067  16.153  1.00  0.00    -0.203 F 
ATOM     93  C   UNL     1      -4.444 -14.475  18.036  1.00  0.00     0.198 A 
ATOM     94  C   UNL     1      -2.458 -15.539  18.866  1.00  0.00     0.198 A 
ATOM     95  F   UNL     1      -0.386 -15.140  17.828  1.00  0.00    -0.203 F 
ATOM     96  F   UNL     1      -5.757 -14.229  18.137  1.00  0.00    -0.200 F 
ATOM     97  C   UNL     1      -3.823 -15.310  18.953  1.00  0.00     0.200 A 
ATOM     98  F   UNL     1      -1.859 -16.358  19.742  1.00  0.00    -0.200 F 
ATOM     99  F   UNL     1      -4.540 -15.888  19.926  1.00  0.00    -0.200 F 
ENDBRANCH  66  89
ENDBRANCH  40  41
ENDBRANCH  32  35
ENDBRANCH  30  31
ENDBRANCH  29  30
ENDBRANCH  28  29
ENDBRANCH  27  28
ENDBRANCH  26  27
ENDBRANCH   1  26
TORSDOF 18
