REMARK SMILES Cc1c(CC(=O)NCCCCCCNC(=O)c2ccc(-c3c4nc(c(-c5c(F)c(F)c(F)c(F)c5F)c5ccc([nH]5)c(-c5c(F)c(F)c(F)c(F)c5F)c5nc(c(-c6c(F)c(F)c(F)c(F)c6F)c6ccc3[nH]6)C=C5)C=C4)cc2)c2ccccc2n1C(=O)c1ccc(Cl)cc1
REMARK SMILES IDX 10 1 9 2 8 3 7 4 5 5 6 6 4 8 3 9 1 10 2 11 86 12 80 13 85 14
REMARK SMILES IDX 81 15 84 16 82 17 83 18 87 19 88 20 89 21 90 22 95 23 91 24
REMARK SMILES IDX 94 25 92 26 93 27 11 28 12 29 13 30 14 31 15 32 16 34 17 35
REMARK SMILES IDX 18 36 79 37 19 38 78 39 20 40 21 41 22 42 72 43 23 44 77 45
REMARK SMILES IDX 71 46 73 47 24 48 76 49 70 50 69 51 25 53 57 54 37 55 56 56
REMARK SMILES IDX 38 57 41 58 55 59 74 60 39 61 40 62 54 64 75 65 42 66 26 67
REMARK SMILES IDX 27 68 35 69 28 70 29 71 33 72 36 73 30 74 31 75 34 76 32 77
REMARK SMILES IDX 58 78 59 79 67 80 60 81 61 82 65 83 68 84 62 85 63 86 66 87
REMARK SMILES IDX 64 88 43 89 44 90 52 91 45 92 46 93 50 94 53 95 47 96 48 97
REMARK SMILES IDX 51 98 49 99
REMARK H PARENT 7 7 14 33 73 52 41 63
REMARK Flexibility Score: inf
ROOT
ATOM      1  C   UNL     1      -4.118  -2.167  -0.388  1.00  0.00     0.002 C 
ENDROOT
BRANCH   1   2
ATOM      2  C   UNL     1      -2.727  -1.535  -0.515  1.00  0.00     0.021 C 
BRANCH   2   3
ATOM      3  C   UNL     1      -1.638  -2.303   0.234  1.00  0.00     0.116 C 
BRANCH   3   4
ATOM      4  N   UNL     1      -1.296  -3.531  -0.454  1.00  0.00    -0.356 N 
ATOM      5  C   UNL     1      -0.195  -3.804  -1.214  1.00  0.00     0.224 C 
ATOM      6  O   UNL     1      -0.135  -4.896  -1.783  1.00  0.00    -0.275 OA
ATOM      7  H   UNL     1      -1.944  -4.267  -0.361  1.00  0.00     0.163 HD
BRANCH   5   8
ATOM      8  C   UNL     1       0.949  -2.805  -1.289  1.00  0.00     0.138 C 
BRANCH   8   9
ATOM      9  C   UNL     1       0.607  -1.536  -2.020  1.00  0.00    -0.010 A 
ATOM     10  C   UNL     1       1.265   0.239  -0.235  1.00  0.00     0.065 C 
ATOM     11  C   UNL     1       0.741  -0.232  -1.558  1.00  0.00     0.028 A 
ATOM     12  N   UNL     1       0.277   0.651  -2.545  1.00  0.00    -0.280 N 
ATOM     13  C   UNL     1       0.137  -1.457  -3.362  1.00  0.00     0.004 A 
ATOM     14  C   UNL     1       0.010  -0.105  -3.698  1.00  0.00     0.056 A 
ATOM     15  C   UNL     1      -0.160  -2.442  -4.333  1.00  0.00     0.010 A 
ATOM     16  C   UNL     1      -0.331   0.260  -5.019  1.00  0.00     0.027 A 
ATOM     17  C   UNL     1      -0.562  -2.070  -5.615  1.00  0.00     0.001 A 
ATOM     18  C   UNL     1      -0.633  -0.731  -5.956  1.00  0.00     0.002 A 
BRANCH  12  19
ATOM     19  C   UNL     1       0.120   2.062  -2.385  1.00  0.00     0.262 C 
ATOM     20  O   UNL     1       0.465   2.589  -1.339  1.00  0.00    -0.268 OA
BRANCH  19  21
ATOM     21  C   UNL     1      -0.431   2.969  -3.408  1.00  0.00     0.040 A 
ATOM     22  C   UNL     1      -1.775   2.892  -3.791  1.00  0.00     0.015 A 
ATOM     23  C   UNL     1       0.437   3.887  -4.007  1.00  0.00     0.015 A 
ATOM     24  C   UNL     1      -2.228   3.687  -4.848  1.00  0.00     0.021 A 
ATOM     25  C   UNL     1      -0.023   4.681  -5.058  1.00  0.00     0.021 A 
ATOM     26  C   UNL     1      -1.347   4.564  -5.486  1.00  0.00     0.041 A 
ATOM     27  Cl  UNL     1      -1.890   5.491  -6.828  1.00  0.00    -0.084 Cl
ENDBRANCH  19  21
ENDBRANCH  12  19
ENDBRANCH   8   9
ENDBRANCH   5   8
ENDBRANCH   3   4
ENDBRANCH   2   3
ENDBRANCH   1   2
BRANCH   1  28
ATOM     28  C   UNL     1      -4.681  -2.204   1.036  1.00  0.00     0.002 C 
BRANCH  28  29
ATOM     29  C   UNL     1      -4.749  -0.847   1.746  1.00  0.00     0.021 C 
BRANCH  29  30
ATOM     30  C   UNL     1      -5.547   0.217   0.989  1.00  0.00     0.116 C 
BRANCH  30  31
ATOM     31  N   UNL     1      -6.922  -0.166   0.740  1.00  0.00    -0.352 N 
ATOM     32  C   UNL     1      -8.066  -0.186   1.487  1.00  0.00     0.251 C 
ATOM     33  H   UNL     1      -7.064  -0.487  -0.180  1.00  0.00     0.163 HD
ATOM     34  O   UNL     1      -9.089  -0.558   0.906  1.00  0.00    -0.269 OA
BRANCH  32  35
ATOM     35  C   UNL     1      -8.156   0.167   2.933  1.00  0.00     0.039 A 
ATOM     36  C   UNL     1      -7.125   0.696   3.708  1.00  0.00     0.014 A 
ATOM     37  C   UNL     1      -9.396  -0.077   3.556  1.00  0.00     0.014 A 
ATOM     38  C   UNL     1      -7.294   0.904   5.073  1.00  0.00     0.010 A 
ATOM     39  C   UNL     1      -9.581   0.158   4.917  1.00  0.00     0.010 A 
ATOM     40  C   UNL     1      -8.514   0.616   5.686  1.00  0.00    -0.014 A 
BRANCH  40  41
ATOM     41  C   UNL     1      -8.624   0.881   7.120  1.00  0.00     0.031 A 
ATOM     42  C   UNL     1      -8.422   2.295   7.557  1.00  0.00     0.074 A 
ATOM     43  C   UNL     1      -8.996  -0.046   8.024  1.00  0.00     0.049 A 
ATOM     44  N   UNL     1      -7.591   2.761   8.437  1.00  0.00    -0.248 NA
ATOM     45  C   UNL     1      -9.241   3.326   6.900  1.00  0.00     0.031 C 
ATOM     46  C   UNL     1      -9.518  -1.390   7.776  1.00  0.00     0.029 A 
ATOM     47  N   UNL     1      -9.072   0.077   9.382  1.00  0.00    -0.354 N 
ATOM     48  C   UNL     1      -7.876   4.121   8.553  1.00  0.00     0.074 A 
ATOM     49  C   UNL     1      -8.844   4.431   7.531  1.00  0.00     0.031 C 
ATOM     50  C   UNL     1     -10.051  -1.875   8.919  1.00  0.00     0.029 A 
ATOM     51  C   UNL     1      -9.788  -0.936   9.997  1.00  0.00     0.049 A 
ATOM     52  H   UNL     1      -8.656   0.818   9.879  1.00  0.00     0.167 HD
ATOM     53  C   UNL     1      -7.424   4.885   9.585  1.00  0.00     0.037 A 
ATOM     54  C   UNL     1     -10.199  -0.967  11.285  1.00  0.00     0.037 A 
ATOM     55  C   UNL     1      -6.296   4.305  10.253  1.00  0.00     0.049 A 
ATOM     56  C   UNL     1      -9.361  -0.024  12.061  1.00  0.00     0.074 A 
ATOM     57  C   UNL     1      -5.007   3.977   9.885  1.00  0.00     0.029 A 
ATOM     58  N   UNL     1      -6.491   3.712  11.473  1.00  0.00    -0.354 N 
ATOM     59  N   UNL     1      -8.098  -0.201  12.331  1.00  0.00    -0.248 NA
ATOM     60  C   UNL     1      -9.864   1.322  12.288  1.00  0.00     0.031 C 
ATOM     61  C   UNL     1      -4.673   2.831  10.665  1.00  0.00     0.029 A 
ATOM     62  C   UNL     1      -5.779   2.540  11.463  1.00  0.00     0.049 A 
ATOM     63  H   UNL     1      -7.037   4.060  12.214  1.00  0.00     0.167 HD
ATOM     64  C   UNL     1      -7.564   1.077  12.369  1.00  0.00     0.074 A 
ATOM     65  C   UNL     1      -8.711   1.966  12.476  1.00  0.00     0.031 C 
ATOM     66  C   UNL     1      -6.262   1.303  12.030  1.00  0.00     0.037 A 
BRANCH  53  67
ATOM     67  C   UNL     1      -8.195   6.040  10.163  1.00  0.00     0.064 A 
ATOM     68  C   UNL     1      -7.556   6.984  10.989  1.00  0.00     0.173 A 
ATOM     69  C   UNL     1      -9.605   6.090  10.149  1.00  0.00     0.173 A 
ATOM     70  F   UNL     1      -6.221   6.987  11.115  1.00  0.00    -0.203 F 
ATOM     71  C   UNL     1      -8.282   7.894  11.764  1.00  0.00     0.198 A 
ATOM     72  C   UNL     1     -10.324   7.031  10.884  1.00  0.00     0.198 A 
ATOM     73  F   UNL     1     -10.332   5.165   9.507  1.00  0.00    -0.203 F 
ATOM     74  F   UNL     1      -7.639   8.710  12.611  1.00  0.00    -0.200 F 
ATOM     75  C   UNL     1      -9.665   7.918  11.709  1.00  0.00     0.200 A 
ATOM     76  F   UNL     1     -11.664   7.020  10.839  1.00  0.00    -0.200 F 
ATOM     77  F   UNL     1     -10.362   8.760  12.483  1.00  0.00    -0.200 F 
ENDBRANCH  53  67
BRANCH  54  78
ATOM     78  C   UNL     1     -11.443  -1.554  11.833  1.00  0.00     0.064 A 
ATOM     79  C   UNL     1     -11.584  -1.790  13.210  1.00  0.00     0.173 A 
ATOM     80  C   UNL     1     -12.616  -1.639  11.058  1.00  0.00     0.173 A 
ATOM     81  F   UNL     1     -10.525  -1.685  14.025  1.00  0.00    -0.203 F 
ATOM     82  C   UNL     1     -12.830  -2.065  13.781  1.00  0.00     0.198 A 
ATOM     83  C   UNL     1     -13.856  -1.927  11.626  1.00  0.00     0.198 A 
ATOM     84  F   UNL     1     -12.601  -1.348   9.749  1.00  0.00    -0.203 F 
ATOM     85  F   UNL     1     -12.938  -2.215  15.108  1.00  0.00    -0.200 F 
ATOM     86  C   UNL     1     -13.966  -2.124  12.990  1.00  0.00     0.200 A 
ATOM     87  F   UNL     1     -14.951  -1.948  10.854  1.00  0.00    -0.200 F 
ATOM     88  F   UNL     1     -15.169  -2.328  13.544  1.00  0.00    -0.200 F 
ENDBRANCH  54  78
BRANCH  66  89
ATOM     89  C   UNL     1      -5.345   0.118  11.955  1.00  0.00     0.064 A 
ATOM     90  C   UNL     1      -5.496  -0.925  11.026  1.00  0.00     0.173 A 
ATOM     91  C   UNL     1      -4.196   0.109  12.757  1.00  0.00     0.173 A 
ATOM     92  F   UNL     1      -6.511  -0.929  10.153  1.00  0.00    -0.203 F 
ATOM     93  C   UNL     1      -4.562  -1.956  10.942  1.00  0.00     0.198 A 
ATOM     94  C   UNL     1      -3.246  -0.902  12.645  1.00  0.00     0.198 A 
ATOM     95  F   UNL     1      -3.969   1.113  13.619  1.00  0.00    -0.203 F 
ATOM     96  F   UNL     1      -4.733  -2.948  10.055  1.00  0.00    -0.200 F 
ATOM     97  C   UNL     1      -3.434  -1.940  11.746  1.00  0.00     0.200 A 
ATOM     98  F   UNL     1      -2.131  -0.855  13.388  1.00  0.00    -0.200 F 
ATOM     99  F   UNL     1      -2.514  -2.907  11.634  1.00  0.00    -0.200 F 
ENDBRANCH  66  89
ENDBRANCH  40  41
ENDBRANCH  32  35
ENDBRANCH  30  31
ENDBRANCH  29  30
ENDBRANCH  28  29
ENDBRANCH   1  28
TORSDOF 16
