REMARK SMILES CCCC[C@H](C(=O)NCCCCCCNC(=O)c1ccc(-c2c3nc(c(-c4c(F)c(F)c(F)c(F)c4F)c4ccc([nH]4)c(-c4c(F)c(F)c(F)c(F)c4F)c4nc(c(-c5c(F)c(F)c(F)c(F)c5F)c5ccc2[nH]5)C=C4)C=C3)cc1)c1ccnn1C
REMARK SMILES IDX 11 1 10 2 9 3 8 4 6 5 7 6 5 8 4 9 3 10 2 11 1 12 81 13 82 14
REMARK SMILES IDX 85 15 83 16 84 17 86 18 12 19 13 20 14 21 15 22 16 23 17 25
REMARK SMILES IDX 18 26 19 27 80 28 20 29 79 30 21 31 22 32 23 33 73 34 24 35
REMARK SMILES IDX 78 36 72 37 74 38 25 39 77 40 71 41 70 42 26 44 58 45 38 46
REMARK SMILES IDX 57 47 39 48 42 49 56 50 75 51 40 52 41 53 55 55 76 56 43 57
REMARK SMILES IDX 27 58 28 59 36 60 29 61 30 62 34 63 37 64 31 65 32 66 35 67
REMARK SMILES IDX 33 68 59 69 60 70 68 71 61 72 62 73 66 74 69 75 63 76 64 77
REMARK SMILES IDX 67 78 65 79 44 80 45 81 53 82 46 83 47 84 51 85 54 86 48 87
REMARK SMILES IDX 49 88 52 89 50 90
REMARK H PARENT 8 7 15 24 74 43 42 54
REMARK Flexibility Score: inf
ROOT
ATOM      1  C   UNL     1       2.534   0.709   2.538  1.00  0.00     0.002 C 
ENDROOT
BRANCH   1   2
ATOM      2  C   UNL     1       1.053   0.455   2.224  1.00  0.00     0.021 C 
BRANCH   2   3
ATOM      3  C   UNL     1       0.336   1.615   1.541  1.00  0.00     0.116 C 
BRANCH   3   4
ATOM      4  N   UNL     1       0.900   1.920   0.242  1.00  0.00    -0.356 N 
ATOM      5  C   UNL     1       0.315   2.474  -0.860  1.00  0.00     0.229 C 
ATOM      6  O   UNL     1       1.035   2.648  -1.845  1.00  0.00    -0.274 OA
ATOM      7  H   UNL     1       1.852   1.692   0.138  1.00  0.00     0.163 HD
BRANCH   5   8
ATOM      8  C   UNL     1      -1.178   2.837  -0.833  1.00  0.00     0.127 C 
BRANCH   8   9
ATOM      9  C   UNL     1      -1.631   3.953   0.134  1.00  0.00     0.020 C 
BRANCH   9  10
ATOM     10  C   UNL     1      -0.631   4.907   0.826  1.00  0.00     0.001 C 
BRANCH  10  11
ATOM     11  C   UNL     1       0.613   5.380   0.068  1.00  0.00    -0.003 C 
ATOM     12  C   UNL     1       0.663   6.890  -0.108  1.00  0.00     0.004 C 
ENDBRANCH  10  11
ENDBRANCH   9  10
ENDBRANCH   8   9
BRANCH   8  13
ATOM     13  C   UNL     1      -1.727   2.940  -2.254  1.00  0.00     0.050 A 
ATOM     14  C   UNL     1      -2.169   1.893  -3.051  1.00  0.00     0.046 A 
ATOM     15  N   UNL     1      -1.841   4.055  -3.057  1.00  0.00    -0.272 N 
ATOM     16  C   UNL     1      -2.539   2.469  -4.273  1.00  0.00     0.135 A 
ATOM     17  N   UNL     1      -2.375   3.788  -4.269  1.00  0.00    -0.182 NA
ATOM     18  C   UNL     1      -1.522   5.438  -2.811  1.00  0.00     0.174 C 
ENDBRANCH   8  13
ENDBRANCH   5   8
ENDBRANCH   3   4
ENDBRANCH   2   3
ENDBRANCH   1   2
BRANCH   1  19
ATOM     19  C   UNL     1       2.831   1.929   3.415  1.00  0.00     0.002 C 
BRANCH  19  20
ATOM     20  C   UNL     1       2.108   1.964   4.763  1.00  0.00     0.021 C 
BRANCH  20  21
ATOM     21  C   UNL     1       2.272   0.713   5.619  1.00  0.00     0.116 C 
BRANCH  21  22
ATOM     22  N   UNL     1       3.657   0.438   5.961  1.00  0.00    -0.352 N 
ATOM     23  C   UNL     1       4.200   0.095   7.174  1.00  0.00     0.251 C 
ATOM     24  H   UNL     1       4.298   0.507   5.216  1.00  0.00     0.163 HD
ATOM     25  O   UNL     1       5.419   0.032   7.311  1.00  0.00    -0.269 OA
BRANCH  23  26
ATOM     26  C   UNL     1       3.316  -0.166   8.329  1.00  0.00     0.039 A 
ATOM     27  C   UNL     1       3.639   0.403   9.564  1.00  0.00     0.014 A 
ATOM     28  C   UNL     1       2.171  -0.957   8.198  1.00  0.00     0.014 A 
ATOM     29  C   UNL     1       2.779   0.233  10.650  1.00  0.00     0.010 A 
ATOM     30  C   UNL     1       1.275  -1.060   9.260  1.00  0.00     0.010 A 
ATOM     31  C   UNL     1       1.570  -0.467  10.497  1.00  0.00    -0.014 A 
BRANCH  31  32
ATOM     32  C   UNL     1       0.601  -0.576  11.618  1.00  0.00     0.031 A 
ATOM     33  C   UNL     1       0.261  -1.919  12.200  1.00  0.00     0.074 A 
ATOM     34  C   UNL     1      -0.014   0.533  12.073  1.00  0.00     0.049 A 
ATOM     35  N   UNL     1      -0.595  -2.219  13.146  1.00  0.00    -0.248 NA
ATOM     36  C   UNL     1       0.955  -3.083  11.629  1.00  0.00     0.031 C 
ATOM     37  C   UNL     1       0.196   1.887  11.559  1.00  0.00     0.029 A 
ATOM     38  N   UNL     1      -0.947   0.697  13.067  1.00  0.00    -0.354 N 
ATOM     39  C   UNL     1      -0.547  -3.601  13.274  1.00  0.00     0.074 A 
ATOM     40  C   UNL     1       0.376  -4.087  12.271  1.00  0.00     0.031 C 
ATOM     41  C   UNL     1      -0.563   2.746  12.257  1.00  0.00     0.029 A 
ATOM     42  C   UNL     1      -1.346   2.001  13.238  1.00  0.00     0.049 A 
ATOM     43  H   UNL     1      -1.298  -0.049  13.605  1.00  0.00     0.167 HD
ATOM     44  C   UNL     1      -1.194  -4.390  14.165  1.00  0.00     0.037 A 
ATOM     45  C   UNL     1      -2.248   2.534  14.085  1.00  0.00     0.037 A 
ATOM     46  C   UNL     1      -2.100  -3.900  15.171  1.00  0.00     0.049 A 
ATOM     47  C   UNL     1      -2.971   1.631  15.048  1.00  0.00     0.074 A 
ATOM     48  C   UNL     1      -2.764  -4.611  16.155  1.00  0.00     0.029 A 
ATOM     49  N   UNL     1      -2.477  -2.572  15.317  1.00  0.00    -0.354 N 
ATOM     50  N   UNL     1      -2.862   0.335  15.210  1.00  0.00    -0.248 NA
ATOM     51  C   UNL     1      -3.938   2.268  15.953  1.00  0.00     0.031 C 
ATOM     52  C   UNL     1      -3.587  -3.725  16.857  1.00  0.00     0.029 A 
ATOM     53  C   UNL     1      -3.387  -2.449  16.355  1.00  0.00     0.049 A 
ATOM     54  H   UNL     1      -2.146  -1.827  14.764  1.00  0.00     0.167 HD
ATOM     55  C   UNL     1      -3.721   0.006  16.251  1.00  0.00     0.074 A 
ATOM     56  C   UNL     1      -4.329   1.243  16.695  1.00  0.00     0.031 C 
ATOM     57  C   UNL     1      -3.981  -1.210  16.790  1.00  0.00     0.037 A 
BRANCH  44  58
ATOM     58  C   UNL     1      -0.947  -5.871  14.092  1.00  0.00     0.064 A 
ATOM     59  C   UNL     1       0.295  -6.430  14.430  1.00  0.00     0.173 A 
ATOM     60  C   UNL     1      -1.977  -6.747  13.716  1.00  0.00     0.173 A 
ATOM     61  F   UNL     1       1.318  -5.638  14.786  1.00  0.00    -0.203 F 
ATOM     62  C   UNL     1       0.506  -7.805  14.364  1.00  0.00     0.198 A 
ATOM     63  C   UNL     1      -1.773  -8.124  13.685  1.00  0.00     0.198 A 
ATOM     64  F   UNL     1      -3.187  -6.268  13.389  1.00  0.00    -0.203 F 
ATOM     65  F   UNL     1       1.716  -8.309  14.640  1.00  0.00    -0.200 F 
ATOM     66  C   UNL     1      -0.530  -8.651  14.000  1.00  0.00     0.200 A 
ATOM     67  F   UNL     1      -2.780  -8.941  13.348  1.00  0.00    -0.200 F 
ATOM     68  F   UNL     1      -0.329  -9.975  13.946  1.00  0.00    -0.200 F 
ENDBRANCH  44  58
BRANCH  45  69
ATOM     69  C   UNL     1      -2.506   3.998  14.073  1.00  0.00     0.064 A 
ATOM     70  C   UNL     1      -2.139   4.804  15.160  1.00  0.00     0.173 A 
ATOM     71  C   UNL     1      -3.132   4.621  12.983  1.00  0.00     0.173 A 
ATOM     72  F   UNL     1      -1.555   4.254  16.235  1.00  0.00    -0.203 F 
ATOM     73  C   UNL     1      -2.413   6.171  15.169  1.00  0.00     0.198 A 
ATOM     74  C   UNL     1      -3.375   5.993  12.979  1.00  0.00     0.198 A 
ATOM     75  F   UNL     1      -3.498   3.897  11.915  1.00  0.00    -0.203 F 
ATOM     76  F   UNL     1      -2.100   6.907  16.244  1.00  0.00    -0.200 F 
ATOM     77  C   UNL     1      -3.025   6.765  14.076  1.00  0.00     0.200 A 
ATOM     78  F   UNL     1      -3.951   6.566  11.914  1.00  0.00    -0.200 F 
ATOM     79  F   UNL     1      -3.285   8.079  14.084  1.00  0.00    -0.200 F 
ENDBRANCH  45  69
BRANCH  57  80
ATOM     80  C   UNL     1      -4.939  -1.261  17.948  1.00  0.00     0.064 A 
ATOM     81  C   UNL     1      -6.311  -1.019  17.784  1.00  0.00     0.173 A 
ATOM     82  C   UNL     1      -4.480  -1.591  19.233  1.00  0.00     0.173 A 
ATOM     83  F   UNL     1      -6.799  -0.684  16.580  1.00  0.00    -0.203 F 
ATOM     84  C   UNL     1      -7.182  -1.075  18.869  1.00  0.00     0.198 A 
ATOM     85  C   UNL     1      -5.360  -1.682  20.307  1.00  0.00     0.198 A 
ATOM     86  F   UNL     1      -3.179  -1.840  19.444  1.00  0.00    -0.203 F 
ATOM     87  F   UNL     1      -8.480  -0.785  18.698  1.00  0.00    -0.200 F 
ATOM     88  C   UNL     1      -6.708  -1.414  20.127  1.00  0.00     0.200 A 
ATOM     89  F   UNL     1      -4.902  -2.027  21.519  1.00  0.00    -0.200 F 
ATOM     90  F   UNL     1      -7.550  -1.476  21.168  1.00  0.00    -0.200 F 
ENDBRANCH  57  80
ENDBRANCH  31  32
ENDBRANCH  23  26
ENDBRANCH  21  22
ENDBRANCH  20  21
ENDBRANCH  19  20
ENDBRANCH   1  19
TORSDOF 17
