REMARK SMILES Cn1cc(/C=C/C(=O)N(CC(=O)NCCCCCCNC(=O)c2ccc(-c3c4nc(c(-c5c(F)c(F)c(F)c(F)c5F)c5ccc([nH]5)c(-c5c(F)c(F)c(F)c(F)c5F)c5nc(c(-c6c(F)c(F)c(F)c(F)c6F)c6ccc3[nH]6)C=C5)C=C4)cc2)C(C)(C)C)cn1
REMARK SMILES IDX 15 1 14 2 13 3 11 4 12 5 10 7 9 8 7 9 8 10 6 11 5 12 4 13
REMARK SMILES IDX 1 14 2 15 3 16 91 17 90 18 86 19 87 20 88 21 89 22 16 23
REMARK SMILES IDX 17 24 18 25 19 26 20 27 21 28 22 30 23 31 24 32 85 33 25 34
REMARK SMILES IDX 84 35 26 36 27 37 28 38 78 39 29 40 83 41 77 42 79 43 30 44
REMARK SMILES IDX 82 45 76 46 75 47 31 49 63 50 43 51 62 52 44 53 47 54 61 55
REMARK SMILES IDX 80 56 45 57 46 58 60 60 81 61 48 62 32 63 33 64 41 65 34 66
REMARK SMILES IDX 35 67 39 68 42 69 36 70 37 71 40 72 38 73 64 74 65 75 73 76
REMARK SMILES IDX 66 77 67 78 71 79 74 80 68 81 69 82 72 83 70 84 49 85 50 86
REMARK SMILES IDX 58 87 51 88 52 89 56 90 59 91 53 92 54 93 57 94 55 95
REMARK H PARENT 13 6 20 29 79 48 47 59
REMARK Flexibility Score: inf
ROOT
ATOM      1  C   UNL     1       4.909  -2.624  -3.891  1.00  0.00     0.021 C 
ENDROOT
BRANCH   1   2
ATOM      2  C   UNL     1       3.742  -2.824  -2.936  1.00  0.00     0.116 C 
BRANCH   2   3
ATOM      3  N   UNL     1       3.512  -4.206  -2.570  1.00  0.00    -0.355 N 
ATOM      4  C   UNL     1       3.529  -4.856  -1.375  1.00  0.00     0.239 C 
ATOM      5  O   UNL     1       3.044  -5.995  -1.373  1.00  0.00    -0.273 OA
ATOM      6  H   UNL     1       3.303  -4.790  -3.335  1.00  0.00     0.163 HD
BRANCH   4   7
ATOM      7  C   UNL     1       3.949  -4.218  -0.033  1.00  0.00     0.220 C 
BRANCH   7   8
ATOM      8  N   UNL     1       5.124  -3.338  -0.013  1.00  0.00    -0.325 N 
BRANCH   8   9
ATOM      9  C   UNL     1       5.057  -1.944   0.089  1.00  0.00     0.247 C 
ATOM     10  O   UNL     1       6.070  -1.239   0.046  1.00  0.00    -0.270 OA
BRANCH   9  11
ATOM     11  C   UNL     1       3.782  -1.155   0.277  1.00  0.00     0.072 C 
ATOM     12  C   UNL     1       2.513  -1.402  -0.085  1.00  0.00     0.017 C 
BRANCH  12  13
ATOM     13  C   UNL     1       1.394  -0.528   0.025  1.00  0.00     0.013 A 
ATOM     14  C   UNL     1      -2.128   0.202  -0.018  1.00  0.00     0.173 C 
ATOM     15  N   UNL     1      -0.687   0.153   0.040  1.00  0.00    -0.275 N 
ATOM     16  C   UNL     1       0.089  -0.967   0.010  1.00  0.00     0.116 A 
ATOM     17  N   UNL     1       0.026   1.294   0.085  1.00  0.00    -0.181 NA
ATOM     18  C   UNL     1       1.298   0.876   0.081  1.00  0.00     0.143 A 
ENDBRANCH  12  13
ENDBRANCH   9  11
ENDBRANCH   8   9
BRANCH   8  19
ATOM     19  C   UNL     1       6.495  -4.015  -0.027  1.00  0.00     0.035 C 
ATOM     20  C   UNL     1       7.301  -3.664  -1.292  1.00  0.00     0.034 C 
ATOM     21  C   UNL     1       7.307  -3.616   1.227  1.00  0.00     0.034 C 
ATOM     22  C   UNL     1       6.440  -5.571  -0.004  1.00  0.00     0.034 C 
ENDBRANCH   8  19
ENDBRANCH   7   8
ENDBRANCH   4   7
ENDBRANCH   2   3
ENDBRANCH   1   2
BRANCH   1  23
ATOM     23  C   UNL     1       4.711  -3.238  -5.274  1.00  0.00     0.002 C 
BRANCH  23  24
ATOM     24  C   UNL     1       3.549  -2.642  -6.070  1.00  0.00     0.002 C 
BRANCH  24  25
ATOM     25  C   UNL     1       3.595  -1.121  -6.237  1.00  0.00     0.021 C 
BRANCH  25  26
ATOM     26  C   UNL     1       4.887  -0.590  -6.848  1.00  0.00     0.116 C 
BRANCH  26  27
ATOM     27  N   UNL     1       5.098  -1.094  -8.195  1.00  0.00    -0.352 N 
ATOM     28  C   UNL     1       5.281  -0.395  -9.361  1.00  0.00     0.251 C 
ATOM     29  H   UNL     1       5.111  -2.074  -8.282  1.00  0.00     0.163 HD
ATOM     30  O   UNL     1       5.227  -0.965 -10.444  1.00  0.00    -0.269 OA
BRANCH  28  31
ATOM     31  C   UNL     1       5.530   1.060  -9.304  1.00  0.00     0.039 A 
ATOM     32  C   UNL     1       4.836   1.900 -10.177  1.00  0.00     0.014 A 
ATOM     33  C   UNL     1       6.447   1.590  -8.392  1.00  0.00     0.014 A 
ATOM     34  C   UNL     1       5.025   3.281 -10.099  1.00  0.00     0.010 A 
ATOM     35  C   UNL     1       6.574   2.969  -8.263  1.00  0.00     0.010 A 
ATOM     36  C   UNL     1       5.873   3.828  -9.122  1.00  0.00    -0.014 A 
BRANCH  36  37
ATOM     37  C   UNL     1       6.048   5.297  -8.995  1.00  0.00     0.031 A 
ATOM     38  C   UNL     1       7.394   5.920  -9.242  1.00  0.00     0.074 A 
ATOM     39  C   UNL     1       5.010   6.062  -8.605  1.00  0.00     0.049 A 
ATOM     40  N   UNL     1       7.760   7.172  -9.132  1.00  0.00    -0.248 NA
ATOM     41  C   UNL     1       8.480   5.011  -9.640  1.00  0.00     0.031 C 
ATOM     42  C   UNL     1       3.668   5.568  -8.292  1.00  0.00     0.029 A 
ATOM     43  N   UNL     1       4.922   7.416  -8.399  1.00  0.00    -0.354 N 
ATOM     44  C   UNL     1       9.115   7.197  -9.435  1.00  0.00     0.074 A 
ATOM     45  C   UNL     1       9.521   5.829  -9.674  1.00  0.00     0.031 C 
ATOM     46  C   UNL     1       2.885   6.606  -7.957  1.00  0.00     0.029 A 
ATOM     47  C   UNL     1       3.678   7.832  -7.992  1.00  0.00     0.049 A 
ATOM     48  H   UNL     1       5.680   8.031  -8.530  1.00  0.00     0.167 HD
ATOM     49  C   UNL     1       9.940   8.267  -9.532  1.00  0.00     0.037 A 
ATOM     50  C   UNL     1       3.231   9.062  -7.675  1.00  0.00     0.037 A 
ATOM     51  C   UNL     1       9.526   9.627  -9.312  1.00  0.00     0.049 A 
ATOM     52  C   UNL     1       4.174  10.231  -7.771  1.00  0.00     0.074 A 
ATOM     53  C   UNL     1      10.270  10.787  -9.442  1.00  0.00     0.029 A 
ATOM     54  N   UNL     1       8.255  10.011  -8.908  1.00  0.00    -0.354 N 
ATOM     55  N   UNL     1       5.433  10.253  -8.134  1.00  0.00    -0.248 NA
ATOM     56  C   UNL     1       3.630  11.550  -7.417  1.00  0.00     0.031 C 
ATOM     57  C   UNL     1       9.467  11.866  -9.061  1.00  0.00     0.029 A 
ATOM     58  C   UNL     1       8.203  11.387  -8.755  1.00  0.00     0.049 A 
ATOM     59  H   UNL     1       7.502   9.396  -8.752  1.00  0.00     0.167 HD
ATOM     60  C   UNL     1       5.824  11.584  -8.082  1.00  0.00     0.074 A 
ATOM     61  C   UNL     1       4.662  12.343  -7.669  1.00  0.00     0.031 C 
ATOM     62  C   UNL     1       7.036  12.129  -8.351  1.00  0.00     0.037 A 
BRANCH  49  63
ATOM     63  C   UNL     1      11.376   8.008  -9.891  1.00  0.00     0.064 A 
ATOM     64  C   UNL     1      11.746   7.551 -11.166  1.00  0.00     0.173 A 
ATOM     65  C   UNL     1      12.399   8.255  -8.963  1.00  0.00     0.173 A 
ATOM     66  F   UNL     1      10.808   7.289 -12.089  1.00  0.00    -0.203 F 
ATOM     67  C   UNL     1      13.082   7.319 -11.485  1.00  0.00     0.198 A 
ATOM     68  C   UNL     1      13.736   8.055  -9.297  1.00  0.00     0.198 A 
ATOM     69  F   UNL     1      12.103   8.699  -7.732  1.00  0.00    -0.203 F 
ATOM     70  F   UNL     1      13.405   6.830 -12.691  1.00  0.00    -0.200 F 
ATOM     71  C   UNL     1      14.075   7.578 -10.554  1.00  0.00     0.200 A 
ATOM     72  F   UNL     1      14.696   8.322  -8.401  1.00  0.00    -0.200 F 
ATOM     73  F   UNL     1      15.361   7.363 -10.866  1.00  0.00    -0.200 F 
ENDBRANCH  49  63
BRANCH  50  74
ATOM     74  C   UNL     1       1.817   9.255  -7.255  1.00  0.00     0.064 A 
ATOM     75  C   UNL     1       0.915   9.960  -8.065  1.00  0.00     0.173 A 
ATOM     76  C   UNL     1       1.341   8.752  -6.035  1.00  0.00     0.173 A 
ATOM     77  F   UNL     1       1.326  10.478  -9.231  1.00  0.00    -0.203 F 
ATOM     78  C   UNL     1      -0.400  10.177  -7.659  1.00  0.00     0.198 A 
ATOM     79  C   UNL     1       0.017   8.942  -5.645  1.00  0.00     0.198 A 
ATOM     80  F   UNL     1       2.161   8.066  -5.226  1.00  0.00    -0.203 F 
ATOM     81  F   UNL     1      -1.226  10.900  -8.428  1.00  0.00    -0.200 F 
ATOM     82  C   UNL     1      -0.850   9.663  -6.452  1.00  0.00     0.200 A 
ATOM     83  F   UNL     1      -0.417   8.429  -4.486  1.00  0.00    -0.200 F 
ATOM     84  F   UNL     1      -2.115   9.869  -6.063  1.00  0.00    -0.200 F 
ENDBRANCH  50  74
BRANCH  62  85
ATOM     85  C   UNL     1       7.160  13.623  -8.246  1.00  0.00     0.064 A 
ATOM     86  C   UNL     1       7.131  14.281  -7.008  1.00  0.00     0.173 A 
ATOM     87  C   UNL     1       7.357  14.400  -9.398  1.00  0.00     0.173 A 
ATOM     88  F   UNL     1       6.931  13.586  -5.878  1.00  0.00    -0.203 F 
ATOM     89  C   UNL     1       7.268  15.665  -6.929  1.00  0.00     0.198 A 
ATOM     90  C   UNL     1       7.528  15.779  -9.312  1.00  0.00     0.198 A 
ATOM     91  F   UNL     1       7.401  13.820 -10.607  1.00  0.00    -0.203 F 
ATOM     92  F   UNL     1       7.186  16.277  -5.740  1.00  0.00    -0.200 F 
ATOM     93  C   UNL     1       7.475  16.411  -8.080  1.00  0.00     0.200 A 
ATOM     94  F   UNL     1       7.746  16.496 -10.424  1.00  0.00    -0.200 F 
ATOM     95  F   UNL     1       7.617  17.741  -8.001  1.00  0.00    -0.200 F 
ENDBRANCH  62  85
ENDBRANCH  36  37
ENDBRANCH  28  31
ENDBRANCH  26  27
ENDBRANCH  25  26
ENDBRANCH  24  25
ENDBRANCH  23  24
ENDBRANCH   1  23
TORSDOF 18
