REMARK SMILES COc1cccc(-c2c(C(=O)NCCCCCCNC(=O)c3ccc(-c4c5nc(c(-c6c(F)c(F)c(F)c(F)c6F)c6ccc([nH]6)c(-c6c(F)c(F)c(F)c(F)c6F)c6nc(c(-c7c(F)c(F)c(F)c(F)c7F)c7ccc4[nH]7)C=C6)C=C5)cc3)nnn2-c2ccc(OC(F)(F)F)cc2)c1
REMARK SMILES IDX 15 1 14 2 13 3 12 4 10 5 11 6 9 8 8 9 87 10 85 11 86 12 7 13
REMARK SMILES IDX 3 14 4 15 99 16 5 17 6 18 2 19 1 20 88 21 89 22 98 23 90 24
REMARK SMILES IDX 97 25 91 26 92 27 93 28 94 29 95 30 96 31 16 32 17 33 18 34
REMARK SMILES IDX 19 35 20 36 21 38 22 39 23 40 84 41 24 42 83 43 25 44 26 45
REMARK SMILES IDX 27 46 77 47 28 48 82 49 76 50 78 51 29 52 81 53 75 54 74 55
REMARK SMILES IDX 30 57 62 58 42 59 61 60 43 61 46 62 60 63 79 64 44 65 45 66
REMARK SMILES IDX 59 68 80 69 47 70 31 71 32 72 40 73 33 74 34 75 38 76 41 77
REMARK SMILES IDX 35 78 36 79 39 80 37 81 63 82 64 83 72 84 65 85 66 86 70 87
REMARK SMILES IDX 73 88 67 89 68 90 71 91 69 92 48 93 49 94 57 95 50 96 51 97
REMARK SMILES IDX 55 98 58 99 52 100 53 101 56 102 54 103
REMARK H PARENT 12 7 19 37 78 56 46 67
REMARK Flexibility Score: inf
ROOT
ATOM      1  C   UNL     1       0.004  -6.355   2.121  1.00  0.00     0.002 C 
ENDROOT
BRANCH   1   2
ATOM      2  C   UNL     1       0.929  -5.203   1.750  1.00  0.00     0.021 C 
BRANCH   2   3
ATOM      3  C   UNL     1       1.868  -4.682   2.822  1.00  0.00     0.116 C 
BRANCH   3   4
ATOM      4  N   UNL     1       3.001  -5.486   3.172  1.00  0.00    -0.351 N 
ATOM      5  C   UNL     1       4.279  -5.092   3.519  1.00  0.00     0.274 C 
ATOM      6  O   UNL     1       5.043  -6.013   3.822  1.00  0.00    -0.267 OA
ATOM      7  H   UNL     1       2.847  -6.458   3.165  1.00  0.00     0.163 HD
BRANCH   5   8
ATOM      8  C   UNL     1       4.764  -3.697   3.503  1.00  0.00     0.178 A 
ATOM      9  C   UNL     1       4.185  -2.429   3.635  1.00  0.00     0.108 A 
ATOM     10  N   UNL     1       5.275  -1.557   3.549  1.00  0.00    -0.212 N 
ATOM     11  N   UNL     1       6.121  -3.514   3.277  1.00  0.00    -0.124 NA
ATOM     12  N   UNL     1       6.384  -2.222   3.192  1.00  0.00    -0.061 NA
BRANCH   9  13
ATOM     13  C   UNL     1       2.812  -1.914   3.652  1.00  0.00     0.006 A 
ATOM     14  C   UNL     1       1.009  -0.785   2.447  1.00  0.00     0.119 A 
ATOM     15  C   UNL     1       0.182  -0.982   3.554  1.00  0.00     0.046 A 
ATOM     16  C   UNL     1       2.323  -1.244   2.504  1.00  0.00     0.056 A 
ATOM     17  C   UNL     1       0.659  -1.624   4.701  1.00  0.00     0.005 A 
ATOM     18  C   UNL     1       1.974  -2.088   4.756  1.00  0.00     0.011 A 
BRANCH  14  19
ATOM     19  O   UNL     1       0.419  -0.137   1.398  1.00  0.00    -0.497 OA
ATOM     20  C   UNL     1       1.134  -0.071   0.168  1.00  0.00     0.278 C 
ENDBRANCH  14  19
ENDBRANCH   9  13
BRANCH  10  21
ATOM     21  C   UNL     1       5.267  -0.148   3.688  1.00  0.00     0.067 A 
ATOM     22  C   UNL     1       5.974   0.645   2.783  1.00  0.00     0.032 A 
ATOM     23  C   UNL     1       4.482   0.450   4.680  1.00  0.00     0.032 A 
ATOM     24  C   UNL     1       5.803   2.033   2.819  1.00  0.00     0.049 A 
ATOM     25  C   UNL     1       4.341   1.836   4.726  1.00  0.00     0.049 A 
ATOM     26  C   UNL     1       4.976   2.635   3.777  1.00  0.00     0.129 A 
BRANCH  26  27
ATOM     27  O   UNL     1       4.872   3.994   3.676  1.00  0.00    -0.406 OA
BRANCH  27  28
ATOM     28  C   UNL     1       4.011   4.652   4.592  1.00  0.00     0.573 C 
ATOM     29  F   UNL     1       2.743   4.197   4.488  1.00  0.00    -0.132 F 
ATOM     30  F   UNL     1       4.442   4.494   5.862  1.00  0.00    -0.132 F 
ATOM     31  F   UNL     1       4.004   5.973   4.311  1.00  0.00    -0.132 F 
ENDBRANCH  27  28
ENDBRANCH  26  27
ENDBRANCH  10  21
ENDBRANCH   5   8
ENDBRANCH   3   4
ENDBRANCH   2   3
ENDBRANCH   1   2
BRANCH   1  32
ATOM     32  C   UNL     1      -0.794  -6.256   3.429  1.00  0.00     0.002 C 
BRANCH  32  33
ATOM     33  C   UNL     1      -1.583  -4.972   3.725  1.00  0.00     0.021 C 
BRANCH  33  34
ATOM     34  C   UNL     1      -2.583  -4.551   2.663  1.00  0.00     0.116 C 
BRANCH  34  35
ATOM     35  N   UNL     1      -3.666  -5.512   2.448  1.00  0.00    -0.352 N 
ATOM     36  C   UNL     1      -4.695  -5.444   1.518  1.00  0.00     0.251 C 
ATOM     37  H   UNL     1      -3.664  -6.303   3.034  1.00  0.00     0.163 HD
ATOM     38  O   UNL     1      -5.720  -6.086   1.654  1.00  0.00    -0.269 OA
BRANCH  36  39
ATOM     39  C   UNL     1      -4.515  -4.562   0.348  1.00  0.00     0.039 A 
ATOM     40  C   UNL     1      -5.547  -3.765  -0.151  1.00  0.00     0.014 A 
ATOM     41  C   UNL     1      -3.245  -4.506  -0.212  1.00  0.00     0.014 A 
ATOM     42  C   UNL     1      -5.253  -2.848  -1.160  1.00  0.00     0.010 A 
ATOM     43  C   UNL     1      -2.914  -3.459  -1.026  1.00  0.00     0.010 A 
ATOM     44  C   UNL     1      -3.921  -2.681  -1.576  1.00  0.00    -0.014 A 
BRANCH  44  45
ATOM     45  C   UNL     1      -3.546  -1.658  -2.547  1.00  0.00     0.031 A 
ATOM     46  C   UNL     1      -4.075  -0.296  -2.267  1.00  0.00     0.074 A 
ATOM     47  C   UNL     1      -2.647  -1.874  -3.535  1.00  0.00     0.049 A 
ATOM     48  N   UNL     1      -4.929   0.373  -2.969  1.00  0.00    -0.248 NA
ATOM     49  C   UNL     1      -3.703   0.357  -1.002  1.00  0.00     0.031 C 
ATOM     50  C   UNL     1      -1.805  -3.053  -3.787  1.00  0.00     0.029 A 
ATOM     51  N   UNL     1      -2.232  -1.013  -4.502  1.00  0.00    -0.354 N 
ATOM     52  C   UNL     1      -5.090   1.600  -2.330  1.00  0.00     0.074 A 
ATOM     53  C   UNL     1      -4.423   1.481  -1.058  1.00  0.00     0.031 C 
ATOM     54  C   UNL     1      -0.830  -2.742  -4.669  1.00  0.00     0.029 A 
ATOM     55  C   UNL     1      -1.099  -1.419  -5.193  1.00  0.00     0.049 A 
ATOM     56  H   UNL     1      -2.699  -0.168  -4.697  1.00  0.00     0.167 HD
ATOM     57  C   UNL     1      -5.589   2.678  -2.996  1.00  0.00     0.037 A 
ATOM     58  C   UNL     1      -0.425  -0.713  -6.131  1.00  0.00     0.037 A 
ATOM     59  C   UNL     1      -6.253   2.273  -4.209  1.00  0.00     0.049 A 
ATOM     60  C   UNL     1      -1.357   0.318  -6.649  1.00  0.00     0.074 A 
ATOM     61  C   UNL     1      -7.354   1.489  -4.494  1.00  0.00     0.029 A 
ATOM     62  N   UNL     1      -5.558   2.377  -5.388  1.00  0.00    -0.354 N 
ATOM     63  N   UNL     1      -2.427   0.042  -7.342  1.00  0.00    -0.248 NA
ATOM     64  C   UNL     1      -1.350   1.616  -5.993  1.00  0.00     0.031 C 
ATOM     65  C   UNL     1      -6.993   0.763  -5.667  1.00  0.00     0.029 A 
ATOM     66  C   UNL     1      -5.729   1.199  -6.068  1.00  0.00     0.049 A 
ATOM     67  H   UNL     1      -5.033   3.154  -5.689  1.00  0.00     0.167 HD
ATOM     68  C   UNL     1      -3.389   0.921  -6.868  1.00  0.00     0.074 A 
ATOM     69  C   UNL     1      -2.647   1.918  -6.098  1.00  0.00     0.031 C 
ATOM     70  C   UNL     1      -4.715   0.602  -6.905  1.00  0.00     0.037 A 
BRANCH  57  71
ATOM     71  C   UNL     1      -5.181   4.111  -2.756  1.00  0.00     0.064 A 
ATOM     72  C   UNL     1      -5.857   5.141  -3.445  1.00  0.00     0.173 A 
ATOM     73  C   UNL     1      -3.970   4.486  -2.139  1.00  0.00     0.173 A 
ATOM     74  F   UNL     1      -7.015   4.897  -4.077  1.00  0.00    -0.203 F 
ATOM     75  C   UNL     1      -5.310   6.419  -3.583  1.00  0.00     0.198 A 
ATOM     76  C   UNL     1      -3.454   5.777  -2.236  1.00  0.00     0.198 A 
ATOM     77  F   UNL     1      -3.182   3.601  -1.519  1.00  0.00    -0.203 F 
ATOM     78  F   UNL     1      -5.922   7.324  -4.360  1.00  0.00    -0.200 F 
ATOM     79  C   UNL     1      -4.104   6.733  -2.987  1.00  0.00     0.200 A 
ATOM     80  F   UNL     1      -2.273   6.057  -1.666  1.00  0.00    -0.200 F 
ATOM     81  F   UNL     1      -3.542   7.934  -3.177  1.00  0.00    -0.200 F 
ENDBRANCH  57  71
BRANCH  58  82
ATOM     82  C   UNL     1       1.038  -0.654  -6.353  1.00  0.00     0.064 A 
ATOM     83  C   UNL     1       1.569  -0.145  -7.548  1.00  0.00     0.173 A 
ATOM     84  C   UNL     1       1.940  -0.820  -5.284  1.00  0.00     0.173 A 
ATOM     85  F   UNL     1       0.766   0.085  -8.597  1.00  0.00    -0.203 F 
ATOM     86  C   UNL     1       2.919   0.208  -7.658  1.00  0.00     0.198 A 
ATOM     87  C   UNL     1       3.287  -0.471  -5.396  1.00  0.00     0.198 A 
ATOM     88  F   UNL     1       1.511  -1.227  -4.079  1.00  0.00    -0.203 F 
ATOM     89  F   UNL     1       3.377   0.754  -8.793  1.00  0.00    -0.200 F 
ATOM     90  C   UNL     1       3.773   0.057  -6.578  1.00  0.00     0.200 A 
ATOM     91  F   UNL     1       4.092  -0.581  -4.329  1.00  0.00    -0.200 F 
ATOM     92  F   UNL     1       5.049   0.460  -6.660  1.00  0.00    -0.200 F 
ENDBRANCH  58  82
BRANCH  70  93
ATOM     93  C   UNL     1      -5.131  -0.607  -7.697  1.00  0.00     0.064 A 
ATOM     94  C   UNL     1      -4.773  -1.927  -7.370  1.00  0.00     0.173 A 
ATOM     95  C   UNL     1      -6.072  -0.429  -8.719  1.00  0.00     0.173 A 
ATOM     96  F   UNL     1      -3.948  -2.186  -6.349  1.00  0.00    -0.203 F 
ATOM     97  C   UNL     1      -5.318  -3.014  -8.053  1.00  0.00     0.198 A 
ATOM     98  C   UNL     1      -6.641  -1.517  -9.376  1.00  0.00     0.198 A 
ATOM     99  F   UNL     1      -6.488   0.806  -9.040  1.00  0.00    -0.203 F 
ATOM    100  F   UNL     1      -4.963  -4.264  -7.721  1.00  0.00    -0.200 F 
ATOM    101  C   UNL     1      -6.260  -2.808  -9.047  1.00  0.00     0.200 A 
ATOM    102  F   UNL     1      -7.586  -1.313 -10.304  1.00  0.00    -0.200 F 
ATOM    103  F   UNL     1      -6.823  -3.853  -9.670  1.00  0.00    -0.200 F 
ENDBRANCH  70  93
ENDBRANCH  44  45
ENDBRANCH  36  39
ENDBRANCH  34  35
ENDBRANCH  33  34
ENDBRANCH  32  33
ENDBRANCH   1  32
TORSDOF 18
