REMARK SMILES COc1cccc(-c2nn(-c3cc4c(cc3C(N)=O)OCO4)cc2C(=O)NCCCCCCNC(=O)c2ccc(-c3c4nc(c(-c5c(F)c(F)c(F)c(F)c5F)c5ccc([nH]5)c(-c5c(F)c(F)c(F)c(F)c5F)c5nc(c(-c6c(F)c(F)c(F)c(F)c6F)c6ccc3[nH]6)C=C5)C=C4)cc2)c1
REMARK SMILES IDX 30 1 29 2 28 3 27 4 25 5 26 6 24 8 8 9 9 10 10 11 23 12 7 13
REMARK SMILES IDX 3 14 4 15 100 16 5 17 6 18 2 19 1 20 11 21 12 22 16 23 13 24
REMARK SMILES IDX 15 25 14 26 22 27 20 28 21 29 17 30 18 31 19 32 31 35 32 36
REMARK SMILES IDX 33 37 34 38 35 39 36 41 37 42 38 43 99 44 39 45 98 46 40 47
REMARK SMILES IDX 41 48 42 49 92 50 43 51 97 52 91 53 93 54 44 55 96 56 90 57
REMARK SMILES IDX 89 58 45 60 77 61 57 62 76 63 58 64 61 65 75 66 94 67 59 68
REMARK SMILES IDX 60 69 74 71 95 72 62 73 46 74 47 75 55 76 48 77 49 78 53 79
REMARK SMILES IDX 56 80 50 81 51 82 54 83 52 84 78 85 79 86 87 87 80 88 81 89
REMARK SMILES IDX 85 90 88 91 82 92 83 93 86 94 84 95 63 96 64 97 72 98 65 99
REMARK SMILES IDX 66 100 70 101 73 102 67 103 68 104 71 105 69 106
REMARK H PARENT 27 7 18 33 18 34 34 40 93 59 61 70
REMARK Flexibility Score: inf
ROOT
ATOM      1  C   UNL     1       5.382  -0.924   9.695  1.00  0.00     0.002 C 
ENDROOT
BRANCH   1   2
ATOM      2  C   UNL     1       5.974  -0.113   8.536  1.00  0.00     0.021 C 
BRANCH   2   3
ATOM      3  C   UNL     1       5.678  -0.725   7.168  1.00  0.00     0.116 C 
BRANCH   3   4
ATOM      4  N   UNL     1       4.305  -0.474   6.793  1.00  0.00    -0.352 N 
ATOM      5  C   UNL     1       3.715   0.361   5.882  1.00  0.00     0.255 C 
ATOM      6  O   UNL     1       2.486   0.302   5.842  1.00  0.00    -0.269 OA
ATOM      7  H   UNL     1       3.659  -1.018   7.299  1.00  0.00     0.163 HD
BRANCH   5   8
ATOM      8  C   UNL     1       4.486   1.214   4.987  1.00  0.00     0.086 A 
ATOM      9  C   UNL     1       4.019   1.912   3.817  1.00  0.00     0.106 A 
ATOM     10  N   UNL     1       5.041   2.472   3.132  1.00  0.00    -0.167 NA
ATOM     11  N   UNL     1       6.135   2.007   3.772  1.00  0.00    -0.239 N 
ATOM     12  C   UNL     1       5.814   1.577   5.036  1.00  0.00     0.129 A 
BRANCH   9  13
ATOM     13  C   UNL     1       2.632   2.045   3.371  1.00  0.00     0.007 A 
ATOM     14  C   UNL     1       0.881   1.618   1.750  1.00  0.00     0.119 A 
ATOM     15  C   UNL     1      -0.059   2.173   2.623  1.00  0.00     0.046 A 
ATOM     16  C   UNL     1       2.229   1.564   2.118  1.00  0.00     0.056 A 
ATOM     17  C   UNL     1       0.335   2.664   3.865  1.00  0.00     0.005 A 
ATOM     18  C   UNL     1       1.678   2.610   4.233  1.00  0.00     0.011 A 
BRANCH  14  19
ATOM     19  O   UNL     1       0.376   1.209   0.545  1.00  0.00    -0.497 OA
ATOM     20  C   UNL     1       0.997   0.061  -0.021  1.00  0.00     0.278 C 
ENDBRANCH  14  19
ENDBRANCH   9  13
BRANCH  11  21
ATOM     21  C   UNL     1       7.456   2.131   3.276  1.00  0.00     0.081 A 
ATOM     22  C   UNL     1       7.854   3.378   2.761  1.00  0.00     0.079 A 
ATOM     23  C   UNL     1       8.387   1.053   3.385  1.00  0.00     0.069 A 
ATOM     24  C   UNL     1       9.190   3.537   2.451  1.00  0.00     0.167 A 
ATOM     25  C   UNL     1       9.749   1.298   3.143  1.00  0.00     0.066 A 
ATOM     26  C   UNL     1      10.109   2.536   2.665  1.00  0.00     0.166 A 
ATOM     27  O   UNL     1       9.773   4.651   1.929  1.00  0.00    -0.454 OA
ATOM     28  O   UNL     1      11.371   2.895   2.306  1.00  0.00    -0.454 OA
ATOM     29  C   UNL     1      11.102   4.155   1.658  1.00  0.00     0.468 C 
BRANCH  23  30
ATOM     30  C   UNL     1       7.953  -0.377   3.557  1.00  0.00     0.251 C 
ATOM     31  N   UNL     1       8.807  -1.363   3.140  1.00  0.00    -0.366 N 
ATOM     32  O   UNL     1       6.859  -0.716   3.986  1.00  0.00    -0.269 OA
ATOM     33  H   UNL     1       9.697  -1.127   2.789  1.00  0.00     0.159 HD
ATOM     34  H   UNL     1       8.532  -2.307   3.191  1.00  0.00     0.159 HD
ENDBRANCH  23  30
ENDBRANCH  11  21
ENDBRANCH   5   8
ENDBRANCH   3   4
ENDBRANCH   2   3
ENDBRANCH   1   2
BRANCH   1  35
ATOM     35  C   UNL     1       5.797  -2.405   9.741  1.00  0.00     0.002 C 
BRANCH  35  36
ATOM     36  C   UNL     1       7.302  -2.689   9.619  1.00  0.00     0.021 C 
BRANCH  36  37
ATOM     37  C   UNL     1       8.116  -2.140  10.778  1.00  0.00     0.116 C 
BRANCH  37  38
ATOM     38  N   UNL     1       7.821  -2.828  12.033  1.00  0.00    -0.352 N 
ATOM     39  C   UNL     1       8.336  -2.578  13.290  1.00  0.00     0.251 C 
ATOM     40  H   UNL     1       7.171  -3.565  11.975  1.00  0.00     0.163 HD
ATOM     41  O   UNL     1       8.320  -3.430  14.161  1.00  0.00    -0.269 OA
BRANCH  39  42
ATOM     42  C   UNL     1       8.909  -1.247  13.560  1.00  0.00     0.039 A 
ATOM     43  C   UNL     1      10.067  -1.104  14.328  1.00  0.00     0.014 A 
ATOM     44  C   UNL     1       8.273  -0.136  13.013  1.00  0.00     0.014 A 
ATOM     45  C   UNL     1      10.617   0.166  14.474  1.00  0.00     0.010 A 
ATOM     46  C   UNL     1       8.904   1.080  13.015  1.00  0.00     0.010 A 
ATOM     47  C   UNL     1      10.041   1.252  13.793  1.00  0.00    -0.014 A 
BRANCH  47  48
ATOM     48  C   UNL     1      10.700   2.552  13.781  1.00  0.00     0.031 A 
ATOM     49  C   UNL     1      12.128   2.502  13.366  1.00  0.00     0.074 A 
ATOM     50  C   UNL     1      10.039   3.722  13.924  1.00  0.00     0.049 A 
ATOM     51  N   UNL     1      13.158   2.804  14.083  1.00  0.00    -0.248 NA
ATOM     52  C   UNL     1      12.465   1.917  12.057  1.00  0.00     0.031 C 
ATOM     53  C   UNL     1       8.595   3.950  14.040  1.00  0.00     0.029 A 
ATOM     54  N   UNL     1      10.530   4.990  13.889  1.00  0.00    -0.354 N 
ATOM     55  C   UNL     1      14.264   2.642  13.255  1.00  0.00     0.074 A 
ATOM     56  C   UNL     1      13.799   1.932  12.092  1.00  0.00     0.031 C 
ATOM     57  C   UNL     1       8.320   5.253  13.811  1.00  0.00     0.029 A 
ATOM     58  C   UNL     1       9.570   5.979  13.695  1.00  0.00     0.049 A 
ATOM     59  H   UNL     1      11.489   5.193  13.992  1.00  0.00     0.167 HD
ATOM     60  C   UNL     1      15.408   3.341  13.488  1.00  0.00     0.037 A 
ATOM     61  C   UNL     1       9.802   7.287  13.414  1.00  0.00     0.037 A 
ATOM     62  C   UNL     1      15.455   3.824  14.848  1.00  0.00     0.049 A 
ATOM     63  C   UNL     1      11.197   7.581  13.839  1.00  0.00     0.074 A 
ATOM     64  C   UNL     1      15.350   3.212  16.085  1.00  0.00     0.029 A 
ATOM     65  N   UNL     1      15.207   5.155  15.081  1.00  0.00    -0.354 N 
ATOM     66  N   UNL     1      11.583   7.590  15.086  1.00  0.00    -0.248 NA
ATOM     67  C   UNL     1      12.252   7.370  12.858  1.00  0.00     0.031 C 
ATOM     68  C   UNL     1      14.524   4.085  16.854  1.00  0.00     0.029 A 
ATOM     69  C   UNL     1      14.266   5.215  16.079  1.00  0.00     0.049 A 
ATOM     70  H   UNL     1      15.623   5.919  14.621  1.00  0.00     0.167 HD
ATOM     71  C   UNL     1      12.810   6.947  15.074  1.00  0.00     0.074 A 
ATOM     72  C   UNL     1      13.202   6.892  13.666  1.00  0.00     0.031 C 
ATOM     73  C   UNL     1      13.258   6.245  16.157  1.00  0.00     0.037 A 
BRANCH  60  74
ATOM     74  C   UNL     1      16.275   3.912  12.393  1.00  0.00     0.064 A 
ATOM     75  C   UNL     1      17.503   4.512  12.733  1.00  0.00     0.173 A 
ATOM     76  C   UNL     1      15.815   4.169  11.082  1.00  0.00     0.173 A 
ATOM     77  F   UNL     1      18.021   4.359  13.960  1.00  0.00    -0.203 F 
ATOM     78  C   UNL     1      18.175   5.365  11.853  1.00  0.00     0.198 A 
ATOM     79  C   UNL     1      16.516   4.975  10.189  1.00  0.00     0.198 A 
ATOM     80  F   UNL     1      14.619   3.754  10.649  1.00  0.00    -0.203 F 
ATOM     81  F   UNL     1      19.270   6.018  12.267  1.00  0.00    -0.200 F 
ATOM     82  C   UNL     1      17.678   5.600  10.584  1.00  0.00     0.200 A 
ATOM     83  F   UNL     1      16.004   5.207   8.972  1.00  0.00    -0.200 F 
ATOM     84  F   UNL     1      18.286   6.465   9.762  1.00  0.00    -0.200 F 
ENDBRANCH  60  74
BRANCH  61  85
ATOM     85  C   UNL     1       9.034   8.187  12.513  1.00  0.00     0.064 A 
ATOM     86  C   UNL     1       9.306   9.566  12.468  1.00  0.00     0.173 A 
ATOM     87  C   UNL     1       8.220   7.684  11.479  1.00  0.00     0.173 A 
ATOM     88  F   UNL     1      10.108  10.127  13.386  1.00  0.00    -0.203 F 
ATOM     89  C   UNL     1       8.825  10.380  11.434  1.00  0.00     0.198 A 
ATOM     90  C   UNL     1       7.733   8.498  10.454  1.00  0.00     0.198 A 
ATOM     91  F   UNL     1       7.957   6.373  11.381  1.00  0.00    -0.203 F 
ATOM     92  F   UNL     1       9.167  11.676  11.389  1.00  0.00    -0.200 F 
ATOM     93  C   UNL     1       8.049   9.843  10.422  1.00  0.00     0.200 A 
ATOM     94  F   UNL     1       7.013   7.956   9.462  1.00  0.00    -0.200 F 
ATOM     95  F   UNL     1       7.644  10.606   9.398  1.00  0.00    -0.200 F 
ENDBRANCH  61  85
BRANCH  73  96
ATOM     96  C   UNL     1      12.515   6.370  17.460  1.00  0.00     0.064 A 
ATOM     97  C   UNL     1      11.161   6.033  17.641  1.00  0.00     0.173 A 
ATOM     98  C   UNL     1      13.252   6.692  18.608  1.00  0.00     0.173 A 
ATOM     99  F   UNL     1      10.409   5.612  16.617  1.00  0.00    -0.203 F 
ATOM    100  C   UNL     1      10.570   6.061  18.905  1.00  0.00     0.198 A 
ATOM    101  C   UNL     1      12.671   6.680  19.873  1.00  0.00     0.198 A 
ATOM    102  F   UNL     1      14.562   6.971  18.509  1.00  0.00    -0.203 F 
ATOM    103  F   UNL     1       9.274   5.745  19.048  1.00  0.00    -0.200 F 
ATOM    104  C   UNL     1      11.328   6.375  20.020  1.00  0.00     0.200 A 
ATOM    105  F   UNL     1      13.422   6.934  20.953  1.00  0.00    -0.200 F 
ATOM    106  F   UNL     1      10.772   6.359  21.239  1.00  0.00    -0.200 F 
ENDBRANCH  73  96
ENDBRANCH  47  48
ENDBRANCH  39  42
ENDBRANCH  37  38
ENDBRANCH  36  37
ENDBRANCH  35  36
ENDBRANCH   1  35
TORSDOF 17
