REMARK SMILES CCc1c(C(=O)NCC(=O)NCCCCCCNC(=O)c2ccc(-c3c4nc(c(-c5c(F)c(F)c(F)c(F)c5F)c5ccc([nH]5)c(-c5c(F)c(F)c(F)c(F)c5F)c5nc(c(-c6c(F)c(F)c(F)c(F)c6F)c6ccc3[nH]6)C=C5)C=C4)cc2)nnn1-c1ccc(Cl)cc1
REMARK SMILES IDX 14 1 13 2 12 3 11 4 9 5 10 6 8 8 7 9 5 10 6 11 4 13 3 14
REMARK SMILES IDX 86 15 84 16 85 17 2 18 1 19 87 20 88 21 93 22 89 23 92 24
REMARK SMILES IDX 90 25 91 26 15 27 16 28 17 29 18 30 19 31 20 33 21 34 22 35
REMARK SMILES IDX 83 36 23 37 82 38 24 39 25 40 26 41 76 42 27 43 81 44 75 45
REMARK SMILES IDX 77 46 28 47 80 48 74 49 73 50 29 52 61 53 41 54 60 55 42 56
REMARK SMILES IDX 45 57 59 58 78 59 43 60 44 61 58 63 79 64 46 65 30 66 31 67
REMARK SMILES IDX 39 68 32 69 33 70 37 71 40 72 34 73 35 74 38 75 36 76 62 77
REMARK SMILES IDX 63 78 71 79 64 80 65 81 69 82 72 83 66 84 67 85 70 86 68 87
REMARK SMILES IDX 47 88 48 89 56 90 49 91 50 92 54 93 57 94 51 95 52 96 55 97
REMARK SMILES IDX 53 98
REMARK H PARENT 11 7 7 12 18 32 77 51 45 62
REMARK Flexibility Score: inf
ROOT
ATOM      1  C   UNL     1      -5.108   1.771   2.195  1.00  0.00     0.002 C 
ENDROOT
BRANCH   1   2
ATOM      2  C   UNL     1      -3.692   2.339   2.066  1.00  0.00     0.021 C 
BRANCH   2   3
ATOM      3  C   UNL     1      -2.640   1.267   1.823  1.00  0.00     0.116 C 
BRANCH   3   4
ATOM      4  N   UNL     1      -2.780   0.675   0.514  1.00  0.00    -0.355 N 
ATOM      5  C   UNL     1      -2.097   0.881  -0.639  1.00  0.00     0.239 C 
ATOM      6  O   UNL     1      -2.474   0.236  -1.624  1.00  0.00    -0.273 OA
ATOM      7  H   UNL     1      -3.499   0.006   0.446  1.00  0.00     0.163 HD
BRANCH   5   8
ATOM      8  C   UNL     1      -0.789   1.682  -0.721  1.00  0.00     0.216 C 
BRANCH   8   9
ATOM      9  N   UNL     1      -0.505   2.830   0.109  1.00  0.00    -0.342 N 
ATOM     10  C   UNL     1       0.244   3.090   1.226  1.00  0.00     0.274 C 
ATOM     11  O   UNL     1       0.341   4.299   1.469  1.00  0.00    -0.267 OA
ATOM     12  H   UNL     1      -0.972   3.635  -0.211  1.00  0.00     0.164 HD
BRANCH  10  13
ATOM     13  C   UNL     1       0.806   2.109   2.174  1.00  0.00     0.174 A 
ATOM     14  C   UNL     1       1.105   0.742   2.204  1.00  0.00     0.077 A 
ATOM     15  N   UNL     1       1.573   0.530   3.506  1.00  0.00    -0.217 N 
ATOM     16  N   UNL     1       1.015   2.604   3.453  1.00  0.00    -0.124 NA
ATOM     17  N   UNL     1       1.354   1.620   4.258  1.00  0.00    -0.061 NA
BRANCH  14  18
ATOM     18  C   UNL     1       0.876  -0.402   1.271  1.00  0.00     0.055 C 
ATOM     19  C   UNL     1       1.843  -0.450   0.099  1.00  0.00     0.011 C 
ENDBRANCH  14  18
BRANCH  15  20
ATOM     20  C   UNL     1       2.129  -0.631   4.101  1.00  0.00     0.067 A 
ATOM     21  C   UNL     1       1.785  -0.962   5.420  1.00  0.00     0.030 A 
ATOM     22  C   UNL     1       3.029  -1.435   3.393  1.00  0.00     0.030 A 
ATOM     23  C   UNL     1       2.280  -2.138   5.992  1.00  0.00     0.023 A 
ATOM     24  C   UNL     1       3.537  -2.597   3.977  1.00  0.00     0.023 A 
ATOM     25  C   UNL     1       3.148  -2.953   5.266  1.00  0.00     0.041 A 
ATOM     26  Cl  UNL     1       3.750  -4.403   5.966  1.00  0.00    -0.084 Cl
ENDBRANCH  15  20
ENDBRANCH  10  13
ENDBRANCH   8   9
ENDBRANCH   5   8
ENDBRANCH   3   4
ENDBRANCH   2   3
ENDBRANCH   1   2
BRANCH   1  27
ATOM     27  C   UNL     1      -5.286   0.657   3.239  1.00  0.00     0.002 C 
BRANCH  27  28
ATOM     28  C   UNL     1      -4.771   0.948   4.658  1.00  0.00     0.021 C 
BRANCH  28  29
ATOM     29  C   UNL     1      -5.477   2.101   5.351  1.00  0.00     0.116 C 
BRANCH  29  30
ATOM     30  N   UNL     1      -6.907   1.844   5.569  1.00  0.00    -0.352 N 
ATOM     31  C   UNL     1      -7.885   2.712   6.013  1.00  0.00     0.251 C 
ATOM     32  H   UNL     1      -7.210   0.928   5.371  1.00  0.00     0.163 HD
ATOM     33  O   UNL     1      -8.932   2.289   6.514  1.00  0.00    -0.269 OA
BRANCH  31  34
ATOM     34  C   UNL     1      -7.673   4.157   5.859  1.00  0.00     0.039 A 
ATOM     35  C   UNL     1      -8.101   5.105   6.792  1.00  0.00     0.014 A 
ATOM     36  C   UNL     1      -6.965   4.549   4.733  1.00  0.00     0.014 A 
ATOM     37  C   UNL     1      -7.757   6.440   6.580  1.00  0.00     0.010 A 
ATOM     38  C   UNL     1      -6.373   5.772   4.705  1.00  0.00     0.010 A 
ATOM     39  C   UNL     1      -6.884   6.756   5.526  1.00  0.00    -0.014 A 
BRANCH  39  40
ATOM     40  C   UNL     1      -6.396   8.100   5.271  1.00  0.00     0.031 A 
ATOM     41  C   UNL     1      -5.692   8.695   6.426  1.00  0.00     0.074 A 
ATOM     42  C   UNL     1      -6.370   8.640   4.030  1.00  0.00     0.049 A 
ATOM     43  N   UNL     1      -6.108   9.656   7.178  1.00  0.00    -0.248 NA
ATOM     44  C   UNL     1      -4.473   8.033   6.918  1.00  0.00     0.031 C 
ATOM     45  C   UNL     1      -6.732   8.020   2.746  1.00  0.00     0.029 A 
ATOM     46  N   UNL     1      -5.917   9.861   3.640  1.00  0.00    -0.354 N 
ATOM     47  C   UNL     1      -5.094   9.873   8.104  1.00  0.00     0.074 A 
ATOM     48  C   UNL     1      -4.236   8.720   8.038  1.00  0.00     0.031 C 
ATOM     49  C   UNL     1      -6.276   8.778   1.723  1.00  0.00     0.029 A 
ATOM     50  C   UNL     1      -5.748  10.014   2.265  1.00  0.00     0.049 A 
ATOM     51  H   UNL     1      -5.722  10.583   4.280  1.00  0.00     0.167 HD
ATOM     52  C   UNL     1      -4.900  11.115   8.627  1.00  0.00     0.037 A 
ATOM     53  C   UNL     1      -5.193  11.081   1.635  1.00  0.00     0.037 A 
ATOM     54  C   UNL     1      -6.052  11.954   8.387  1.00  0.00     0.049 A 
ATOM     55  C   UNL     1      -5.242  12.217   2.591  1.00  0.00     0.074 A 
ATOM     56  C   UNL     1      -7.389  11.890   8.730  1.00  0.00     0.029 A 
ATOM     57  N   UNL     1      -5.979  12.841   7.340  1.00  0.00    -0.354 N 
ATOM     58  N   UNL     1      -6.351  12.776   2.989  1.00  0.00    -0.248 NA
ATOM     59  C   UNL     1      -4.098  12.398   3.470  1.00  0.00     0.031 C 
ATOM     60  C   UNL     1      -8.090  12.356   7.577  1.00  0.00     0.029 A 
ATOM     61  C   UNL     1      -7.148  12.757   6.629  1.00  0.00     0.049 A 
ATOM     62  H   UNL     1      -5.220  13.433   7.136  1.00  0.00     0.167 HD
ATOM     63  C   UNL     1      -6.169  12.985   4.349  1.00  0.00     0.074 A 
ATOM     64  C   UNL     1      -4.736  12.802   4.572  1.00  0.00     0.031 C 
ATOM     65  C   UNL     1      -7.234  12.986   5.205  1.00  0.00     0.037 A 
BRANCH  52  66
ATOM     66  C   UNL     1      -3.548  11.696   8.966  1.00  0.00     0.064 A 
ATOM     67  C   UNL     1      -3.495  12.961   9.585  1.00  0.00     0.173 A 
ATOM     68  C   UNL     1      -2.323  11.227   8.442  1.00  0.00     0.173 A 
ATOM     69  F   UNL     1      -4.601  13.511  10.110  1.00  0.00    -0.203 F 
ATOM     70  C   UNL     1      -2.332  13.734   9.589  1.00  0.00     0.198 A 
ATOM     71  C   UNL     1      -1.151  11.979   8.496  1.00  0.00     0.198 A 
ATOM     72  F   UNL     1      -2.222  10.085   7.756  1.00  0.00    -0.203 F 
ATOM     73  F   UNL     1      -2.369  14.986  10.064  1.00  0.00    -0.200 F 
ATOM     74  C   UNL     1      -1.163  13.247   9.036  1.00  0.00     0.200 A 
ATOM     75  F   UNL     1      -0.033  11.495   7.938  1.00  0.00    -0.200 F 
ATOM     76  F   UNL     1      -0.066  14.011   8.976  1.00  0.00    -0.200 F 
ENDBRANCH  52  66
BRANCH  53  77
ATOM     77  C   UNL     1      -4.335  11.109   0.424  1.00  0.00     0.064 A 
ATOM     78  C   UNL     1      -4.070  12.314  -0.251  1.00  0.00     0.173 A 
ATOM     79  C   UNL     1      -3.520  10.012   0.083  1.00  0.00     0.173 A 
ATOM     80  F   UNL     1      -4.771  13.419   0.043  1.00  0.00    -0.203 F 
ATOM     81  C   UNL     1      -3.030  12.423  -1.183  1.00  0.00     0.198 A 
ATOM     82  C   UNL     1      -2.486  10.121  -0.849  1.00  0.00     0.198 A 
ATOM     83  F   UNL     1      -3.649   8.839   0.718  1.00  0.00    -0.203 F 
ATOM     84  F   UNL     1      -2.767  13.605  -1.758  1.00  0.00    -0.200 F 
ATOM     85  C   UNL     1      -2.231  11.330  -1.471  1.00  0.00     0.200 A 
ATOM     86  F   UNL     1      -1.697   9.065  -1.094  1.00  0.00    -0.200 F 
ATOM     87  F   UNL     1      -1.194  11.449  -2.313  1.00  0.00    -0.200 F 
ENDBRANCH  53  77
BRANCH  65  88
ATOM     88  C   UNL     1      -8.614  13.024   4.604  1.00  0.00     0.064 A 
ATOM     89  C   UNL     1      -9.160  12.011   3.795  1.00  0.00     0.173 A 
ATOM     90  C   UNL     1      -9.465  14.072   4.977  1.00  0.00     0.173 A 
ATOM     91  F   UNL     1      -8.446  10.927   3.469  1.00  0.00    -0.203 F 
ATOM     92  C   UNL     1     -10.480  12.069   3.350  1.00  0.00     0.198 A 
ATOM     93  C   UNL     1     -10.793  14.110   4.562  1.00  0.00     0.198 A 
ATOM     94  F   UNL     1      -9.017  15.042   5.789  1.00  0.00    -0.203 F 
ATOM     95  F   UNL     1     -10.972  11.095   2.569  1.00  0.00    -0.200 F 
ATOM     96  C   UNL     1     -11.298  13.116   3.740  1.00  0.00     0.200 A 
ATOM     97  F   UNL     1     -11.592  15.101   4.982  1.00  0.00    -0.200 F 
ATOM     98  F   UNL     1     -12.578  13.155   3.345  1.00  0.00    -0.200 F 
ENDBRANCH  65  88
ENDBRANCH  39  40
ENDBRANCH  31  34
ENDBRANCH  29  30
ENDBRANCH  28  29
ENDBRANCH  27  28
ENDBRANCH   1  27
TORSDOF 17
