REMARK SMILES C[C@H](NC(=O)c1cc(S(=O)(=O)N(C)C)cs1)C(=O)NCCCCCCNC(=O)c1ccc(-c2c3nc(c(-c4c(F)c(F)c(F)c(F)c4F)c4ccc([nH]4)c(-c4c(F)c(F)c(F)c(F)c4F)c4nc(c(-c5c(F)c(F)c(F)c(F)c5F)c5ccc2[nH]5)C=C4)C=C3)cc1
REMARK SMILES IDX 21 1 20 2 19 3 17 4 18 5 2 7 1 8 3 9 4 10 5 12 6 13 7 14
REMARK SMILES IDX 16 15 8 16 15 17 9 18 10 19 11 20 12 21 13 22 14 23 22 24
REMARK SMILES IDX 23 25 24 26 25 27 26 28 27 29 28 31 29 32 30 33 91 34 31 35
REMARK SMILES IDX 90 36 32 37 33 38 34 39 84 40 35 41 89 42 83 43 85 44 36 45
REMARK SMILES IDX 88 46 82 47 81 48 37 50 69 51 49 52 68 53 50 54 53 55 67 56
REMARK SMILES IDX 86 57 51 58 52 59 66 61 87 62 54 63 38 64 39 65 47 66 40 67
REMARK SMILES IDX 41 68 45 69 48 70 42 71 43 72 46 73 44 74 70 75 71 76 79 77
REMARK SMILES IDX 72 78 73 79 77 80 80 81 74 82 75 83 78 84 76 85 55 86 56 87
REMARK SMILES IDX 64 88 57 89 58 90 62 91 65 92 59 93 60 94 63 95 61 96
REMARK H PARENT 19 6 3 11 26 30 85 49 53 60
REMARK Flexibility Score: inf
ROOT
ATOM      1  C   UNL     1      -1.611   2.656   0.286  1.00  0.00     0.021 C 
ENDROOT
BRANCH   1   2
ATOM      2  C   UNL     1      -1.043   1.686   1.317  1.00  0.00     0.116 C 
BRANCH   2   3
ATOM      3  N   UNL     1      -1.582   0.351   1.134  1.00  0.00    -0.354 N 
ATOM      4  C   UNL     1      -0.964  -0.862   1.129  1.00  0.00     0.242 C 
ATOM      5  O   UNL     1      -1.675  -1.869   1.095  1.00  0.00    -0.273 OA
ATOM      6  H   UNL     1      -2.555   0.317   0.990  1.00  0.00     0.163 HD
BRANCH   4   7
ATOM      7  C   UNL     1       0.561  -0.978   1.278  1.00  0.00     0.168 C 
ATOM      8  C   UNL     1       0.959  -0.624   2.711  1.00  0.00     0.041 C 
BRANCH   7   9
ATOM      9  N   UNL     1       1.248  -0.182   0.256  1.00  0.00    -0.340 N 
ATOM     10  C   UNL     1       2.588  -0.038  -0.011  1.00  0.00     0.262 C 
ATOM     11  H   UNL     1       0.653   0.332  -0.336  1.00  0.00     0.164 HD
ATOM     12  O   UNL     1       2.910   0.836  -0.816  1.00  0.00    -0.268 OA
BRANCH  10  13
ATOM     13  C   UNL     1       3.530  -0.905   0.665  1.00  0.00     0.093 A 
ATOM     14  C   UNL     1       3.457  -2.267   0.876  1.00  0.00     0.047 A 
ATOM     15  S   UNL     1       4.974  -0.252   1.316  1.00  0.00    -0.137 S 
ATOM     16  C   UNL     1       4.521  -2.749   1.687  1.00  0.00     0.094 A 
ATOM     17  C   UNL     1       5.424  -1.758   2.001  1.00  0.00     0.087 A 
BRANCH  16  18
ATOM     18  S   UNL     1       4.627  -4.376   2.272  1.00  0.00     0.243 S 
ATOM     19  O   UNL     1       5.872  -4.872   1.742  1.00  0.00    -0.207 OA
ATOM     20  O   UNL     1       4.396  -4.216   3.695  1.00  0.00    -0.207 OA
BRANCH  18  21
ATOM     21  N   UNL     1       3.341  -5.289   1.614  1.00  0.00    -0.204 NA
ATOM     22  C   UNL     1       3.489  -5.638   0.182  1.00  0.00     0.124 C 
ATOM     23  C   UNL     1       2.987  -6.477   2.423  1.00  0.00     0.124 C 
ENDBRANCH  18  21
ENDBRANCH  16  18
ENDBRANCH  10  13
ENDBRANCH   7   9
ENDBRANCH   4   7
ENDBRANCH   2   3
ENDBRANCH   1   2
BRANCH   1  24
ATOM     24  C   UNL     1      -3.121   2.896   0.406  1.00  0.00     0.002 C 
BRANCH  24  25
ATOM     25  C   UNL     1      -3.599   3.376   1.780  1.00  0.00     0.002 C 
BRANCH  25  26
ATOM     26  C   UNL     1      -2.892   4.621   2.321  1.00  0.00     0.021 C 
BRANCH  26  27
ATOM     27  C   UNL     1      -2.922   5.833   1.397  1.00  0.00     0.116 C 
BRANCH  27  28
ATOM     28  N   UNL     1      -4.272   6.294   1.124  1.00  0.00    -0.352 N 
ATOM     29  C   UNL     1      -4.766   7.574   1.125  1.00  0.00     0.251 C 
ATOM     30  H   UNL     1      -4.924   5.589   0.908  1.00  0.00     0.163 HD
ATOM     31  O   UNL     1      -5.970   7.773   1.008  1.00  0.00    -0.269 OA
BRANCH  29  32
ATOM     32  C   UNL     1      -3.844   8.717   1.297  1.00  0.00     0.039 A 
ATOM     33  C   UNL     1      -4.187   9.723   2.205  1.00  0.00     0.014 A 
ATOM     34  C   UNL     1      -2.658   8.805   0.563  1.00  0.00     0.014 A 
ATOM     35  C   UNL     1      -3.313  10.791   2.417  1.00  0.00     0.010 A 
ATOM     36  C   UNL     1      -1.761   9.840   0.817  1.00  0.00     0.010 A 
ATOM     37  C   UNL     1      -2.082  10.843   1.745  1.00  0.00    -0.014 A 
BRANCH  37  38
ATOM     38  C   UNL     1      -1.121  11.947   1.989  1.00  0.00     0.031 A 
ATOM     39  C   UNL     1      -0.815  12.932   0.897  1.00  0.00     0.074 A 
ATOM     40  C   UNL     1      -0.484  12.028   3.173  1.00  0.00     0.049 A 
ATOM     41  N   UNL     1       0.054  13.911   0.884  1.00  0.00    -0.248 NA
ATOM     42  C   UNL     1      -1.569  12.782  -0.358  1.00  0.00     0.031 C 
ATOM     43  C   UNL     1      -0.667  11.109   4.297  1.00  0.00     0.029 A 
ATOM     44  N   UNL     1       0.459  12.919   3.621  1.00  0.00    -0.354 N 
ATOM     45  C   UNL     1      -0.038  14.482  -0.378  1.00  0.00     0.074 A 
ATOM     46  C   UNL     1      -1.016  13.716  -1.119  1.00  0.00     0.031 C 
ATOM     47  C   UNL     1       0.130  11.489   5.309  1.00  0.00     0.029 A 
ATOM     48  C   UNL     1       0.900  12.658   4.896  1.00  0.00     0.049 A 
ATOM     49  H   UNL     1       0.788  13.673   3.081  1.00  0.00     0.167 HD
ATOM     50  C   UNL     1       0.617  15.562  -0.866  1.00  0.00     0.037 A 
ATOM     51  C   UNL     1       1.829  13.287   5.641  1.00  0.00     0.037 A 
ATOM     52  C   UNL     1       1.568  16.341  -0.118  1.00  0.00     0.049 A 
ATOM     53  C   UNL     1       2.534  14.490   5.076  1.00  0.00     0.074 A 
ATOM     54  C   UNL     1       2.255  17.476  -0.513  1.00  0.00     0.029 A 
ATOM     55  N   UNL     1       1.960  16.068   1.183  1.00  0.00    -0.354 N 
ATOM     56  N   UNL     1       2.402  15.049   3.899  1.00  0.00    -0.248 NA
ATOM     57  C   UNL     1       3.513  15.155   5.949  1.00  0.00     0.031 C 
ATOM     58  C   UNL     1       3.084  17.874   0.541  1.00  0.00     0.029 A 
ATOM     59  C   UNL     1       2.885  17.009   1.604  1.00  0.00     0.049 A 
ATOM     60  H   UNL     1       1.630  15.317   1.727  1.00  0.00     0.167 HD
ATOM     61  C   UNL     1       3.256  16.143   3.898  1.00  0.00     0.074 A 
ATOM     62  C   UNL     1       3.893  16.178   5.198  1.00  0.00     0.031 C 
ATOM     63  C   UNL     1       3.494  17.037   2.908  1.00  0.00     0.037 A 
BRANCH  50  64
ATOM     64  C   UNL     1       0.319  15.975  -2.276  1.00  0.00     0.064 A 
ATOM     65  C   UNL     1      -0.897  16.587  -2.615  1.00  0.00     0.173 A 
ATOM     66  C   UNL     1       1.275  15.805  -3.288  1.00  0.00     0.173 A 
ATOM     67  F   UNL     1      -1.848  16.760  -1.684  1.00  0.00    -0.203 F 
ATOM     68  C   UNL     1      -1.153  16.996  -3.921  1.00  0.00     0.198 A 
ATOM     69  C   UNL     1       1.025  16.238  -4.588  1.00  0.00     0.198 A 
ATOM     70  F   UNL     1       2.455  15.229  -3.014  1.00  0.00    -0.203 F 
ATOM     71  F   UNL     1      -2.336  17.544  -4.230  1.00  0.00    -0.200 F 
ATOM     72  C   UNL     1      -0.190  16.828  -4.904  1.00  0.00     0.200 A 
ATOM     73  F   UNL     1       1.961  16.085  -5.535  1.00  0.00    -0.200 F 
ATOM     74  F   UNL     1      -0.433  17.232  -6.158  1.00  0.00    -0.200 F 
ENDBRANCH  50  64
BRANCH  51  75
ATOM     75  C   UNL     1       2.135  12.804   7.012  1.00  0.00     0.064 A 
ATOM     76  C   UNL     1       1.753  13.548   8.137  1.00  0.00     0.173 A 
ATOM     77  C   UNL     1       2.827  11.604   7.225  1.00  0.00     0.173 A 
ATOM     78  F   UNL     1       1.108  14.713   7.982  1.00  0.00    -0.203 F 
ATOM     79  C   UNL     1       2.074  13.121   9.424  1.00  0.00     0.198 A 
ATOM     80  C   UNL     1       3.125  11.165   8.513  1.00  0.00     0.198 A 
ATOM     81  F   UNL     1       3.210  10.855   6.180  1.00  0.00    -0.203 F 
ATOM     82  F   UNL     1       1.740  13.874  10.480  1.00  0.00    -0.200 F 
ATOM     83  C   UNL     1       2.757  11.928   9.611  1.00  0.00     0.200 A 
ATOM     84  F   UNL     1       3.774  10.007   8.690  1.00  0.00    -0.200 F 
ATOM     85  F   UNL     1       3.067  11.519  10.848  1.00  0.00    -0.200 F 
ENDBRANCH  51  75
BRANCH  63  86
ATOM     86  C   UNL     1       4.454  18.150   3.205  1.00  0.00     0.064 A 
ATOM     87  C   UNL     1       5.837  17.929   3.270  1.00  0.00     0.173 A 
ATOM     88  C   UNL     1       3.985  19.460   3.387  1.00  0.00     0.173 A 
ATOM     89  F   UNL     1       6.330  16.691   3.118  1.00  0.00    -0.203 F 
ATOM     90  C   UNL     1       6.716  18.977   3.527  1.00  0.00     0.198 A 
ATOM     91  C   UNL     1       4.869  20.509   3.619  1.00  0.00     0.198 A 
ATOM     92  F   UNL     1       2.671  19.722   3.329  1.00  0.00    -0.203 F 
ATOM     93  F   UNL     1       8.031  18.737   3.624  1.00  0.00    -0.200 F 
ATOM     94  C   UNL     1       6.232  20.267   3.694  1.00  0.00     0.200 A 
ATOM     95  F   UNL     1       4.401  21.756   3.771  1.00  0.00    -0.200 F 
ATOM     96  F   UNL     1       7.081  21.275   3.936  1.00  0.00    -0.200 F 
ENDBRANCH  63  86
ENDBRANCH  37  38
ENDBRANCH  29  32
ENDBRANCH  27  28
ENDBRANCH  26  27
ENDBRANCH  25  26
ENDBRANCH  24  25
ENDBRANCH   1  24
TORSDOF 17
