REMARK SMILES [NH3+]Cc1ccc(C(=O)N2[C@@H](C(=O)NCCCCCCNC(=O)c3ccc(-c4c5nc(c(-c6c(F)c(F)c(F)c(F)c6F)c6ccc([nH]6)c(-c6c(F)c(F)c(F)c(F)c6F)c6nc(c(-c7c(F)c(F)c(F)c(F)c7F)c7ccc4[nH]7)C=C6)C=C5)cc3)C[C@H]3CCCC[C@@H]32)o1
REMARK SMILES IDX 15 1 14 2 13 3 11 4 12 5 10 7 9 8 92 9 86 10 87 11 91 12
REMARK SMILES IDX 88 13 90 14 89 15 7 16 8 17 6 18 3 19 4 20 93 21 5 22 2 23
REMARK SMILES IDX 1 24 16 28 17 29 18 30 19 31 20 32 21 33 22 35 23 36 24 37
REMARK SMILES IDX 85 38 25 39 84 40 26 41 27 42 28 43 78 44 29 45 83 46 77 47
REMARK SMILES IDX 79 48 30 49 82 50 76 51 75 52 31 54 63 55 43 56 62 57 44 58
REMARK SMILES IDX 47 59 61 60 80 61 45 62 46 63 60 65 81 66 48 67 32 68 33 69
REMARK SMILES IDX 41 70 34 71 35 72 39 73 42 74 36 75 37 76 40 77 38 78 64 79
REMARK SMILES IDX 65 80 73 81 66 82 67 83 71 84 74 85 68 86 69 87 72 88 70 89
REMARK SMILES IDX 49 90 50 91 58 92 51 93 52 94 56 95 59 96 53 97 54 98 57 99
REMARK SMILES IDX 55 100
REMARK H PARENT 13 6 1 25 1 26 1 27 20 34 79 53 47 64
REMARK Flexibility Score: inf
ROOT
ATOM      1  C   UNL     1       4.655   6.822  -5.971  1.00  0.00     0.021 C 
ENDROOT
BRANCH   1   2
ATOM      2  C   UNL     1       4.715   5.762  -4.867  1.00  0.00     0.116 C 
BRANCH   2   3
ATOM      3  N   UNL     1       5.029   6.330  -3.570  1.00  0.00    -0.354 N 
ATOM      4  C   UNL     1       4.256   6.678  -2.506  1.00  0.00     0.242 C 
ATOM      5  O   UNL     1       4.858   7.155  -1.533  1.00  0.00    -0.273 OA
ATOM      6  H   UNL     1       5.990   6.497  -3.432  1.00  0.00     0.163 HD
BRANCH   4   7
ATOM      7  C   UNL     1       2.706   6.728  -2.519  1.00  0.00     0.175 C 
ATOM      8  N   UNL     1       1.966   5.713  -3.283  1.00  0.00    -0.321 N 
ATOM      9  C   UNL     1       1.298   6.311  -4.421  1.00  0.00     0.089 C 
ATOM     10  C   UNL     1       2.257   8.072  -3.139  1.00  0.00     0.041 C 
ATOM     11  C   UNL     1       0.976   7.703  -3.878  1.00  0.00     0.014 C 
ATOM     12  C   UNL     1       0.023   5.674  -4.964  1.00  0.00     0.025 C 
ATOM     13  C   UNL     1       0.517   8.619  -4.998  1.00  0.00     0.006 C 
ATOM     14  C   UNL     1      -0.532   6.554  -6.092  1.00  0.00     0.002 C 
ATOM     15  C   UNL     1      -0.723   8.017  -5.672  1.00  0.00     0.000 C 
BRANCH   8  16
ATOM     16  C   UNL     1       1.843   4.367  -2.979  1.00  0.00     0.290 C 
ATOM     17  O   UNL     1       1.947   3.531  -3.878  1.00  0.00    -0.265 OA
BRANCH  16  18
ATOM     18  C   UNL     1       1.439   4.014  -1.625  1.00  0.00     0.192 A 
ATOM     19  C   UNL     1       0.887   2.561  -0.043  1.00  0.00     0.159 A 
ATOM     20  C   UNL     1       0.539   3.805   0.434  1.00  0.00     0.052 A 
ATOM     21  O   UNL     1       1.449   2.683  -1.282  1.00  0.00    -0.450 OA
ATOM     22  C   UNL     1       0.874   4.730  -0.583  1.00  0.00     0.057 A 
BRANCH  19  23
ATOM     23  C   UNL     1       0.709   1.190   0.517  1.00  0.00     0.335 C 
BRANCH  23  24
ATOM     24  N   UNL     1       1.316   0.154  -0.314  1.00  0.00    -0.351 N 
ATOM     25  H   UNL     1       1.164  -0.759   0.115  1.00  0.00     0.344 HD
ATOM     26  H   UNL     1       2.318   0.328  -0.396  1.00  0.00     0.344 HD
ATOM     27  H   UNL     1       0.891   0.168  -1.241  1.00  0.00     0.344 HD
ENDBRANCH  23  24
ENDBRANCH  19  23
ENDBRANCH  16  18
ENDBRANCH   8  16
ENDBRANCH   4   7
ENDBRANCH   2   3
ENDBRANCH   1   2
BRANCH   1  28
ATOM     28  C   UNL     1       6.002   7.106  -6.647  1.00  0.00     0.002 C 
BRANCH  28  29
ATOM     29  C   UNL     1       6.615   5.925  -7.413  1.00  0.00     0.002 C 
BRANCH  29  30
ATOM     30  C   UNL     1       5.727   5.303  -8.498  1.00  0.00     0.021 C 
BRANCH  30  31
ATOM     31  C   UNL     1       5.375   6.236  -9.655  1.00  0.00     0.116 C 
BRANCH  31  32
ATOM     32  N   UNL     1       6.549   6.604 -10.433  1.00  0.00    -0.352 N 
ATOM     33  C   UNL     1       6.805   6.437 -11.770  1.00  0.00     0.251 C 
ATOM     34  H   UNL     1       7.268   7.040  -9.921  1.00  0.00     0.163 HD
ATOM     35  O   UNL     1       7.938   6.620 -12.206  1.00  0.00    -0.269 OA
BRANCH  33  36
ATOM     36  C   UNL     1       5.726   6.031 -12.697  1.00  0.00     0.039 A 
ATOM     37  C   UNL     1       6.000   5.063 -13.668  1.00  0.00     0.014 A 
ATOM     38  C   UNL     1       4.468   6.637 -12.647  1.00  0.00     0.014 A 
ATOM     39  C   UNL     1       4.997   4.665 -14.556  1.00  0.00     0.010 A 
ATOM     40  C   UNL     1       3.453   6.202 -13.498  1.00  0.00     0.010 A 
ATOM     41  C   UNL     1       3.709   5.215 -14.462  1.00  0.00    -0.014 A 
BRANCH  41  42
ATOM     42  C   UNL     1       2.619   4.779 -15.370  1.00  0.00     0.031 A 
ATOM     43  C   UNL     1       2.054   5.733 -16.385  1.00  0.00     0.074 A 
ATOM     44  C   UNL     1       2.097   3.545 -15.239  1.00  0.00     0.049 A 
ATOM     45  N   UNL     1       1.047   5.570 -17.205  1.00  0.00    -0.248 NA
ATOM     46  C   UNL     1       2.694   7.054 -16.474  1.00  0.00     0.031 C 
ATOM     47  C   UNL     1       2.537   2.540 -14.271  1.00  0.00     0.029 A 
ATOM     48  N   UNL     1       1.074   2.930 -15.917  1.00  0.00    -0.354 N 
ATOM     49  C   UNL     1       0.922   6.769 -17.893  1.00  0.00     0.074 A 
ATOM     50  C   UNL     1       1.930   7.665 -17.368  1.00  0.00     0.031 C 
ATOM     51  C   UNL     1       1.803   1.427 -14.431  1.00  0.00     0.029 A 
ATOM     52  C   UNL     1       0.821   1.651 -15.487  1.00  0.00     0.049 A 
ATOM     53  H   UNL     1       0.571   3.365 -16.643  1.00  0.00     0.167 HD
ATOM     54  C   UNL     1       0.056   7.087 -18.885  1.00  0.00     0.037 A 
ATOM     55  C   UNL     1      -0.104   0.763 -15.897  1.00  0.00     0.037 A 
ATOM     56  C   UNL     1      -0.926   6.186 -19.427  1.00  0.00     0.049 A 
ATOM     57  C   UNL     1      -1.051   1.141 -17.002  1.00  0.00     0.074 A 
ATOM     58  C   UNL     1      -1.819   6.401 -20.462  1.00  0.00     0.029 A 
ATOM     59  N   UNL     1      -1.140   4.891 -18.977  1.00  0.00    -0.354 N 
ATOM     60  N   UNL     1      -1.135   2.264 -17.670  1.00  0.00    -0.248 NA
ATOM     61  C   UNL     1      -2.030   0.123 -17.411  1.00  0.00     0.031 C 
ATOM     62  C   UNL     1      -2.594   5.246 -20.620  1.00  0.00     0.029 A 
ATOM     63  C   UNL     1      -2.158   4.299 -19.707  1.00  0.00     0.049 A 
ATOM     64  H   UNL     1      -0.642   4.457 -18.247  1.00  0.00     0.167 HD
ATOM     65  C   UNL     1      -2.155   2.083 -18.594  1.00  0.00     0.074 A 
ATOM     66  C   UNL     1      -2.654   0.736 -18.407  1.00  0.00     0.031 C 
ATOM     67  C   UNL     1      -2.634   2.954 -19.515  1.00  0.00     0.037 A 
BRANCH  54  68
ATOM     68  C   UNL     1       0.138   8.472 -19.456  1.00  0.00     0.064 A 
ATOM     69  C   UNL     1       1.203   8.862 -20.281  1.00  0.00     0.173 A 
ATOM     70  C   UNL     1      -0.878   9.407 -19.208  1.00  0.00     0.173 A 
ATOM     71  F   UNL     1       2.205   8.008 -20.538  1.00  0.00    -0.203 F 
ATOM     72  C   UNL     1       1.261  10.146 -20.817  1.00  0.00     0.198 A 
ATOM     73  C   UNL     1      -0.829  10.682 -19.766  1.00  0.00     0.198 A 
ATOM     74  F   UNL     1      -1.921   9.082 -18.430  1.00  0.00    -0.203 F 
ATOM     75  F   UNL     1       2.310  10.510 -21.567  1.00  0.00    -0.200 F 
ATOM     76  C   UNL     1       0.242  11.052 -20.564  1.00  0.00     0.200 A 
ATOM     77  F   UNL     1      -1.819  11.554 -19.530  1.00  0.00    -0.200 F 
ATOM     78  F   UNL     1       0.297  12.286 -21.085  1.00  0.00    -0.200 F 
ENDBRANCH  54  68
BRANCH  55  79
ATOM     79  C   UNL     1      -0.156  -0.587 -15.280  1.00  0.00     0.064 A 
ATOM     80  C   UNL     1       0.268  -1.715 -15.995  1.00  0.00     0.173 A 
ATOM     81  C   UNL     1      -0.622  -0.777 -13.972  1.00  0.00     0.173 A 
ATOM     82  F   UNL     1       0.701  -1.583 -17.258  1.00  0.00    -0.203 F 
ATOM     83  C   UNL     1       0.216  -2.986 -15.429  1.00  0.00     0.198 A 
ATOM     84  C   UNL     1      -0.652  -2.046 -13.399  1.00  0.00     0.198 A 
ATOM     85  F   UNL     1      -1.036   0.272 -13.247  1.00  0.00    -0.203 F 
ATOM     86  F   UNL     1       0.592  -4.053 -16.148  1.00  0.00    -0.200 F 
ATOM     87  C   UNL     1      -0.239  -3.151 -14.130  1.00  0.00     0.200 A 
ATOM     88  F   UNL     1      -1.084  -2.201 -12.139  1.00  0.00    -0.200 F 
ATOM     89  F   UNL     1      -0.287  -4.374 -13.584  1.00  0.00    -0.200 F 
ENDBRANCH  55  79
BRANCH  67  90
ATOM     90  C   UNL     1      -3.731   2.468 -20.413  1.00  0.00     0.064 A 
ATOM     91  C   UNL     1      -5.046   2.320 -19.950  1.00  0.00     0.173 A 
ATOM     92  C   UNL     1      -3.470   2.186 -21.762  1.00  0.00     0.173 A 
ATOM     93  F   UNL     1      -5.340   2.563 -18.664  1.00  0.00    -0.203 F 
ATOM     94  C   UNL     1      -6.059   1.888 -20.802  1.00  0.00     0.198 A 
ATOM     95  C   UNL     1      -4.489   1.777 -22.617  1.00  0.00     0.198 A 
ATOM     96  F   UNL     1      -2.229   2.317 -22.253  1.00  0.00    -0.203 F 
ATOM     97  F   UNL     1      -7.301   1.716 -20.331  1.00  0.00    -0.200 F 
ATOM     98  C   UNL     1      -5.781   1.624 -22.136  1.00  0.00     0.200 A 
ATOM     99  F   UNL     1      -4.222   1.531 -23.907  1.00  0.00    -0.200 F 
ATOM    100  F   UNL     1      -6.758   1.214 -22.956  1.00  0.00    -0.200 F 
ENDBRANCH  67  90
ENDBRANCH  41  42
ENDBRANCH  33  36
ENDBRANCH  31  32
ENDBRANCH  30  31
ENDBRANCH  29  30
ENDBRANCH  28  29
ENDBRANCH   1  28
TORSDOF 17
