REMARK SMILES O=C(CN1C(=O)/C(=C2/Sc3ccccc3N2CCCS(=O)(=O)[O-])SC1=S)NCCCCCCNC(=O)c1ccc(-c2c3nc(c(-c4c(F)c(F)c(F)c(F)c4F)c4ccc([nH]4)c(-c4c(F)c(F)c(F)c(F)c4F)c4nc(c(-c5c(F)c(F)c(F)c(F)c5F)c5ccc2[nH]5)C=C4)C=C3)cc1
REMARK SMILES IDX 29 1 28 2 27 3 1 4 2 5 3 7 4 8 5 9 25 10 6 11 7 12 24 13
REMARK SMILES IDX 26 14 8 15 9 16 16 17 10 18 15 19 11 20 14 21 12 22 13 23
REMARK SMILES IDX 17 24 18 25 19 26 20 27 21 28 22 29 23 30 30 31 31 32 32 33
REMARK SMILES IDX 33 34 34 35 35 36 36 38 37 39 38 40 99 41 39 42 98 43 40 44
REMARK SMILES IDX 41 45 42 46 92 47 43 48 97 49 91 50 93 51 44 52 96 53 90 54
REMARK SMILES IDX 89 55 45 57 77 58 57 59 76 60 58 61 61 62 75 63 94 64 59 65
REMARK SMILES IDX 60 66 74 68 95 69 62 70 46 71 47 72 55 73 48 74 49 75 53 76
REMARK SMILES IDX 56 77 50 78 51 79 54 80 52 81 78 82 79 83 87 84 80 85 81 86
REMARK SMILES IDX 85 87 88 88 82 89 83 90 86 91 84 92 63 93 64 94 72 95 65 96
REMARK SMILES IDX 66 97 70 98 73 99 67 100 68 101 71 102 69 103
REMARK H PARENT 27 6 34 37 93 56 61 67
REMARK Flexibility Score: inf
ROOT
ATOM      1  C   UNL     1       2.300   3.450   0.372  1.00  0.00     0.021 C 
ENDROOT
BRANCH   1   2
ATOM      2  C   UNL     1       1.804   2.029   0.004  1.00  0.00     0.116 C 
BRANCH   2   3
ATOM      3  N   UNL     1       2.547   0.835   0.445  1.00  0.00    -0.355 N 
ATOM      4  O   UNL     1       1.165  -0.569  -0.733  1.00  0.00    -0.273 OA
ATOM      5  C   UNL     1       2.160  -0.433  -0.017  1.00  0.00     0.240 C 
ATOM      6  H   UNL     1       3.311   0.926   1.061  1.00  0.00     0.163 HD
BRANCH   5   7
ATOM      7  C   UNL     1       3.053  -1.665   0.341  1.00  0.00     0.227 C 
BRANCH   7   8
ATOM      8  N   UNL     1       3.207  -2.577  -0.834  1.00  0.00    -0.283 N 
ATOM      9  C   UNL     1       4.122  -2.304  -1.819  1.00  0.00     0.269 C 
ATOM     10  C   UNL     1       2.723  -3.854  -0.963  1.00  0.00     0.148 C 
ATOM     11  O   UNL     1       5.212  -1.792  -1.623  1.00  0.00    -0.268 OA
ATOM     12  C   UNL     1       3.770  -2.953  -3.097  1.00  0.00     0.111 C 
ATOM     13  S   UNL     1       3.055  -4.461  -2.604  1.00  0.00    -0.052 SA
ATOM     14  S   UNL     1       2.012  -4.804   0.206  1.00  0.00    -0.052 S 
ATOM     15  C   UNL     1       3.844  -2.420  -4.344  1.00  0.00     0.100 C 
ATOM     16  S   UNL     1       3.424  -3.505  -5.746  1.00  0.00    -0.068 SA
ATOM     17  N   UNL     1       4.139  -1.101  -4.792  1.00  0.00    -0.334 N 
ATOM     18  C   UNL     1       3.543  -2.118  -6.854  1.00  0.00     0.037 A 
ATOM     19  C   UNL     1       3.847  -0.927  -6.176  1.00  0.00     0.056 A 
ATOM     20  C   UNL     1       3.366  -2.151  -8.232  1.00  0.00     0.017 A 
ATOM     21  C   UNL     1       3.838   0.273  -6.891  1.00  0.00     0.027 A 
ATOM     22  C   UNL     1       3.415  -0.953  -8.946  1.00  0.00     0.001 A 
ATOM     23  C   UNL     1       3.617   0.257  -8.274  1.00  0.00     0.002 A 
BRANCH  17  24
ATOM     24  C   UNL     1       5.084  -0.130  -4.237  1.00  0.00     0.124 C 
BRANCH  24  25
ATOM     25  C   UNL     1       4.398   1.011  -3.497  1.00  0.00     0.037 C 
BRANCH  25  26
ATOM     26  C   UNL     1       4.416   0.847  -2.002  1.00  0.00     0.124 C 
BRANCH  26  27
ATOM     27  S   UNL     1       5.941   1.046  -1.076  1.00  0.00     0.095 S 
ATOM     28  O   UNL     1       6.462   2.388  -1.230  1.00  0.00    -0.243 OA
ATOM     29  O   UNL     1       5.759   0.476   0.237  1.00  0.00    -0.243 OA
ATOM     30  O   UNL     1       6.981   0.156  -1.914  1.00  0.00    -0.748 OA
ENDBRANCH  26  27
ENDBRANCH  25  26
ENDBRANCH  24  25
ENDBRANCH  17  24
ENDBRANCH   7   8
ENDBRANCH   5   7
ENDBRANCH   2   3
ENDBRANCH   1   2
BRANCH   1  31
ATOM     31  C   UNL     1       3.731   3.937   0.085  1.00  0.00     0.002 C 
BRANCH  31  32
ATOM     32  C   UNL     1       4.224   4.151  -1.350  1.00  0.00     0.002 C 
BRANCH  32  33
ATOM     33  C   UNL     1       3.597   5.167  -2.272  1.00  0.00     0.021 C 
BRANCH  33  34
ATOM     34  C   UNL     1       3.947   6.596  -1.933  1.00  0.00     0.116 C 
BRANCH  34  35
ATOM     35  N   UNL     1       5.375   6.910  -2.015  1.00  0.00    -0.352 N 
ATOM     36  C   UNL     1       5.979   8.035  -2.536  1.00  0.00     0.251 C 
ATOM     37  H   UNL     1       5.984   6.228  -1.650  1.00  0.00     0.163 HD
ATOM     38  O   UNL     1       7.199   8.137  -2.591  1.00  0.00    -0.269 OA
BRANCH  36  39
ATOM     39  C   UNL     1       5.116   9.096  -3.092  1.00  0.00     0.039 A 
ATOM     40  C   UNL     1       3.975   9.489  -2.393  1.00  0.00     0.014 A 
ATOM     41  C   UNL     1       5.367   9.583  -4.376  1.00  0.00     0.014 A 
ATOM     42  C   UNL     1       2.965  10.150  -3.070  1.00  0.00     0.010 A 
ATOM     43  C   UNL     1       4.404  10.375  -5.006  1.00  0.00     0.010 A 
ATOM     44  C   UNL     1       3.167  10.606  -4.383  1.00  0.00    -0.014 A 
BRANCH  44  45
ATOM     45  C   UNL     1       2.070  11.329  -5.071  1.00  0.00     0.031 A 
ATOM     46  C   UNL     1       1.457  10.793  -6.335  1.00  0.00     0.074 A 
ATOM     47  C   UNL     1       1.589  12.455  -4.508  1.00  0.00     0.049 A 
ATOM     48  N   UNL     1       0.508  11.311  -7.075  1.00  0.00    -0.248 NA
ATOM     49  C   UNL     1       1.973   9.511  -6.841  1.00  0.00     0.031 C 
ATOM     50  C   UNL     1       2.086  13.051  -3.265  1.00  0.00     0.029 A 
ATOM     51  N   UNL     1       0.566  13.283  -4.886  1.00  0.00    -0.354 N 
ATOM     52  C   UNL     1       0.331  10.436  -8.139  1.00  0.00     0.074 A 
ATOM     53  C   UNL     1       1.290   9.366  -7.969  1.00  0.00     0.031 C 
ATOM     54  C   UNL     1       1.331  14.112  -2.954  1.00  0.00     0.029 A 
ATOM     55  C   UNL     1       0.360  14.327  -4.019  1.00  0.00     0.049 A 
ATOM     56  H   UNL     1       0.030  13.144  -5.701  1.00  0.00     0.167 HD
ATOM     57  C   UNL     1      -0.560  10.517  -9.157  1.00  0.00     0.037 A 
ATOM     58  C   UNL     1      -0.495  15.363  -4.085  1.00  0.00     0.037 A 
ATOM     59  C   UNL     1      -1.522  11.581  -9.306  1.00  0.00     0.049 A 
ATOM     60  C   UNL     1      -1.422  15.463  -5.259  1.00  0.00     0.074 A 
ATOM     61  C   UNL     1      -2.473  11.750 -10.298  1.00  0.00     0.029 A 
ATOM     62  N   UNL     1      -1.656  12.656  -8.438  1.00  0.00    -0.354 N 
ATOM     63  N   UNL     1      -1.574  14.635  -6.264  1.00  0.00    -0.248 NA
ATOM     64  C   UNL     1      -2.291  16.644  -5.313  1.00  0.00     0.031 C 
ATOM     65  C   UNL     1      -3.143  12.954 -10.062  1.00  0.00     0.029 A 
ATOM     66  C   UNL     1      -2.658  13.504  -8.886  1.00  0.00     0.049 A 
ATOM     67  H   UNL     1      -1.120  12.796  -7.625  1.00  0.00     0.167 HD
ATOM     68  C   UNL     1      -2.568  15.183  -7.060  1.00  0.00     0.074 A 
ATOM     69  C   UNL     1      -2.997  16.405  -6.410  1.00  0.00     0.031 C 
ATOM     70  C   UNL     1      -3.077  14.715  -8.226  1.00  0.00     0.037 A 
BRANCH  57  71
ATOM     71  C   UNL     1      -0.538   9.438 -10.204  1.00  0.00     0.064 A 
ATOM     72  C   UNL     1      -0.970   8.132  -9.928  1.00  0.00     0.173 A 
ATOM     73  C   UNL     1      -0.146   9.732 -11.520  1.00  0.00     0.173 A 
ATOM     74  F   UNL     1      -1.344   7.792  -8.685  1.00  0.00    -0.203 F 
ATOM     75  C   UNL     1      -0.995   7.158 -10.925  1.00  0.00     0.198 A 
ATOM     76  C   UNL     1      -0.203   8.765 -12.521  1.00  0.00     0.198 A 
ATOM     77  F   UNL     1       0.270  10.966 -11.842  1.00  0.00    -0.203 F 
ATOM     78  F   UNL     1      -1.374   5.908 -10.627  1.00  0.00    -0.200 F 
ATOM     79  C   UNL     1      -0.622   7.478 -12.221  1.00  0.00     0.200 A 
ATOM     80  F   UNL     1       0.143   9.081 -13.776  1.00  0.00    -0.200 F 
ATOM     81  F   UNL     1      -0.662   6.544 -13.182  1.00  0.00    -0.200 F 
ENDBRANCH  57  71
BRANCH  58  82
ATOM     82  C   UNL     1      -0.497  16.375  -2.998  1.00  0.00     0.064 A 
ATOM     83  C   UNL     1      -1.583  16.484  -2.122  1.00  0.00     0.173 A 
ATOM     84  C   UNL     1       0.607  17.215  -2.780  1.00  0.00     0.173 A 
ATOM     85  F   UNL     1      -2.667  15.714  -2.299  1.00  0.00    -0.203 F 
ATOM     86  C   UNL     1      -1.568  17.398  -1.070  1.00  0.00     0.198 A 
ATOM     87  C   UNL     1       0.635  18.103  -1.709  1.00  0.00     0.198 A 
ATOM     88  F   UNL     1       1.677  17.141  -3.586  1.00  0.00    -0.203 F 
ATOM     89  F   UNL     1      -2.632  17.503  -0.263  1.00  0.00    -0.200 F 
ATOM     90  C   UNL     1      -0.455  18.198  -0.858  1.00  0.00     0.200 A 
ATOM     91  F   UNL     1       1.722  18.855  -1.494  1.00  0.00    -0.200 F 
ATOM     92  F   UNL     1      -0.433  19.059   0.168  1.00  0.00    -0.200 F 
ENDBRANCH  58  82
BRANCH  70  93
ATOM     93  C   UNL     1      -4.180  15.508  -8.865  1.00  0.00     0.064 A 
ATOM     94  C   UNL     1      -3.938  16.751  -9.469  1.00  0.00     0.173 A 
ATOM     95  C   UNL     1      -5.483  14.991  -8.925  1.00  0.00     0.173 A 
ATOM     96  F   UNL     1      -2.713  17.296  -9.426  1.00  0.00    -0.203 F 
ATOM     97  C   UNL     1      -4.966  17.455 -10.091  1.00  0.00     0.198 A 
ATOM     98  C   UNL     1      -6.500  15.681  -9.578  1.00  0.00     0.198 A 
ATOM     99  F   UNL     1      -5.766  13.803  -8.369  1.00  0.00    -0.203 F 
ATOM    100  F   UNL     1      -4.722  18.661 -10.623  1.00  0.00    -0.200 F 
ATOM    101  C   UNL     1      -6.242  16.916 -10.154  1.00  0.00     0.200 A 
ATOM    102  F   UNL     1      -7.728  15.150  -9.653  1.00  0.00    -0.200 F 
ATOM    103  F   UNL     1      -7.225  17.588 -10.768  1.00  0.00    -0.200 F 
ENDBRANCH  70  93
ENDBRANCH  44  45
ENDBRANCH  36  39
ENDBRANCH  34  35
ENDBRANCH  33  34
ENDBRANCH  32  33
ENDBRANCH  31  32
ENDBRANCH   1  31
TORSDOF 18
