REMARK SMILES CCCCN(c1ccccc1C(=O)NCCCCCCNC(=O)c1ccc(-c2c3nc(c(-c4c(F)c(F)c(F)c(F)c4F)c4ccc([nH]4)c(-c4c(F)c(F)c(F)c(F)c4F)c4nc(c(-c5c(F)c(F)c(F)c(F)c5F)c5ccc2[nH]5)C=C4)C=C3)cc1)S(=O)(=O)c1ccc2c(c1)oc(=O)n2C
REMARK SMILES IDX 16 1 15 2 14 3 12 4 13 5 11 7 6 8 7 9 8 10 10 11 9 12 5 13
REMARK SMILES IDX 4 14 3 15 2 16 1 17 87 18 88 19 89 20 90 21 91 22 95 23
REMARK SMILES IDX 92 24 94 25 93 26 96 27 99 28 97 29 100 30 98 31 17 32 18 33
REMARK SMILES IDX 19 34 20 35 21 36 22 37 23 39 24 40 25 41 86 42 26 43 85 44
REMARK SMILES IDX 27 45 28 46 29 47 79 48 30 49 84 50 78 51 80 52 31 53 83 54
REMARK SMILES IDX 77 55 76 56 32 58 64 59 44 60 63 61 45 62 48 63 62 64 81 65
REMARK SMILES IDX 46 66 47 67 61 69 82 70 49 71 33 72 34 73 42 74 35 75 36 76
REMARK SMILES IDX 40 77 43 78 37 79 38 80 41 81 39 82 65 83 66 84 74 85 67 86
REMARK SMILES IDX 68 87 72 88 75 89 69 90 70 91 73 92 71 93 50 94 51 95 59 96
REMARK SMILES IDX 52 97 53 98 57 99 60 100 54 101 55 102 58 103 56 104
REMARK H PARENT 14 6 21 38 80 57 48 68
REMARK Flexibility Score: inf
ROOT
ATOM      1  C   UNL     1       0.277  -2.341  -2.175  1.00  0.00     0.021 C 
ENDROOT
BRANCH   1   2
ATOM      2  C   UNL     1      -0.230  -1.012  -2.738  1.00  0.00     0.116 C 
BRANCH   2   3
ATOM      3  N   UNL     1       0.212  -0.689  -4.072  1.00  0.00    -0.352 N 
ATOM      4  C   UNL     1      -0.249   0.223  -4.988  1.00  0.00     0.253 C 
ATOM      5  O   UNL     1       0.382   0.289  -6.049  1.00  0.00    -0.269 OA
ATOM      6  H   UNL     1       0.983  -1.218  -4.381  1.00  0.00     0.163 HD
BRANCH   4   7
ATOM      7  C   UNL     1      -1.449   1.112  -4.847  1.00  0.00     0.064 A 
ATOM      8  C   UNL     1      -1.856   1.872  -3.730  1.00  0.00     0.065 A 
ATOM      9  C   UNL     1      -2.822   2.883  -3.908  1.00  0.00     0.028 A 
ATOM     10  C   UNL     1      -3.502   3.047  -5.113  1.00  0.00     0.002 A 
ATOM     11  C   UNL     1      -2.142   1.312  -6.067  1.00  0.00     0.016 A 
ATOM     12  C   UNL     1      -3.173   2.246  -6.192  1.00  0.00     0.001 A 
BRANCH   8  13
ATOM     13  N   UNL     1      -1.224   1.783  -2.436  1.00  0.00    -0.266 N 
BRANCH  13  14
ATOM     14  C   UNL     1       0.144   2.415  -2.364  1.00  0.00     0.136 C 
BRANCH  14  15
ATOM     15  C   UNL     1       0.522   3.343  -1.204  1.00  0.00     0.022 C 
BRANCH  15  16
ATOM     16  C   UNL     1       0.585   2.829   0.237  1.00  0.00    -0.002 C 
ATOM     17  C   UNL     1       1.256   1.488   0.421  1.00  0.00     0.004 C 
ENDBRANCH  15  16
ENDBRANCH  14  15
ENDBRANCH  13  14
BRANCH  13  18
ATOM     18  S   UNL     1      -2.212   1.643  -1.052  1.00  0.00     0.264 S 
ATOM     19  O   UNL     1      -1.619   0.643  -0.185  1.00  0.00    -0.201 OA
ATOM     20  O   UNL     1      -2.485   2.980  -0.564  1.00  0.00    -0.201 OA
BRANCH  18  21
ATOM     21  C   UNL     1      -3.810   0.964  -1.519  1.00  0.00     0.091 A 
ATOM     22  C   UNL     1      -4.910   1.855  -1.608  1.00  0.00     0.025 A 
ATOM     23  C   UNL     1      -4.016  -0.421  -1.549  1.00  0.00     0.071 A 
ATOM     24  C   UNL     1      -6.213   1.384  -1.790  1.00  0.00     0.032 A 
ATOM     25  C   UNL     1      -5.319  -0.858  -1.709  1.00  0.00     0.157 A 
ATOM     26  C   UNL     1      -6.381   0.020  -1.832  1.00  0.00     0.090 A 
ATOM     27  O   UNL     1      -5.728  -2.185  -1.721  1.00  0.00    -0.408 OA
ATOM     28  N   UNL     1      -7.509  -0.757  -1.944  1.00  0.00    -0.277 N 
ATOM     29  C   UNL     1      -7.120  -2.078  -1.869  1.00  0.00     0.419 A 
ATOM     30  C   UNL     1      -8.855  -0.302  -2.138  1.00  0.00     0.157 C 
ATOM     31  O   UNL     1      -7.864  -3.051  -1.922  1.00  0.00    -0.223 OA
ENDBRANCH  18  21
ENDBRANCH  13  18
ENDBRANCH   8  13
ENDBRANCH   4   7
ENDBRANCH   2   3
ENDBRANCH   1   2
BRANCH   1  32
ATOM     32  C   UNL     1       1.802  -2.553  -2.091  1.00  0.00     0.002 C 
BRANCH  32  33
ATOM     33  C   UNL     1       2.652  -1.454  -1.443  1.00  0.00     0.002 C 
BRANCH  33  34
ATOM     34  C   UNL     1       2.958  -1.508   0.063  1.00  0.00     0.021 C 
BRANCH  34  35
ATOM     35  C   UNL     1       2.035  -2.292   0.992  1.00  0.00     0.116 C 
BRANCH  35  36
ATOM     36  N   UNL     1       2.772  -3.415   1.554  1.00  0.00    -0.352 N 
ATOM     37  C   UNL     1       3.389  -3.493   2.777  1.00  0.00     0.251 C 
ATOM     38  H   UNL     1       2.836  -4.217   0.986  1.00  0.00     0.163 HD
ATOM     39  O   UNL     1       4.398  -4.184   2.901  1.00  0.00    -0.269 OA
BRANCH  37  40
ATOM     40  C   UNL     1       2.827  -2.799   3.962  1.00  0.00     0.039 A 
ATOM     41  C   UNL     1       3.695  -2.407   4.987  1.00  0.00     0.014 A 
ATOM     42  C   UNL     1       1.446  -2.660   4.138  1.00  0.00     0.014 A 
ATOM     43  C   UNL     1       3.183  -1.897   6.183  1.00  0.00     0.010 A 
ATOM     44  C   UNL     1       0.939  -2.086   5.306  1.00  0.00     0.010 A 
ATOM     45  C   UNL     1       1.798  -1.733   6.356  1.00  0.00    -0.014 A 
BRANCH  45  46
ATOM     46  C   UNL     1       1.251  -1.240   7.650  1.00  0.00     0.031 A 
ATOM     47  C   UNL     1       0.390  -2.131   8.508  1.00  0.00     0.074 A 
ATOM     48  C   UNL     1       1.526   0.016   8.053  1.00  0.00     0.049 A 
ATOM     49  N   UNL     1      -0.156  -1.884   9.674  1.00  0.00    -0.248 NA
ATOM     50  C   UNL     1       0.085  -3.469   7.979  1.00  0.00     0.031 C 
ATOM     51  C   UNL     1       2.310   0.990   7.295  1.00  0.00     0.029 A 
ATOM     52  N   UNL     1       1.179   0.686   9.200  1.00  0.00    -0.354 N 
ATOM     53  C   UNL     1      -0.872  -3.027  10.010  1.00  0.00     0.074 A 
ATOM     54  C   UNL     1      -0.741  -3.946   8.900  1.00  0.00     0.031 C 
ATOM     55  C   UNL     1       2.414   2.121   8.009  1.00  0.00     0.029 A 
ATOM     56  C   UNL     1       1.673   1.967   9.258  1.00  0.00     0.049 A 
ATOM     57  H   UNL     1       0.629   0.288   9.912  1.00  0.00     0.167 HD
ATOM     58  C   UNL     1      -1.556  -3.298  11.149  1.00  0.00     0.037 A 
ATOM     59  C   UNL     1       1.541   2.911  10.209  1.00  0.00     0.037 A 
ATOM     60  C   UNL     1      -1.674  -2.385  12.258  1.00  0.00     0.049 A 
ATOM     61  C   UNL     1       0.768   2.589  11.460  1.00  0.00     0.074 A 
ATOM     62  C   UNL     1      -2.300  -2.583  13.476  1.00  0.00     0.029 A 
ATOM     63  N   UNL     1      -1.162  -1.095  12.278  1.00  0.00    -0.354 N 
ATOM     64  N   UNL     1       0.159   1.478  11.797  1.00  0.00    -0.248 NA
ATOM     65  C   UNL     1       0.675   3.653  12.469  1.00  0.00     0.031 C 
ATOM     66  C   UNL     1      -2.221  -1.393  14.208  1.00  0.00     0.029 A 
ATOM     67  C   UNL     1      -1.483  -0.476  13.477  1.00  0.00     0.049 A 
ATOM     68  H   UNL     1      -0.646  -0.681  11.549  1.00  0.00     0.167 HD
ATOM     69  C   UNL     1      -0.362   1.697  13.065  1.00  0.00     0.074 A 
ATOM     70  C   UNL     1       0.023   3.040  13.446  1.00  0.00     0.031 C 
ATOM     71  C   UNL     1      -1.095   0.862  13.844  1.00  0.00     0.037 A 
BRANCH  58  72
ATOM     72  C   UNL     1      -2.238  -4.635  11.254  1.00  0.00     0.064 A 
ATOM     73  C   UNL     1      -1.511  -5.832  11.348  1.00  0.00     0.173 A 
ATOM     74  C   UNL     1      -3.639  -4.718  11.302  1.00  0.00     0.173 A 
ATOM     75  F   UNL     1      -0.170  -5.813  11.300  1.00  0.00    -0.203 F 
ATOM     76  C   UNL     1      -2.159  -7.061  11.451  1.00  0.00     0.198 A 
ATOM     77  C   UNL     1      -4.282  -5.946  11.441  1.00  0.00     0.198 A 
ATOM     78  F   UNL     1      -4.387  -3.607  11.226  1.00  0.00    -0.203 F 
ATOM     79  F   UNL     1      -1.442  -8.194  11.484  1.00  0.00    -0.200 F 
ATOM     80  C   UNL     1      -3.543  -7.117  11.505  1.00  0.00     0.200 A 
ATOM     81  F   UNL     1      -5.620  -5.996  11.512  1.00  0.00    -0.200 F 
ATOM     82  F   UNL     1      -4.164  -8.299  11.614  1.00  0.00    -0.200 F 
ENDBRANCH  58  72
BRANCH  59  83
ATOM     83  C   UNL     1       2.176   4.244  10.026  1.00  0.00     0.064 A 
ATOM     84  C   UNL     1       3.240   4.658  10.840  1.00  0.00     0.173 A 
ATOM     85  C   UNL     1       1.728   5.134   9.039  1.00  0.00     0.173 A 
ATOM     86  F   UNL     1       3.693   3.851  11.812  1.00  0.00    -0.203 F 
ATOM     87  C   UNL     1       3.812   5.920  10.693  1.00  0.00     0.198 A 
ATOM     88  C   UNL     1       2.324   6.382   8.870  1.00  0.00     0.198 A 
ATOM     89  F   UNL     1       0.717   4.787   8.229  1.00  0.00    -0.203 F 
ATOM     90  F   UNL     1       4.790   6.311  11.522  1.00  0.00    -0.200 F 
ATOM     91  C   UNL     1       3.358   6.778   9.703  1.00  0.00     0.200 A 
ATOM     92  F   UNL     1       1.893   7.201   7.900  1.00  0.00    -0.200 F 
ATOM     93  F   UNL     1       3.911   7.990   9.559  1.00  0.00    -0.200 F 
ENDBRANCH  59  83
BRANCH  71  94
ATOM     94  C   UNL     1      -1.495   1.367  15.203  1.00  0.00     0.064 A 
ATOM     95  C   UNL     1      -2.420   2.410  15.364  1.00  0.00     0.173 A 
ATOM     96  C   UNL     1      -0.952   0.790  16.362  1.00  0.00     0.173 A 
ATOM     97  F   UNL     1      -2.961   3.006  14.290  1.00  0.00    -0.203 F 
ATOM     98  C   UNL     1      -2.750   2.886  16.631  1.00  0.00     0.198 A 
ATOM     99  C   UNL     1      -1.315   1.242  17.628  1.00  0.00     0.198 A 
ATOM    100  F   UNL     1      -0.072  -0.218  16.268  1.00  0.00    -0.203 F 
ATOM    101  F   UNL     1      -3.581   3.931  16.756  1.00  0.00    -0.200 F 
ATOM    102  C   UNL     1      -2.203   2.298  17.761  1.00  0.00     0.200 A 
ATOM    103  F   UNL     1      -0.799   0.660  18.719  1.00  0.00    -0.200 F 
ATOM    104  F   UNL     1      -2.522   2.757  18.979  1.00  0.00    -0.200 F 
ENDBRANCH  71  94
ENDBRANCH  45  46
ENDBRANCH  37  40
ENDBRANCH  35  36
ENDBRANCH  34  35
ENDBRANCH  33  34
ENDBRANCH  32  33
ENDBRANCH   1  32
TORSDOF 19
