REMARK SMILES CC[C@@H](C)[C@@H](C(=O)NCCCCCCNC(=O)c1ccc(-c2c3nc(c(-c4c(F)c(F)c(F)c(F)c4F)c4ccc([nH]4)c(-c4c(F)c(F)c(F)c(F)c4F)c4nc(c(-c5c(F)c(F)c(F)c(F)c5F)c5ccc2[nH]5)C=C4)C=C3)cc1)S(=O)(=O)c1ccc(OC)cc1
REMARK SMILES IDX 11 1 10 2 9 3 8 4 6 5 7 6 5 8 3 9 4 10 2 11 1 12 81 13 82 14
REMARK SMILES IDX 83 15 84 16 85 17 91 18 86 19 90 20 87 21 88 22 89 23 12 24
REMARK SMILES IDX 13 25 14 26 15 27 16 28 17 30 18 31 19 32 80 33 20 34 79 35
REMARK SMILES IDX 21 36 22 37 23 38 73 39 24 40 78 41 72 42 74 43 25 44 77 45
REMARK SMILES IDX 71 46 70 47 26 49 58 50 38 51 57 52 39 53 42 54 56 55 75 56
REMARK SMILES IDX 40 57 41 58 55 60 76 61 43 62 27 63 28 64 36 65 29 66 30 67
REMARK SMILES IDX 34 68 37 69 31 70 32 71 35 72 33 73 59 74 60 75 68 76 61 77
REMARK SMILES IDX 62 78 66 79 69 80 63 81 64 82 67 83 65 84 44 85 45 86 53 87
REMARK SMILES IDX 46 88 47 89 51 90 54 91 48 92 49 93 52 94 50 95
REMARK H PARENT 8 7 15 29 74 48 42 59
REMARK Flexibility Score: inf
ROOT
ATOM      1  C   UNL     1       0.611   3.388   3.423  1.00  0.00     0.002 C 
ENDROOT
BRANCH   1   2
ATOM      2  C   UNL     1       0.352   2.620   2.126  1.00  0.00     0.021 C 
BRANCH   2   3
ATOM      3  C   UNL     1      -0.384   3.413   1.031  1.00  0.00     0.116 C 
BRANCH   3   4
ATOM      4  N   UNL     1       0.576   4.202   0.285  1.00  0.00    -0.355 N 
ATOM      5  C   UNL     1       1.255   3.910  -0.862  1.00  0.00     0.239 C 
ATOM      6  O   UNL     1       2.391   4.382  -0.918  1.00  0.00    -0.274 OA
ATOM      7  H   UNL     1       0.769   5.089   0.667  1.00  0.00     0.163 HD
BRANCH   5   8
ATOM      8  C   UNL     1       0.643   3.079  -1.999  1.00  0.00     0.205 C 
BRANCH   8   9
ATOM      9  C   UNL     1       1.063   1.568  -2.034  1.00  0.00     0.014 C 
ATOM     10  C   UNL     1       0.433   0.795  -3.204  1.00  0.00     0.009 C 
BRANCH   9  11
ATOM     11  C   UNL     1       0.699   0.839  -0.729  1.00  0.00     0.002 C 
ATOM     12  C   UNL     1       1.235  -0.577  -0.569  1.00  0.00     0.004 C 
ENDBRANCH   9  11
ENDBRANCH   8   9
BRANCH   8  13
ATOM     13  S   UNL     1       1.050   3.997  -3.531  1.00  0.00     0.190 S 
ATOM     14  O   UNL     1       0.584   3.267  -4.690  1.00  0.00    -0.223 OA
ATOM     15  O   UNL     1       0.576   5.368  -3.359  1.00  0.00    -0.223 OA
BRANCH  13  16
ATOM     16  C   UNL     1       2.833   4.062  -3.668  1.00  0.00     0.068 A 
ATOM     17  C   UNL     1       3.563   2.890  -3.868  1.00  0.00     0.024 A 
ATOM     18  C   UNL     1       3.499   5.282  -3.512  1.00  0.00     0.024 A 
ATOM     19  C   UNL     1       4.957   2.924  -3.777  1.00  0.00     0.048 A 
ATOM     20  C   UNL     1       4.897   5.311  -3.450  1.00  0.00     0.048 A 
ATOM     21  C   UNL     1       5.630   4.128  -3.554  1.00  0.00     0.118 A 
BRANCH  21  22
ATOM     22  O   UNL     1       6.987   4.007  -3.446  1.00  0.00    -0.497 OA
ATOM     23  C   UNL     1       7.733   5.214  -3.357  1.00  0.00     0.278 C 
ENDBRANCH  21  22
ENDBRANCH  13  16
ENDBRANCH   8  13
ENDBRANCH   5   8
ENDBRANCH   3   4
ENDBRANCH   2   3
ENDBRANCH   1   2
BRANCH   1  24
ATOM     24  C   UNL     1      -0.635   3.683   4.255  1.00  0.00     0.002 C 
BRANCH  24  25
ATOM     25  C   UNL     1      -1.508   2.466   4.572  1.00  0.00     0.021 C 
BRANCH  25  26
ATOM     26  C   UNL     1      -0.774   1.301   5.231  1.00  0.00     0.116 C 
BRANCH  26  27
ATOM     27  N   UNL     1      -0.213   1.667   6.520  1.00  0.00    -0.352 N 
ATOM     28  C   UNL     1      -0.516   1.190   7.770  1.00  0.00     0.251 C 
ATOM     29  H   UNL     1       0.486   2.360   6.493  1.00  0.00     0.163 HD
ATOM     30  O   UNL     1      -0.109   1.770   8.771  1.00  0.00    -0.269 OA
BRANCH  28  31
ATOM     31  C   UNL     1      -1.348  -0.023   7.911  1.00  0.00     0.039 A 
ATOM     32  C   UNL     1      -2.387  -0.027   8.845  1.00  0.00     0.014 A 
ATOM     33  C   UNL     1      -1.091  -1.159   7.137  1.00  0.00     0.014 A 
ATOM     34  C   UNL     1      -3.205  -1.152   8.963  1.00  0.00     0.010 A 
ATOM     35  C   UNL     1      -1.952  -2.250   7.204  1.00  0.00     0.010 A 
ATOM     36  C   UNL     1      -3.013  -2.261   8.122  1.00  0.00    -0.014 A 
BRANCH  36  37
ATOM     37  C   UNL     1      -3.909  -3.443   8.193  1.00  0.00     0.031 A 
ATOM     38  C   UNL     1      -3.365  -4.778   8.618  1.00  0.00     0.074 A 
ATOM     39  C   UNL     1      -5.198  -3.325   7.821  1.00  0.00     0.049 A 
ATOM     40  N   UNL     1      -3.972  -5.937   8.686  1.00  0.00    -0.248 NA
ATOM     41  C   UNL     1      -1.943  -4.823   8.992  1.00  0.00     0.031 C 
ATOM     42  C   UNL     1      -5.832  -2.092   7.351  1.00  0.00     0.029 A 
ATOM     43  N   UNL     1      -6.205  -4.256   7.771  1.00  0.00    -0.354 N 
ATOM     44  C   UNL     1      -3.006  -6.845   9.099  1.00  0.00     0.074 A 
ATOM     45  C   UNL     1      -1.761  -6.117   9.208  1.00  0.00     0.031 C 
ATOM     46  C   UNL     1      -7.125  -2.337   7.085  1.00  0.00     0.029 A 
ATOM     47  C   UNL     1      -7.402  -3.750   7.327  1.00  0.00     0.049 A 
ATOM     48  H   UNL     1      -6.080  -5.198   8.028  1.00  0.00     0.167 HD
ATOM     49  C   UNL     1      -3.151  -8.161   9.386  1.00  0.00     0.037 A 
ATOM     50  C   UNL     1      -8.586  -4.359   7.131  1.00  0.00     0.037 A 
ATOM     51  C   UNL     1      -4.396  -8.877   9.291  1.00  0.00     0.049 A 
ATOM     52  C   UNL     1      -8.715  -5.828   7.434  1.00  0.00     0.074 A 
ATOM     53  C   UNL     1      -4.659 -10.198   9.607  1.00  0.00     0.029 A 
ATOM     54  N   UNL     1      -5.589  -8.329   8.841  1.00  0.00    -0.354 N 
ATOM     55  N   UNL     1      -7.811  -6.662   7.888  1.00  0.00    -0.248 NA
ATOM     56  C   UNL     1     -10.031  -6.437   7.204  1.00  0.00     0.031 C 
ATOM     57  C   UNL     1      -5.998 -10.464   9.300  1.00  0.00     0.029 A 
ATOM     58  C   UNL     1      -6.585  -9.293   8.848  1.00  0.00     0.049 A 
ATOM     59  H   UNL     1      -5.710  -7.394   8.559  1.00  0.00     0.167 HD
ATOM     60  C   UNL     1      -8.455  -7.884   8.026  1.00  0.00     0.074 A 
ATOM     61  C   UNL     1      -9.830  -7.679   7.622  1.00  0.00     0.031 C 
ATOM     62  C   UNL     1      -7.952  -9.070   8.449  1.00  0.00     0.037 A 
BRANCH  49  63
ATOM     63  C   UNL     1      -1.928  -8.912   9.831  1.00  0.00     0.064 A 
ATOM     64  C   UNL     1      -1.322  -8.661  11.073  1.00  0.00     0.173 A 
ATOM     65  C   UNL     1      -1.369  -9.912   9.021  1.00  0.00     0.173 A 
ATOM     66  F   UNL     1      -1.808  -7.708  11.882  1.00  0.00    -0.203 F 
ATOM     67  C   UNL     1      -0.184  -9.359  11.470  1.00  0.00     0.198 A 
ATOM     68  C   UNL     1      -0.252 -10.631   9.437  1.00  0.00     0.198 A 
ATOM     69  F   UNL     1      -1.911 -10.197   7.828  1.00  0.00    -0.203 F 
ATOM     70  F   UNL     1       0.409  -9.062  12.635  1.00  0.00    -0.200 F 
ATOM     71  C   UNL     1       0.346 -10.348  10.656  1.00  0.00     0.200 A 
ATOM     72  F   UNL     1       0.251 -11.596   8.654  1.00  0.00    -0.200 F 
ATOM     73  F   UNL     1       1.438 -11.023  11.041  1.00  0.00    -0.200 F 
ENDBRANCH  49  63
BRANCH  50  74
ATOM     74  C   UNL     1      -9.754  -3.576   6.646  1.00  0.00     0.064 A 
ATOM     75  C   UNL     1     -10.852  -3.332   7.483  1.00  0.00     0.173 A 
ATOM     76  C   UNL     1      -9.800  -3.062   5.343  1.00  0.00     0.173 A 
ATOM     77  F   UNL     1     -10.863  -3.821   8.732  1.00  0.00    -0.203 F 
ATOM     78  C   UNL     1     -11.961  -2.622   7.028  1.00  0.00     0.198 A 
ATOM     79  C   UNL     1     -10.897  -2.326   4.898  1.00  0.00     0.198 A 
ATOM     80  F   UNL     1      -8.774  -3.262   4.504  1.00  0.00    -0.203 F 
ATOM     81  F   UNL     1     -13.016  -2.445   7.834  1.00  0.00    -0.200 F 
ATOM     82  C   UNL     1     -11.980  -2.115   5.738  1.00  0.00     0.200 A 
ATOM     83  F   UNL     1     -10.905  -1.824   3.656  1.00  0.00    -0.200 F 
ATOM     84  F   UNL     1     -13.045  -1.429   5.301  1.00  0.00    -0.200 F 
ENDBRANCH  50  74
BRANCH  62  85
ATOM     85  C   UNL     1      -8.903 -10.230   8.534  1.00  0.00     0.064 A 
ATOM     86  C   UNL     1      -9.410 -10.854   7.385  1.00  0.00     0.173 A 
ATOM     87  C   UNL     1      -9.281 -10.746   9.783  1.00  0.00     0.173 A 
ATOM     88  F   UNL     1      -9.092 -10.388   6.168  1.00  0.00    -0.203 F 
ATOM     89  C   UNL     1     -10.283 -11.934   7.484  1.00  0.00     0.198 A 
ATOM     90  C   UNL     1     -10.127 -11.848   9.877  1.00  0.00     0.198 A 
ATOM     91  F   UNL     1      -8.818 -10.191  10.913  1.00  0.00    -0.203 F 
ATOM     92  F   UNL     1     -10.796 -12.482   6.373  1.00  0.00    -0.200 F 
ATOM     93  C   UNL     1     -10.634 -12.435   8.729  1.00  0.00     0.200 A 
ATOM     94  F   UNL     1     -10.453 -12.339  11.081  1.00  0.00    -0.200 F 
ATOM     95  F   UNL     1     -11.467 -13.480   8.821  1.00  0.00    -0.200 F 
ENDBRANCH  62  85
ENDBRANCH  36  37
ENDBRANCH  28  31
ENDBRANCH  26  27
ENDBRANCH  25  26
ENDBRANCH  24  25
ENDBRANCH   1  24
TORSDOF 18
