REMARK SMILES O=C(NCCCCCCNC(=O)c1cc(Cl)ncc1-c1cccc(C(F)(F)F)c1)c1ccc(-c2c3nc(c(-c4c(F)c(F)c(F)c(F)c4F)c4ccc([nH]4)c(-c4c(F)c(F)c(F)c(F)c4F)c4nc(c(-c5c(F)c(F)c(F)c(F)c5F)c5ccc2[nH]5)C=C4)C=C3)cc1
REMARK SMILES IDX 6 1 5 2 4 3 3 4 1 5 2 6 30 8 31 9 92 10 32 11 91 12 33 13
REMARK SMILES IDX 34 14 35 15 85 16 36 17 90 18 84 19 86 20 37 21 89 22 83 23
REMARK SMILES IDX 82 24 38 26 70 27 50 28 69 29 51 30 54 31 68 32 87 33 52 34
REMARK SMILES IDX 53 35 67 37 88 38 55 39 39 40 40 41 48 42 41 43 42 44 46 45
REMARK SMILES IDX 49 46 43 47 44 48 47 49 45 50 71 51 72 52 80 53 73 54 74 55
REMARK SMILES IDX 78 56 81 57 75 58 76 59 79 60 77 61 56 62 57 63 65 64 58 65
REMARK SMILES IDX 59 66 63 67 66 68 60 69 61 70 64 71 62 72 7 73 8 74 9 75
REMARK SMILES IDX 10 76 11 77 12 79 13 80 14 81 19 82 15 83 18 84 16 85 17 86
REMARK SMILES IDX 20 87 21 88 29 89 22 90 24 91 23 92 25 93 26 94 27 95 28 96
REMARK H PARENT 3 7 86 25 54 36 10 78
REMARK Flexibility Score: inf
ROOT
ATOM      1  C   UNL     1       4.273  -3.253   1.962  1.00  0.00     0.002 C 
ENDROOT
BRANCH   1   2
ATOM      2  C   UNL     1       4.732  -1.800   1.844  1.00  0.00     0.021 C 
BRANCH   2   3
ATOM      3  C   UNL     1       4.466  -1.144   0.495  1.00  0.00     0.116 C 
BRANCH   3   4
ATOM      4  N   UNL     1       3.049  -1.010   0.205  1.00  0.00    -0.352 N 
ATOM      5  O   UNL     1       1.105   0.070  -0.185  1.00  0.00    -0.269 OA
ATOM      6  C   UNL     1       2.330   0.114  -0.122  1.00  0.00     0.251 C 
ATOM      7  H   UNL     1       2.529  -1.845   0.248  1.00  0.00     0.163 HD
BRANCH   6   8
ATOM      8  C   UNL     1       3.033   1.391  -0.373  1.00  0.00     0.039 A 
ATOM      9  C   UNL     1       4.180   1.431  -1.169  1.00  0.00     0.014 A 
ATOM     10  C   UNL     1       2.527   2.567   0.188  1.00  0.00     0.014 A 
ATOM     11  C   UNL     1       4.897   2.617  -1.289  1.00  0.00     0.010 A 
ATOM     12  C   UNL     1       3.202   3.775  -0.004  1.00  0.00     0.010 A 
ATOM     13  C   UNL     1       4.409   3.805  -0.721  1.00  0.00    -0.014 A 
BRANCH  13  14
ATOM     14  C   UNL     1       5.143   5.076  -0.941  1.00  0.00     0.031 A 
ATOM     15  C   UNL     1       5.770   5.821   0.202  1.00  0.00     0.074 A 
ATOM     16  C   UNL     1       5.250   5.551  -2.197  1.00  0.00     0.049 A 
ATOM     17  N   UNL     1       6.439   6.948   0.186  1.00  0.00    -0.248 NA
ATOM     18  C   UNL     1       5.623   5.232   1.541  1.00  0.00     0.031 C 
ATOM     19  C   UNL     1       4.673   4.919  -3.386  1.00  0.00     0.029 A 
ATOM     20  N   UNL     1       5.883   6.663  -2.688  1.00  0.00    -0.354 N 
ATOM     21  C   UNL     1       6.777   7.210   1.507  1.00  0.00     0.074 A 
ATOM     22  C   UNL     1       6.216   6.140   2.305  1.00  0.00     0.031 C 
ATOM     23  C   UNL     1       5.008   5.631  -4.470  1.00  0.00     0.029 A 
ATOM     24  C   UNL     1       5.768   6.803  -4.049  1.00  0.00     0.049 A 
ATOM     25  H   UNL     1       6.373   7.301  -2.119  1.00  0.00     0.167 HD
ATOM     26  C   UNL     1       7.496   8.246   2.004  1.00  0.00     0.037 A 
ATOM     27  C   UNL     1       6.206   7.777  -4.867  1.00  0.00     0.037 A 
ATOM     28  C   UNL     1       8.059   9.303   1.201  1.00  0.00     0.049 A 
ATOM     29  C   UNL     1       6.971   8.930  -4.284  1.00  0.00     0.074 A 
ATOM     30  C   UNL     1       8.834  10.377   1.606  1.00  0.00     0.029 A 
ATOM     31  N   UNL     1       7.899   9.424  -0.173  1.00  0.00    -0.354 N 
ATOM     32  N   UNL     1       7.317   9.147  -3.039  1.00  0.00    -0.248 NA
ATOM     33  C   UNL     1       7.404   9.975  -5.220  1.00  0.00     0.031 C 
ATOM     34  C   UNL     1       9.099  11.174   0.487  1.00  0.00     0.029 A 
ATOM     35  C   UNL     1       8.539  10.568  -0.626  1.00  0.00     0.049 A 
ATOM     36  H   UNL     1       7.405   8.791  -0.742  1.00  0.00     0.167 HD
ATOM     37  C   UNL     1       8.025  10.340  -3.042  1.00  0.00     0.074 A 
ATOM     38  C   UNL     1       8.076  10.790  -4.419  1.00  0.00     0.031 C 
ATOM     39  C   UNL     1       8.582  11.002  -1.999  1.00  0.00     0.037 A 
BRANCH  26  40
ATOM     40  C   UNL     1       7.702   8.304   3.491  1.00  0.00     0.064 A 
ATOM     41  C   UNL     1       8.543   7.400   4.157  1.00  0.00     0.173 A 
ATOM     42  C   UNL     1       7.086   9.308   4.255  1.00  0.00     0.173 A 
ATOM     43  F   UNL     1       9.149   6.415   3.477  1.00  0.00    -0.203 F 
ATOM     44  C   UNL     1       8.739   7.482   5.534  1.00  0.00     0.198 A 
ATOM     45  C   UNL     1       7.307   9.405   5.627  1.00  0.00     0.198 A 
ATOM     46  F   UNL     1       6.278  10.204   3.669  1.00  0.00    -0.203 F 
ATOM     47  F   UNL     1       9.512   6.579   6.154  1.00  0.00    -0.200 F 
ATOM     48  C   UNL     1       8.127   8.488   6.266  1.00  0.00     0.200 A 
ATOM     49  F   UNL     1       6.726  10.387   6.330  1.00  0.00    -0.200 F 
ATOM     50  F   UNL     1       8.323   8.570   7.590  1.00  0.00    -0.200 F 
ENDBRANCH  26  40
BRANCH  27  51
ATOM     51  C   UNL     1       5.921   7.697  -6.322  1.00  0.00     0.064 A 
ATOM     52  C   UNL     1       6.950   7.476  -7.248  1.00  0.00     0.173 A 
ATOM     53  C   UNL     1       4.614   7.822  -6.816  1.00  0.00     0.173 A 
ATOM     54  F   UNL     1       8.218   7.368  -6.826  1.00  0.00    -0.203 F 
ATOM     55  C   UNL     1       6.683   7.396  -8.613  1.00  0.00     0.198 A 
ATOM     56  C   UNL     1       4.345   7.711  -8.177  1.00  0.00     0.198 A 
ATOM     57  F   UNL     1       3.594   8.028  -5.970  1.00  0.00    -0.203 F 
ATOM     58  F   UNL     1       7.690   7.224  -9.480  1.00  0.00    -0.200 F 
ATOM     59  C   UNL     1       5.380   7.506  -9.076  1.00  0.00     0.200 A 
ATOM     60  F   UNL     1       3.082   7.799  -8.618  1.00  0.00    -0.200 F 
ATOM     61  F   UNL     1       5.124   7.419 -10.388  1.00  0.00    -0.200 F 
ENDBRANCH  27  51
BRANCH  39  62
ATOM     62  C   UNL     1       9.323  12.269  -2.313  1.00  0.00     0.064 A 
ATOM     63  C   UNL     1       8.653  13.441  -2.694  1.00  0.00     0.173 A 
ATOM     64  C   UNL     1      10.721  12.318  -2.203  1.00  0.00     0.173 A 
ATOM     65  F   UNL     1       7.318  13.440  -2.832  1.00  0.00    -0.203 F 
ATOM     66  C   UNL     1       9.357  14.607  -2.981  1.00  0.00     0.198 A 
ATOM     67  C   UNL     1      11.419  13.495  -2.459  1.00  0.00     0.198 A 
ATOM     68  F   UNL     1      11.410  11.226  -1.837  1.00  0.00    -0.203 F 
ATOM     69  F   UNL     1       8.700  15.700  -3.393  1.00  0.00    -0.200 F 
ATOM     70  C   UNL     1      10.738  14.635  -2.856  1.00  0.00     0.200 A 
ATOM     71  F   UNL     1      12.753  13.523  -2.326  1.00  0.00    -0.200 F 
ATOM     72  F   UNL     1      11.414  15.760  -3.126  1.00  0.00    -0.200 F 
ENDBRANCH  39  62
ENDBRANCH  13  14
ENDBRANCH   6   8
ENDBRANCH   3   4
ENDBRANCH   2   3
ENDBRANCH   1   2
BRANCH   1  73
ATOM     73  C   UNL     1       4.824  -4.210   0.900  1.00  0.00     0.002 C 
BRANCH  73  74
ATOM     74  C   UNL     1       6.348  -4.230   0.744  1.00  0.00     0.021 C 
BRANCH  74  75
ATOM     75  C   UNL     1       7.135  -4.498   2.024  1.00  0.00     0.116 C 
BRANCH  75  76
ATOM     76  N   UNL     1       6.813  -5.785   2.615  1.00  0.00    -0.352 N 
ATOM     77  C   UNL     1       7.648  -6.805   2.994  1.00  0.00     0.252 C 
ATOM     78  H   UNL     1       5.854  -5.949   2.767  1.00  0.00     0.163 HD
ATOM     79  O   UNL     1       7.194  -7.843   3.463  1.00  0.00    -0.269 OA
BRANCH  77  80
ATOM     80  C   UNL     1       9.106  -6.636   2.853  1.00  0.00     0.052 A 
ATOM     81  C   UNL     1       9.716  -5.625   3.600  1.00  0.00     0.055 A 
ATOM     82  C   UNL     1       9.861  -7.494   2.036  1.00  0.00     0.013 A 
ATOM     83  C   UNL     1      11.075  -5.466   3.458  1.00  0.00     0.129 A 
ATOM     84  C   UNL     1      11.229  -7.230   1.994  1.00  0.00     0.122 A 
ATOM     85  Cl  UNL     1      11.904  -4.211   4.280  1.00  0.00    -0.062 Cl
ATOM     86  N   UNL     1      11.850  -6.233   2.669  1.00  0.00    -0.244 NA
BRANCH  82  87
ATOM     87  C   UNL     1       9.295  -8.601   1.252  1.00  0.00    -0.015 A 
ATOM     88  C   UNL     1       9.649  -9.930   1.537  1.00  0.00     0.009 A 
ATOM     89  C   UNL     1       8.395  -8.364   0.200  1.00  0.00     0.021 A 
ATOM     90  C   UNL     1       9.119 -10.989   0.798  1.00  0.00     0.001 A 
ATOM     91  C   UNL     1       7.849  -9.422  -0.548  1.00  0.00     0.056 A 
ATOM     92  C   UNL     1       8.224 -10.737  -0.239  1.00  0.00     0.013 A 
BRANCH  91  93
ATOM     93  C   UNL     1       6.870  -9.162  -1.666  1.00  0.00     0.416 C 
ATOM     94  F   UNL     1       7.326  -9.608  -2.870  1.00  0.00    -0.166 F 
ATOM     95  F   UNL     1       5.671  -9.776  -1.469  1.00  0.00    -0.166 F 
ATOM     96  F   UNL     1       6.586  -7.840  -1.844  1.00  0.00    -0.166 F 
ENDBRANCH  91  93
ENDBRANCH  82  87
ENDBRANCH  77  80
ENDBRANCH  75  76
ENDBRANCH  74  75
ENDBRANCH  73  74
ENDBRANCH   1  73
TORSDOF 15
