REMARK SMILES CSCc1ccc(C(=O)N[C@@H](Cc2cnc[nH]2)C(=O)NCCCCCCNC(=O)c2ccc(-c3c4nc(c(-c5c(F)c(F)c(F)c(F)c5F)c5ccc([nH]5)c(-c5c(F)c(F)c(F)c(F)c5F)c5nc(c(-c6c(F)c(F)c(F)c(F)c6F)c6ccc3[nH]6)C=C5)C=C4)cc2)o1
REMARK SMILES IDX 22 1 21 2 20 3 18 4 19 5 11 7 10 8 8 9 9 10 7 12 4 13 5 14
REMARK SMILES IDX 93 15 6 16 3 17 2 18 1 19 12 20 13 21 14 22 17 23 15 24
REMARK SMILES IDX 16 25 23 27 24 28 25 29 26 30 27 31 28 32 29 34 30 35 31 36
REMARK SMILES IDX 92 37 32 38 91 39 33 40 34 41 35 42 85 43 36 44 90 45 84 46
REMARK SMILES IDX 86 47 37 48 89 49 83 50 82 51 38 53 70 54 50 55 69 56 51 57
REMARK SMILES IDX 54 58 68 59 87 60 52 61 53 62 67 64 88 65 55 66 39 67 40 68
REMARK SMILES IDX 48 69 41 70 42 71 46 72 49 73 43 74 44 75 47 76 45 77 71 78
REMARK SMILES IDX 72 79 80 80 73 81 74 82 78 83 81 84 75 85 76 86 79 87 77 88
REMARK SMILES IDX 56 89 57 90 65 91 58 92 59 93 63 94 66 95 60 96 61 97 64 98
REMARK SMILES IDX 62 99
REMARK H PARENT 20 6 10 11 17 26 27 33 86 52 54 63
REMARK Flexibility Score: inf
ROOT
ATOM      1  C   UNL     1       1.681   6.588  -7.305  1.00  0.00     0.021 C 
ENDROOT
BRANCH   1   2
ATOM      2  C   UNL     1       0.459   5.686  -7.197  1.00  0.00     0.116 C 
BRANCH   2   3
ATOM      3  N   UNL     1       0.626   4.404  -7.849  1.00  0.00    -0.354 N 
ATOM      4  C   UNL     1      -0.054   3.239  -7.684  1.00  0.00     0.242 C 
ATOM      5  O   UNL     1      -0.049   2.462  -8.649  1.00  0.00    -0.273 OA
ATOM      6  H   UNL     1       1.347   4.372  -8.519  1.00  0.00     0.163 HD
BRANCH   4   7
ATOM      7  C   UNL     1      -0.925   2.905  -6.452  1.00  0.00     0.177 C 
BRANCH   7   8
ATOM      8  N   UNL     1      -0.360   3.252  -5.152  1.00  0.00    -0.337 N 
ATOM      9  C   UNL     1       0.233   2.485  -4.176  1.00  0.00     0.287 C 
ATOM     10  O   UNL     1       0.838   3.135  -3.316  1.00  0.00    -0.266 OA
ATOM     11  H   UNL     1      -0.412   4.211  -4.934  1.00  0.00     0.164 HD
BRANCH   9  12
ATOM     12  C   UNL     1       0.126   1.034  -4.121  1.00  0.00     0.191 A 
ATOM     13  C   UNL     1       0.596  -0.917  -3.156  1.00  0.00     0.114 A 
ATOM     14  C   UNL     1      -0.295  -1.193  -4.165  1.00  0.00     0.047 A 
ATOM     15  O   UNL     1       0.884   0.413  -3.148  1.00  0.00    -0.455 OA
ATOM     16  C   UNL     1      -0.615   0.053  -4.762  1.00  0.00     0.056 A 
BRANCH  13  17
ATOM     17  C   UNL     1       1.256  -1.760  -2.129  1.00  0.00     0.144 C 
BRANCH  17  18
ATOM     18  S   UNL     1       0.378  -1.705  -0.533  1.00  0.00    -0.157 SA
ATOM     19  C   UNL     1       0.929  -0.076   0.040  1.00  0.00     0.085 C 
ENDBRANCH  17  18
ENDBRANCH  13  17
ENDBRANCH   9  12
ENDBRANCH   7   8
BRANCH   7  20
ATOM     20  C   UNL     1      -2.404   3.304  -6.599  1.00  0.00     0.090 C 
BRANCH  20  21
ATOM     21  C   UNL     1      -2.684   4.753  -6.811  1.00  0.00     0.037 A 
ATOM     22  C   UNL     1      -2.853   5.811  -5.943  1.00  0.00     0.134 A 
ATOM     23  N   UNL     1      -2.903   5.292  -8.059  1.00  0.00    -0.348 N 
ATOM     24  N   UNL     1      -3.086   6.973  -6.632  1.00  0.00    -0.245 NA
ATOM     25  C   UNL     1      -3.132   6.628  -7.898  1.00  0.00     0.196 A 
ATOM     26  H   UNL     1      -2.895   4.802  -8.913  1.00  0.00     0.167 HD
ENDBRANCH  20  21
ENDBRANCH   7  20
ENDBRANCH   4   7
ENDBRANCH   2   3
ENDBRANCH   1   2
BRANCH   1  27
ATOM     27  C   UNL     1       2.032   7.040  -8.726  1.00  0.00     0.002 C 
BRANCH  27  28
ATOM     28  C   UNL     1       0.889   7.641  -9.552  1.00  0.00     0.002 C 
BRANCH  28  29
ATOM     29  C   UNL     1       0.119   8.796  -8.905  1.00  0.00     0.021 C 
BRANCH  29  30
ATOM     30  C   UNL     1       0.969   9.957  -8.399  1.00  0.00     0.116 C 
BRANCH  30  31
ATOM     31  N   UNL     1       1.807  10.532  -9.434  1.00  0.00    -0.352 N 
ATOM     32  C   UNL     1       2.050  11.844  -9.748  1.00  0.00     0.251 C 
ATOM     33  H   UNL     1       2.275   9.876 -10.001  1.00  0.00     0.163 HD
ATOM     34  O   UNL     1       2.692  12.113 -10.759  1.00  0.00    -0.269 OA
BRANCH  32  35
ATOM     35  C   UNL     1       1.526  12.940  -8.901  1.00  0.00     0.039 A 
ATOM     36  C   UNL     1       1.053  14.091  -9.537  1.00  0.00     0.014 A 
ATOM     37  C   UNL     1       1.531  12.870  -7.504  1.00  0.00     0.014 A 
ATOM     38  C   UNL     1       0.550  15.149  -8.778  1.00  0.00     0.010 A 
ATOM     39  C   UNL     1       0.957  13.895  -6.750  1.00  0.00     0.010 A 
ATOM     40  C   UNL     1       0.471  15.049  -7.379  1.00  0.00    -0.014 A 
BRANCH  40  41
ATOM     41  C   UNL     1      -0.132  16.152  -6.588  1.00  0.00     0.031 A 
ATOM     42  C   UNL     1       0.697  16.958  -5.628  1.00  0.00     0.074 A 
ATOM     43  C   UNL     1      -1.444  16.422  -6.737  1.00  0.00     0.049 A 
ATOM     44  N   UNL     1       0.354  18.002  -4.915  1.00  0.00    -0.248 NA
ATOM     45  C   UNL     1       2.087  16.524  -5.422  1.00  0.00     0.031 C 
ATOM     46  C   UNL     1      -2.368  15.666  -7.584  1.00  0.00     0.029 A 
ATOM     47  N   UNL     1      -2.224  17.410  -6.193  1.00  0.00    -0.354 N 
ATOM     48  C   UNL     1       1.481  18.346  -4.179  1.00  0.00     0.074 A 
ATOM     49  C   UNL     1       2.499  17.365  -4.484  1.00  0.00     0.031 C 
ATOM     50  C   UNL     1      -3.578  16.243  -7.538  1.00  0.00     0.029 A 
ATOM     51  C   UNL     1      -3.523  17.392  -6.639  1.00  0.00     0.049 A 
ATOM     52  H   UNL     1      -1.886  18.069  -5.544  1.00  0.00     0.167 HD
ATOM     53  C   UNL     1       1.658  19.401  -3.346  1.00  0.00     0.037 A 
ATOM     54  C   UNL     1      -4.550  18.217  -6.365  1.00  0.00     0.037 A 
ATOM     55  C   UNL     1       0.644  20.382  -3.055  1.00  0.00     0.049 A 
ATOM     56  C   UNL     1      -4.321  19.390  -5.453  1.00  0.00     0.074 A 
ATOM     57  C   UNL     1       0.741  21.520  -2.274  1.00  0.00     0.029 A 
ATOM     58  N   UNL     1      -0.659  20.335  -3.531  1.00  0.00    -0.354 N 
ATOM     59  N   UNL     1      -3.225  19.760  -4.837  1.00  0.00    -0.248 NA
ATOM     60  C   UNL     1      -5.472  20.271  -5.213  1.00  0.00     0.031 C 
ATOM     61  C   UNL     1      -0.517  22.134  -2.235  1.00  0.00     0.029 A 
ATOM     62  C   UNL     1      -1.383  21.411  -3.038  1.00  0.00     0.049 A 
ATOM     63  H   UNL     1      -1.018  19.640  -4.129  1.00  0.00     0.167 HD
ATOM     64  C   UNL     1      -3.546  20.924  -4.152  1.00  0.00     0.074 A 
ATOM     65  C   UNL     1      -4.932  21.215  -4.455  1.00  0.00     0.031 C 
ATOM     66  C   UNL     1      -2.766  21.681  -3.341  1.00  0.00     0.037 A 
BRANCH  53  67
ATOM     67  C   UNL     1       3.002  19.551  -2.692  1.00  0.00     0.064 A 
ATOM     68  C   UNL     1       4.146  19.893  -3.430  1.00  0.00     0.173 A 
ATOM     69  C   UNL     1       3.144  19.389  -1.306  1.00  0.00     0.173 A 
ATOM     70  F   UNL     1       4.070  20.050  -4.761  1.00  0.00    -0.203 F 
ATOM     71  C   UNL     1       5.386  20.035  -2.811  1.00  0.00     0.198 A 
ATOM     72  C   UNL     1       4.379  19.563  -0.684  1.00  0.00     0.198 A 
ATOM     73  F   UNL     1       2.083  19.068  -0.549  1.00  0.00    -0.203 F 
ATOM     74  F   UNL     1       6.472  20.312  -3.545  1.00  0.00    -0.200 F 
ATOM     75  C   UNL     1       5.499  19.878  -1.438  1.00  0.00     0.200 A 
ATOM     76  F   UNL     1       4.484  19.425   0.644  1.00  0.00    -0.200 F 
ATOM     77  F   UNL     1       6.691  20.023  -0.842  1.00  0.00    -0.200 F 
ENDBRANCH  53  67
BRANCH  54  78
ATOM     78  C   UNL     1      -5.876  17.986  -6.997  1.00  0.00     0.064 A 
ATOM     79  C   UNL     1      -6.378  18.869  -7.964  1.00  0.00     0.173 A 
ATOM     80  C   UNL     1      -6.666  16.881  -6.650  1.00  0.00     0.173 A 
ATOM     81  F   UNL     1      -5.667  19.950  -8.317  1.00  0.00    -0.203 F 
ATOM     82  C   UNL     1      -7.630  18.668  -8.541  1.00  0.00     0.198 A 
ATOM     83  C   UNL     1      -7.904  16.664  -7.250  1.00  0.00     0.198 A 
ATOM     84  F   UNL     1      -6.228  16.003  -5.736  1.00  0.00    -0.203 F 
ATOM     85  F   UNL     1      -8.106  19.553  -9.427  1.00  0.00    -0.200 F 
ATOM     86  C   UNL     1      -8.389  17.562  -8.189  1.00  0.00     0.200 A 
ATOM     87  F   UNL     1      -8.628  15.586  -6.919  1.00  0.00    -0.200 F 
ATOM     88  F   UNL     1      -9.591  17.367  -8.748  1.00  0.00    -0.200 F 
ENDBRANCH  54  78
BRANCH  66  89
ATOM     89  C   UNL     1      -3.398  22.905  -2.741  1.00  0.00     0.064 A 
ATOM     90  C   UNL     1      -4.399  22.812  -1.762  1.00  0.00     0.173 A 
ATOM     91  C   UNL     1      -2.997  24.186  -3.149  1.00  0.00     0.173 A 
ATOM     92  F   UNL     1      -4.829  21.610  -1.348  1.00  0.00    -0.203 F 
ATOM     93  C   UNL     1      -5.006  23.954  -1.247  1.00  0.00     0.198 A 
ATOM     94  C   UNL     1      -3.581  25.327  -2.606  1.00  0.00     0.198 A 
ATOM     95  F   UNL     1      -2.037  24.333  -4.075  1.00  0.00    -0.203 F 
ATOM     96  F   UNL     1      -6.008  23.838  -0.365  1.00  0.00    -0.200 F 
ATOM     97  C   UNL     1      -4.594  25.210  -1.666  1.00  0.00     0.200 A 
ATOM     98  F   UNL     1      -3.171  26.541  -3.001  1.00  0.00    -0.200 F 
ATOM     99  F   UNL     1      -5.182  26.309  -1.172  1.00  0.00    -0.200 F 
ENDBRANCH  66  89
ENDBRANCH  40  41
ENDBRANCH  32  35
ENDBRANCH  30  31
ENDBRANCH  29  30
ENDBRANCH  28  29
ENDBRANCH  27  28
ENDBRANCH   1  27
TORSDOF 19
