REMARK SMILES COC(=O)C[C@@H](NC(=O)c1ccccc1C(=O)NCCCCCCNC(=O)c1ccc(-c2c3nc(c(-c4c(F)c(F)c(F)c(F)c4F)c4ccc([nH]4)c(-c4c(F)c(F)c(F)c(F)c4F)c4nc(c(-c5c(F)c(F)c(F)c(F)c5F)c5ccc2[nH]5)C=C4)C=C3)cc1)c1cccc(C)c1C
REMARK SMILES IDX 20 1 19 2 18 3 16 4 17 5 15 7 10 8 11 9 12 10 14 11 13 12
REMARK SMILES IDX 8 13 7 14 9 16 6 17 5 18 3 19 4 20 2 21 1 22 91 23 92 24
REMARK SMILES IDX 97 25 93 26 95 27 98 28 94 29 96 30 21 31 22 32 23 33 24 34
REMARK SMILES IDX 25 35 26 36 27 38 28 39 29 40 90 41 30 42 89 43 31 44 32 45
REMARK SMILES IDX 33 46 83 47 34 48 88 49 82 50 84 51 35 52 87 53 81 54 80 55
REMARK SMILES IDX 36 57 68 58 48 59 67 60 49 61 52 62 66 63 85 64 50 65 51 66
REMARK SMILES IDX 65 68 86 69 53 70 37 71 38 72 46 73 39 74 40 75 44 76 47 77
REMARK SMILES IDX 41 78 42 79 45 80 43 81 69 82 70 83 78 84 71 85 72 86 76 87
REMARK SMILES IDX 79 88 73 89 74 90 77 91 75 92 54 93 55 94 63 95 56 96 57 97
REMARK SMILES IDX 61 98 64 99 58 100 59 101 62 102 60 103
REMARK H PARENT 18 6 7 15 25 37 84 56 52 67
REMARK Flexibility Score: inf
ROOT
ATOM      1  C   UNL     1       2.459  -1.456   4.635  1.00  0.00     0.021 C 
ENDROOT
BRANCH   1   2
ATOM      2  C   UNL     1       1.501  -2.571   4.252  1.00  0.00     0.116 C 
BRANCH   2   3
ATOM      3  N   UNL     1       2.124  -3.827   3.922  1.00  0.00    -0.352 N 
ATOM      4  C   UNL     1       1.605  -5.096   3.962  1.00  0.00     0.252 C 
ATOM      5  O   UNL     1       2.345  -6.020   3.622  1.00  0.00    -0.269 OA
ATOM      6  H   UNL     1       3.060  -3.765   3.623  1.00  0.00     0.163 HD
BRANCH   4   7
ATOM      7  C   UNL     1       0.246  -5.412   4.485  1.00  0.00     0.052 A 
ATOM      8  C   UNL     1      -0.942  -4.700   4.281  1.00  0.00     0.052 A 
ATOM      9  C   UNL     1      -2.121  -5.109   4.951  1.00  0.00     0.014 A 
ATOM     10  C   UNL     1      -2.151  -6.257   5.741  1.00  0.00     0.001 A 
ATOM     11  C   UNL     1       0.187  -6.590   5.268  1.00  0.00     0.014 A 
ATOM     12  C   UNL     1      -0.997  -7.012   5.882  1.00  0.00     0.001 A 
BRANCH   8  13
ATOM     13  C   UNL     1      -1.160  -3.513   3.430  1.00  0.00     0.252 C 
ATOM     14  N   UNL     1      -0.971  -3.477   2.074  1.00  0.00    -0.345 N 
ATOM     15  H   UNL     1      -1.421  -2.716   1.642  1.00  0.00     0.164 HD
ATOM     16  O   UNL     1      -1.636  -2.506   3.963  1.00  0.00    -0.269 OA
BRANCH  14  17
ATOM     17  C   UNL     1      -0.237  -4.332   1.121  1.00  0.00     0.124 C 
BRANCH  17  18
ATOM     18  C   UNL     1      -0.501  -3.851  -0.310  1.00  0.00     0.152 C 
BRANCH  18  19
ATOM     19  C   UNL     1       0.400  -2.701  -0.667  1.00  0.00     0.307 C 
ATOM     20  O   UNL     1       1.581  -2.827  -0.979  1.00  0.00    -0.252 OA
BRANCH  19  21
ATOM     21  O   UNL     1      -0.272  -1.520  -0.614  1.00  0.00    -0.469 OA
ATOM     22  C   UNL     1       0.457  -0.399  -1.128  1.00  0.00     0.282 C 
ENDBRANCH  19  21
ENDBRANCH  18  19
ENDBRANCH  17  18
BRANCH  17  23
ATOM     23  C   UNL     1      -0.544  -5.820   1.234  1.00  0.00    -0.022 A 
ATOM     24  C   UNL     1      -1.794  -6.242   1.721  1.00  0.00     0.006 A 
ATOM     25  C   UNL     1       0.433  -6.801   0.915  1.00  0.00    -0.043 A 
ATOM     26  C   UNL     1      -2.006  -7.565   2.094  1.00  0.00     0.001 A 
ATOM     27  C   UNL     1       0.191  -8.154   1.255  1.00  0.00    -0.048 A 
ATOM     28  C   UNL     1       1.695  -6.453   0.156  1.00  0.00     0.045 C 
ATOM     29  C   UNL     1      -1.004  -8.505   1.899  1.00  0.00     0.004 A 
ATOM     30  C   UNL     1       1.214  -9.237   1.032  1.00  0.00     0.044 C 
ENDBRANCH  17  23
ENDBRANCH  14  17
ENDBRANCH   8  13
ENDBRANCH   4   7
ENDBRANCH   2   3
ENDBRANCH   1   2
BRANCH   1  31
ATOM     31  C   UNL     1       3.340  -0.920   3.502  1.00  0.00     0.002 C 
BRANCH  31  32
ATOM     32  C   UNL     1       2.636  -0.540   2.194  1.00  0.00     0.002 C 
BRANCH  32  33
ATOM     33  C   UNL     1       1.414   0.371   2.312  1.00  0.00     0.021 C 
BRANCH  33  34
ATOM     34  C   UNL     1       1.612   1.659   3.095  1.00  0.00     0.116 C 
BRANCH  34  35
ATOM     35  N   UNL     1       2.685   2.478   2.556  1.00  0.00    -0.352 N 
ATOM     36  C   UNL     1       2.677   3.765   2.085  1.00  0.00     0.251 C 
ATOM     37  H   UNL     1       3.563   2.034   2.525  1.00  0.00     0.163 HD
ATOM     38  O   UNL     1       3.668   4.203   1.505  1.00  0.00    -0.269 OA
BRANCH  36  39
ATOM     39  C   UNL     1       1.486   4.630   2.245  1.00  0.00     0.039 A 
ATOM     40  C   UNL     1       1.163   5.524   1.219  1.00  0.00     0.014 A 
ATOM     41  C   UNL     1       0.709   4.599   3.405  1.00  0.00     0.014 A 
ATOM     42  C   UNL     1       0.037   6.342   1.334  1.00  0.00     0.010 A 
ATOM     43  C   UNL     1      -0.467   5.340   3.476  1.00  0.00     0.010 A 
ATOM     44  C   UNL     1      -0.807   6.232   2.450  1.00  0.00    -0.014 A 
BRANCH  44  45
ATOM     45  C   UNL     1      -2.041   7.050   2.572  1.00  0.00     0.031 A 
ATOM     46  C   UNL     1      -2.197   8.015   3.714  1.00  0.00     0.074 A 
ATOM     47  C   UNL     1      -3.051   6.865   1.701  1.00  0.00     0.049 A 
ATOM     48  N   UNL     1      -3.227   8.754   4.042  1.00  0.00    -0.248 NA
ATOM     49  C   UNL     1      -1.057   8.137   4.635  1.00  0.00     0.031 C 
ATOM     50  C   UNL     1      -3.042   5.915   0.589  1.00  0.00     0.029 A 
ATOM     51  N   UNL     1      -4.287   7.455   1.626  1.00  0.00    -0.354 N 
ATOM     52  C   UNL     1      -2.868   9.405   5.215  1.00  0.00     0.074 A 
ATOM     53  C   UNL     1      -1.550   8.928   5.575  1.00  0.00     0.031 C 
ATOM     54  C   UNL     1      -4.208   6.000  -0.070  1.00  0.00     0.029 A 
ATOM     55  C   UNL     1      -5.061   6.978   0.597  1.00  0.00     0.049 A 
ATOM     56  H   UNL     1      -4.591   8.153   2.250  1.00  0.00     0.167 HD
ATOM     57  C   UNL     1      -3.563  10.333   5.915  1.00  0.00     0.037 A 
ATOM     58  C   UNL     1      -6.322   7.287   0.238  1.00  0.00     0.037 A 
ATOM     59  C   UNL     1      -4.863  10.820   5.534  1.00  0.00     0.049 A 
ATOM     60  C   UNL     1      -7.072   8.328   1.020  1.00  0.00     0.074 A 
ATOM     61  C   UNL     1      -5.619  11.818   6.124  1.00  0.00     0.029 A 
ATOM     62  N   UNL     1      -5.606  10.335   4.466  1.00  0.00    -0.354 N 
ATOM     63  N   UNL     1      -6.690   9.001   2.079  1.00  0.00    -0.248 NA
ATOM     64  C   UNL     1      -8.424   8.661   0.553  1.00  0.00     0.031 C 
ATOM     65  C   UNL     1      -6.843  11.894   5.450  1.00  0.00     0.029 A 
ATOM     66  C   UNL     1      -6.825  10.990   4.400  1.00  0.00     0.049 A 
ATOM     67  H   UNL     1      -5.309   9.630   3.846  1.00  0.00     0.167 HD
ATOM     68  C   UNL     1      -7.742   9.851   2.393  1.00  0.00     0.074 A 
ATOM     69  C   UNL     1      -8.773   9.619   1.400  1.00  0.00     0.031 C 
ATOM     70  C   UNL     1      -7.845  10.743   3.409  1.00  0.00     0.037 A 
BRANCH  57  71
ATOM     71  C   UNL     1      -2.931  10.869   7.171  1.00  0.00     0.064 A 
ATOM     72  C   UNL     1      -1.767  11.654   7.141  1.00  0.00     0.173 A 
ATOM     73  C   UNL     1      -3.500  10.596   8.424  1.00  0.00     0.173 A 
ATOM     74  F   UNL     1      -1.175  11.940   5.971  1.00  0.00    -0.203 F 
ATOM     75  C   UNL     1      -1.170  12.100   8.317  1.00  0.00     0.198 A 
ATOM     76  C   UNL     1      -2.921  11.076   9.597  1.00  0.00     0.198 A 
ATOM     77  F   UNL     1      -4.618   9.859   8.515  1.00  0.00    -0.203 F 
ATOM     78  F   UNL     1      -0.019  12.784   8.264  1.00  0.00    -0.200 F 
ATOM     79  C   UNL     1      -1.750  11.815   9.543  1.00  0.00     0.200 A 
ATOM     80  F   UNL     1      -3.493  10.813  10.780  1.00  0.00    -0.200 F 
ATOM     81  F   UNL     1      -1.173  12.243  10.675  1.00  0.00    -0.200 F 
ENDBRANCH  57  71
BRANCH  58  82
ATOM     82  C   UNL     1      -6.932   6.612  -0.937  1.00  0.00     0.064 A 
ATOM     83  C   UNL     1      -7.152   7.308  -2.133  1.00  0.00     0.173 A 
ATOM     84  C   UNL     1      -7.267   5.250  -0.903  1.00  0.00     0.173 A 
ATOM     85  F   UNL     1      -6.864   8.616  -2.209  1.00  0.00    -0.203 F 
ATOM     86  C   UNL     1      -7.692   6.670  -3.248  1.00  0.00     0.198 A 
ATOM     87  C   UNL     1      -7.780   4.607  -2.027  1.00  0.00     0.198 A 
ATOM     88  F   UNL     1      -7.067   4.537   0.215  1.00  0.00    -0.203 F 
ATOM     89  F   UNL     1      -7.921   7.367  -4.370  1.00  0.00    -0.200 F 
ATOM     90  C   UNL     1      -7.997   5.319  -3.197  1.00  0.00     0.200 A 
ATOM     91  F   UNL     1      -8.055   3.296  -1.979  1.00  0.00    -0.200 F 
ATOM     92  F   UNL     1      -8.500   4.702  -4.275  1.00  0.00    -0.200 F 
ENDBRANCH  58  82
BRANCH  70  93
ATOM     93  C   UNL     1      -9.106  11.555   3.488  1.00  0.00     0.064 A 
ATOM     94  C   UNL     1     -10.331  10.982   3.858  1.00  0.00     0.173 A 
ATOM     95  C   UNL     1      -9.078  12.934   3.230  1.00  0.00     0.173 A 
ATOM     96  F   UNL     1     -10.415   9.665   4.101  1.00  0.00    -0.203 F 
ATOM     97  C   UNL     1     -11.487  11.754   3.941  1.00  0.00     0.198 A 
ATOM     98  C   UNL     1     -10.228  13.709   3.347  1.00  0.00     0.198 A 
ATOM     99  F   UNL     1      -7.931  13.534   2.878  1.00  0.00    -0.203 F 
ATOM    100  F   UNL     1     -12.656  11.176   4.247  1.00  0.00    -0.200 F 
ATOM    101  C   UNL     1     -11.433  13.118   3.694  1.00  0.00     0.200 A 
ATOM    102  F   UNL     1     -10.170  15.030   3.123  1.00  0.00    -0.200 F 
ATOM    103  F   UNL     1     -12.544  13.861   3.784  1.00  0.00    -0.200 F 
ENDBRANCH  70  93
ENDBRANCH  44  45
ENDBRANCH  36  39
ENDBRANCH  34  35
ENDBRANCH  33  34
ENDBRANCH  32  33
ENDBRANCH  31  32
ENDBRANCH   1  31
TORSDOF 19
