REMARK SMILES CC1(C)C(n2c(SCC(=O)NCCCCCCNC(=O)c3ccc(-c4c5nc(c(-c6c(F)c(F)c(F)c(F)c6F)c6ccc([nH]6)c(-c6c(F)c(F)c(F)c(F)c6F)c6nc(c(-c7c(F)c(F)c(F)c(F)c7F)c7ccc4[nH]7)C=C6)C=C5)cc3)nc3cnccc32)C1(C)C
REMARK SMILES IDX 14 1 13 2 12 3 11 4 9 5 10 6 8 8 7 9 6 10 5 11 90 12 84 13
REMARK SMILES IDX 85 14 89 15 86 16 88 17 87 18 4 19 1 20 2 21 3 22 91 23
REMARK SMILES IDX 92 24 93 25 15 26 16 27 17 28 18 29 19 30 20 32 21 33 22 34
REMARK SMILES IDX 83 35 23 36 82 37 24 38 25 39 26 40 76 41 27 42 81 43 75 44
REMARK SMILES IDX 77 45 28 46 80 47 74 48 73 49 29 51 61 52 41 53 60 54 42 55
REMARK SMILES IDX 45 56 59 57 78 58 43 59 44 60 58 62 79 63 46 64 30 65 31 66
REMARK SMILES IDX 39 67 32 68 33 69 37 70 40 71 34 72 35 73 38 74 36 75 62 76
REMARK SMILES IDX 63 77 71 78 64 79 65 80 69 81 72 82 66 83 67 84 70 85 68 86
REMARK SMILES IDX 47 87 48 88 56 89 49 90 50 91 54 92 57 93 51 94 52 95 55 96
REMARK SMILES IDX 53 97
REMARK H PARENT 11 7 18 31 77 50 45 61
REMARK Flexibility Score: inf
ROOT
ATOM      1  C   UNL     1      -0.642   7.456  -2.922  1.00  0.00     0.002 C 
ENDROOT
BRANCH   1   2
ATOM      2  C   UNL     1      -1.411   7.283  -1.605  1.00  0.00     0.021 C 
BRANCH   2   3
ATOM      3  C   UNL     1      -2.592   6.324  -1.715  1.00  0.00     0.116 C 
BRANCH   3   4
ATOM      4  N   UNL     1      -2.096   5.016  -2.052  1.00  0.00    -0.355 N 
ATOM      5  C   UNL     1      -1.670   4.082  -1.165  1.00  0.00     0.230 C 
ATOM      6  O   UNL     1      -0.853   3.252  -1.581  1.00  0.00    -0.274 OA
ATOM      7  H   UNL     1      -2.062   4.779  -3.007  1.00  0.00     0.163 HD
BRANCH   5   8
ATOM      8  C   UNL     1      -2.285   4.036   0.212  1.00  0.00     0.178 C 
BRANCH   8   9
ATOM      9  S   UNL     1      -1.533   5.045   1.462  1.00  0.00    -0.078 SA
BRANCH   9  10
ATOM     10  C   UNL     1       0.069   4.530   1.853  1.00  0.00     0.169 A 
ATOM     11  N   UNL     1       0.765   3.357   1.613  1.00  0.00    -0.315 N 
ATOM     12  C   UNL     1       2.095   3.617   1.924  1.00  0.00     0.072 A 
ATOM     13  N   UNL     1       0.810   5.380   2.539  1.00  0.00    -0.221 NA
ATOM     14  C   UNL     1       2.069   4.855   2.560  1.00  0.00     0.108 A 
ATOM     15  C   UNL     1       3.298   2.936   1.722  1.00  0.00     0.049 A 
ATOM     16  C   UNL     1       3.257   5.397   3.063  1.00  0.00     0.141 A 
ATOM     17  C   UNL     1       4.428   3.563   2.233  1.00  0.00     0.113 A 
ATOM     18  N   UNL     1       4.434   4.742   2.895  1.00  0.00    -0.262 NA
BRANCH  11  19
ATOM     19  C   UNL     1       0.384   2.175   0.861  1.00  0.00     0.102 C 
ATOM     20  C   UNL     1       1.325  -0.139   0.166  1.00  0.00     0.014 C 
ATOM     21  C   UNL     1       0.717   0.740   1.244  1.00  0.00    -0.007 C 
ATOM     22  C   UNL     1       1.208   0.374   2.625  1.00  0.00     0.014 C 
ATOM     23  C   UNL     1      -0.758   1.185   1.093  1.00  0.00    -0.007 C 
ATOM     24  C   UNL     1      -1.517   0.635  -0.110  1.00  0.00     0.014 C 
ATOM     25  C   UNL     1      -1.627   1.284   2.336  1.00  0.00     0.014 C 
ENDBRANCH  11  19
ENDBRANCH   9  10
ENDBRANCH   8   9
ENDBRANCH   5   8
ENDBRANCH   3   4
ENDBRANCH   2   3
ENDBRANCH   1   2
BRANCH   1  26
ATOM     26  C   UNL     1      -1.512   7.864  -4.112  1.00  0.00     0.002 C 
BRANCH  26  27
ATOM     27  C   UNL     1      -2.437   9.051  -3.830  1.00  0.00     0.021 C 
BRANCH  27  28
ATOM     28  C   UNL     1      -1.719  10.254  -3.214  1.00  0.00     0.116 C 
BRANCH  28  29
ATOM     29  N   UNL     1      -0.686  10.787  -4.069  1.00  0.00    -0.352 N 
ATOM     30  C   UNL     1      -0.705  11.592  -5.165  1.00  0.00     0.251 C 
ATOM     31  H   UNL     1       0.221  10.511  -3.804  1.00  0.00     0.163 HD
ATOM     32  O   UNL     1       0.394  11.877  -5.662  1.00  0.00    -0.269 OA
BRANCH  30  33
ATOM     33  C   UNL     1      -1.941  12.081  -5.830  1.00  0.00     0.039 A 
ATOM     34  C   UNL     1      -3.244  11.906  -5.356  1.00  0.00     0.014 A 
ATOM     35  C   UNL     1      -1.759  12.712  -7.071  1.00  0.00     0.014 A 
ATOM     36  C   UNL     1      -4.334  12.210  -6.155  1.00  0.00     0.010 A 
ATOM     37  C   UNL     1      -2.845  13.066  -7.856  1.00  0.00     0.010 A 
ATOM     38  C   UNL     1      -4.128  12.746  -7.422  1.00  0.00    -0.014 A 
BRANCH  38  39
ATOM     39  C   UNL     1      -5.304  12.955  -8.250  1.00  0.00     0.031 A 
ATOM     40  C   UNL     1      -6.335  13.891  -7.715  1.00  0.00     0.074 A 
ATOM     41  C   UNL     1      -5.425  12.377  -9.459  1.00  0.00     0.049 A 
ATOM     42  N   UNL     1      -7.596  13.675  -7.509  1.00  0.00    -0.248 NA
ATOM     43  C   UNL     1      -5.880  15.223  -7.288  1.00  0.00     0.031 C 
ATOM     44  C   UNL     1      -4.420  11.632 -10.223  1.00  0.00     0.029 A 
ATOM     45  N   UNL     1      -6.484  12.428 -10.307  1.00  0.00    -0.354 N 
ATOM     46  C   UNL     1      -8.128  14.879  -7.046  1.00  0.00     0.074 A 
ATOM     47  C   UNL     1      -7.013  15.769  -6.848  1.00  0.00     0.031 C 
ATOM     48  C   UNL     1      -4.841  11.507 -11.500  1.00  0.00     0.029 A 
ATOM     49  C   UNL     1      -6.190  12.036 -11.600  1.00  0.00     0.049 A 
ATOM     50  H   UNL     1      -7.382  12.718 -10.027  1.00  0.00     0.167 HD
ATOM     51  C   UNL     1      -9.469  15.114  -6.989  1.00  0.00     0.037 A 
ATOM     52  C   UNL     1      -6.976  12.212 -12.687  1.00  0.00     0.037 A 
ATOM     53  C   UNL     1     -10.227  13.896  -6.990  1.00  0.00     0.049 A 
ATOM     54  C   UNL     1      -8.366  12.419 -12.208  1.00  0.00     0.074 A 
ATOM     55  C   UNL     1     -10.338  12.831  -6.117  1.00  0.00     0.029 A 
ATOM     56  N   UNL     1     -10.807  13.472  -8.159  1.00  0.00    -0.354 N 
ATOM     57  N   UNL     1      -9.085  11.488 -11.644  1.00  0.00    -0.248 NA
ATOM     58  C   UNL     1      -8.797  13.785 -11.946  1.00  0.00     0.031 C 
ATOM     59  C   UNL     1     -10.505  11.687  -6.950  1.00  0.00     0.029 A 
ATOM     60  C   UNL     1     -10.520  12.135  -8.271  1.00  0.00     0.049 A 
ATOM     61  H   UNL     1     -11.327  14.018  -8.791  1.00  0.00     0.167 HD
ATOM     62  C   UNL     1      -9.794  12.140 -10.646  1.00  0.00     0.074 A 
ATOM     63  C   UNL     1      -9.644  13.563 -10.936  1.00  0.00     0.031 C 
ATOM     64  C   UNL     1     -10.203  11.485  -9.520  1.00  0.00     0.037 A 
BRANCH  51  65
ATOM     65  C   UNL     1     -10.110  16.464  -7.183  1.00  0.00     0.064 A 
ATOM     66  C   UNL     1     -11.480  16.640  -6.901  1.00  0.00     0.173 A 
ATOM     67  C   UNL     1      -9.496  17.512  -7.901  1.00  0.00     0.173 A 
ATOM     68  F   UNL     1     -12.172  15.696  -6.245  1.00  0.00    -0.203 F 
ATOM     69  C   UNL     1     -12.191  17.753  -7.359  1.00  0.00     0.198 A 
ATOM     70  C   UNL     1     -10.197  18.645  -8.311  1.00  0.00     0.198 A 
ATOM     71  F   UNL     1      -8.229  17.430  -8.323  1.00  0.00    -0.203 F 
ATOM     72  F   UNL     1     -13.516  17.824  -7.165  1.00  0.00    -0.200 F 
ATOM     73  C   UNL     1     -11.550  18.753  -8.067  1.00  0.00     0.200 A 
ATOM     74  F   UNL     1      -9.561  19.595  -9.012  1.00  0.00    -0.200 F 
ATOM     75  F   UNL     1     -12.239  19.792  -8.555  1.00  0.00    -0.200 F 
ENDBRANCH  51  65
BRANCH  52  76
ATOM     76  C   UNL     1      -6.530  12.511 -14.065  1.00  0.00     0.064 A 
ATOM     77  C   UNL     1      -7.370  12.308 -15.167  1.00  0.00     0.173 A 
ATOM     78  C   UNL     1      -5.340  13.229 -14.305  1.00  0.00     0.173 A 
ATOM     79  F   UNL     1      -8.547  11.684 -15.012  1.00  0.00    -0.203 F 
ATOM     80  C   UNL     1      -7.040  12.796 -16.436  1.00  0.00     0.198 A 
ATOM     81  C   UNL     1      -5.006  13.705 -15.571  1.00  0.00     0.198 A 
ATOM     82  F   UNL     1      -4.519  13.559 -13.297  1.00  0.00    -0.203 F 
ATOM     83  F   UNL     1      -7.890  12.627 -17.459  1.00  0.00    -0.200 F 
ATOM     84  C   UNL     1      -5.861  13.497 -16.636  1.00  0.00     0.200 A 
ATOM     85  F   UNL     1      -3.880  14.412 -15.740  1.00  0.00    -0.200 F 
ATOM     86  F   UNL     1      -5.567  14.004 -17.841  1.00  0.00    -0.200 F 
ENDBRANCH  52  76
BRANCH  64  87
ATOM     87  C   UNL     1     -10.034   9.992  -9.473  1.00  0.00     0.064 A 
ATOM     88  C   UNL     1      -8.777   9.362  -9.485  1.00  0.00     0.173 A 
ATOM     89  C   UNL     1     -11.153   9.189  -9.217  1.00  0.00     0.173 A 
ATOM     90  F   UNL     1      -7.652  10.075  -9.607  1.00  0.00    -0.203 F 
ATOM     91  C   UNL     1      -8.651   7.989  -9.291  1.00  0.00     0.198 A 
ATOM     92  C   UNL     1     -11.021   7.821  -8.988  1.00  0.00     0.198 A 
ATOM     93  F   UNL     1     -12.371   9.744  -9.124  1.00  0.00    -0.203 F 
ATOM     94  F   UNL     1      -7.438   7.416  -9.305  1.00  0.00    -0.200 F 
ATOM     95  C   UNL     1      -9.773   7.221  -9.033  1.00  0.00     0.200 A 
ATOM     96  F   UNL     1     -12.101   7.090  -8.680  1.00  0.00    -0.200 F 
ATOM     97  F   UNL     1      -9.647   5.908  -8.790  1.00  0.00    -0.200 F 
ENDBRANCH  64  87
ENDBRANCH  38  39
ENDBRANCH  30  33
ENDBRANCH  28  29
ENDBRANCH  27  28
ENDBRANCH  26  27
ENDBRANCH   1  26
TORSDOF 16
