REMARK SMILES C[C@@H]1CC(C)(C)C[C@@](CC(=O)Nc2cccc(C(F)(F)F)c2)(C(=O)NCCCCCCNC(=O)c2ccc(-c3c4nc(c(-c5c(F)c(F)c(F)c(F)c5F)c5ccc([nH]5)c(-c5c(F)c(F)c(F)c(F)c5F)c5nc(c(-c6c(F)c(F)c(F)c(F)c6F)c6ccc3[nH]6)C=C5)C=C4)cc2)C1
REMARK SMILES IDX 27 1 26 2 25 3 23 4 24 5 8 7 1 8 2 9 3 10 98 11 4 12 5 13
REMARK SMILES IDX 6 14 7 15 9 16 10 17 11 18 12 19 13 21 14 22 22 23 15 24
REMARK SMILES IDX 17 25 16 26 18 27 19 28 20 29 21 30 28 31 29 32 30 33 31 34
REMARK SMILES IDX 32 35 33 36 34 38 35 39 36 40 97 41 37 42 96 43 38 44 39 45
REMARK SMILES IDX 40 46 90 47 41 48 95 49 89 50 91 51 42 52 94 53 88 54 87 55
REMARK SMILES IDX 43 57 75 58 55 59 74 60 56 61 59 62 73 63 92 64 57 65 58 66
REMARK SMILES IDX 72 68 93 69 60 70 44 71 45 72 53 73 46 74 47 75 51 76 54 77
REMARK SMILES IDX 48 78 49 79 52 80 50 81 76 82 77 83 85 84 78 85 79 86 83 87
REMARK SMILES IDX 86 88 80 89 81 90 84 91 82 92 61 93 62 94 70 95 63 96 64 97
REMARK SMILES IDX 68 98 71 99 65 100 66 101 69 102 67 103
REMARK H PARENT 25 6 12 20 32 37 91 56 59 67
REMARK Flexibility Score: inf
ROOT
ATOM      1  C   UNL     1       0.503  -5.110   3.354  1.00  0.00     0.021 C 
ENDROOT
BRANCH   1   2
ATOM      2  C   UNL     1       0.261  -3.746   2.685  1.00  0.00     0.116 C 
BRANCH   2   3
ATOM      3  N   UNL     1       0.696  -3.692   1.286  1.00  0.00    -0.356 N 
ATOM      4  C   UNL     1       0.781  -2.694   0.344  1.00  0.00     0.226 C 
ATOM      5  O   UNL     1       1.208  -3.054  -0.757  1.00  0.00    -0.274 OA
ATOM      6  H   UNL     1       0.994  -4.566   0.945  1.00  0.00     0.163 HD
BRANCH   4   7
ATOM      7  C   UNL     1       0.377  -1.188   0.611  1.00  0.00     0.059 C 
ATOM      8  C   UNL     1       0.606   2.186   0.154  1.00  0.00     0.008 C 
ATOM      9  C   UNL     1       0.163   1.073  -0.786  1.00  0.00    -0.013 C 
ATOM     10  C   UNL     1      -1.343   0.937  -0.856  1.00  0.00     0.009 C 
ATOM     11  C   UNL     1       0.782  -0.315  -0.604  1.00  0.00     0.020 C 
ATOM     12  C   UNL     1      -1.988   0.101   0.269  1.00  0.00    -0.034 C 
ATOM     13  C   UNL     1      -2.216   0.934   1.540  1.00  0.00     0.011 C 
ATOM     14  C   UNL     1      -3.392  -0.274  -0.279  1.00  0.00     0.011 C 
ATOM     15  C   UNL     1      -1.197  -1.200   0.635  1.00  0.00     0.024 C 
BRANCH   7  16
ATOM     16  C   UNL     1       1.134  -0.867   1.924  1.00  0.00     0.117 C 
BRANCH  16  17
ATOM     17  C   UNL     1       1.892   0.376   2.311  1.00  0.00     0.225 C 
ATOM     18  O   UNL     1       1.429   1.059   3.241  1.00  0.00    -0.275 OA
ATOM     19  N   UNL     1       3.088   0.804   1.846  1.00  0.00    -0.326 N 
ATOM     20  H   UNL     1       3.442   1.516   2.426  1.00  0.00     0.169 HD
BRANCH  19  21
ATOM     21  C   UNL     1       3.986   0.549   0.793  1.00  0.00     0.041 A 
ATOM     22  C   UNL     1       4.880   1.605   0.542  1.00  0.00     0.026 A 
ATOM     23  C   UNL     1       3.987  -0.534  -0.084  1.00  0.00     0.039 A 
ATOM     24  C   UNL     1       5.648   1.656  -0.619  1.00  0.00     0.003 A 
ATOM     25  C   UNL     1       4.677  -0.445  -1.319  1.00  0.00     0.058 A 
ATOM     26  C   UNL     1       5.519   0.651  -1.565  1.00  0.00     0.013 A 
BRANCH  25  27
ATOM     27  C   UNL     1       4.462  -1.458  -2.425  1.00  0.00     0.416 C 
ATOM     28  F   UNL     1       4.713  -0.941  -3.665  1.00  0.00    -0.166 F 
ATOM     29  F   UNL     1       5.267  -2.546  -2.308  1.00  0.00    -0.166 F 
ATOM     30  F   UNL     1       3.187  -1.921  -2.486  1.00  0.00    -0.166 F 
ENDBRANCH  25  27
ENDBRANCH  19  21
ENDBRANCH  16  17
ENDBRANCH   7  16
ENDBRANCH   4   7
ENDBRANCH   2   3
ENDBRANCH   1   2
BRANCH   1  31
ATOM     31  C   UNL     1       1.970  -5.483   3.636  1.00  0.00     0.002 C 
BRANCH  31  32
ATOM     32  C   UNL     1       2.749  -4.591   4.612  1.00  0.00     0.002 C 
BRANCH  32  33
ATOM     33  C   UNL     1       2.138  -4.382   6.001  1.00  0.00     0.021 C 
BRANCH  33  34
ATOM     34  C   UNL     1       1.853  -5.640   6.821  1.00  0.00     0.116 C 
BRANCH  34  35
ATOM     35  N   UNL     1       3.051  -6.377   7.200  1.00  0.00    -0.352 N 
ATOM     36  C   UNL     1       3.439  -6.857   8.429  1.00  0.00     0.251 C 
ATOM     37  H   UNL     1       3.679  -6.560   6.464  1.00  0.00     0.163 HD
ATOM     38  O   UNL     1       4.547  -7.378   8.564  1.00  0.00    -0.269 OA
BRANCH  36  39
ATOM     39  C   UNL     1       2.557  -6.719   9.611  1.00  0.00     0.039 A 
ATOM     40  C   UNL     1       3.108  -6.264  10.814  1.00  0.00     0.014 A 
ATOM     41  C   UNL     1       1.196  -7.030   9.546  1.00  0.00     0.014 A 
ATOM     42  C   UNL     1       2.282  -6.026  11.917  1.00  0.00     0.010 A 
ATOM     43  C   UNL     1       0.363  -6.733  10.625  1.00  0.00     0.010 A 
ATOM     44  C   UNL     1       0.893  -6.207  11.814  1.00  0.00    -0.014 A 
BRANCH  44  45
ATOM     45  C   UNL     1      -0.023  -5.796  12.912  1.00  0.00     0.031 A 
ATOM     46  C   UNL     1      -0.864  -6.812  13.633  1.00  0.00     0.074 A 
ATOM     47  C   UNL     1      -0.162  -4.486  13.199  1.00  0.00     0.049 A 
ATOM     48  N   UNL     1      -1.786  -6.627  14.544  1.00  0.00    -0.248 NA
ATOM     49  C   UNL     1      -0.658  -8.221  13.265  1.00  0.00     0.031 C 
ATOM     50  C   UNL     1       0.561  -3.397  12.540  1.00  0.00     0.029 A 
ATOM     51  N   UNL     1      -0.973  -3.844  14.103  1.00  0.00    -0.354 N 
ATOM     52  C   UNL     1      -2.279  -7.889  14.848  1.00  0.00     0.074 A 
ATOM     53  C   UNL     1      -1.584  -8.829  13.994  1.00  0.00     0.031 C 
ATOM     54  C   UNL     1       0.170  -2.226  13.066  1.00  0.00     0.029 A 
ATOM     55  C   UNL     1      -0.863  -2.474  14.067  1.00  0.00     0.049 A 
ATOM     56  H   UNL     1      -1.576  -4.320  14.719  1.00  0.00     0.167 HD
ATOM     57  C   UNL     1      -3.213  -8.232  15.767  1.00  0.00     0.037 A 
ATOM     58  C   UNL     1      -1.533  -1.523  14.745  1.00  0.00     0.037 A 
ATOM     59  C   UNL     1      -3.886  -7.296  16.631  1.00  0.00     0.049 A 
ATOM     60  C   UNL     1      -2.583  -1.931  15.742  1.00  0.00     0.074 A 
ATOM     61  C   UNL     1      -4.784  -7.557  17.651  1.00  0.00     0.029 A 
ATOM     62  N   UNL     1      -3.744  -5.917  16.568  1.00  0.00    -0.354 N 
ATOM     63  N   UNL     1      -2.978  -3.134  16.081  1.00  0.00    -0.248 NA
ATOM     64  C   UNL     1      -3.283  -0.849  16.450  1.00  0.00     0.031 C 
ATOM     65  C   UNL     1      -5.231  -6.335  18.165  1.00  0.00     0.029 A 
ATOM     66  C   UNL     1      -4.570  -5.314  17.503  1.00  0.00     0.049 A 
ATOM     67  H   UNL     1      -3.145  -5.439  15.950  1.00  0.00     0.167 HD
ATOM     68  C   UNL     1      -3.956  -2.956  17.050  1.00  0.00     0.074 A 
ATOM     69  C   UNL     1      -4.080  -1.529  17.262  1.00  0.00     0.031 C 
ATOM     70  C   UNL     1      -4.689  -3.891  17.701  1.00  0.00     0.037 A 
BRANCH  57  71
ATOM     71  C   UNL     1      -3.572  -9.685  15.892  1.00  0.00     0.064 A 
ATOM     72  C   UNL     1      -2.680 -10.621  16.436  1.00  0.00     0.173 A 
ATOM     73  C   UNL     1      -4.847 -10.136  15.517  1.00  0.00     0.173 A 
ATOM     74  F   UNL     1      -1.446 -10.243  16.804  1.00  0.00    -0.203 F 
ATOM     75  C   UNL     1      -3.041 -11.959  16.575  1.00  0.00     0.198 A 
ATOM     76  C   UNL     1      -5.216 -11.468  15.686  1.00  0.00     0.198 A 
ATOM     77  F   UNL     1      -5.743  -9.281  15.001  1.00  0.00    -0.203 F 
ATOM     78  F   UNL     1      -2.157 -12.843  17.057  1.00  0.00    -0.200 F 
ATOM     79  C   UNL     1      -4.311 -12.379  16.208  1.00  0.00     0.200 A 
ATOM     80  F   UNL     1      -6.448 -11.869  15.345  1.00  0.00    -0.200 F 
ATOM     81  F   UNL     1      -4.661 -13.665  16.354  1.00  0.00    -0.200 F 
ENDBRANCH  57  71
BRANCH  58  82
ATOM     82  C   UNL     1      -1.235  -0.086  14.500  1.00  0.00     0.064 A 
ATOM     83  C   UNL     1      -0.621   0.702  15.483  1.00  0.00     0.173 A 
ATOM     84  C   UNL     1      -1.563   0.529  13.283  1.00  0.00     0.173 A 
ATOM     85  F   UNL     1      -0.309   0.165  16.672  1.00  0.00    -0.203 F 
ATOM     86  C   UNL     1      -0.366   2.055  15.267  1.00  0.00     0.198 A 
ATOM     87  C   UNL     1      -1.280   1.874  13.056  1.00  0.00     0.198 A 
ATOM     88  F   UNL     1      -2.150  -0.180  12.307  1.00  0.00    -0.203 F 
ATOM     89  F   UNL     1       0.176   2.796  16.242  1.00  0.00    -0.200 F 
ATOM     90  C   UNL     1      -0.690   2.638  14.051  1.00  0.00     0.200 A 
ATOM     91  F   UNL     1      -1.581   2.430  11.874  1.00  0.00    -0.200 F 
ATOM     92  F   UNL     1      -0.440   3.938  13.842  1.00  0.00    -0.200 F 
ENDBRANCH  58  82
BRANCH  70  93
ATOM     93  C   UNL     1      -5.686  -3.406  18.714  1.00  0.00     0.064 A 
ATOM     94  C   UNL     1      -6.871  -2.765  18.325  1.00  0.00     0.173 A 
ATOM     95  C   UNL     1      -5.478  -3.629  20.084  1.00  0.00     0.173 A 
ATOM     96  F   UNL     1      -7.108  -2.513  17.029  1.00  0.00    -0.203 F 
ATOM     97  C   UNL     1      -7.803  -2.348  19.272  1.00  0.00     0.198 A 
ATOM     98  C   UNL     1      -6.426  -3.239  21.025  1.00  0.00     0.198 A 
ATOM     99  F   UNL     1      -4.363  -4.242  20.508  1.00  0.00    -0.203 F 
ATOM    100  F   UNL     1      -8.909  -1.700  18.881  1.00  0.00    -0.200 F 
ATOM    101  C   UNL     1      -7.585  -2.594  20.619  1.00  0.00     0.200 A 
ATOM    102  F   UNL     1      -6.220  -3.490  22.326  1.00  0.00    -0.200 F 
ATOM    103  F   UNL     1      -8.489  -2.204  21.528  1.00  0.00    -0.200 F 
ENDBRANCH  70  93
ENDBRANCH  44  45
ENDBRANCH  36  39
ENDBRANCH  34  35
ENDBRANCH  33  34
ENDBRANCH  32  33
ENDBRANCH  31  32
ENDBRANCH   1  31
TORSDOF 17
