REMARK SMILES COc1ccc2[nH]cc([C@H](C(=O)NCCCCCCNC(=O)c3ccc(-c4c5nc(c(-c6c(F)c(F)c(F)c(F)c6F)c6ccc([nH]6)c(-c6c(F)c(F)c(F)c(F)c6F)c6nc(c(-c7c(F)c(F)c(F)c(F)c7F)c7ccc4[nH]7)C=C6)C=C5)cc3)[NH+]3CC[NH+](Cc4cccc5ccccc45)CC3)c2c1
REMARK SMILES IDX 16 1 15 2 14 3 13 4 11 5 12 6 10 8 9 9 3 10 4 11 104 12 5 13
REMARK SMILES IDX 103 14 6 15 7 16 8 17 2 19 1 20 86 21 87 22 102 23 88 25
REMARK SMILES IDX 101 26 89 27 90 29 91 30 92 31 100 32 93 33 95 34 99 35
REMARK SMILES IDX 94 36 96 37 98 38 97 39 17 40 18 41 19 42 20 43 21 44 22 46
REMARK SMILES IDX 23 47 24 48 85 49 25 50 84 51 26 52 27 53 28 54 78 55 29 56
REMARK SMILES IDX 83 57 77 58 79 59 30 60 82 61 76 62 75 63 31 65 63 66 43 67
REMARK SMILES IDX 62 68 44 69 47 70 61 71 80 72 45 73 46 74 60 76 81 77 48 78
REMARK SMILES IDX 32 79 33 80 41 81 34 82 35 83 39 84 42 85 36 86 37 87 40 88
REMARK SMILES IDX 38 89 64 90 65 91 73 92 66 93 67 94 71 95 74 96 68 97 69 98
REMARK SMILES IDX 72 99 70 100 49 101 50 102 58 103 51 104 52 105 56 106
REMARK SMILES IDX 59 107 53 108 54 109 57 110 55 111
REMARK H PARENT 13 7 7 18 86 24 89 28 20 45 79 64 47 75
REMARK Flexibility Score: inf
ROOT
ATOM      1  C   UNL     1       0.580   3.064   0.777  1.00  0.00     0.002 C 
ENDROOT
BRANCH   1   2
ATOM      2  C   UNL     1      -0.837   2.823   0.228  1.00  0.00     0.021 C 
BRANCH   2   3
ATOM      3  C   UNL     1      -1.377   3.987  -0.593  1.00  0.00     0.116 C 
BRANCH   3   4
ATOM      4  N   UNL     1      -0.394   4.325  -1.590  1.00  0.00    -0.351 N 
ATOM      5  C   UNL     1      -0.534   4.497  -2.924  1.00  0.00     0.283 C 
ATOM      6  O   UNL     1       0.526   4.497  -3.551  1.00  0.00    -0.268 OA
ATOM      7  H   UNL     1       0.520   4.450  -1.248  1.00  0.00     0.163 HD
BRANCH   5   8
ATOM      8  C   UNL     1      -1.940   4.680  -3.527  1.00  0.00     0.308 C 
BRANCH   8   9
ATOM      9  C   UNL     1      -2.709   5.835  -2.878  1.00  0.00     0.045 A 
ATOM     10  C   UNL     1      -0.654   8.677  -1.312  1.00  0.00     0.119 A 
ATOM     11  C   UNL     1      -1.734   9.424  -0.860  1.00  0.00     0.048 A 
ATOM     12  C   UNL     1      -0.854   7.498  -2.026  1.00  0.00     0.057 A 
ATOM     13  C   UNL     1      -3.046   8.998  -1.103  1.00  0.00     0.030 A 
ATOM     14  C   UNL     1      -2.163   7.011  -2.239  1.00  0.00     0.013 A 
ATOM     15  C   UNL     1      -3.229   7.790  -1.793  1.00  0.00     0.046 A 
ATOM     16  N   UNL     1      -4.383   7.161  -2.199  1.00  0.00    -0.361 N 
ATOM     17  C   UNL     1      -4.087   5.983  -2.833  1.00  0.00     0.094 A 
ATOM     18  H   UNL     1      -5.293   7.508  -2.054  1.00  0.00     0.166 HD
BRANCH  10  19
ATOM     19  O   UNL     1       0.643   9.088  -1.164  1.00  0.00    -0.497 OA
ATOM     20  C   UNL     1       1.020   9.171   0.208  1.00  0.00     0.278 C 
ENDBRANCH  10  19
ENDBRANCH   8   9
BRANCH   8  21
ATOM     21  N   UNL     1      -1.918   4.868  -4.986  1.00  0.00    -0.312 N 
ATOM     22  C   UNL     1      -1.421   6.160  -5.453  1.00  0.00     0.325 C 
ATOM     23  C   UNL     1      -1.401   3.734  -5.768  1.00  0.00     0.325 C 
ATOM     24  H   UNL     1      -2.916   4.888  -5.193  1.00  0.00     0.349 HD
ATOM     25  C   UNL     1       0.003   6.238  -6.022  1.00  0.00     0.324 C 
ATOM     26  C   UNL     1      -0.010   3.874  -6.462  1.00  0.00     0.324 C 
ATOM     27  N   UNL     1       0.359   5.198  -6.985  1.00  0.00    -0.322 N 
ATOM     28  H   UNL     1       1.375   5.175  -7.073  1.00  0.00     0.348 HD
BRANCH  27  29
ATOM     29  C   UNL     1       0.022   5.499  -8.386  1.00  0.00     0.300 C 
BRANCH  29  30
ATOM     30  C   UNL     1      -1.379   5.142  -8.852  1.00  0.00     0.014 A 
ATOM     31  C   UNL     1      -1.572   3.835  -9.340  1.00  0.00     0.010 A 
ATOM     32  C   UNL     1      -2.502   5.994  -8.663  1.00  0.00    -0.010 A 
ATOM     33  C   UNL     1      -2.848   3.310  -9.478  1.00  0.00     0.001 A 
ATOM     34  C   UNL     1      -3.789   5.404  -8.679  1.00  0.00    -0.018 A 
ATOM     35  C   UNL     1      -2.424   7.385  -8.394  1.00  0.00     0.009 A 
ATOM     36  C   UNL     1      -3.945   4.071  -9.088  1.00  0.00     0.009 A 
ATOM     37  C   UNL     1      -4.902   6.147  -8.252  1.00  0.00     0.009 A 
ATOM     38  C   UNL     1      -3.550   8.122  -8.014  1.00  0.00     0.001 A 
ATOM     39  C   UNL     1      -4.781   7.490  -7.901  1.00  0.00     0.001 A 
ENDBRANCH  29  30
ENDBRANCH  27  29
ENDBRANCH   8  21
ENDBRANCH   5   8
ENDBRANCH   3   4
ENDBRANCH   2   3
ENDBRANCH   1   2
BRANCH   1  40
ATOM     40  C   UNL     1       0.762   4.397   1.516  1.00  0.00     0.002 C 
BRANCH  40  41
ATOM     41  C   UNL     1      -0.210   4.602   2.676  1.00  0.00     0.021 C 
BRANCH  41  42
ATOM     42  C   UNL     1      -0.261   3.429   3.640  1.00  0.00     0.116 C 
BRANCH  42  43
ATOM     43  N   UNL     1       1.040   3.143   4.217  1.00  0.00    -0.352 N 
ATOM     44  C   UNL     1       1.350   2.855   5.520  1.00  0.00     0.251 C 
ATOM     45  H   UNL     1       1.799   3.159   3.590  1.00  0.00     0.163 HD
ATOM     46  O   UNL     1       2.513   2.821   5.895  1.00  0.00    -0.269 OA
BRANCH  44  47
ATOM     47  C   UNL     1       0.249   2.619   6.473  1.00  0.00     0.039 A 
ATOM     48  C   UNL     1       0.290   3.265   7.707  1.00  0.00     0.014 A 
ATOM     49  C   UNL     1      -0.830   1.795   6.133  1.00  0.00     0.014 A 
ATOM     50  C   UNL     1      -0.778   3.120   8.587  1.00  0.00     0.010 A 
ATOM     51  C   UNL     1      -1.933   1.722   6.975  1.00  0.00     0.010 A 
ATOM     52  C   UNL     1      -1.913   2.376   8.215  1.00  0.00    -0.014 A 
BRANCH  52  53
ATOM     53  C   UNL     1      -3.081   2.297   9.123  1.00  0.00     0.031 A 
ATOM     54  C   UNL     1      -3.498   0.985   9.721  1.00  0.00     0.074 A 
ATOM     55  C   UNL     1      -3.774   3.420   9.394  1.00  0.00     0.049 A 
ATOM     56  N   UNL     1      -4.458   0.735  10.575  1.00  0.00    -0.248 NA
ATOM     57  C   UNL     1      -2.757  -0.210   9.287  1.00  0.00     0.031 C 
ATOM     58  C   UNL     1      -3.501   4.739   8.818  1.00  0.00     0.029 A 
ATOM     59  N   UNL     1      -4.839   3.636  10.229  1.00  0.00    -0.354 N 
ATOM     60  C   UNL     1      -4.434  -0.637  10.781  1.00  0.00     0.074 A 
ATOM     61  C   UNL     1      -3.411  -1.177   9.913  1.00  0.00     0.031 C 
ATOM     62  C   UNL     1      -4.345   5.635   9.353  1.00  0.00     0.029 A 
ATOM     63  C   UNL     1      -5.240   4.949  10.278  1.00  0.00     0.049 A 
ATOM     64  H   UNL     1      -5.275   2.919  10.744  1.00  0.00     0.167 HD
ATOM     65  C   UNL     1      -5.178  -1.375  11.639  1.00  0.00     0.037 A 
ATOM     66  C   UNL     1      -6.217   5.532  10.996  1.00  0.00     0.037 A 
ATOM     67  C   UNL     1      -6.190  -0.827  12.506  1.00  0.00     0.049 A 
ATOM     68  C   UNL     1      -7.030   4.688  11.939  1.00  0.00     0.074 A 
ATOM     69  C   UNL     1      -6.964  -1.479  13.450  1.00  0.00     0.029 A 
ATOM     70  N   UNL     1      -6.575   0.506  12.526  1.00  0.00    -0.354 N 
ATOM     71  N   UNL     1      -6.941   3.404  12.190  1.00  0.00    -0.248 NA
ATOM     72  C   UNL     1      -8.072   5.380  12.708  1.00  0.00     0.031 C 
ATOM     73  C   UNL     1      -7.858  -0.553  13.997  1.00  0.00     0.029 A 
ATOM     74  C   UNL     1      -7.598   0.691  13.444  1.00  0.00     0.049 A 
ATOM     75  H   UNL     1      -6.181   1.216  11.970  1.00  0.00     0.167 HD
ATOM     76  C   UNL     1      -7.898   3.138  13.160  1.00  0.00     0.074 A 
ATOM     77  C   UNL     1      -8.531   4.402  13.474  1.00  0.00     0.031 C 
ATOM     78  C   UNL     1      -8.228   1.954  13.736  1.00  0.00     0.037 A 
BRANCH  65  79
ATOM     79  C   UNL     1      -4.926  -2.856  11.682  1.00  0.00     0.064 A 
ATOM     80  C   UNL     1      -3.727  -3.387  12.184  1.00  0.00     0.173 A 
ATOM     81  C   UNL     1      -5.908  -3.759  11.248  1.00  0.00     0.173 A 
ATOM     82  F   UNL     1      -2.748  -2.570  12.600  1.00  0.00    -0.203 F 
ATOM     83  C   UNL     1      -3.510  -4.763  12.222  1.00  0.00     0.198 A 
ATOM     84  C   UNL     1      -5.702  -5.134  11.320  1.00  0.00     0.198 A 
ATOM     85  F   UNL     1      -7.074  -3.308  10.762  1.00  0.00    -0.203 F 
ATOM     86  F   UNL     1      -2.337  -5.243  12.656  1.00  0.00    -0.200 F 
ATOM     87  C   UNL     1      -4.501  -5.635  11.799  1.00  0.00     0.200 A 
ATOM     88  F   UNL     1      -6.667  -5.976  10.924  1.00  0.00    -0.200 F 
ATOM     89  F   UNL     1      -4.296  -6.958  11.846  1.00  0.00    -0.200 F 
ENDBRANCH  65  79
BRANCH  66  90
ATOM     90  C   UNL     1      -6.460   6.994  10.873  1.00  0.00     0.064 A 
ATOM     91  C   UNL     1      -6.204   7.863  11.942  1.00  0.00     0.173 A 
ATOM     92  C   UNL     1      -6.962   7.551   9.687  1.00  0.00     0.173 A 
ATOM     93  F   UNL     1      -5.740   7.378  13.103  1.00  0.00    -0.203 F 
ATOM     94  C   UNL     1      -6.467   9.228  11.841  1.00  0.00     0.198 A 
ATOM     95  C   UNL     1      -7.191   8.920   9.575  1.00  0.00     0.198 A 
ATOM     96  F   UNL     1      -7.216   6.765   8.630  1.00  0.00    -0.203 F 
ATOM     97  F   UNL     1      -6.266  10.027  12.897  1.00  0.00    -0.200 F 
ATOM     98  C   UNL     1      -6.955   9.756  10.655  1.00  0.00     0.200 A 
ATOM     99  F   UNL     1      -7.645   9.428   8.421  1.00  0.00    -0.200 F 
ATOM    100  F   UNL     1      -7.205  11.068  10.556  1.00  0.00    -0.200 F 
ENDBRANCH  66  90
BRANCH  78 101
ATOM    101  C   UNL     1      -9.311   1.986  14.778  1.00  0.00     0.064 A 
ATOM    102  C   UNL     1     -10.644   2.275  14.449  1.00  0.00     0.173 A 
ATOM    103  C   UNL     1      -9.010   1.731  16.125  1.00  0.00     0.173 A 
ATOM    104  F   UNL     1     -10.984   2.539  13.178  1.00  0.00    -0.203 F 
ATOM    105  C   UNL     1     -11.624   2.359  15.434  1.00  0.00     0.198 A 
ATOM    106  C   UNL     1     -10.000   1.776  17.102  1.00  0.00     0.198 A 
ATOM    107  F   UNL     1      -7.754   1.438  16.495  1.00  0.00    -0.203 F 
ATOM    108  F   UNL     1     -12.873   2.715  15.105  1.00  0.00    -0.200 F 
ATOM    109  C   UNL     1     -11.302   2.106  16.759  1.00  0.00     0.200 A 
ATOM    110  F   UNL     1      -9.691   1.513  18.380  1.00  0.00    -0.200 F 
ATOM    111  F   UNL     1     -12.245   2.192  17.707  1.00  0.00    -0.200 F 
ENDBRANCH  78 101
ENDBRANCH  52  53
ENDBRANCH  44  47
ENDBRANCH  42  43
ENDBRANCH  41  42
ENDBRANCH  40  41
ENDBRANCH   1  40
TORSDOF 18
