REMARK SMILES C[C@H]([NH2+]C[C@]1(C)CCCO1)[C@H](C)C(=O)NCCCCCCNC(=O)c1ccc(-c2c3nc(c(-c4c(F)c(F)c(F)c(F)c4F)c4ccc([nH]4)c(-c4c(F)c(F)c(F)c(F)c4F)c4nc(c(-c5c(F)c(F)c(F)c(F)c5F)c5ccc2[nH]5)C=C4)C=C3)cc1
REMARK SMILES IDX 17 1 16 2 15 3 13 4 14 5 11 7 12 8 2 9 1 10 3 11 4 14 5 15
REMARK SMILES IDX 7 16 10 17 6 18 8 19 9 20 18 21 19 22 20 23 21 24 22 25
REMARK SMILES IDX 23 26 24 28 25 29 26 30 87 31 27 32 86 33 28 34 29 35 30 36
REMARK SMILES IDX 80 37 31 38 85 39 79 40 81 41 32 42 84 43 78 44 77 45 33 47
REMARK SMILES IDX 65 48 45 49 64 50 46 51 49 52 63 53 82 54 47 55 48 56 62 58
REMARK SMILES IDX 83 59 50 60 34 61 35 62 43 63 36 64 37 65 41 66 44 67 38 68
REMARK SMILES IDX 39 69 42 70 40 71 66 72 67 73 75 74 68 75 69 76 73 77 76 78
REMARK SMILES IDX 70 79 71 80 74 81 72 82 51 83 52 84 60 85 53 86 54 87 58 88
REMARK SMILES IDX 61 89 55 90 56 91 59 92 57 93
REMARK H PARENT 15 6 3 12 3 13 22 27 81 46 49 57
REMARK Flexibility Score: inf
ROOT
ATOM      1  C   UNL     1       1.357  -3.109   4.156  1.00  0.00     0.021 C 
ENDROOT
BRANCH   1   2
ATOM      2  C   UNL     1       1.940  -1.849   3.526  1.00  0.00     0.116 C 
BRANCH   2   3
ATOM      3  N   UNL     1       2.693  -2.176   2.335  1.00  0.00    -0.356 N 
ATOM      4  C   UNL     1       2.572  -1.734   1.060  1.00  0.00     0.228 C 
ATOM      5  O   UNL     1       3.267  -2.284   0.200  1.00  0.00    -0.275 OA
ATOM      6  H   UNL     1       3.415  -2.831   2.475  1.00  0.00     0.163 HD
BRANCH   4   7
ATOM      7  C   UNL     1       1.624  -0.607   0.678  1.00  0.00     0.133 C 
ATOM      8  C   UNL     1       0.169  -1.092   0.703  1.00  0.00     0.024 C 
BRANCH   7   9
ATOM      9  C   UNL     1       1.829   0.721   1.453  1.00  0.00     0.191 C 
ATOM     10  C   UNL     1       1.285   1.912   0.646  1.00  0.00     0.076 C 
BRANCH   9  11
ATOM     11  N   UNL     1       3.181   1.018   1.942  1.00  0.00    -0.341 N 
ATOM     12  H   UNL     1       3.458   0.259   2.564  1.00  0.00     0.346 HD
ATOM     13  H   UNL     1       3.108   1.932   2.389  1.00  0.00     0.346 HD
BRANCH  11  14
ATOM     14  C   UNL     1       4.233   1.169   0.929  1.00  0.00     0.296 C 
BRANCH  14  15
ATOM     15  C   UNL     1       5.537   1.768   1.545  1.00  0.00     0.114 C 
ATOM     16  C   UNL     1       6.555   2.092   0.444  1.00  0.00     0.043 C 
ATOM     17  O   UNL     1       6.166   0.754   2.371  1.00  0.00    -0.369 OA
ATOM     18  C   UNL     1       5.234   2.992   2.421  1.00  0.00     0.048 C 
ATOM     19  C   UNL     1       7.329   0.804   0.310  1.00  0.00     0.032 C 
ATOM     20  C   UNL     1       7.382   0.326   1.742  1.00  0.00     0.161 C 
ENDBRANCH  14  15
ENDBRANCH  11  14
ENDBRANCH   9  11
ENDBRANCH   7   9
ENDBRANCH   4   7
ENDBRANCH   2   3
ENDBRANCH   1   2
BRANCH   1  21
ATOM     21  C   UNL     1       2.414  -4.065   4.719  1.00  0.00     0.002 C 
BRANCH  21  22
ATOM     22  C   UNL     1       3.344  -3.448   5.769  1.00  0.00     0.002 C 
BRANCH  22  23
ATOM     23  C   UNL     1       2.630  -2.788   6.950  1.00  0.00     0.021 C 
BRANCH  23  24
ATOM     24  C   UNL     1       1.663  -3.703   7.692  1.00  0.00     0.116 C 
BRANCH  24  25
ATOM     25  N   UNL     1       2.336  -4.852   8.275  1.00  0.00    -0.352 N 
ATOM     26  C   UNL     1       2.286  -5.319   9.562  1.00  0.00     0.251 C 
ATOM     27  H   UNL     1       2.906  -5.367   7.659  1.00  0.00     0.163 HD
ATOM     28  O   UNL     1       3.066  -6.192   9.939  1.00  0.00    -0.269 OA
BRANCH  26  29
ATOM     29  C   UNL     1       1.302  -4.753  10.505  1.00  0.00     0.039 A 
ATOM     30  C   UNL     1       1.721  -4.404  11.790  1.00  0.00     0.014 A 
ATOM     31  C   UNL     1      -0.028  -4.564  10.119  1.00  0.00     0.014 A 
ATOM     32  C   UNL     1       0.817  -3.812  12.673  1.00  0.00     0.010 A 
ATOM     33  C   UNL     1      -0.907  -3.905  10.972  1.00  0.00     0.010 A 
ATOM     34  C   UNL     1      -0.495  -3.528  12.259  1.00  0.00    -0.014 A 
BRANCH  34  35
ATOM     35  C   UNL     1      -1.452  -2.839  13.160  1.00  0.00     0.031 A 
ATOM     36  C   UNL     1      -2.697  -3.546  13.619  1.00  0.00     0.074 A 
ATOM     37  C   UNL     1      -1.231  -1.559  13.513  1.00  0.00     0.049 A 
ATOM     38  N   UNL     1      -3.684  -3.093  14.351  1.00  0.00    -0.248 NA
ATOM     39  C   UNL     1      -2.868  -4.938  13.175  1.00  0.00     0.031 C 
ATOM     40  C   UNL     1      -0.082  -0.754  13.095  1.00  0.00     0.029 A 
ATOM     41  N   UNL     1      -1.967  -0.705  14.296  1.00  0.00    -0.354 N 
ATOM     42  C   UNL     1      -4.595  -4.138  14.443  1.00  0.00     0.074 A 
ATOM     43  C   UNL     1      -4.072  -5.226  13.646  1.00  0.00     0.031 C 
ATOM     44  C   UNL     1      -0.178   0.467  13.643  1.00  0.00     0.029 A 
ATOM     45  C   UNL     1      -1.414   0.546  14.416  1.00  0.00     0.049 A 
ATOM     46  H   UNL     1      -2.812  -0.965  14.729  1.00  0.00     0.167 HD
ATOM     47  C   UNL     1      -5.749  -4.192  15.149  1.00  0.00     0.037 A 
ATOM     48  C   UNL     1      -1.859   1.636  15.070  1.00  0.00     0.037 A 
ATOM     49  C   UNL     1      -6.254  -3.111  15.955  1.00  0.00     0.049 A 
ATOM     50  C   UNL     1      -3.155   1.556  15.830  1.00  0.00     0.074 A 
ATOM     51  C   UNL     1      -7.385  -3.085  16.752  1.00  0.00     0.029 A 
ATOM     52  N   UNL     1      -5.661  -1.861  16.060  1.00  0.00    -0.354 N 
ATOM     53  N   UNL     1      -3.974   0.541  15.968  1.00  0.00    -0.248 NA
ATOM     54  C   UNL     1      -3.587   2.773  16.532  1.00  0.00     0.031 C 
ATOM     55  C   UNL     1      -7.506  -1.802  17.297  1.00  0.00     0.029 A 
ATOM     56  C   UNL     1      -6.418  -1.047  16.889  1.00  0.00     0.049 A 
ATOM     57  H   UNL     1      -4.827  -1.592  15.613  1.00  0.00     0.167 HD
ATOM     58  C   UNL     1      -4.997   0.985  16.794  1.00  0.00     0.074 A 
ATOM     59  C   UNL     1      -4.689   2.357  17.138  1.00  0.00     0.031 C 
ATOM     60  C   UNL     1      -6.094   0.315  17.228  1.00  0.00     0.037 A 
BRANCH  47  61
ATOM     61  C   UNL     1      -6.547  -5.463  15.079  1.00  0.00     0.064 A 
ATOM     62  C   UNL     1      -6.086  -6.656  15.656  1.00  0.00     0.173 A 
ATOM     63  C   UNL     1      -7.803  -5.482  14.454  1.00  0.00     0.173 A 
ATOM     64  F   UNL     1      -4.886  -6.696  16.257  1.00  0.00    -0.203 F 
ATOM     65  C   UNL     1      -6.836  -7.827  15.581  1.00  0.00     0.198 A 
ATOM     66  C   UNL     1      -8.566  -6.646  14.410  1.00  0.00     0.198 A 
ATOM     67  F   UNL     1      -8.296  -4.369  13.890  1.00  0.00    -0.203 F 
ATOM     68  F   UNL     1      -6.348  -8.966  16.092  1.00  0.00    -0.200 F 
ATOM     69  C   UNL     1      -8.078  -7.820  14.965  1.00  0.00     0.200 A 
ATOM     70  F   UNL     1      -9.773  -6.634  13.828  1.00  0.00    -0.200 F 
ATOM     71  F   UNL     1      -8.802  -8.946  14.900  1.00  0.00    -0.200 F 
ENDBRANCH  47  61
BRANCH  48  72
ATOM     72  C   UNL     1      -1.061   2.890  15.051  1.00  0.00     0.064 A 
ATOM     73  C   UNL     1      -0.434   3.361  16.214  1.00  0.00     0.173 A 
ATOM     74  C   UNL     1      -0.911   3.645  13.879  1.00  0.00     0.173 A 
ATOM     75  F   UNL     1      -0.565   2.686  17.365  1.00  0.00    -0.203 F 
ATOM     76  C   UNL     1       0.292   4.550  16.209  1.00  0.00     0.198 A 
ATOM     77  C   UNL     1      -0.159   4.817  13.868  1.00  0.00     0.198 A 
ATOM     78  F   UNL     1      -1.486   3.235  12.738  1.00  0.00    -0.203 F 
ATOM     79  F   UNL     1       0.840   5.003  17.345  1.00  0.00    -0.200 F 
ATOM     80  C   UNL     1       0.435   5.274  15.034  1.00  0.00     0.200 A 
ATOM     81  F   UNL     1      -0.011   5.505  12.727  1.00  0.00    -0.200 F 
ATOM     82  F   UNL     1       1.137   6.415  15.029  1.00  0.00    -0.200 F 
ENDBRANCH  48  72
BRANCH  60  83
ATOM     83  C   UNL     1      -7.023   1.044  18.157  1.00  0.00     0.064 A 
ATOM     84  C   UNL     1      -7.838   2.095  17.712  1.00  0.00     0.173 A 
ATOM     85  C   UNL     1      -7.129   0.654  19.501  1.00  0.00     0.173 A 
ATOM     86  F   UNL     1      -7.764   2.515  16.440  1.00  0.00    -0.203 F 
ATOM     87  C   UNL     1      -8.705   2.747  18.586  1.00  0.00     0.198 A 
ATOM     88  C   UNL     1      -8.021   1.286  20.363  1.00  0.00     0.198 A 
ATOM     89  F   UNL     1      -6.377  -0.350  19.976  1.00  0.00    -0.203 F 
ATOM     90  F   UNL     1      -9.437   3.781  18.151  1.00  0.00    -0.200 F 
ATOM     91  C   UNL     1      -8.802   2.336  19.907  1.00  0.00     0.200 A 
ATOM     92  F   UNL     1      -8.124   0.877  21.635  1.00  0.00    -0.200 F 
ATOM     93  F   UNL     1      -9.644   2.959  20.743  1.00  0.00    -0.200 F 
ENDBRANCH  60  83
ENDBRANCH  34  35
ENDBRANCH  26  29
ENDBRANCH  24  25
ENDBRANCH  23  24
ENDBRANCH  22  23
ENDBRANCH  21  22
ENDBRANCH   1  21
TORSDOF 17
