REMARK SMILES COc1cccc([C@@]([NH3+])(C(=O)NCCCCCCNC(=O)c2ccc(-c3c4nc(c(-c5c(F)c(F)c(F)c(F)c5F)c5ccc([nH]5)c(-c5c(F)c(F)c(F)c(F)c5F)c5nc(c(-c6c(F)c(F)c(F)c(F)c6F)c6ccc3[nH]6)C=C5)C=C4)cc2)C(F)(F)F)c1
REMARK SMILES IDX 15 1 14 2 13 3 12 4 10 5 11 6 8 8 7 9 3 10 4 11 89 12 5 13
REMARK SMILES IDX 6 14 2 15 1 16 9 17 85 21 86 22 87 23 88 24 16 25 17 26
REMARK SMILES IDX 18 27 19 28 20 29 21 31 22 32 23 33 84 34 24 35 83 36 25 37
REMARK SMILES IDX 26 38 27 39 77 40 28 41 82 42 76 43 78 44 29 45 81 46 75 47
REMARK SMILES IDX 74 48 30 50 62 51 42 52 61 53 43 54 46 55 60 56 79 57 44 58
REMARK SMILES IDX 45 59 59 61 80 62 47 63 31 64 32 65 40 66 33 67 34 68 38 69
REMARK SMILES IDX 41 70 35 71 36 72 39 73 37 74 63 75 64 76 72 77 65 78 66 79
REMARK SMILES IDX 70 80 73 81 67 82 68 83 71 84 69 85 48 86 49 87 57 88 50 89
REMARK SMILES IDX 51 90 55 91 58 92 52 93 53 94 56 95 54 96
REMARK H PARENT 12 7 9 18 9 19 9 20 19 30 78 49 46 60
REMARK Flexibility Score: inf
ROOT
ATOM      1  C   UNL     1       1.591  -8.511  -0.237  1.00  0.00     0.002 C 
ENDROOT
BRANCH   1   2
ATOM      2  C   UNL     1       1.737  -7.312   0.706  1.00  0.00     0.021 C 
BRANCH   2   3
ATOM      3  C   UNL     1       3.186  -7.022   1.102  1.00  0.00     0.116 C 
BRANCH   3   4
ATOM      4  N   UNL     1       3.837  -6.229   0.077  1.00  0.00    -0.350 N 
ATOM      5  C   UNL     1       4.097  -4.891  -0.019  1.00  0.00     0.296 C 
ATOM      6  O   UNL     1       4.458  -4.525  -1.144  1.00  0.00    -0.267 OA
ATOM      7  H   UNL     1       4.150  -6.754  -0.694  1.00  0.00     0.163 HD
BRANCH   5   8
ATOM      8  C   UNL     1       3.958  -3.884   1.168  1.00  0.00     0.295 C 
BRANCH   8   9
ATOM      9  C   UNL     1       2.497  -3.393   1.346  1.00  0.00     0.035 A 
ATOM     10  C   UNL     1       0.709  -1.742   0.995  1.00  0.00     0.119 A 
ATOM     11  C   UNL     1      -0.178  -2.533   1.721  1.00  0.00     0.046 A 
ATOM     12  C   UNL     1       2.025  -2.183   0.791  1.00  0.00     0.057 A 
ATOM     13  C   UNL     1       0.248  -3.733   2.271  1.00  0.00     0.004 A 
ATOM     14  C   UNL     1       1.573  -4.139   2.104  1.00  0.00     0.011 A 
BRANCH  10  15
ATOM     15  O   UNL     1       0.174  -0.562   0.558  1.00  0.00    -0.497 OA
ATOM     16  C   UNL     1       1.002   0.282  -0.231  1.00  0.00     0.278 C 
ENDBRANCH  10  15
ENDBRANCH   8   9
BRANCH   8  17
ATOM     17  N   UNL     1       4.430  -4.540   2.459  1.00  0.00    -0.333 N 
ATOM     18  H   UNL     1       3.787  -5.289   2.715  1.00  0.00     0.345 HD
ATOM     19  H   UNL     1       4.456  -3.844   3.205  1.00  0.00     0.345 HD
ATOM     20  H   UNL     1       5.364  -4.926   2.322  1.00  0.00     0.345 HD
ENDBRANCH   8  17
BRANCH   8  21
ATOM     21  C   UNL     1       4.969  -2.734   0.799  1.00  0.00     0.458 C 
ATOM     22  F   UNL     1       4.723  -2.082  -0.354  1.00  0.00    -0.164 F 
ATOM     23  F   UNL     1       4.978  -1.793   1.786  1.00  0.00    -0.164 F 
ATOM     24  F   UNL     1       6.242  -3.212   0.744  1.00  0.00    -0.164 F 
ENDBRANCH   8  21
ENDBRANCH   5   8
ENDBRANCH   3   4
ENDBRANCH   2   3
ENDBRANCH   1   2
BRANCH   1  25
ATOM     25  C   UNL     1       1.986  -9.862   0.373  1.00  0.00     0.002 C 
BRANCH  25  26
ATOM     26  C   UNL     1       1.275 -10.218   1.682  1.00  0.00     0.021 C 
BRANCH  26  27
ATOM     27  C   UNL     1      -0.246 -10.272   1.581  1.00  0.00     0.116 C 
BRANCH  27  28
ATOM     28  N   UNL     1      -0.689 -11.326   0.682  1.00  0.00    -0.352 N 
ATOM     29  C   UNL     1      -1.489 -12.411   0.937  1.00  0.00     0.251 C 
ATOM     30  H   UNL     1      -0.367 -11.250  -0.245  1.00  0.00     0.163 HD
ATOM     31  O   UNL     1      -1.569 -13.325   0.124  1.00  0.00    -0.269 OA
BRANCH  29  32
ATOM     32  C   UNL     1      -2.251 -12.483   2.201  1.00  0.00     0.039 A 
ATOM     33  C   UNL     1      -2.284 -13.690   2.904  1.00  0.00     0.014 A 
ATOM     34  C   UNL     1      -2.957 -11.373   2.675  1.00  0.00     0.014 A 
ATOM     35  C   UNL     1      -2.981 -13.769   4.111  1.00  0.00     0.010 A 
ATOM     36  C   UNL     1      -3.595 -11.434   3.910  1.00  0.00     0.010 A 
ATOM     37  C   UNL     1      -3.619 -12.634   4.637  1.00  0.00    -0.014 A 
BRANCH  37  38
ATOM     38  C   UNL     1      -4.324 -12.684   5.943  1.00  0.00     0.031 A 
ATOM     39  C   UNL     1      -5.812 -12.482   6.006  1.00  0.00     0.074 A 
ATOM     40  C   UNL     1      -3.614 -12.847   7.076  1.00  0.00     0.049 A 
ATOM     41  N   UNL     1      -6.596 -12.416   7.053  1.00  0.00    -0.248 NA
ATOM     42  C   UNL     1      -6.508 -12.302   4.723  1.00  0.00     0.031 C 
ATOM     43  C   UNL     1      -2.161 -13.009   7.146  1.00  0.00     0.029 A 
ATOM     44  N   UNL     1      -4.018 -12.891   8.386  1.00  0.00    -0.354 N 
ATOM     45  C   UNL     1      -7.869 -12.174   6.556  1.00  0.00     0.074 A 
ATOM     46  C   UNL     1      -7.748 -12.053   5.119  1.00  0.00     0.031 C 
ATOM     47  C   UNL     1      -1.797 -13.153   8.431  1.00  0.00     0.029 A 
ATOM     48  C   UNL     1      -2.984 -13.057   9.275  1.00  0.00     0.049 A 
ATOM     49  H   UNL     1      -4.959 -12.812   8.663  1.00  0.00     0.167 HD
ATOM     50  C   UNL     1      -9.038 -12.084   7.235  1.00  0.00     0.037 A 
ATOM     51  C   UNL     1      -2.993 -13.118  10.620  1.00  0.00     0.037 A 
ATOM     52  C   UNL     1      -9.158 -12.232   8.662  1.00  0.00     0.049 A 
ATOM     53  C   UNL     1      -4.305 -13.012  11.351  1.00  0.00     0.074 A 
ATOM     54  C   UNL     1     -10.303 -12.217   9.439  1.00  0.00     0.029 A 
ATOM     55  N   UNL     1      -8.090 -12.420   9.528  1.00  0.00    -0.354 N 
ATOM     56  N   UNL     1      -5.512 -12.850  10.866  1.00  0.00    -0.248 NA
ATOM     57  C   UNL     1      -4.255 -13.104  12.817  1.00  0.00     0.031 C 
ATOM     58  C   UNL     1      -9.925 -12.352  10.779  1.00  0.00     0.029 A 
ATOM     59  C   UNL     1      -8.549 -12.502  10.833  1.00  0.00     0.049 A 
ATOM     60  H   UNL     1      -7.146 -12.486   9.255  1.00  0.00     0.167 HD
ATOM     61  C   UNL     1      -6.366 -12.850  11.960  1.00  0.00     0.074 A 
ATOM     62  C   UNL     1      -5.540 -13.043  13.134  1.00  0.00     0.031 C 
ATOM     63  C   UNL     1      -7.713 -12.703  11.989  1.00  0.00     0.037 A 
BRANCH  50  64
ATOM     64  C   UNL     1     -10.284 -11.817   6.442  1.00  0.00     0.064 A 
ATOM     65  C   UNL     1     -10.832 -12.784   5.585  1.00  0.00     0.173 A 
ATOM     66  C   UNL     1     -10.960 -10.594   6.567  1.00  0.00     0.173 A 
ATOM     67  F   UNL     1     -10.219 -13.965   5.421  1.00  0.00    -0.203 F 
ATOM     68  C   UNL     1     -11.994 -12.525   4.862  1.00  0.00     0.198 A 
ATOM     69  C   UNL     1     -12.139 -10.350   5.866  1.00  0.00     0.198 A 
ATOM     70  F   UNL     1     -10.483  -9.636   7.377  1.00  0.00    -0.203 F 
ATOM     71  F   UNL     1     -12.472 -13.446   4.014  1.00  0.00    -0.200 F 
ATOM     72  C   UNL     1     -12.650 -11.313   5.009  1.00  0.00     0.200 A 
ATOM     73  F   UNL     1     -12.779  -9.183   6.019  1.00  0.00    -0.200 F 
ATOM     74  F   UNL     1     -13.773 -11.069   4.319  1.00  0.00    -0.200 F 
ENDBRANCH  50  64
BRANCH  51  75
ATOM     75  C   UNL     1      -1.721 -13.312  11.363  1.00  0.00     0.064 A 
ATOM     76  C   UNL     1      -1.456 -14.515  12.032  1.00  0.00     0.173 A 
ATOM     77  C   UNL     1      -0.749 -12.303  11.425  1.00  0.00     0.173 A 
ATOM     78  F   UNL     1      -2.364 -15.502  12.018  1.00  0.00    -0.203 F 
ATOM     79  C   UNL     1      -0.277 -14.694  12.751  1.00  0.00     0.198 A 
ATOM     80  C   UNL     1       0.443 -12.494  12.121  1.00  0.00     0.198 A 
ATOM     81  F   UNL     1      -0.952 -11.135  10.798  1.00  0.00    -0.203 F 
ATOM     82  F   UNL     1      -0.069 -15.838  13.419  1.00  0.00    -0.200 F 
ATOM     83  C   UNL     1       0.674 -13.686  12.791  1.00  0.00     0.200 A 
ATOM     84  F   UNL     1       1.365 -11.522  12.145  1.00  0.00    -0.200 F 
ATOM     85  F   UNL     1       1.810 -13.860  13.480  1.00  0.00    -0.200 F 
ENDBRANCH  51  75
BRANCH  63  86
ATOM     86  C   UNL     1      -8.384 -12.781  13.330  1.00  0.00     0.064 A 
ATOM     87  C   UNL     1      -8.266 -11.751  14.274  1.00  0.00     0.173 A 
ATOM     88  C   UNL     1      -9.187 -13.885  13.657  1.00  0.00     0.173 A 
ATOM     89  F   UNL     1      -7.497 -10.682  14.014  1.00  0.00    -0.203 F 
ATOM     90  C   UNL     1      -8.907 -11.834  15.507  1.00  0.00     0.198 A 
ATOM     91  C   UNL     1      -9.851 -13.951  14.879  1.00  0.00     0.198 A 
ATOM     92  F   UNL     1      -9.337 -14.894  12.787  1.00  0.00    -0.203 F 
ATOM     93  F   UNL     1      -8.743 -10.860  16.412  1.00  0.00    -0.200 F 
ATOM     94  C   UNL     1      -9.705 -12.929  15.805  1.00  0.00     0.200 A 
ATOM     95  F   UNL     1     -10.631 -15.003  15.160  1.00  0.00    -0.200 F 
ATOM     96  F   UNL     1     -10.327 -13.004  16.989  1.00  0.00    -0.200 F 
ENDBRANCH  63  86
ENDBRANCH  37  38
ENDBRANCH  29  32
ENDBRANCH  27  28
ENDBRANCH  26  27
ENDBRANCH  25  26
ENDBRANCH   1  25
TORSDOF 17
