REMARK SMILES CC(=O)Oc1cc(CCC(=O)NCCCCCCNC(=O)c2ccc(-c3c4nc(c(-c5c(F)c(F)c(F)c(F)c5F)c5ccc([nH]5)c(-c5c(F)c(F)c(F)c(F)c5F)c5nc(c(-c6c(F)c(F)c(F)c(F)c6F)c6ccc3[nH]6)C=C5)C=C4)cc2)c(OC(C)=O)c2c1C(=O)c1ccccc1C2=O
REMARK SMILES IDX 14 1 13 2 12 3 10 4 11 5 9 7 8 8 7 9 5 10 6 11 91 12 90 13
REMARK SMILES IDX 92 14 85 15 100 16 93 17 94 18 99 19 101 20 95 21 98 22
REMARK SMILES IDX 96 23 97 24 4 25 2 26 1 27 3 28 86 29 87 30 88 31 89 32
REMARK SMILES IDX 15 33 16 34 17 35 18 36 19 37 20 38 21 40 22 41 23 42 84 43
REMARK SMILES IDX 24 44 83 45 25 46 26 47 27 48 77 49 28 50 82 51 76 52 78 53
REMARK SMILES IDX 29 54 81 55 75 56 74 57 30 59 62 60 42 61 61 62 43 63 46 64
REMARK SMILES IDX 60 65 79 66 44 67 45 68 59 70 80 71 47 72 31 73 32 74 40 75
REMARK SMILES IDX 33 76 34 77 38 78 41 79 35 80 36 81 39 82 37 83 63 84 64 85
REMARK SMILES IDX 72 86 65 87 66 88 70 89 73 90 67 91 68 92 71 93 69 94 48 95
REMARK SMILES IDX 49 96 57 97 50 98 51 99 55 100 58 101 52 102 53 103 56 104
REMARK SMILES IDX 54 105
REMARK H PARENT 12 6 19 39 78 58 46 69
REMARK Flexibility Score: inf
ROOT
ATOM      1  C   UNL     1      -1.139  -2.499  -6.016  1.00  0.00     0.021 C 
ENDROOT
BRANCH   1   2
ATOM      2  C   UNL     1       0.182  -3.262  -6.041  1.00  0.00     0.116 C 
BRANCH   2   3
ATOM      3  N   UNL     1       0.760  -3.217  -7.375  1.00  0.00    -0.356 N 
ATOM      4  C   UNL     1       1.735  -2.418  -7.887  1.00  0.00     0.220 C 
ATOM      5  O   UNL     1       1.942  -2.470  -9.102  1.00  0.00    -0.275 OA
ATOM      6  H   UNL     1       0.385  -3.870  -8.010  1.00  0.00     0.163 HD
BRANCH   4   7
ATOM      7  C   UNL     1       2.602  -1.545  -6.991  1.00  0.00     0.105 C 
BRANCH   7   8
ATOM      8  C   UNL     1       2.256  -0.055  -6.867  1.00  0.00     0.049 C 
BRANCH   8   9
ATOM      9  C   UNL     1       1.095   0.318  -5.983  1.00  0.00    -0.000 A 
ATOM     10  C   UNL     1       0.259   0.795  -3.740  1.00  0.00     0.143 A 
ATOM     11  C   UNL     1       1.313   0.466  -4.608  1.00  0.00     0.055 A 
ATOM     12  C   UNL     1      -1.055   0.966  -4.206  1.00  0.00     0.080 A 
ATOM     13  C   UNL     1      -1.311   0.763  -5.567  1.00  0.00     0.081 A 
ATOM     14  C   UNL     1      -2.170   1.306  -3.283  1.00  0.00     0.198 C 
ATOM     15  C   UNL     1      -0.217   0.516  -6.436  1.00  0.00     0.146 A 
ATOM     16  C   UNL     1      -2.719   0.608  -6.013  1.00  0.00     0.198 C 
ATOM     17  O   UNL     1      -1.966   1.627  -2.118  1.00  0.00    -0.288 OA
ATOM     18  C   UNL     1      -3.563   1.168  -3.752  1.00  0.00     0.034 A 
ATOM     19  C   UNL     1      -3.812   0.683  -5.028  1.00  0.00     0.034 A 
ATOM     20  O   UNL     1      -3.010   0.352  -7.171  1.00  0.00    -0.288 OA
ATOM     21  C   UNL     1      -4.630   1.369  -2.866  1.00  0.00     0.013 A 
ATOM     22  C   UNL     1      -5.099   0.236  -5.365  1.00  0.00     0.013 A 
ATOM     23  C   UNL     1      -5.915   0.939  -3.207  1.00  0.00     0.001 A 
ATOM     24  C   UNL     1      -6.140   0.333  -4.440  1.00  0.00     0.001 A 
BRANCH  10  25
ATOM     25  O   UNL     1       0.608   0.957  -2.393  1.00  0.00    -0.426 OA
BRANCH  25  26
ATOM     26  C   UNL     1       0.435  -0.200  -1.640  1.00  0.00     0.308 C 
ATOM     27  C   UNL     1       0.913   0.051  -0.238  1.00  0.00     0.139 C 
ATOM     28  O   UNL     1       0.026  -1.278  -2.056  1.00  0.00    -0.252 OA
ENDBRANCH  25  26
ENDBRANCH  10  25
BRANCH  15  29
ATOM     29  O   UNL     1      -0.489   0.341  -7.905  1.00  0.00    -0.426 OA
BRANCH  29  30
ATOM     30  C   UNL     1      -0.647   0.184  -9.330  1.00  0.00     0.308 C 
ATOM     31  C   UNL     1       0.649   0.349 -10.053  1.00  0.00     0.139 C 
ATOM     32  O   UNL     1      -1.726  -0.003  -9.874  1.00  0.00    -0.252 OA
ENDBRANCH  29  30
ENDBRANCH  15  29
ENDBRANCH   8   9
ENDBRANCH   7   8
ENDBRANCH   4   7
ENDBRANCH   2   3
ENDBRANCH   1   2
BRANCH   1  33
ATOM     33  C   UNL     1      -2.437  -3.281  -6.163  1.00  0.00     0.002 C 
BRANCH  33  34
ATOM     34  C   UNL     1      -2.905  -4.129  -4.977  1.00  0.00     0.002 C 
BRANCH  34  35
ATOM     35  C   UNL     1      -2.610  -3.648  -3.549  1.00  0.00     0.021 C 
BRANCH  35  36
ATOM     36  C   UNL     1      -3.554  -2.612  -2.936  1.00  0.00     0.116 C 
BRANCH  36  37
ATOM     37  N   UNL     1      -4.940  -3.047  -2.840  1.00  0.00    -0.352 N 
ATOM     38  C   UNL     1      -5.865  -2.942  -1.829  1.00  0.00     0.251 C 
ATOM     39  H   UNL     1      -5.276  -3.499  -3.648  1.00  0.00     0.163 HD
ATOM     40  O   UNL     1      -6.980  -3.437  -1.996  1.00  0.00    -0.269 OA
BRANCH  38  41
ATOM     41  C   UNL     1      -5.578  -2.265  -0.537  1.00  0.00     0.039 A 
ATOM     42  C   UNL     1      -6.150  -2.782   0.630  1.00  0.00     0.014 A 
ATOM     43  C   UNL     1      -4.825  -1.095  -0.454  1.00  0.00     0.014 A 
ATOM     44  C   UNL     1      -5.929  -2.153   1.862  1.00  0.00     0.010 A 
ATOM     45  C   UNL     1      -4.576  -0.478   0.775  1.00  0.00     0.010 A 
ATOM     46  C   UNL     1      -5.115  -1.009   1.949  1.00  0.00    -0.014 A 
BRANCH  46  47
ATOM     47  C   UNL     1      -4.718  -0.467   3.276  1.00  0.00     0.031 A 
ATOM     48  C   UNL     1      -5.138   0.897   3.746  1.00  0.00     0.074 A 
ATOM     49  C   UNL     1      -3.911  -1.225   4.043  1.00  0.00     0.049 A 
ATOM     50  N   UNL     1      -4.952   1.459   4.916  1.00  0.00    -0.248 NA
ATOM     51  C   UNL     1      -5.826   1.757   2.774  1.00  0.00     0.031 C 
ATOM     52  C   UNL     1      -3.345  -2.514   3.639  1.00  0.00     0.029 A 
ATOM     53  N   UNL     1      -3.435  -1.038   5.315  1.00  0.00    -0.354 N 
ATOM     54  C   UNL     1      -5.508   2.729   4.825  1.00  0.00     0.074 A 
ATOM     55  C   UNL     1      -5.979   2.880   3.464  1.00  0.00     0.031 C 
ATOM     56  C   UNL     1      -2.651  -3.030   4.663  1.00  0.00     0.029 A 
ATOM     57  C   UNL     1      -2.695  -2.097   5.782  1.00  0.00     0.049 A 
ATOM     58  H   UNL     1      -3.607  -0.224   5.842  1.00  0.00     0.167 HD
ATOM     59  C   UNL     1      -5.633   3.668   5.797  1.00  0.00     0.037 A 
ATOM     60  C   UNL     1      -2.130  -2.303   6.986  1.00  0.00     0.037 A 
ATOM     61  C   UNL     1      -5.143   3.502   7.145  1.00  0.00     0.049 A 
ATOM     62  C   UNL     1      -2.314  -1.263   8.056  1.00  0.00     0.074 A 
ATOM     63  C   UNL     1      -5.273   4.357   8.227  1.00  0.00     0.029 A 
ATOM     64  N   UNL     1      -4.412   2.408   7.592  1.00  0.00    -0.354 N 
ATOM     65  N   UNL     1      -2.950  -0.117   7.997  1.00  0.00    -0.248 NA
ATOM     66  C   UNL     1      -1.717  -1.553   9.364  1.00  0.00     0.031 C 
ATOM     67  C   UNL     1      -4.568   3.812   9.306  1.00  0.00     0.029 A 
ATOM     68  C   UNL     1      -4.061   2.580   8.923  1.00  0.00     0.049 A 
ATOM     69  H   UNL     1      -4.178   1.625   7.044  1.00  0.00     0.167 HD
ATOM     70  C   UNL     1      -2.853   0.438   9.265  1.00  0.00     0.074 A 
ATOM     71  C   UNL     1      -2.123  -0.514  10.078  1.00  0.00     0.031 C 
ATOM     72  C   UNL     1      -3.324   1.628   9.716  1.00  0.00     0.037 A 
BRANCH  59  73
ATOM     73  C   UNL     1      -6.332   4.957   5.449  1.00  0.00     0.064 A 
ATOM     74  C   UNL     1      -7.701   4.990   5.133  1.00  0.00     0.173 A 
ATOM     75  C   UNL     1      -5.648   6.183   5.491  1.00  0.00     0.173 A 
ATOM     76  F   UNL     1      -8.409   3.852   5.080  1.00  0.00    -0.203 F 
ATOM     77  C   UNL     1      -8.345   6.191   4.839  1.00  0.00     0.198 A 
ATOM     78  C   UNL     1      -6.304   7.385   5.231  1.00  0.00     0.198 A 
ATOM     79  F   UNL     1      -4.343   6.220   5.800  1.00  0.00    -0.203 F 
ATOM     80  F   UNL     1      -9.639   6.186   4.490  1.00  0.00    -0.200 F 
ATOM     81  C   UNL     1      -7.649   7.388   4.896  1.00  0.00     0.200 A 
ATOM     82  F   UNL     1      -5.634   8.543   5.308  1.00  0.00    -0.200 F 
ATOM     83  F   UNL     1      -8.273   8.542   4.624  1.00  0.00    -0.200 F 
ENDBRANCH  59  73
BRANCH  60  84
ATOM     84  C   UNL     1      -1.393  -3.567   7.252  1.00  0.00     0.064 A 
ATOM     85  C   UNL     1      -1.886  -4.515   8.160  1.00  0.00     0.173 A 
ATOM     86  C   UNL     1      -0.189  -3.861   6.595  1.00  0.00     0.173 A 
ATOM     87  F   UNL     1      -3.028  -4.278   8.823  1.00  0.00    -0.203 F 
ATOM     88  C   UNL     1      -1.190  -5.694   8.420  1.00  0.00     0.198 A 
ATOM     89  C   UNL     1       0.486  -5.056   6.828  1.00  0.00     0.198 A 
ATOM     90  F   UNL     1       0.320  -2.995   5.706  1.00  0.00    -0.203 F 
ATOM     91  F   UNL     1      -1.658  -6.558   9.332  1.00  0.00    -0.200 F 
ATOM     92  C   UNL     1      -0.008  -5.967   7.749  1.00  0.00     0.200 A 
ATOM     93  F   UNL     1       1.615  -5.326   6.159  1.00  0.00    -0.200 F 
ATOM     94  F   UNL     1       0.656  -7.105   7.992  1.00  0.00    -0.200 F 
ENDBRANCH  60  84
BRANCH  72  95
ATOM     95  C   UNL     1      -3.084   1.946  11.166  1.00  0.00     0.064 A 
ATOM     96  C   UNL     1      -1.796   2.182  11.671  1.00  0.00     0.173 A 
ATOM     97  C   UNL     1      -4.161   2.009  12.065  1.00  0.00     0.173 A 
ATOM     98  F   UNL     1      -0.730   2.122  10.859  1.00  0.00    -0.203 F 
ATOM     99  C   UNL     1      -1.590   2.418  13.028  1.00  0.00     0.198 A 
ATOM    100  C   UNL     1      -3.955   2.287  13.414  1.00  0.00     0.198 A 
ATOM    101  F   UNL     1      -5.415   1.801  11.637  1.00  0.00    -0.203 F 
ATOM    102  F   UNL     1      -0.343   2.561  13.499  1.00  0.00    -0.200 F 
ATOM    103  C   UNL     1      -2.669   2.475  13.897  1.00  0.00     0.200 A 
ATOM    104  F   UNL     1      -5.001   2.361  14.248  1.00  0.00    -0.200 F 
ATOM    105  F   UNL     1      -2.469   2.700  15.203  1.00  0.00    -0.200 F 
ENDBRANCH  72  95
ENDBRANCH  46  47
ENDBRANCH  38  41
ENDBRANCH  36  37
ENDBRANCH  35  36
ENDBRANCH  34  35
ENDBRANCH  33  34
ENDBRANCH   1  33
TORSDOF 19
