REMARK SMILES Cc1ccc(C(=O)C[C@@H](C(=O)NCCCCCCNC(=O)c2ccc(-c3c4nc(c(-c5c(F)c(F)c(F)c(F)c5F)c5ccc([nH]5)c(-c5c(F)c(F)c(F)c(F)c5F)c5nc(c(-c6c(F)c(F)c(F)c(F)c6F)c6ccc3[nH]6)C=C5)C=C4)cc2)[NH+]2CC[NH+](Cc3ccccc3)CC2)cc1
REMARK SMILES IDX 15 1 14 2 13 3 12 4 10 5 11 6 9 8 8 9 6 10 7 11 5 12 1 13
REMARK SMILES IDX 2 14 3 15 99 16 4 17 98 18 85 19 86 20 97 21 87 23 96 24
REMARK SMILES IDX 88 25 89 27 90 28 91 29 95 30 92 31 94 32 93 33 16 34 17 35
REMARK SMILES IDX 18 36 19 37 20 38 21 40 22 41 23 42 84 43 24 44 83 45 25 46
REMARK SMILES IDX 26 47 27 48 77 49 28 50 82 51 76 52 78 53 29 54 81 55 75 56
REMARK SMILES IDX 74 57 30 59 62 60 42 61 61 62 43 63 46 64 60 65 79 66 44 67
REMARK SMILES IDX 45 68 59 70 80 71 47 72 31 73 32 74 40 75 33 76 34 77 38 78
REMARK SMILES IDX 41 79 35 80 36 81 39 82 37 83 63 84 64 85 72 86 65 87 66 88
REMARK SMILES IDX 70 89 73 90 67 91 68 92 71 93 69 94 48 95 49 96 57 97 50 98
REMARK SMILES IDX 51 99 55 100 58 101 52 102 53 103 56 104 54 105
REMARK H PARENT 12 7 85 22 88 26 19 39 78 58 46 69
REMARK Flexibility Score: inf
ROOT
ATOM      1  C   UNL     1       0.367  -0.998   1.849  1.00  0.00     0.002 C 
ENDROOT
BRANCH   1   2
ATOM      2  C   UNL     1      -1.166  -0.903   1.880  1.00  0.00     0.021 C 
BRANCH   2   3
ATOM      3  C   UNL     1      -1.691   0.167   2.832  1.00  0.00     0.116 C 
BRANCH   3   4
ATOM      4  N   UNL     1      -1.330   1.483   2.346  1.00  0.00    -0.351 N 
ATOM      5  C   UNL     1      -1.897   2.203   1.335  1.00  0.00     0.278 C 
ATOM      6  O   UNL     1      -1.218   3.111   0.845  1.00  0.00    -0.268 OA
ATOM      7  H   UNL     1      -0.576   1.917   2.807  1.00  0.00     0.163 HD
BRANCH   5   8
ATOM      8  C   UNL     1      -3.373   1.957   0.915  1.00  0.00     0.282 C 
BRANCH   8   9
ATOM      9  C   UNL     1      -3.560   2.034  -0.613  1.00  0.00     0.156 C 
BRANCH   9  10
ATOM     10  C   UNL     1      -3.044   0.772  -1.298  1.00  0.00     0.169 C 
ATOM     11  O   UNL     1      -3.775  -0.208  -1.448  1.00  0.00    -0.294 OA
BRANCH  10  12
ATOM     12  C   UNL     1      -1.599   0.654  -1.658  1.00  0.00     0.018 A 
ATOM     13  C   UNL     1       2.650   0.145  -1.392  1.00  0.00     0.044 C 
ATOM     14  C   UNL     1       1.180   0.318  -1.621  1.00  0.00    -0.051 A 
ATOM     15  C   UNL     1       0.341  -0.795  -1.740  1.00  0.00     0.004 A 
ATOM     16  C   UNL     1       0.624   1.597  -1.685  1.00  0.00     0.004 A 
ATOM     17  C   UNL     1      -1.045  -0.628  -1.765  1.00  0.00     0.012 A 
ATOM     18  C   UNL     1      -0.759   1.765  -1.720  1.00  0.00     0.012 A 
ENDBRANCH  10  12
ENDBRANCH   9  10
ENDBRANCH   8   9
BRANCH   8  19
ATOM     19  N   UNL     1      -4.252   2.970   1.580  1.00  0.00    -0.315 N 
ATOM     20  C   UNL     1      -4.772   2.515   2.877  1.00  0.00     0.325 C 
ATOM     21  C   UNL     1      -3.720   4.346   1.619  1.00  0.00     0.325 C 
ATOM     22  H   UNL     1      -5.053   3.042   0.953  1.00  0.00     0.349 HD
ATOM     23  C   UNL     1      -5.043   3.615   3.924  1.00  0.00     0.324 C 
ATOM     24  C   UNL     1      -4.599   5.406   2.335  1.00  0.00     0.324 C 
ATOM     25  N   UNL     1      -5.462   4.909   3.401  1.00  0.00    -0.322 N 
ATOM     26  H   UNL     1      -5.299   5.547   4.180  1.00  0.00     0.348 HD
BRANCH  25  27
ATOM     27  C   UNL     1      -6.897   5.115   3.222  1.00  0.00     0.299 C 
BRANCH  27  28
ATOM     28  C   UNL     1      -7.675   4.315   2.193  1.00  0.00     0.006 A 
ATOM     29  C   UNL     1      -8.981   3.904   2.510  1.00  0.00     0.009 A 
ATOM     30  C   UNL     1      -7.224   4.073   0.888  1.00  0.00     0.009 A 
ATOM     31  C   UNL     1      -9.782   3.243   1.573  1.00  0.00     0.001 A 
ATOM     32  C   UNL     1      -8.010   3.389  -0.043  1.00  0.00     0.001 A 
ATOM     33  C   UNL     1      -9.291   2.975   0.299  1.00  0.00     0.000 A 
ENDBRANCH  27  28
ENDBRANCH  25  27
ENDBRANCH   8  19
ENDBRANCH   5   8
ENDBRANCH   3   4
ENDBRANCH   2   3
ENDBRANCH   1   2
BRANCH   1  34
ATOM     34  C   UNL     1       0.998  -1.738   3.034  1.00  0.00     0.002 C 
BRANCH  34  35
ATOM     35  C   UNL     1       0.507  -3.173   3.237  1.00  0.00     0.021 C 
BRANCH  35  36
ATOM     36  C   UNL     1       0.779  -4.107   2.064  1.00  0.00     0.116 C 
BRANCH  36  37
ATOM     37  N   UNL     1       2.091  -4.726   2.104  1.00  0.00    -0.352 N 
ATOM     38  C   UNL     1       2.681  -5.639   1.260  1.00  0.00     0.251 C 
ATOM     39  H   UNL     1       2.653  -4.446   2.862  1.00  0.00     0.163 HD
ATOM     40  O   UNL     1       3.747  -6.150   1.609  1.00  0.00    -0.269 OA
BRANCH  38  41
ATOM     41  C   UNL     1       2.151  -5.924  -0.103  1.00  0.00     0.039 A 
ATOM     42  C   UNL     1       3.076  -6.309  -1.091  1.00  0.00     0.014 A 
ATOM     43  C   UNL     1       0.829  -5.695  -0.473  1.00  0.00     0.014 A 
ATOM     44  C   UNL     1       2.728  -6.258  -2.441  1.00  0.00     0.010 A 
ATOM     45  C   UNL     1       0.499  -5.570  -1.808  1.00  0.00     0.010 A 
ATOM     46  C   UNL     1       1.466  -5.788  -2.788  1.00  0.00    -0.014 A 
BRANCH  46  47
ATOM     47  C   UNL     1       1.091  -5.374  -4.130  1.00  0.00     0.031 A 
ATOM     48  C   UNL     1       0.288  -6.240  -5.007  1.00  0.00     0.074 A 
ATOM     49  C   UNL     1       1.364  -4.107  -4.510  1.00  0.00     0.049 A 
ATOM     50  N   UNL     1       0.276  -6.130  -6.293  1.00  0.00    -0.248 NA
ATOM     51  C   UNL     1      -0.562  -7.314  -4.503  1.00  0.00     0.031 C 
ATOM     52  C   UNL     1       0.809  -3.378  -5.647  1.00  0.00     0.029 A 
ATOM     53  N   UNL     1       2.376  -3.269  -4.018  1.00  0.00    -0.354 N 
ATOM     54  C   UNL     1      -0.761  -6.897  -6.755  1.00  0.00     0.074 A 
ATOM     55  C   UNL     1      -1.204  -7.677  -5.619  1.00  0.00     0.031 C 
ATOM     56  C   UNL     1       1.643  -2.374  -5.960  1.00  0.00     0.029 A 
ATOM     57  C   UNL     1       2.831  -2.537  -5.140  1.00  0.00     0.049 A 
ATOM     58  H   UNL     1       2.700  -3.204  -3.090  1.00  0.00     0.167 HD
ATOM     59  C   UNL     1      -1.244  -6.698  -8.013  1.00  0.00     0.037 A 
ATOM     60  C   UNL     1       4.101  -2.706  -5.610  1.00  0.00     0.037 A 
ATOM     61  C   UNL     1      -0.541  -5.637  -8.723  1.00  0.00     0.049 A 
ATOM     62  C   UNL     1       4.189  -3.178  -7.044  1.00  0.00     0.074 A 
ATOM     63  C   UNL     1      -0.817  -4.305  -8.987  1.00  0.00     0.029 A 
ATOM     64  N   UNL     1       0.801  -5.806  -9.017  1.00  0.00    -0.354 N 
ATOM     65  N   UNL     1       3.170  -3.565  -7.758  1.00  0.00    -0.248 NA
ATOM     66  C   UNL     1       5.461  -3.362  -7.742  1.00  0.00     0.031 C 
ATOM     67  C   UNL     1       0.367  -3.687  -9.477  1.00  0.00     0.029 A 
ATOM     68  C   UNL     1       1.363  -4.644  -9.508  1.00  0.00     0.049 A 
ATOM     69  H   UNL     1       1.293  -6.649  -8.892  1.00  0.00     0.167 HD
ATOM     70  C   UNL     1       3.617  -4.086  -8.942  1.00  0.00     0.074 A 
ATOM     71  C   UNL     1       5.060  -3.944  -8.884  1.00  0.00     0.031 C 
ATOM     72  C   UNL     1       2.771  -4.636  -9.861  1.00  0.00     0.037 A 
BRANCH  59  73
ATOM     73  C   UNL     1      -2.534  -7.322  -8.465  1.00  0.00     0.064 A 
ATOM     74  C   UNL     1      -3.487  -6.590  -9.197  1.00  0.00     0.173 A 
ATOM     75  C   UNL     1      -2.893  -8.646  -8.151  1.00  0.00     0.173 A 
ATOM     76  F   UNL     1      -3.240  -5.345  -9.619  1.00  0.00    -0.203 F 
ATOM     77  C   UNL     1      -4.747  -7.109  -9.500  1.00  0.00     0.198 A 
ATOM     78  C   UNL     1      -4.172  -9.147  -8.409  1.00  0.00     0.198 A 
ATOM     79  F   UNL     1      -2.010  -9.481  -7.582  1.00  0.00    -0.203 F 
ATOM     80  F   UNL     1      -5.624  -6.362 -10.187  1.00  0.00    -0.200 F 
ATOM     81  C   UNL     1      -5.103  -8.373  -9.075  1.00  0.00     0.200 A 
ATOM     82  F   UNL     1      -4.503 -10.378  -7.992  1.00  0.00    -0.200 F 
ATOM     83  F   UNL     1      -6.334  -8.845  -9.312  1.00  0.00    -0.200 F 
ENDBRANCH  59  73
BRANCH  60  84
ATOM     84  C   UNL     1       5.065  -3.096  -4.543  1.00  0.00     0.064 A 
ATOM     85  C   UNL     1       5.269  -2.216  -3.464  1.00  0.00     0.173 A 
ATOM     86  C   UNL     1       5.466  -4.426  -4.378  1.00  0.00     0.173 A 
ATOM     87  F   UNL     1       4.925  -0.924  -3.582  1.00  0.00    -0.203 F 
ATOM     88  C   UNL     1       5.715  -2.678  -2.228  1.00  0.00     0.198 A 
ATOM     89  C   UNL     1       5.948  -4.878  -3.149  1.00  0.00     0.198 A 
ATOM     90  F   UNL     1       5.293  -5.316  -5.365  1.00  0.00    -0.203 F 
ATOM     91  F   UNL     1       5.764  -1.842  -1.181  1.00  0.00    -0.200 F 
ATOM     92  C   UNL     1       6.033  -4.015  -2.066  1.00  0.00     0.200 A 
ATOM     93  F   UNL     1       6.244  -6.176  -2.990  1.00  0.00    -0.200 F 
ATOM     94  F   UNL     1       6.387  -4.481  -0.861  1.00  0.00    -0.200 F 
ENDBRANCH  60  84
BRANCH  72  95
ATOM     95  C   UNL     1       3.207  -5.223 -11.175  1.00  0.00     0.064 A 
ATOM     96  C   UNL     1       4.183  -4.628 -11.988  1.00  0.00     0.173 A 
ATOM     97  C   UNL     1       2.563  -6.359 -11.714  1.00  0.00     0.173 A 
ATOM     98  F   UNL     1       4.789  -3.491 -11.618  1.00  0.00    -0.203 F 
ATOM     99  C   UNL     1       4.540  -5.174 -13.224  1.00  0.00     0.198 A 
ATOM    100  C   UNL     1       2.882  -6.869 -12.971  1.00  0.00     0.198 A 
ATOM    101  F   UNL     1       1.620  -7.024 -11.033  1.00  0.00    -0.203 F 
ATOM    102  F   UNL     1       5.522  -4.609 -13.940  1.00  0.00    -0.200 F 
ATOM    103  C   UNL     1       3.885  -6.288 -13.718  1.00  0.00     0.200 A 
ATOM    104  F   UNL     1       2.214  -7.929 -13.447  1.00  0.00    -0.200 F 
ATOM    105  F   UNL     1       4.217  -6.798 -14.911  1.00  0.00    -0.200 F 
ENDBRANCH  72  95
ENDBRANCH  46  47
ENDBRANCH  38  41
ENDBRANCH  36  37
ENDBRANCH  35  36
ENDBRANCH  34  35
ENDBRANCH   1  34
TORSDOF 19
