REMARK SMILES Cc1ccc(-c2c(C)sc(NC(=O)[C@H]3CC=CC[C@H]3C(=O)NCCCCCCNC(=O)c3ccc(-c4c5nc(c(-c6c(F)c(F)c(F)c(F)c6F)c6ccc([nH]6)c(-c6c(F)c(F)c(F)c(F)c6F)c6nc(c(-c7c(F)c(F)c(F)c(F)c7F)c7ccc4[nH]7)C=C6)C=C5)cc3)c2C(N)=O)cc1
REMARK SMILES IDX 25 1 24 2 23 3 22 4 20 5 21 6 19 8 14 9 15 10 16 11 18 12
REMARK SMILES IDX 17 13 12 14 11 15 13 17 10 18 6 19 7 20 95 21 8 22 9 23 5 24
REMARK SMILES IDX 1 25 2 26 3 27 100 28 4 29 99 30 96 31 97 32 98 33 26 36
REMARK SMILES IDX 27 37 28 38 29 39 30 40 31 42 32 43 33 44 94 45 34 46 93 47
REMARK SMILES IDX 35 48 36 49 37 50 87 51 38 52 92 53 86 54 88 55 39 56 91 57
REMARK SMILES IDX 85 58 84 59 40 61 72 62 52 63 71 64 53 65 56 66 70 67 89 68
REMARK SMILES IDX 54 69 55 70 69 72 90 73 57 74 41 75 42 76 50 77 43 78 44 79
REMARK SMILES IDX 48 80 51 81 45 82 46 83 49 84 47 85 73 86 74 87 82 88 75 89
REMARK SMILES IDX 76 90 80 91 83 92 77 93 78 94 81 95 79 96 58 97 59 98 67 99
REMARK SMILES IDX 60 100 61 101 65 102 68 103 62 104 63 105 66 106 64 107
REMARK H PARENT 22 7 11 16 97 34 97 35 29 41 88 60 56 71
REMARK Flexibility Score: inf
ROOT
ATOM      1  C   UNL     1      -9.125  -4.396   2.843  1.00  0.00     0.002 C 
ENDROOT
BRANCH   1   2
ATOM      2  C   UNL     1      -8.495  -3.071   2.398  1.00  0.00     0.021 C 
BRANCH   2   3
ATOM      3  C   UNL     1      -7.831  -3.139   1.024  1.00  0.00     0.116 C 
BRANCH   3   4
ATOM      4  N   UNL     1      -8.834  -3.132   0.002  1.00  0.00    -0.356 N 
ATOM      5  C   UNL     1      -9.204  -2.138  -0.831  1.00  0.00     0.224 C 
ATOM      6  O   UNL     1     -10.267  -2.296  -1.438  1.00  0.00    -0.275 OA
ATOM      7  H   UNL     1      -9.326  -3.977  -0.110  1.00  0.00     0.163 HD
BRANCH   5   8
ATOM      8  C   UNL     1      -8.339  -0.919  -1.101  1.00  0.00     0.095 C 
ATOM      9  C   UNL     1      -8.306   0.274  -0.125  1.00  0.00     0.095 C 
ATOM     10  C   UNL     1      -7.931   1.529  -0.940  1.00  0.00     0.041 C 
ATOM     11  C   UNL     1      -6.943   1.269  -2.063  1.00  0.00    -0.030 C 
ATOM     12  C   UNL     1      -6.988  -1.212  -1.743  1.00  0.00     0.041 C 
ATOM     13  C   UNL     1      -6.478   0.048  -2.386  1.00  0.00    -0.030 C 
BRANCH   9  14
ATOM     14  C   UNL     1      -7.684   0.151   1.299  1.00  0.00     0.229 C 
ATOM     15  N   UNL     1      -6.391  -0.034   1.698  1.00  0.00    -0.317 N 
ATOM     16  H   UNL     1      -6.315  -0.392   2.612  1.00  0.00     0.170 HD
ATOM     17  O   UNL     1      -8.483   0.106   2.254  1.00  0.00    -0.274 OA
BRANCH  15  18
ATOM     18  C   UNL     1      -5.169   0.173   1.094  1.00  0.00     0.109 A 
ATOM     19  C   UNL     1      -2.947   0.212   0.365  1.00  0.00     0.010 A 
ATOM     20  C   UNL     1      -3.583   1.100  -0.491  1.00  0.00     0.012 A 
ATOM     21  C   UNL     1      -3.896  -0.359   1.334  1.00  0.00     0.082 A 
ATOM     22  C   UNL     1      -3.171   1.712  -1.789  1.00  0.00     0.057 C 
ATOM     23  S   UNL     1      -4.997   1.644   0.270  1.00  0.00    -0.122 S 
BRANCH  19  24
ATOM     24  C   UNL     1      -1.499   0.040   0.251  1.00  0.00    -0.016 A 
ATOM     25  C   UNL     1       2.798  -0.202  -0.085  1.00  0.00     0.044 C 
ATOM     26  C   UNL     1       1.303  -0.117   0.004  1.00  0.00    -0.051 A 
ATOM     27  C   UNL     1       0.510  -1.273  -0.069  1.00  0.00     0.004 A 
ATOM     28  C   UNL     1       0.686   1.117   0.205  1.00  0.00     0.004 A 
ATOM     29  C   UNL     1      -0.886  -1.196   0.043  1.00  0.00     0.009 A 
ATOM     30  C   UNL     1      -0.696   1.190   0.343  1.00  0.00     0.009 A 
ENDBRANCH  19  24
BRANCH  21  31
ATOM     31  C   UNL     1      -3.516  -1.329   2.371  1.00  0.00     0.252 C 
ATOM     32  N   UNL     1      -4.519  -1.995   3.026  1.00  0.00    -0.365 N 
ATOM     33  O   UNL     1      -2.369  -1.584   2.688  1.00  0.00    -0.269 OA
ATOM     34  H   UNL     1      -5.460  -1.816   2.798  1.00  0.00     0.159 HD
ATOM     35  H   UNL     1      -4.299  -2.653   3.724  1.00  0.00     0.159 HD
ENDBRANCH  21  31
ENDBRANCH  15  18
ENDBRANCH   9  14
ENDBRANCH   5   8
ENDBRANCH   3   4
ENDBRANCH   2   3
ENDBRANCH   1   2
BRANCH   1  36
ATOM     36  C   UNL     1      -8.187  -5.611   2.802  1.00  0.00     0.002 C 
BRANCH  36  37
ATOM     37  C   UNL     1      -6.790  -5.379   3.377  1.00  0.00     0.021 C 
BRANCH  37  38
ATOM     38  C   UNL     1      -6.795  -5.074   4.861  1.00  0.00     0.116 C 
BRANCH  38  39
ATOM     39  N   UNL     1      -6.811  -6.270   5.679  1.00  0.00    -0.352 N 
ATOM     40  C   UNL     1      -6.630  -6.417   7.038  1.00  0.00     0.251 C 
ATOM     41  H   UNL     1      -6.976  -7.108   5.189  1.00  0.00     0.163 HD
ATOM     42  O   UNL     1      -6.391  -7.530   7.496  1.00  0.00    -0.269 OA
BRANCH  40  43
ATOM     43  C   UNL     1      -6.946  -5.293   7.954  1.00  0.00     0.039 A 
ATOM     44  C   UNL     1      -7.663  -5.632   9.113  1.00  0.00     0.014 A 
ATOM     45  C   UNL     1      -6.883  -3.971   7.533  1.00  0.00     0.014 A 
ATOM     46  C   UNL     1      -8.552  -4.716   9.654  1.00  0.00     0.010 A 
ATOM     47  C   UNL     1      -7.854  -3.110   7.967  1.00  0.00     0.010 A 
ATOM     48  C   UNL     1      -8.724  -3.517   8.978  1.00  0.00    -0.014 A 
BRANCH  48  49
ATOM     49  C   UNL     1      -9.774  -2.568   9.256  1.00  0.00     0.031 A 
ATOM     50  C   UNL     1      -9.457  -1.464  10.167  1.00  0.00     0.074 A 
ATOM     51  C   UNL     1     -10.892  -2.632   8.504  1.00  0.00     0.049 A 
ATOM     52  N   UNL     1     -10.328  -0.797  10.831  1.00  0.00    -0.248 NA
ATOM     53  C   UNL     1      -8.084  -1.055  10.443  1.00  0.00     0.031 C 
ATOM     54  C   UNL     1     -11.929  -1.624   8.334  1.00  0.00     0.029 A 
ATOM     55  N   UNL     1     -11.390  -3.758   7.825  1.00  0.00    -0.354 N 
ATOM     56  C   UNL     1      -9.688   0.317  11.332  1.00  0.00     0.074 A 
ATOM     57  C   UNL     1      -8.282   0.035  11.187  1.00  0.00     0.031 C 
ATOM     58  C   UNL     1     -13.048  -2.227   7.889  1.00  0.00     0.029 A 
ATOM     59  C   UNL     1     -12.797  -3.659   7.912  1.00  0.00     0.049 A 
ATOM     60  H   UNL     1     -10.868  -4.466   7.383  1.00  0.00     0.167 HD
ATOM     61  C   UNL     1     -10.447   1.410  11.628  1.00  0.00     0.037 A 
ATOM     62  C   UNL     1     -13.500  -4.563   8.661  1.00  0.00     0.037 A 
ATOM     63  C   UNL     1     -11.862   1.093  11.413  1.00  0.00     0.049 A 
ATOM     64  C   UNL     1     -14.190  -3.920   9.840  1.00  0.00     0.074 A 
ATOM     65  C   UNL     1     -12.704   1.325  10.336  1.00  0.00     0.029 A 
ATOM     66  N   UNL     1     -12.473   0.114  12.189  1.00  0.00    -0.354 N 
ATOM     67  N   UNL     1     -13.784  -2.815  10.403  1.00  0.00    -0.248 NA
ATOM     68  C   UNL     1     -15.391  -4.463  10.465  1.00  0.00     0.031 C 
ATOM     69  C   UNL     1     -13.796   0.427  10.437  1.00  0.00     0.029 A 
ATOM     70  C   UNL     1     -13.631  -0.334  11.582  1.00  0.00     0.049 A 
ATOM     71  H   UNL     1     -12.128  -0.215  13.051  1.00  0.00     0.167 HD
ATOM     72  C   UNL     1     -14.633  -2.489  11.428  1.00  0.00     0.074 A 
ATOM     73  C   UNL     1     -15.624  -3.549  11.423  1.00  0.00     0.031 C 
ATOM     74  C   UNL     1     -14.450  -1.371  12.194  1.00  0.00     0.037 A 
BRANCH  61  75
ATOM     75  C   UNL     1      -9.935   2.830  11.778  1.00  0.00     0.064 A 
ATOM     76  C   UNL     1     -10.816   3.921  11.589  1.00  0.00     0.173 A 
ATOM     77  C   UNL     1      -8.604   3.204  12.046  1.00  0.00     0.173 A 
ATOM     78  F   UNL     1     -12.132   3.739  11.419  1.00  0.00    -0.203 F 
ATOM     79  C   UNL     1     -10.385   5.251  11.571  1.00  0.00     0.198 A 
ATOM     80  C   UNL     1      -8.165   4.533  11.997  1.00  0.00     0.198 A 
ATOM     81  F   UNL     1      -7.682   2.316  12.424  1.00  0.00    -0.203 F 
ATOM     82  F   UNL     1     -11.273   6.234  11.369  1.00  0.00    -0.200 F 
ATOM     83  C   UNL     1      -9.053   5.556  11.750  1.00  0.00     0.200 A 
ATOM     84  F   UNL     1      -6.868   4.810  12.199  1.00  0.00    -0.200 F 
ATOM     85  F   UNL     1      -8.634   6.828  11.714  1.00  0.00    -0.200 F 
ENDBRANCH  61  75
BRANCH  62  86
ATOM     86  C   UNL     1     -12.850  -5.908   8.665  1.00  0.00     0.064 A 
ATOM     87  C   UNL     1     -12.708  -6.564   7.424  1.00  0.00     0.173 A 
ATOM     88  C   UNL     1     -12.002  -6.307   9.706  1.00  0.00     0.173 A 
ATOM     89  F   UNL     1     -13.508  -6.233   6.397  1.00  0.00    -0.203 F 
ATOM     90  C   UNL     1     -11.653  -7.442   7.186  1.00  0.00     0.198 A 
ATOM     91  C   UNL     1     -10.965  -7.214   9.470  1.00  0.00     0.198 A 
ATOM     92  F   UNL     1     -12.091  -5.732  10.914  1.00  0.00    -0.203 F 
ATOM     93  F   UNL     1     -11.449  -7.923   5.951  1.00  0.00    -0.200 F 
ATOM     94  C   UNL     1     -10.761  -7.738   8.201  1.00  0.00     0.200 A 
ATOM     95  F   UNL     1     -10.098  -7.504  10.452  1.00  0.00    -0.200 F 
ATOM     96  F   UNL     1      -9.684  -8.494   7.947  1.00  0.00    -0.200 F 
ENDBRANCH  62  86
BRANCH  74  97
ATOM     97  C   UNL     1     -15.109  -1.091  13.526  1.00  0.00     0.064 A 
ATOM     98  C   UNL     1     -15.632  -2.087  14.366  1.00  0.00     0.173 A 
ATOM     99  C   UNL     1     -15.100   0.216  14.076  1.00  0.00     0.173 A 
ATOM    100  F   UNL     1     -15.568  -3.384  14.041  1.00  0.00    -0.203 F 
ATOM    101  C   UNL     1     -16.188  -1.789  15.613  1.00  0.00     0.198 A 
ATOM    102  C   UNL     1     -15.583   0.497  15.352  1.00  0.00     0.198 A 
ATOM    103  F   UNL     1     -14.592   1.263  13.409  1.00  0.00    -0.203 F 
ATOM    104  F   UNL     1     -16.733  -2.770  16.345  1.00  0.00    -0.200 F 
ATOM    105  C   UNL     1     -16.154  -0.501  16.110  1.00  0.00     0.200 A 
ATOM    106  F   UNL     1     -15.473   1.739  15.846  1.00  0.00    -0.200 F 
ATOM    107  F   UNL     1     -16.647  -0.228  17.325  1.00  0.00    -0.200 F 
ENDBRANCH  74  97
ENDBRANCH  48  49
ENDBRANCH  40  43
ENDBRANCH  38  39
ENDBRANCH  37  38
ENDBRANCH  36  37
ENDBRANCH   1  36
TORSDOF 17
