REMARK SMILES CC[C@H](C)c1ccc(N2C(=O)NC(=O)/C(=C/c3ccc(-c4ccc(C(=O)NCCCCCCNC(=O)c5ccc(-c6c7nc(c(-c8c(F)c(F)c(F)c(F)c8F)c8ccc([nH]8)c(-c8c(F)c(F)c(F)c(F)c8F)c8nc(c(-c9c(F)c(F)c(F)c(F)c9F)c9ccc6[nH]9)C=C8)C=C7)cc5)cc4)o3)C2=O)cc1
REMARK SMILES IDX 29 1 28 2 27 3 25 4 26 5 24 7 21 8 22 9 101 10 23 11 100 12
REMARK SMILES IDX 20 13 17 14 18 15 102 16 19 17 16 18 9 19 10 20 103 21 11 22
REMARK SMILES IDX 12 23 15 24 104 25 13 26 14 28 8 29 5 30 6 31 106 32 7 33
REMARK SMILES IDX 105 34 3 35 4 36 2 37 1 38 30 39 31 40 32 41 33 42 34 43
REMARK SMILES IDX 35 44 36 46 37 47 38 48 99 49 39 50 98 51 40 52 41 53 42 54
REMARK SMILES IDX 92 55 43 56 97 57 91 58 93 59 44 60 96 61 90 62 89 63 45 65
REMARK SMILES IDX 77 66 57 67 76 68 58 69 61 70 75 71 94 72 59 73 60 74 74 76
REMARK SMILES IDX 95 77 62 78 46 79 47 80 55 81 48 82 49 83 53 84 56 85 50 86
REMARK SMILES IDX 51 87 54 88 52 89 78 90 79 91 87 92 80 93 81 94 85 95 88 96
REMARK SMILES IDX 82 97 83 98 86 99 84 100 63 101 64 102 72 103 65 104 66 105
REMARK SMILES IDX 70 106 73 107 67 108 68 109 71 110 69 111
REMARK H PARENT 27 6 12 27 34 45 93 64 61 75
REMARK Flexibility Score: inf
ROOT
ATOM      1  C   UNL     1     -11.966  -2.215  10.053  1.00  0.00     0.021 C 
ENDROOT
BRANCH   1   2
ATOM      2  C   UNL     1     -11.126  -1.284   9.175  1.00  0.00     0.116 C 
BRANCH   2   3
ATOM      3  N   UNL     1     -10.277  -0.445  10.001  1.00  0.00    -0.352 N 
ATOM      4  C   UNL     1      -8.938  -0.506  10.296  1.00  0.00     0.251 C 
ATOM      5  O   UNL     1      -8.461   0.373  11.012  1.00  0.00    -0.269 OA
ATOM      6  H   UNL     1     -10.748   0.306  10.427  1.00  0.00     0.163 HD
BRANCH   4   7
ATOM      7  C   UNL     1      -8.041  -1.551   9.732  1.00  0.00     0.039 A 
ATOM      8  C   UNL     1      -6.290  -3.369   8.496  1.00  0.00     0.017 A 
ATOM      9  C   UNL     1      -5.837  -2.096   8.850  1.00  0.00     0.013 A 
ATOM     10  C   UNL     1      -7.591  -3.752   8.828  1.00  0.00     0.013 A 
ATOM     11  C   UNL     1      -6.712  -1.189   9.460  1.00  0.00     0.014 A 
ATOM     12  C   UNL     1      -8.448  -2.862   9.475  1.00  0.00     0.014 A 
BRANCH   8  13
ATOM     13  C   UNL     1      -5.471  -4.281   7.731  1.00  0.00     0.134 A 
ATOM     14  C   UNL     1      -3.856  -5.773   7.513  1.00  0.00     0.128 A 
ATOM     15  C   UNL     1      -4.511  -5.671   6.289  1.00  0.00     0.051 A 
ATOM     16  O   UNL     1      -4.483  -4.930   8.402  1.00  0.00    -0.457 OA
ATOM     17  C   UNL     1      -5.527  -4.704   6.424  1.00  0.00     0.051 A 
BRANCH  14  18
ATOM     18  C   UNL     1      -2.743  -6.588   7.850  1.00  0.00     0.066 C 
ATOM     19  N   UNL     1       0.042  -5.388   5.732  1.00  0.00    -0.228 N 
ATOM     20  C   UNL     1       0.873  -6.501   5.807  1.00  0.00     0.335 C 
ATOM     21  C   UNL     1      -1.137  -5.248   6.471  1.00  0.00     0.272 C 
ATOM     22  O   UNL     1       1.878  -6.702   5.126  1.00  0.00    -0.247 OA
ATOM     23  N   UNL     1       0.561  -7.432   6.763  1.00  0.00    -0.273 N 
ATOM     24  C   UNL     1      -1.516  -6.409   7.320  1.00  0.00     0.109 C 
ATOM     25  O   UNL     1      -1.855  -4.250   6.435  1.00  0.00    -0.268 OA
ATOM     26  C   UNL     1      -0.530  -7.471   7.576  1.00  0.00     0.265 C 
ATOM     27  H   UNL     1       1.209  -8.165   6.877  1.00  0.00     0.175 HD
ATOM     28  O   UNL     1      -0.682  -8.361   8.405  1.00  0.00    -0.269 OA
BRANCH  19  29
ATOM     29  C   UNL     1       0.392  -4.308   4.849  1.00  0.00     0.054 A 
ATOM     30  C   UNL     1       0.786  -2.117   3.065  1.00  0.00    -0.045 A 
ATOM     31  C   UNL     1       0.513  -1.913   4.423  1.00  0.00     0.006 A 
ATOM     32  C   UNL     1       0.958  -3.448   2.645  1.00  0.00     0.006 A 
ATOM     33  C   UNL     1       0.300  -2.985   5.291  1.00  0.00     0.027 A 
ATOM     34  C   UNL     1       0.773  -4.529   3.524  1.00  0.00     0.027 A 
BRANCH  30  35
ATOM     35  C   UNL     1       0.959  -0.933   2.112  1.00  0.00     0.016 C 
ATOM     36  C   UNL     1       0.595  -1.242   0.649  1.00  0.00     0.013 C 
BRANCH  35  37
ATOM     37  C   UNL     1       0.240   0.378   2.539  1.00  0.00     0.004 C 
ATOM     38  C   UNL     1      -1.282   0.290   2.631  1.00  0.00     0.004 C 
ENDBRANCH  35  37
ENDBRANCH  30  35
ENDBRANCH  19  29
ENDBRANCH  14  18
ENDBRANCH   8  13
ENDBRANCH   4   7
ENDBRANCH   2   3
ENDBRANCH   1   2
BRANCH   1  39
ATOM     39  C   UNL     1     -13.183  -1.523  10.680  1.00  0.00     0.002 C 
BRANCH  39  40
ATOM     40  C   UNL     1     -14.228  -1.029   9.673  1.00  0.00     0.002 C 
BRANCH  40  41
ATOM     41  C   UNL     1     -14.767  -2.101   8.722  1.00  0.00     0.021 C 
BRANCH  41  42
ATOM     42  C   UNL     1     -15.475  -3.259   9.418  1.00  0.00     0.116 C 
BRANCH  42  43
ATOM     43  N   UNL     1     -16.685  -2.819  10.092  1.00  0.00    -0.352 N 
ATOM     44  C   UNL     1     -17.964  -3.300   9.982  1.00  0.00     0.251 C 
ATOM     45  H   UNL     1     -16.570  -2.068  10.718  1.00  0.00     0.163 HD
ATOM     46  O   UNL     1     -18.904  -2.665  10.450  1.00  0.00    -0.269 OA
BRANCH  44  47
ATOM     47  C   UNL     1     -18.216  -4.586   9.298  1.00  0.00     0.039 A 
ATOM     48  C   UNL     1     -19.328  -4.697   8.460  1.00  0.00     0.014 A 
ATOM     49  C   UNL     1     -17.391  -5.693   9.522  1.00  0.00     0.014 A 
ATOM     50  C   UNL     1     -19.600  -5.912   7.827  1.00  0.00     0.010 A 
ATOM     51  C   UNL     1     -17.621  -6.881   8.834  1.00  0.00     0.010 A 
ATOM     52  C   UNL     1     -18.742  -7.009   8.001  1.00  0.00    -0.014 A 
BRANCH  52  53
ATOM     53  C   UNL     1     -19.036  -8.318   7.366  1.00  0.00     0.031 A 
ATOM     54  C   UNL     1     -19.363  -9.508   8.227  1.00  0.00     0.074 A 
ATOM     55  C   UNL     1     -18.971  -8.446   6.028  1.00  0.00     0.049 A 
ATOM     56  N   UNL     1     -19.598 -10.748   7.876  1.00  0.00    -0.248 NA
ATOM     57  C   UNL     1     -19.403  -9.281   9.680  1.00  0.00     0.031 C 
ATOM     58  C   UNL     1     -18.625  -7.376   5.092  1.00  0.00     0.029 A 
ATOM     59  N   UNL     1     -19.188  -9.536   5.223  1.00  0.00    -0.354 N 
ATOM     60  C   UNL     1     -19.797 -11.445   9.061  1.00  0.00     0.074 A 
ATOM     61  C   UNL     1     -19.596 -10.507  10.143  1.00  0.00     0.031 C 
ATOM     62  C   UNL     1     -18.677  -7.856   3.838  1.00  0.00     0.029 A 
ATOM     63  C   UNL     1     -19.029  -9.272   3.885  1.00  0.00     0.049 A 
ATOM     64  H   UNL     1     -19.435 -10.423   5.572  1.00  0.00     0.167 HD
ATOM     65  C   UNL     1     -20.143 -12.743   9.231  1.00  0.00     0.037 A 
ATOM     66  C   UNL     1     -19.155 -10.085   2.819  1.00  0.00     0.037 A 
ATOM     67  C   UNL     1     -20.371 -13.666   8.151  1.00  0.00     0.049 A 
ATOM     68  C   UNL     1     -19.550 -11.521   3.036  1.00  0.00     0.074 A 
ATOM     69  C   UNL     1     -20.766 -14.991   8.213  1.00  0.00     0.029 A 
ATOM     70  N   UNL     1     -20.229 -13.354   6.806  1.00  0.00    -0.354 N 
ATOM     71  N   UNL     1     -19.789 -12.156   4.158  1.00  0.00    -0.248 NA
ATOM     72  C   UNL     1     -19.706 -12.351   1.833  1.00  0.00     0.031 C 
ATOM     73  C   UNL     1     -20.826 -15.492   6.908  1.00  0.00     0.029 A 
ATOM     74  C   UNL     1     -20.518 -14.465   6.030  1.00  0.00     0.049 A 
ATOM     75  H   UNL     1     -19.961 -12.474   6.456  1.00  0.00     0.167 HD
ATOM     76  C   UNL     1     -20.158 -13.445   3.797  1.00  0.00     0.074 A 
ATOM     77  C   UNL     1     -20.125 -13.497   2.350  1.00  0.00     0.031 C 
ATOM     78  C   UNL     1     -20.494 -14.492   4.590  1.00  0.00     0.037 A 
BRANCH  65  79
ATOM     79  C   UNL     1     -20.304 -13.238  10.640  1.00  0.00     0.064 A 
ATOM     80  C   UNL     1     -21.364 -12.809  11.454  1.00  0.00     0.173 A 
ATOM     81  C   UNL     1     -19.402 -14.169  11.178  1.00  0.00     0.173 A 
ATOM     82  F   UNL     1     -22.247 -11.909  10.994  1.00  0.00    -0.203 F 
ATOM     83  C   UNL     1     -21.497 -13.269  12.762  1.00  0.00     0.198 A 
ATOM     84  C   UNL     1     -19.557 -14.651  12.475  1.00  0.00     0.198 A 
ATOM     85  F   UNL     1     -18.372 -14.616  10.443  1.00  0.00    -0.203 F 
ATOM     86  F   UNL     1     -22.486 -12.803  13.537  1.00  0.00    -0.200 F 
ATOM     87  C   UNL     1     -20.598 -14.194  13.269  1.00  0.00     0.200 A 
ATOM     88  F   UNL     1     -18.694 -15.555  12.960  1.00  0.00    -0.200 F 
ATOM     89  F   UNL     1     -20.730 -14.640  14.526  1.00  0.00    -0.200 F 
ENDBRANCH  65  79
BRANCH  66  90
ATOM     90  C   UNL     1     -18.944  -9.554   1.448  1.00  0.00     0.064 A 
ATOM     91  C   UNL     1     -20.017  -9.422   0.555  1.00  0.00     0.173 A 
ATOM     92  C   UNL     1     -17.670  -9.184   0.994  1.00  0.00     0.173 A 
ATOM     93  F   UNL     1     -21.252  -9.781   0.936  1.00  0.00    -0.203 F 
ATOM     94  C   UNL     1     -19.820  -8.968  -0.747  1.00  0.00     0.198 A 
ATOM     95  C   UNL     1     -17.478  -8.701  -0.299  1.00  0.00     0.198 A 
ATOM     96  F   UNL     1     -16.611  -9.284   1.811  1.00  0.00    -0.203 F 
ATOM     97  F   UNL     1     -20.855  -8.903  -1.595  1.00  0.00    -0.200 F 
ATOM     98  C   UNL     1     -18.552  -8.604  -1.172  1.00  0.00     0.200 A 
ATOM     99  F   UNL     1     -16.253  -8.337  -0.701  1.00  0.00    -0.200 F 
ATOM    100  F   UNL     1     -18.362  -8.168  -2.424  1.00  0.00    -0.200 F 
ENDBRANCH  66  90
BRANCH  78 101
ATOM    101  C   UNL     1     -20.902 -15.765   3.906  1.00  0.00     0.064 A 
ATOM    102  C   UNL     1     -19.977 -16.568   3.224  1.00  0.00     0.173 A 
ATOM    103  C   UNL     1     -22.238 -16.195   3.953  1.00  0.00     0.173 A 
ATOM    104  F   UNL     1     -18.692 -16.193   3.139  1.00  0.00    -0.203 F 
ATOM    105  C   UNL     1     -20.380 -17.736   2.582  1.00  0.00     0.198 A 
ATOM    106  C   UNL     1     -22.631 -17.381   3.338  1.00  0.00     0.198 A 
ATOM    107  F   UNL     1     -23.161 -15.469   4.600  1.00  0.00    -0.203 F 
ATOM    108  F   UNL     1     -19.490 -18.456   1.886  1.00  0.00    -0.200 F 
ATOM    109  C   UNL     1     -21.704 -18.144   2.644  1.00  0.00     0.200 A 
ATOM    110  F   UNL     1     -23.907 -17.780   3.412  1.00  0.00    -0.200 F 
ATOM    111  F   UNL     1     -22.090 -19.269   2.027  1.00  0.00    -0.200 F 
ENDBRANCH  78 101
ENDBRANCH  52  53
ENDBRANCH  44  47
ENDBRANCH  42  43
ENDBRANCH  41  42
ENDBRANCH  40  41
ENDBRANCH  39  40
ENDBRANCH   1  39
TORSDOF 18
