REMARK SMILES C[C@H]1CC[C@H]([NH2+]Cc2c(C(=O)NCCCCCCNC(=O)c3ccc(-c4c5nc(c(-c6c(F)c(F)c(F)c(F)c6F)c6ccc([nH]6)c(-c6c(F)c(F)c(F)c(F)c6F)c6nc(c(-c7c(F)c(F)c(F)c(F)c7F)c7ccc4[nH]7)C=C6)C=C5)cc3)n(Cc3ccccc3F)c3ccccc23)CC1
REMARK SMILES IDX 15 1 14 2 13 3 12 4 10 5 11 6 9 8 8 9 99 10 85 11 94 12
REMARK SMILES IDX 98 13 95 14 97 15 96 16 7 17 6 18 5 21 1 22 2 23 3 24 101 25
REMARK SMILES IDX 4 26 100 27 86 28 87 29 88 30 92 31 89 32 91 33 93 34 90 35
REMARK SMILES IDX 16 36 17 37 18 38 19 39 20 40 21 42 22 43 23 44 84 45 24 46
REMARK SMILES IDX 83 47 25 48 26 49 27 50 77 51 28 52 82 53 76 54 78 55 29 56
REMARK SMILES IDX 81 57 75 58 74 59 30 61 62 62 42 63 61 64 43 65 46 66 60 67
REMARK SMILES IDX 79 68 44 69 45 70 59 72 80 73 47 74 31 75 32 76 40 77 33 78
REMARK SMILES IDX 34 79 38 80 41 81 35 82 36 83 39 84 37 85 63 86 64 87 72 88
REMARK SMILES IDX 65 89 66 90 70 91 73 92 67 93 68 94 71 95 69 96 48 97 49 98
REMARK SMILES IDX 57 99 50 100 51 101 55 102 58 103 52 104 53 105 56 106
REMARK SMILES IDX 54 107
REMARK H PARENT 12 7 6 19 6 20 19 41 78 60 46 71
REMARK Flexibility Score: inf
ROOT
ATOM      1  C   UNL     1      -3.647   2.928   2.152  1.00  0.00     0.002 C 
ENDROOT
BRANCH   1   2
ATOM      2  C   UNL     1      -4.511   1.665   2.315  1.00  0.00     0.021 C 
BRANCH   2   3
ATOM      3  C   UNL     1      -3.966   0.400   1.655  1.00  0.00     0.116 C 
BRANCH   3   4
ATOM      4  N   UNL     1      -2.872  -0.229   2.358  1.00  0.00    -0.351 N 
ATOM      5  C   UNL     1      -2.284  -1.462   2.219  1.00  0.00     0.268 C 
ATOM      6  O   UNL     1      -1.350  -1.651   3.018  1.00  0.00    -0.268 OA
ATOM      7  H   UNL     1      -2.475   0.329   3.066  1.00  0.00     0.163 HD
BRANCH   5   8
ATOM      8  C   UNL     1      -2.720  -2.501   1.279  1.00  0.00     0.117 A 
ATOM      9  C   UNL     1      -3.332  -2.446   0.011  1.00  0.00     0.045 A 
ATOM     10  C   UNL     1      -3.836  -3.760  -0.256  1.00  0.00     0.009 A 
ATOM     11  N   UNL     1      -2.375  -3.870   1.416  1.00  0.00    -0.331 N 
ATOM     12  C   UNL     1      -3.054  -4.637   0.476  1.00  0.00     0.049 A 
ATOM     13  C   UNL     1      -4.768  -4.277  -1.183  1.00  0.00     0.011 A 
ATOM     14  C   UNL     1      -3.035  -6.011   0.169  1.00  0.00     0.027 A 
ATOM     15  C   UNL     1      -4.867  -5.656  -1.374  1.00  0.00     0.001 A 
ATOM     16  C   UNL     1      -3.978  -6.508  -0.736  1.00  0.00     0.002 A 
BRANCH   9  17
ATOM     17  C   UNL     1      -3.514  -1.375  -1.024  1.00  0.00     0.300 C 
BRANCH  17  18
ATOM     18  N   UNL     1      -2.578  -0.270  -0.986  1.00  0.00    -0.340 N 
ATOM     19  H   UNL     1      -2.970   0.451  -1.592  1.00  0.00     0.346 HD
ATOM     20  H   UNL     1      -2.499  -0.106   0.018  1.00  0.00     0.346 HD
BRANCH  18  21
ATOM     21  C   UNL     1      -1.172  -0.399  -1.372  1.00  0.00     0.182 C 
ATOM     22  C   UNL     1       3.136  -0.061  -0.392  1.00  0.00     0.007 C 
ATOM     23  C   UNL     1       1.618  -0.166  -0.341  1.00  0.00    -0.014 C 
ATOM     24  C   UNL     1       1.117  -1.464  -0.979  1.00  0.00     0.009 C 
ATOM     25  C   UNL     1       0.957   1.022  -1.040  1.00  0.00     0.009 C 
ATOM     26  C   UNL     1      -0.394  -1.586  -0.794  1.00  0.00     0.065 C 
ATOM     27  C   UNL     1      -0.558   0.945  -0.914  1.00  0.00     0.065 C 
ENDBRANCH  18  21
ENDBRANCH  17  18
ENDBRANCH   9  17
BRANCH  11  28
ATOM     28  C   UNL     1      -1.317  -4.436   2.272  1.00  0.00     0.161 C 
BRANCH  28  29
ATOM     29  C   UNL     1      -1.787  -5.102   3.546  1.00  0.00     0.008 A 
ATOM     30  C   UNL     1      -2.600  -6.248   3.547  1.00  0.00     0.008 A 
ATOM     31  C   UNL     1      -1.314  -4.661   4.786  1.00  0.00     0.128 A 
ATOM     32  C   UNL     1      -2.933  -6.913   4.732  1.00  0.00     0.001 A 
ATOM     33  C   UNL     1      -1.655  -5.306   5.976  1.00  0.00     0.039 A 
ATOM     34  F   UNL     1      -0.469  -3.624   4.856  1.00  0.00    -0.207 F 
ATOM     35  C   UNL     1      -2.466  -6.437   5.950  1.00  0.00     0.003 A 
ENDBRANCH  28  29
ENDBRANCH  11  28
ENDBRANCH   5   8
ENDBRANCH   3   4
ENDBRANCH   2   3
ENDBRANCH   1   2
BRANCH   1  36
ATOM     36  C   UNL     1      -3.302   3.397   0.729  1.00  0.00     0.002 C 
BRANCH  36  37
ATOM     37  C   UNL     1      -4.440   3.533  -0.291  1.00  0.00     0.021 C 
BRANCH  37  38
ATOM     38  C   UNL     1      -5.644   4.373   0.138  1.00  0.00     0.116 C 
BRANCH  38  39
ATOM     39  N   UNL     1      -5.290   5.636   0.751  1.00  0.00    -0.352 N 
ATOM     40  C   UNL     1      -5.097   6.918   0.325  1.00  0.00     0.251 C 
ATOM     41  H   UNL     1      -5.155   5.547   1.722  1.00  0.00     0.163 HD
ATOM     42  O   UNL     1      -4.885   7.749   1.214  1.00  0.00    -0.269 OA
BRANCH  40  43
ATOM     43  C   UNL     1      -5.110   7.385  -1.091  1.00  0.00     0.039 A 
ATOM     44  C   UNL     1      -5.194   6.573  -2.221  1.00  0.00     0.014 A 
ATOM     45  C   UNL     1      -4.979   8.775  -1.284  1.00  0.00     0.014 A 
ATOM     46  C   UNL     1      -5.122   7.130  -3.502  1.00  0.00     0.010 A 
ATOM     47  C   UNL     1      -4.912   9.336  -2.560  1.00  0.00     0.010 A 
ATOM     48  C   UNL     1      -4.958   8.509  -3.679  1.00  0.00    -0.014 A 
BRANCH  48  49
ATOM     49  C   UNL     1      -4.866   9.024  -5.050  1.00  0.00     0.031 A 
ATOM     50  C   UNL     1      -6.052   8.848  -5.941  1.00  0.00     0.074 A 
ATOM     51  C   UNL     1      -3.833   9.751  -5.525  1.00  0.00     0.049 A 
ATOM     52  N   UNL     1      -6.111   8.273  -7.103  1.00  0.00    -0.248 NA
ATOM     53  C   UNL     1      -7.333   9.404  -5.485  1.00  0.00     0.031 C 
ATOM     54  C   UNL     1      -2.720  10.341  -4.781  1.00  0.00     0.029 A 
ATOM     55  N   UNL     1      -3.623  10.184  -6.806  1.00  0.00    -0.354 N 
ATOM     56  C   UNL     1      -7.395   8.511  -7.594  1.00  0.00     0.074 A 
ATOM     57  C   UNL     1      -8.123   9.159  -6.532  1.00  0.00     0.031 C 
ATOM     58  C   UNL     1      -2.063  11.209  -5.583  1.00  0.00     0.029 A 
ATOM     59  C   UNL     1      -2.620  11.129  -6.924  1.00  0.00     0.049 A 
ATOM     60  H   UNL     1      -4.140   9.853  -7.576  1.00  0.00     0.167 HD
ATOM     61  C   UNL     1      -7.739   8.287  -8.893  1.00  0.00     0.037 A 
ATOM     62  C   UNL     1      -2.293  11.835  -8.031  1.00  0.00     0.037 A 
ATOM     63  C   UNL     1      -6.832   7.389  -9.552  1.00  0.00     0.049 A 
ATOM     64  C   UNL     1      -2.804  11.113  -9.219  1.00  0.00     0.074 A 
ATOM     65  C   UNL     1      -6.436   6.080  -9.359  1.00  0.00     0.029 A 
ATOM     66  N   UNL     1      -5.973   7.892 -10.493  1.00  0.00    -0.354 N 
ATOM     67  N   UNL     1      -2.326   9.988  -9.671  1.00  0.00    -0.248 NA
ATOM     68  C   UNL     1      -4.076  11.527  -9.792  1.00  0.00     0.031 C 
ATOM     69  C   UNL     1      -5.093   6.016  -9.836  1.00  0.00     0.029 A 
ATOM     70  C   UNL     1      -4.758   7.297 -10.275  1.00  0.00     0.049 A 
ATOM     71  H   UNL     1      -6.187   8.553 -11.191  1.00  0.00     0.167 HD
ATOM     72  C   UNL     1      -3.405   9.367 -10.276  1.00  0.00     0.074 A 
ATOM     73  C   UNL     1      -4.397  10.416 -10.456  1.00  0.00     0.031 C 
ATOM     74  C   UNL     1      -3.502   8.007 -10.312  1.00  0.00     0.037 A 
BRANCH  61  75
ATOM     75  C   UNL     1      -8.772   9.077  -9.661  1.00  0.00     0.064 A 
ATOM     76  C   UNL     1      -9.228   8.612 -10.912  1.00  0.00     0.173 A 
ATOM     77  C   UNL     1      -9.115  10.408  -9.346  1.00  0.00     0.173 A 
ATOM     78  F   UNL     1      -8.928   7.374 -11.333  1.00  0.00    -0.203 F 
ATOM     79  C   UNL     1      -9.931   9.434 -11.799  1.00  0.00     0.198 A 
ATOM     80  C   UNL     1      -9.862  11.210 -10.211  1.00  0.00     0.198 A 
ATOM     81  F   UNL     1      -8.653  11.010  -8.242  1.00  0.00    -0.203 F 
ATOM     82  F   UNL     1     -10.245   8.981 -13.021  1.00  0.00    -0.200 F 
ATOM     83  C   UNL     1     -10.247  10.732 -11.448  1.00  0.00     0.200 A 
ATOM     84  F   UNL     1     -10.142  12.474  -9.864  1.00  0.00    -0.200 F 
ATOM     85  F   UNL     1     -10.877  11.537 -12.314  1.00  0.00    -0.200 F 
ENDBRANCH  61  75
BRANCH  62  86
ATOM     86  C   UNL     1      -1.741  13.205  -8.120  1.00  0.00     0.064 A 
ATOM     87  C   UNL     1      -1.115  13.663  -9.290  1.00  0.00     0.173 A 
ATOM     88  C   UNL     1      -2.049  14.179  -7.150  1.00  0.00     0.173 A 
ATOM     89  F   UNL     1      -0.832  12.809 -10.285  1.00  0.00    -0.203 F 
ATOM     90  C   UNL     1      -0.833  15.018  -9.487  1.00  0.00     0.198 A 
ATOM     91  C   UNL     1      -1.754  15.528  -7.342  1.00  0.00     0.198 A 
ATOM     92  F   UNL     1      -2.725  13.854  -6.039  1.00  0.00    -0.203 F 
ATOM     93  F   UNL     1      -0.294  15.427 -10.644  1.00  0.00    -0.200 F 
ATOM     94  C   UNL     1      -1.159  15.950  -8.516  1.00  0.00     0.200 A 
ATOM     95  F   UNL     1      -2.106  16.424  -6.408  1.00  0.00    -0.200 F 
ATOM     96  F   UNL     1      -0.939  17.255  -8.727  1.00  0.00    -0.200 F 
ENDBRANCH  62  86
BRANCH  74  97
ATOM     97  C   UNL     1      -2.263   7.210 -10.038  1.00  0.00     0.064 A 
ATOM     98  C   UNL     1      -1.603   7.209  -8.798  1.00  0.00     0.173 A 
ATOM     99  C   UNL     1      -1.810   6.314 -11.016  1.00  0.00     0.173 A 
ATOM    100  F   UNL     1      -2.048   7.959  -7.781  1.00  0.00    -0.203 F 
ATOM    101  C   UNL     1      -0.504   6.384  -8.569  1.00  0.00     0.198 A 
ATOM    102  C   UNL     1      -0.734   5.465 -10.771  1.00  0.00     0.198 A 
ATOM    103  F   UNL     1      -2.446   6.227 -12.195  1.00  0.00    -0.203 F 
ATOM    104  F   UNL     1       0.118   6.408  -7.381  1.00  0.00    -0.200 F 
ATOM    105  C   UNL     1      -0.075   5.509  -9.553  1.00  0.00     0.200 A 
ATOM    106  F   UNL     1      -0.355   4.582 -11.706  1.00  0.00    -0.200 F 
ATOM    107  F   UNL     1       0.956   4.684  -9.317  1.00  0.00    -0.200 F 
ENDBRANCH  74  97
ENDBRANCH  48  49
ENDBRANCH  40  43
ENDBRANCH  38  39
ENDBRANCH  37  38
ENDBRANCH  36  37
ENDBRANCH   1  36
TORSDOF 18
