REMARK SMILES O=C(COc1ccccc1[C@@H]1[NH2+]CCc2cc(O)c(O)cc21)NCCCCCCNC(=O)c1ccc(-c2c3nc(c(-c4c(F)c(F)c(F)c(F)c4F)c4ccc([nH]4)c(-c4c(F)c(F)c(F)c(F)c4F)c4nc(c(-c5c(F)c(F)c(F)c(F)c5F)c5ccc2[nH]5)C=C4)C=C3)cc1
REMARK SMILES IDX 25 1 24 2 23 3 1 4 2 5 3 7 4 8 5 9 6 10 10 11 7 12 9 13 8 14
REMARK SMILES IDX 11 15 12 16 22 17 13 18 15 21 21 22 14 23 16 24 19 25 17 26
REMARK SMILES IDX 20 27 18 29 26 31 27 32 28 33 29 34 30 35 31 36 32 38 33 39
REMARK SMILES IDX 34 40 95 41 35 42 94 43 36 44 37 45 38 46 88 47 39 48 93 49
REMARK SMILES IDX 87 50 89 51 40 52 92 53 86 54 85 55 41 57 73 58 53 59 72 60
REMARK SMILES IDX 54 61 57 62 71 63 90 64 55 65 56 66 70 68 91 69 58 70 42 71
REMARK SMILES IDX 43 72 51 73 44 74 45 75 49 76 52 77 46 78 47 79 50 80 48 81
REMARK SMILES IDX 74 82 75 83 83 84 76 85 77 86 81 87 84 88 78 89 79 90 82 91
REMARK SMILES IDX 80 92 59 93 60 94 68 95 61 96 62 97 66 98 69 99 63 100
REMARK SMILES IDX 64 101 67 102 65 103
REMARK H PARENT 23 6 12 19 12 20 20 28 18 30 30 37 89 56 57 67
REMARK Flexibility Score: inf
ROOT
ATOM      1  C   UNL     1       2.975  -2.857  -2.273  1.00  0.00     0.021 C 
ENDROOT
BRANCH   1   2
ATOM      2  C   UNL     1       2.447  -2.329  -0.948  1.00  0.00     0.116 C 
BRANCH   2   3
ATOM      3  N   UNL     1       3.228  -1.238  -0.411  1.00  0.00    -0.353 N 
ATOM      4  O   UNL     1       2.541   0.301  -1.963  1.00  0.00    -0.271 OA
ATOM      5  C   UNL     1       3.118   0.044  -0.908  1.00  0.00     0.257 C 
ATOM      6  H   UNL     1       3.855  -1.415   0.327  1.00  0.00     0.163 HD
BRANCH   5   7
ATOM      7  C   UNL     1       3.772   1.120  -0.035  1.00  0.00     0.329 C 
BRANCH   7   8
ATOM      8  O   UNL     1       4.150   0.814   1.290  1.00  0.00    -0.483 OA
BRANCH   8   9
ATOM      9  C   UNL     1       3.340   0.610   2.370  1.00  0.00     0.129 A 
ATOM     10  C   UNL     1       4.125   0.725   3.539  1.00  0.00     0.047 A 
ATOM     11  C   UNL     1       1.986   0.218   2.491  1.00  0.00     0.056 A 
ATOM     12  C   UNL     1       3.653   0.356   4.794  1.00  0.00     0.004 A 
ATOM     13  C   UNL     1       1.569  -0.247   3.767  1.00  0.00     0.014 A 
ATOM     14  C   UNL     1       2.385  -0.183   4.899  1.00  0.00     0.001 A 
BRANCH  11  15
ATOM     15  C   UNL     1       0.948   0.220   1.368  1.00  0.00     0.249 C 
ATOM     16  N   UNL     1       0.995   1.446   0.557  1.00  0.00    -0.336 N 
ATOM     17  C   UNL     1      -0.533  -0.008   1.696  1.00  0.00     0.021 A 
ATOM     18  C   UNL     1       0.494   2.636   1.261  1.00  0.00     0.266 C 
ATOM     19  H   UNL     1       0.427   1.302  -0.278  1.00  0.00     0.347 HD
ATOM     20  H   UNL     1       1.975   1.620   0.334  1.00  0.00     0.347 HD
ATOM     21  C   UNL     1      -1.283   1.113   2.126  1.00  0.00    -0.029 A 
ATOM     22  C   UNL     1      -1.186  -1.213   1.393  1.00  0.00     0.060 A 
ATOM     23  C   UNL     1      -0.521   2.384   2.388  1.00  0.00     0.097 C 
ATOM     24  C   UNL     1      -2.672   1.041   2.218  1.00  0.00     0.054 A 
ATOM     25  C   UNL     1      -2.574  -1.259   1.461  1.00  0.00     0.157 A 
ATOM     26  C   UNL     1      -3.305  -0.137   1.853  1.00  0.00     0.157 A 
BRANCH  25  27
ATOM     27  O   UNL     1      -3.279  -2.376   1.101  1.00  0.00    -0.504 OA
ATOM     28  H   UNL     1      -4.214  -2.378   1.157  1.00  0.00     0.293 HD
ENDBRANCH  25  27
BRANCH  26  29
ATOM     29  O   UNL     1      -4.671  -0.176   1.835  1.00  0.00    -0.504 OA
ATOM     30  H   UNL     1      -5.164   0.576   2.098  1.00  0.00     0.293 HD
ENDBRANCH  26  29
ENDBRANCH  11  15
ENDBRANCH   8   9
ENDBRANCH   7   8
ENDBRANCH   5   7
ENDBRANCH   2   3
ENDBRANCH   1   2
BRANCH   1  31
ATOM     31  C   UNL     1       4.450  -3.255  -2.226  1.00  0.00     0.002 C 
BRANCH  31  32
ATOM     32  C   UNL     1       4.797  -4.289  -1.151  1.00  0.00     0.002 C 
BRANCH  32  33
ATOM     33  C   UNL     1       4.026  -5.605  -1.254  1.00  0.00     0.021 C 
BRANCH  33  34
ATOM     34  C   UNL     1       4.119  -6.288  -2.613  1.00  0.00     0.116 C 
BRANCH  34  35
ATOM     35  N   UNL     1       5.491  -6.593  -2.983  1.00  0.00    -0.352 N 
ATOM     36  C   UNL     1       6.022  -7.770  -3.447  1.00  0.00     0.251 C 
ATOM     37  H   UNL     1       6.130  -5.851  -2.887  1.00  0.00     0.163 HD
ATOM     38  O   UNL     1       7.234  -7.912  -3.547  1.00  0.00    -0.269 OA
BRANCH  36  39
ATOM     39  C   UNL     1       5.116  -8.880  -3.805  1.00  0.00     0.039 A 
ATOM     40  C   UNL     1       5.415 -10.167  -3.354  1.00  0.00     0.014 A 
ATOM     41  C   UNL     1       3.973  -8.647  -4.575  1.00  0.00     0.014 A 
ATOM     42  C   UNL     1       4.534 -11.214  -3.629  1.00  0.00     0.010 A 
ATOM     43  C   UNL     1       3.059  -9.675  -4.782  1.00  0.00     0.010 A 
ATOM     44  C   UNL     1       3.334 -10.970  -4.317  1.00  0.00    -0.014 A 
BRANCH  44  45
ATOM     45  C   UNL     1       2.358 -12.059  -4.573  1.00  0.00     0.031 A 
ATOM     46  C   UNL     1       2.048 -12.472  -5.984  1.00  0.00     0.074 A 
ATOM     47  C   UNL     1       1.708 -12.628  -3.540  1.00  0.00     0.049 A 
ATOM     48  N   UNL     1       1.171 -13.341  -6.419  1.00  0.00    -0.248 NA
ATOM     49  C   UNL     1       2.803 -11.797  -7.052  1.00  0.00     0.031 C 
ATOM     50  C   UNL     1       1.893 -12.283  -2.130  1.00  0.00     0.029 A 
ATOM     51  N   UNL     1       0.749 -13.610  -3.518  1.00  0.00    -0.354 N 
ATOM     52  C   UNL     1       1.261 -13.306  -7.804  1.00  0.00     0.074 A 
ATOM     53  C   UNL     1       2.235 -12.291  -8.141  1.00  0.00     0.031 C 
ATOM     54  C   UNL     1       1.090 -13.055  -1.379  1.00  0.00     0.029 A 
ATOM     55  C   UNL     1       0.304 -13.918  -2.256  1.00  0.00     0.049 A 
ATOM     56  H   UNL     1       0.412 -14.053  -4.331  1.00  0.00     0.167 HD
ATOM     57  C   UNL     1       0.608 -14.070  -8.712  1.00  0.00     0.037 A 
ATOM     58  C   UNL     1      -0.640 -14.790  -1.853  1.00  0.00     0.037 A 
ATOM     59  C   UNL     1      -0.342 -15.095  -8.370  1.00  0.00     0.049 A 
ATOM     60  C   UNL     1      -1.362 -15.616  -2.885  1.00  0.00     0.074 A 
ATOM     61  C   UNL     1      -1.016 -15.962  -9.212  1.00  0.00     0.029 A 
ATOM     62  N   UNL     1      -0.754 -15.390  -7.079  1.00  0.00    -0.354 N 
ATOM     63  N   UNL     1      -1.220 -15.622  -4.188  1.00  0.00    -0.248 NA
ATOM     64  C   UNL     1      -2.371 -16.562  -2.388  1.00  0.00     0.031 C 
ATOM     65  C   UNL     1      -1.876 -16.745  -8.436  1.00  0.00     0.029 A 
ATOM     66  C   UNL     1      -1.692 -16.410  -7.104  1.00  0.00     0.049 A 
ATOM     67  H   UNL     1      -0.429 -14.942  -6.265  1.00  0.00     0.167 HD
ATOM     68  C   UNL     1      -2.092 -16.593  -4.663  1.00  0.00     0.074 A 
ATOM     69  C   UNL     1      -2.750 -17.163  -3.506  1.00  0.00     0.031 C 
ATOM     70  C   UNL     1      -2.326 -16.978  -5.941  1.00  0.00     0.037 A 
BRANCH  57  71
ATOM     71  C   UNL     1       0.899 -13.827 -10.165  1.00  0.00     0.064 A 
ATOM     72  C   UNL     1       2.140 -14.155 -10.733  1.00  0.00     0.173 A 
ATOM     73  C   UNL     1      -0.089 -13.301 -11.011  1.00  0.00     0.173 A 
ATOM     74  F   UNL     1       3.123 -14.651  -9.967  1.00  0.00    -0.203 F 
ATOM     75  C   UNL     1       2.390 -13.938 -12.086  1.00  0.00     0.198 A 
ATOM     76  C   UNL     1       0.153 -13.116 -12.370  1.00  0.00     0.198 A 
ATOM     77  F   UNL     1      -1.295 -12.975 -10.522  1.00  0.00    -0.203 F 
ATOM     78  F   UNL     1       3.599 -14.213 -12.595  1.00  0.00    -0.200 F 
ATOM     79  C   UNL     1       1.394 -13.428 -12.905  1.00  0.00     0.200 A 
ATOM     80  F   UNL     1      -0.816 -12.637 -13.162  1.00  0.00    -0.200 F 
ATOM     81  F   UNL     1       1.632 -13.230 -14.208  1.00  0.00    -0.200 F 
ENDBRANCH  57  71
BRANCH  58  82
ATOM     82  C   UNL     1      -0.948 -14.942  -0.406  1.00  0.00     0.064 A 
ATOM     83  C   UNL     1      -0.638 -16.128   0.276  1.00  0.00     0.173 A 
ATOM     84  C   UNL     1      -1.571 -13.917   0.320  1.00  0.00     0.173 A 
ATOM     85  F   UNL     1      -0.059 -17.145  -0.379  1.00  0.00    -0.203 F 
ATOM     86  C   UNL     1      -0.967 -16.293   1.620  1.00  0.00     0.198 A 
ATOM     87  C   UNL     1      -1.870 -14.071   1.672  1.00  0.00     0.198 A 
ATOM     88  F   UNL     1      -1.883 -12.760  -0.282  1.00  0.00    -0.203 F 
ATOM     89  F   UNL     1      -0.710 -17.457   2.231  1.00  0.00    -0.200 F 
ATOM     90  C   UNL     1      -1.578 -15.263   2.318  1.00  0.00     0.200 A 
ATOM     91  F   UNL     1      -2.446 -13.067   2.348  1.00  0.00    -0.200 F 
ATOM     92  F   UNL     1      -1.893 -15.421   3.611  1.00  0.00    -0.200 F 
ENDBRANCH  58  82
BRANCH  70  93
ATOM     93  C   UNL     1      -3.299 -18.101  -6.158  1.00  0.00     0.064 A 
ATOM     94  C   UNL     1      -4.677 -17.936  -5.957  1.00  0.00     0.173 A 
ATOM     95  C   UNL     1      -2.847 -19.348  -6.617  1.00  0.00     0.173 A 
ATOM     96  F   UNL     1      -5.159 -16.769  -5.504  1.00  0.00    -0.203 F 
ATOM     97  C   UNL     1      -5.563 -18.986  -6.182  1.00  0.00     0.198 A 
ATOM     98  C   UNL     1      -3.739 -20.385  -6.874  1.00  0.00     0.198 A 
ATOM     99  F   UNL     1      -1.539 -19.556  -6.833  1.00  0.00    -0.203 F 
ATOM    100  F   UNL     1      -6.870 -18.822  -5.935  1.00  0.00    -0.200 F 
ATOM    101  C   UNL     1      -5.095 -20.206  -6.648  1.00  0.00     0.200 A 
ATOM    102  F   UNL     1      -3.286 -21.557  -7.340  1.00  0.00    -0.200 F 
ATOM    103  F   UNL     1      -5.951 -21.212  -6.875  1.00  0.00    -0.200 F 
ENDBRANCH  70  93
ENDBRANCH  44  45
ENDBRANCH  36  39
ENDBRANCH  34  35
ENDBRANCH  33  34
ENDBRANCH  32  33
ENDBRANCH  31  32
ENDBRANCH   1  31
TORSDOF 18
