REMARK SMILES O=C(NCCCCCCNC(=O)[C@H]1CC=CC[C@H]1C(=O)N[C@@H]1CCN(c2cccc(Cl)c2)C1)c1ccc(-c2c3nc(c(-c4c(F)c(F)c(F)c(F)c4F)c4ccc([nH]4)c(-c4c(F)c(F)c(F)c(F)c4F)c4nc(c(-c5c(F)c(F)c(F)c(F)c5F)c5ccc2[nH]5)C=C4)C=C3)cc1
REMARK SMILES IDX 7 1 6 2 5 3 4 4 3 5 1 6 2 7 34 9 35 10 96 11 36 12 95 13
REMARK SMILES IDX 37 14 38 15 39 16 89 17 40 18 94 19 88 20 90 21 41 22 93 23
REMARK SMILES IDX 87 24 86 25 42 27 74 28 54 29 73 30 55 31 58 32 72 33 91 34
REMARK SMILES IDX 56 35 57 36 71 38 92 39 59 40 43 41 44 42 52 43 45 44 46 45
REMARK SMILES IDX 50 46 53 47 47 48 48 49 51 50 49 51 75 52 76 53 84 54 77 55
REMARK SMILES IDX 78 56 82 57 85 58 79 59 80 60 83 61 81 62 60 63 61 64 69 65
REMARK SMILES IDX 62 66 63 67 67 68 70 69 64 70 65 71 68 72 66 73 8 74 9 75
REMARK SMILES IDX 10 76 11 77 12 79 13 80 14 81 18 82 15 83 17 84 16 85 19 86
REMARK SMILES IDX 20 87 21 88 22 90 23 91 33 92 24 93 25 94 26 95 27 96 32 97
REMARK SMILES IDX 28 98 30 99 29 100 31 101
REMARK H PARENT 3 8 90 26 58 37 10 78 21 89
REMARK Flexibility Score: inf
ROOT
ATOM      1  C   UNL     1       4.710  -3.756   1.414  1.00  0.00     0.002 C 
ENDROOT
BRANCH   1   2
ATOM      2  C   UNL     1       4.418  -2.596   2.385  1.00  0.00     0.002 C 
BRANCH   2   3
ATOM      3  C   UNL     1       4.879  -1.212   1.945  1.00  0.00     0.021 C 
BRANCH   3   4
ATOM      4  C   UNL     1       4.442  -0.824   0.544  1.00  0.00     0.116 C 
BRANCH   4   5
ATOM      5  N   UNL     1       2.999  -0.913   0.350  1.00  0.00    -0.352 N 
ATOM      6  O   UNL     1       0.941  -0.165  -0.232  1.00  0.00    -0.269 OA
ATOM      7  C   UNL     1       2.160  -0.008  -0.245  1.00  0.00     0.251 C 
ATOM      8  H   UNL     1       2.572  -1.731   0.693  1.00  0.00     0.163 HD
BRANCH   7   9
ATOM      9  C   UNL     1       2.750   1.183  -0.876  1.00  0.00     0.039 A 
ATOM     10  C   UNL     1       3.847   1.040  -1.730  1.00  0.00     0.014 A 
ATOM     11  C   UNL     1       2.257   2.446  -0.545  1.00  0.00     0.014 A 
ATOM     12  C   UNL     1       4.554   2.164  -2.123  1.00  0.00     0.010 A 
ATOM     13  C   UNL     1       2.908   3.577  -1.032  1.00  0.00     0.010 A 
ATOM     14  C   UNL     1       4.078   3.442  -1.798  1.00  0.00    -0.014 A 
BRANCH  14  15
ATOM     15  C   UNL     1       4.774   4.636  -2.327  1.00  0.00     0.031 A 
ATOM     16  C   UNL     1       5.391   5.642  -1.404  1.00  0.00     0.074 A 
ATOM     17  C   UNL     1       4.820   4.805  -3.662  1.00  0.00     0.049 A 
ATOM     18  N   UNL     1       5.942   6.795  -1.689  1.00  0.00    -0.248 NA
ATOM     19  C   UNL     1       5.378   5.320   0.031  1.00  0.00     0.031 C 
ATOM     20  C   UNL     1       4.257   3.878  -4.646  1.00  0.00     0.029 A 
ATOM     21  N   UNL     1       5.354   5.812  -4.420  1.00  0.00    -0.354 N 
ATOM     22  C   UNL     1       6.311   7.350  -0.471  1.00  0.00     0.074 A 
ATOM     23  C   UNL     1       5.904   6.417   0.558  1.00  0.00     0.031 C 
ATOM     24  C   UNL     1       4.494   4.346  -5.878  1.00  0.00     0.029 A 
ATOM     25  C   UNL     1       5.147   5.644  -5.766  1.00  0.00     0.049 A 
ATOM     26  H   UNL     1       5.838   6.580  -4.039  1.00  0.00     0.167 HD
ATOM     27  C   UNL     1       6.933   8.533  -0.244  1.00  0.00     0.037 A 
ATOM     28  C   UNL     1       5.410   6.465  -6.797  1.00  0.00     0.037 A 
ATOM     29  C   UNL     1       7.333   9.442  -1.289  1.00  0.00     0.049 A 
ATOM     30  C   UNL     1       6.056   7.788  -6.516  1.00  0.00     0.074 A 
ATOM     31  C   UNL     1       7.994  10.652  -1.175  1.00  0.00     0.029 A 
ATOM     32  N   UNL     1       7.097   9.242  -2.644  1.00  0.00    -0.354 N 
ATOM     33  N   UNL     1       6.416   8.301  -5.364  1.00  0.00    -0.248 NA
ATOM     34  C   UNL     1       6.329   8.647  -7.673  1.00  0.00     0.031 C 
ATOM     35  C   UNL     1       8.104  11.211  -2.453  1.00  0.00     0.029 A 
ATOM     36  C   UNL     1       7.575  10.319  -3.373  1.00  0.00     0.049 A 
ATOM     37  H   UNL     1       6.654   8.451  -3.029  1.00  0.00     0.167 HD
ATOM     38  C   UNL     1       6.986   9.530  -5.657  1.00  0.00     0.074 A 
ATOM     39  C   UNL     1       6.927   9.682  -7.098  1.00  0.00     0.031 C 
ATOM     40  C   UNL     1       7.515  10.446  -4.809  1.00  0.00     0.037 A 
BRANCH  27  41
ATOM     41  C   UNL     1       7.177   8.928   1.186  1.00  0.00     0.064 A 
ATOM     42  C   UNL     1       8.092   8.246   2.003  1.00  0.00     0.173 A 
ATOM     43  C   UNL     1       6.493  10.020   1.744  1.00  0.00     0.173 A 
ATOM     44  F   UNL     1       8.767   7.190   1.525  1.00  0.00    -0.203 F 
ATOM     45  C   UNL     1       8.282   8.615   3.333  1.00  0.00     0.198 A 
ATOM     46  C   UNL     1       6.712  10.409   3.064  1.00  0.00     0.198 A 
ATOM     47  F   UNL     1       5.613  10.716   1.009  1.00  0.00    -0.203 F 
ATOM     48  F   UNL     1       9.115   7.909   4.110  1.00  0.00    -0.200 F 
ATOM     49  C   UNL     1       7.596   9.699   3.861  1.00  0.00     0.200 A 
ATOM     50  F   UNL     1       6.059  11.466   3.567  1.00  0.00    -0.200 F 
ATOM     51  F   UNL     1       7.781  10.053   5.140  1.00  0.00    -0.200 F 
ENDBRANCH  27  41
BRANCH  28  52
ATOM     52  C   UNL     1       5.041   6.044  -8.171  1.00  0.00     0.064 A 
ATOM     53  C   UNL     1       6.024   5.707  -9.109  1.00  0.00     0.173 A 
ATOM     54  C   UNL     1       3.697   5.912  -8.555  1.00  0.00     0.173 A 
ATOM     55  F   UNL     1       7.322   5.826  -8.791  1.00  0.00    -0.203 F 
ATOM     56  C   UNL     1       5.678   5.261 -10.383  1.00  0.00     0.198 A 
ATOM     57  C   UNL     1       3.353   5.436  -9.817  1.00  0.00     0.198 A 
ATOM     58  F   UNL     1       2.718   6.208  -7.687  1.00  0.00    -0.203 F 
ATOM     59  F   UNL     1       6.638   4.971 -11.271  1.00  0.00    -0.200 F 
ATOM     60  C   UNL     1       4.344   5.116 -10.732  1.00  0.00     0.200 A 
ATOM     61  F   UNL     1       2.063   5.274 -10.141  1.00  0.00    -0.200 F 
ATOM     62  F   UNL     1       4.013   4.668 -11.951  1.00  0.00    -0.200 F 
ENDBRANCH  28  52
BRANCH  40  63
ATOM     63  C   UNL     1       8.126  11.672  -5.421  1.00  0.00     0.064 A 
ATOM     64  C   UNL     1       7.343  12.685  -5.993  1.00  0.00     0.173 A 
ATOM     65  C   UNL     1       9.517  11.856  -5.386  1.00  0.00     0.173 A 
ATOM     66  F   UNL     1       6.010  12.547  -6.068  1.00  0.00    -0.203 F 
ATOM     67  C   UNL     1       7.932  13.829  -6.523  1.00  0.00     0.198 A 
ATOM     68  C   UNL     1      10.100  13.016  -5.886  1.00  0.00     0.198 A 
ATOM     69  F   UNL     1      10.310  10.917  -4.846  1.00  0.00    -0.203 F 
ATOM     70  F   UNL     1       7.169  14.765  -7.104  1.00  0.00    -0.200 F 
ATOM     71  C   UNL     1       9.308  13.998  -6.460  1.00  0.00     0.200 A 
ATOM     72  F   UNL     1      11.427  13.183  -5.811  1.00  0.00    -0.200 F 
ATOM     73  F   UNL     1       9.871  15.108  -6.957  1.00  0.00    -0.200 F 
ENDBRANCH  40  63
ENDBRANCH  14  15
ENDBRANCH   7   9
ENDBRANCH   4   5
ENDBRANCH   3   4
ENDBRANCH   2   3
ENDBRANCH   1   2
BRANCH   1  74
ATOM     74  C   UNL     1       6.176  -4.033   1.010  1.00  0.00     0.021 C 
BRANCH  74  75
ATOM     75  C   UNL     1       7.179  -4.171   2.160  1.00  0.00     0.116 C 
BRANCH  75  76
ATOM     76  N   UNL     1       7.680  -5.549   2.445  1.00  0.00    -0.356 N 
ATOM     77  C   UNL     1       8.348  -6.178   3.493  1.00  0.00     0.224 C 
ATOM     78  H   UNL     1       7.490  -6.170   1.705  1.00  0.00     0.163 HD
ATOM     79  O   UNL     1       8.089  -7.353   3.775  1.00  0.00    -0.275 OA
BRANCH  77  80
ATOM     80  C   UNL     1       9.553  -5.643   4.258  1.00  0.00     0.095 C 
ATOM     81  C   UNL     1      10.755  -6.474   3.780  1.00  0.00     0.041 C 
ATOM     82  C   UNL     1       9.702  -4.156   4.101  1.00  0.00     0.095 C 
ATOM     83  C   UNL     1      10.882  -6.303   2.303  1.00  0.00    -0.030 C 
ATOM     84  C   UNL     1      10.330  -3.875   2.667  1.00  0.00     0.041 C 
ATOM     85  C   UNL     1      10.625  -5.095   1.777  1.00  0.00    -0.030 C 
BRANCH  82  86
ATOM     86  C   UNL     1       8.314  -3.533   4.596  1.00  0.00     0.224 C 
ATOM     87  O   UNL     1       7.996  -2.373   4.346  1.00  0.00    -0.275 OA
ATOM     88  N   UNL     1       7.495  -4.389   5.381  1.00  0.00    -0.351 N 
ATOM     89  H   UNL     1       7.986  -4.914   6.054  1.00  0.00     0.163 HD
BRANCH  88  90
ATOM     90  C   UNL     1       5.984  -4.640   5.365  1.00  0.00     0.103 C 
ATOM     91  C   UNL     1       5.531  -5.406   6.622  1.00  0.00     0.048 C 
ATOM     92  C   UNL     1       5.242  -5.575   4.296  1.00  0.00     0.141 C 
ATOM     93  C   UNL     1       5.522  -6.908   6.243  1.00  0.00     0.119 C 
ATOM     94  N   UNL     1       5.144  -6.937   4.835  1.00  0.00    -0.369 N 
BRANCH  94  95
ATOM     95  C   UNL     1       5.052  -8.127   4.126  1.00  0.00     0.038 A 
ATOM     96  C   UNL     1       4.230  -9.178   4.542  1.00  0.00     0.026 A 
ATOM     97  C   UNL     1       5.792  -8.425   2.973  1.00  0.00     0.046 A 
ATOM     98  C   UNL     1       4.218 -10.439   3.896  1.00  0.00     0.004 A 
ATOM     99  C   UNL     1       5.891  -9.698   2.393  1.00  0.00     0.043 A 
ATOM    100  C   UNL     1       5.087 -10.718   2.846  1.00  0.00     0.020 A 
ATOM    101  Cl  UNL     1       7.050  -9.993   1.146  1.00  0.00    -0.084 Cl
ENDBRANCH  94  95
ENDBRANCH  88  90
ENDBRANCH  82  86
ENDBRANCH  77  80
ENDBRANCH  75  76
ENDBRANCH  74  75
ENDBRANCH   1  74
TORSDOF 16
