REMARK SMILES CC[N@H+](CC(C)(C)C(=O)NCCCCCCNC(=O)c1ccc(-c2c3nc(c(-c4c(F)c(F)c(F)c(F)c4F)c4ccc([nH]4)c(-c4c(F)c(F)c(F)c(F)c4F)c4nc(c(-c5c(F)c(F)c(F)c(F)c5F)c5ccc2[nH]5)C=C4)C=C3)cc1)[C@H]1CC[NH2+]C1
REMARK SMILES IDX 13 1 12 2 11 3 10 4 8 5 9 6 5 8 6 9 7 10 4 11 3 12 2 14 1 15
REMARK SMILES IDX 83 16 84 17 87 18 85 19 86 20 14 23 15 24 16 25 17 26 18 27
REMARK SMILES IDX 19 29 20 30 21 31 82 32 22 33 81 34 23 35 24 36 25 37 75 38
REMARK SMILES IDX 26 39 80 40 74 41 76 42 27 43 79 44 73 45 72 46 28 48 60 49
REMARK SMILES IDX 40 50 59 51 41 52 44 53 58 54 77 55 42 56 43 57 57 59 78 60
REMARK SMILES IDX 45 61 29 62 30 63 38 64 31 65 32 66 36 67 39 68 33 69 34 70
REMARK SMILES IDX 37 71 35 72 61 73 62 74 70 75 63 76 64 77 68 78 71 79 65 80
REMARK SMILES IDX 66 81 69 82 67 83 46 84 47 85 55 86 48 87 49 88 53 89 56 90
REMARK SMILES IDX 50 91 51 92 54 93 52 94
REMARK H PARENT 10 7 3 13 86 21 86 22 17 28 76 47 44 58
REMARK Flexibility Score: inf
ROOT
ATOM      1  C   UNL     1       3.784  -5.707   8.940  1.00  0.00     0.002 C 
ENDROOT
BRANCH   1   2
ATOM      2  C   UNL     1       2.564  -4.793   8.758  1.00  0.00     0.021 C 
BRANCH   2   3
ATOM      3  C   UNL     1       2.903  -3.382   8.275  1.00  0.00     0.116 C 
BRANCH   3   4
ATOM      4  N   UNL     1       3.474  -3.447   6.949  1.00  0.00    -0.355 N 
ATOM      5  C   UNL     1       2.923  -3.155   5.745  1.00  0.00     0.231 C 
ATOM      6  O   UNL     1       3.294  -3.867   4.807  1.00  0.00    -0.274 OA
ATOM      7  H   UNL     1       4.410  -3.751   6.914  1.00  0.00     0.163 HD
BRANCH   5   8
ATOM      8  C   UNL     1       1.891  -2.029   5.558  1.00  0.00     0.092 C 
ATOM      9  C   UNL     1       2.153  -0.778   6.416  1.00  0.00     0.027 C 
ATOM     10  C   UNL     1       0.501  -2.613   5.885  1.00  0.00     0.027 C 
BRANCH   8  11
ATOM     11  C   UNL     1       1.876  -1.599   4.045  1.00  0.00     0.279 C 
BRANCH  11  12
ATOM     12  N   UNL     1       2.954  -0.683   3.553  1.00  0.00    -0.327 N 
ATOM     13  H   UNL     1       3.045   0.133   4.157  1.00  0.00     0.348 HD
BRANCH  12  14
ATOM     14  C   UNL     1       4.278  -1.339   3.627  1.00  0.00     0.259 C 
ATOM     15  C   UNL     1       5.495  -0.542   3.175  1.00  0.00     0.071 C 
ENDBRANCH  12  14
BRANCH  12  16
ATOM     16  C   UNL     1       2.579  -0.170   2.216  1.00  0.00     0.245 C 
ATOM     17  C   UNL     1       3.081   1.243   1.928  1.00  0.00     0.132 C 
ATOM     18  C   UNL     1       2.925  -0.970   0.942  1.00  0.00     0.326 C 
ATOM     19  C   UNL     1       2.972   1.321   0.417  1.00  0.00     0.267 C 
ATOM     20  N   UNL     1       3.407   0.003  -0.060  1.00  0.00    -0.341 N 
ATOM     21  H   UNL     1       4.424  -0.032  -0.128  1.00  0.00     0.346 HD
ATOM     22  H   UNL     1       3.036  -0.201  -0.988  1.00  0.00     0.346 HD
ENDBRANCH  12  16
ENDBRANCH  11  12
ENDBRANCH   8  11
ENDBRANCH   5   8
ENDBRANCH   3   4
ENDBRANCH   2   3
ENDBRANCH   1   2
BRANCH   1  23
ATOM     23  C   UNL     1       4.867  -5.161   9.876  1.00  0.00     0.002 C 
BRANCH  23  24
ATOM     24  C   UNL     1       4.369  -4.744  11.262  1.00  0.00     0.021 C 
BRANCH  24  25
ATOM     25  C   UNL     1       3.616  -5.830  12.021  1.00  0.00     0.116 C 
BRANCH  25  26
ATOM     26  N   UNL     1       4.444  -6.994  12.284  1.00  0.00    -0.352 N 
ATOM     27  C   UNL     1       4.628  -7.679  13.455  1.00  0.00     0.251 C 
ATOM     28  H   UNL     1       4.944  -7.340  11.510  1.00  0.00     0.163 HD
ATOM     29  O   UNL     1       5.503  -8.540  13.536  1.00  0.00    -0.269 OA
BRANCH  27  30
ATOM     30  C   UNL     1       3.793  -7.369  14.634  1.00  0.00     0.039 A 
ATOM     31  C   UNL     1       4.412  -7.268  15.883  1.00  0.00     0.014 A 
ATOM     32  C   UNL     1       2.410  -7.194  14.519  1.00  0.00     0.014 A 
ATOM     33  C   UNL     1       3.651  -6.947  17.007  1.00  0.00     0.010 A 
ATOM     34  C   UNL     1       1.665  -6.804  15.629  1.00  0.00     0.010 A 
ATOM     35  C   UNL     1       2.276  -6.686  16.885  1.00  0.00    -0.014 A 
BRANCH  35  36
ATOM     36  C   UNL     1       1.478  -6.284  18.070  1.00  0.00     0.031 A 
ATOM     37  C   UNL     1       0.392  -7.177  18.599  1.00  0.00     0.074 A 
ATOM     38  C   UNL     1       1.712  -5.090  18.649  1.00  0.00     0.049 A 
ATOM     39  N   UNL     1      -0.398  -6.998  19.628  1.00  0.00    -0.248 NA
ATOM     40  C   UNL     1       0.139  -8.423  17.859  1.00  0.00     0.031 C 
ATOM     41  C   UNL     1       2.694  -4.107  18.187  1.00  0.00     0.029 A 
ATOM     42  N   UNL     1       1.142  -4.500  19.748  1.00  0.00    -0.354 N 
ATOM     43  C   UNL     1      -1.243  -8.100  19.652  1.00  0.00     0.074 A 
ATOM     44  C   UNL     1      -0.909  -8.914  18.504  1.00  0.00     0.031 C 
ATOM     45  C   UNL     1       2.678  -3.050  19.014  1.00  0.00     0.029 A 
ATOM     46  C   UNL     1       1.670  -3.268  20.046  1.00  0.00     0.049 A 
ATOM     47  H   UNL     1       0.423  -4.921  20.273  1.00  0.00     0.167 HD
ATOM     48  C   UNL     1      -2.194  -8.415  20.564  1.00  0.00     0.037 A 
ATOM     49  C   UNL     1       1.377  -2.414  21.044  1.00  0.00     0.037 A 
ATOM     50  C   UNL     1      -2.507  -7.614  21.719  1.00  0.00     0.049 A 
ATOM     51  C   UNL     1       0.336  -2.800  22.058  1.00  0.00     0.074 A 
ATOM     52  C   UNL     1      -3.400  -7.883  22.741  1.00  0.00     0.029 A 
ATOM     53  N   UNL     1      -1.937  -6.381  22.001  1.00  0.00    -0.354 N 
ATOM     54  N   UNL     1      -0.395  -3.886  22.122  1.00  0.00    -0.248 NA
ATOM     55  C   UNL     1       0.090  -1.846  23.148  1.00  0.00     0.031 C 
ATOM     56  C   UNL     1      -3.406  -6.791  23.617  1.00  0.00     0.029 A 
ATOM     57  C   UNL     1      -2.478  -5.864  23.169  1.00  0.00     0.049 A 
ATOM     58  H   UNL     1      -1.249  -5.938  21.453  1.00  0.00     0.167 HD
ATOM     59  C   UNL     1      -1.172  -3.757  23.265  1.00  0.00     0.074 A 
ATOM     60  C   UNL     1      -0.805  -2.497  23.877  1.00  0.00     0.031 C 
ATOM     61  C   UNL     1      -2.108  -4.604  23.761  1.00  0.00     0.037 A 
BRANCH  48  62
ATOM     62  C   UNL     1      -2.965  -9.687  20.350  1.00  0.00     0.064 A 
ATOM     63  C   UNL     1      -2.364 -10.947  20.498  1.00  0.00     0.173 A 
ATOM     64  C   UNL     1      -4.329  -9.646  20.024  1.00  0.00     0.173 A 
ATOM     65  F   UNL     1      -1.060 -11.042  20.798  1.00  0.00    -0.203 F 
ATOM     66  C   UNL     1      -3.092 -12.117  20.296  1.00  0.00     0.198 A 
ATOM     67  C   UNL     1      -5.061 -10.819  19.853  1.00  0.00     0.198 A 
ATOM     68  F   UNL     1      -4.955  -8.469  19.876  1.00  0.00    -0.203 F 
ATOM     69  F   UNL     1      -2.483 -13.307  20.391  1.00  0.00    -0.200 F 
ATOM     70  C   UNL     1      -4.441 -12.052  19.980  1.00  0.00     0.200 A 
ATOM     71  F   UNL     1      -6.367 -10.755  19.560  1.00  0.00    -0.200 F 
ATOM     72  F   UNL     1      -5.141 -13.179  19.791  1.00  0.00    -0.200 F 
ENDBRANCH  48  62
BRANCH  49  73
ATOM     73  C   UNL     1       2.109  -1.126  21.151  1.00  0.00     0.064 A 
ATOM     74  C   UNL     1       3.033  -0.906  22.182  1.00  0.00     0.173 A 
ATOM     75  C   UNL     1       1.906  -0.094  20.224  1.00  0.00     0.173 A 
ATOM     76  F   UNL     1       3.247  -1.857  23.103  1.00  0.00    -0.203 F 
ATOM     77  C   UNL     1       3.714   0.305  22.292  1.00  0.00     0.198 A 
ATOM     78  C   UNL     1       2.608   1.106  20.319  1.00  0.00     0.198 A 
ATOM     79  F   UNL     1       1.038  -0.258  19.215  1.00  0.00    -0.203 F 
ATOM     80  F   UNL     1       4.560   0.504  23.311  1.00  0.00    -0.200 F 
ATOM     81  C   UNL     1       3.505   1.308  21.357  1.00  0.00     0.200 A 
ATOM     82  F   UNL     1       2.415   2.066  19.404  1.00  0.00    -0.200 F 
ATOM     83  F   UNL     1       4.165   2.469  21.459  1.00  0.00    -0.200 F 
ENDBRANCH  49  73
BRANCH  61  84
ATOM     84  C   UNL     1      -2.787  -4.197  25.037  1.00  0.00     0.064 A 
ATOM     85  C   UNL     1      -3.704  -3.136  25.075  1.00  0.00     0.173 A 
ATOM     86  C   UNL     1      -2.529  -4.886  26.231  1.00  0.00     0.173 A 
ATOM     87  F   UNL     1      -3.973  -2.436  23.963  1.00  0.00    -0.203 F 
ATOM     88  C   UNL     1      -4.310  -2.756  26.270  1.00  0.00     0.198 A 
ATOM     89  C   UNL     1      -3.161  -4.524  27.418  1.00  0.00     0.198 A 
ATOM     90  F   UNL     1      -1.666  -5.913  26.248  1.00  0.00    -0.203 F 
ATOM     91  F   UNL     1      -5.137  -1.702  26.294  1.00  0.00    -0.200 F 
ATOM     92  C   UNL     1      -4.042  -3.454  27.438  1.00  0.00     0.200 A 
ATOM     93  F   UNL     1      -2.912  -5.207  28.544  1.00  0.00    -0.200 F 
ATOM     94  F   UNL     1      -4.627  -3.087  28.587  1.00  0.00    -0.200 F 
ENDBRANCH  61  84
ENDBRANCH  35  36
ENDBRANCH  27  30
ENDBRANCH  25  26
ENDBRANCH  24  25
ENDBRANCH  23  24
ENDBRANCH   1  23
TORSDOF 17
