REMARK SMILES Nc1c(Cl)ccc2c1C=C(C(=O)NCCCCCCNC(=O)c1ccc(-c3c4nc(c(-c5c(F)c(F)c(F)c(F)c5F)c5ccc([nH]5)c(-c5c(F)c(F)c(F)c(F)c5F)c5nc(c(-c6c(F)c(F)c(F)c(F)c6F)c6ccc3[nH]6)C=C5)C=C4)cc1)[C@@H](C(F)(F)F)O2
REMARK SMILES IDX 17 1 16 2 15 3 14 4 13 5 11 6 12 7 10 9 2 10 3 11 8 12 4 13
REMARK SMILES IDX 5 14 7 15 9 16 6 17 91 18 86 19 1 20 87 23 88 24 89 25 90 26
REMARK SMILES IDX 18 27 19 28 20 29 21 30 22 32 23 33 24 34 85 35 25 36 84 37
REMARK SMILES IDX 26 38 27 39 28 40 78 41 29 42 83 43 77 44 79 45 30 46 82 47
REMARK SMILES IDX 76 48 75 49 31 51 63 52 43 53 62 54 44 55 47 56 61 57 80 58
REMARK SMILES IDX 45 59 46 60 60 62 81 63 48 64 32 65 33 66 41 67 34 68 35 69
REMARK SMILES IDX 39 70 42 71 36 72 37 73 40 74 38 75 64 76 65 77 73 78 66 79
REMARK SMILES IDX 67 80 71 81 74 82 68 83 69 84 72 85 70 86 49 87 50 88 58 89
REMARK SMILES IDX 51 90 52 91 56 92 59 93 53 94 54 95 57 96 55 97
REMARK H PARENT 13 8 1 21 1 22 20 31 79 50 47 61
REMARK Flexibility Score: inf
ROOT
ATOM      1  C   UNL     1      -6.832  -6.666  -0.255  1.00  0.00     0.002 C 
ENDROOT
BRANCH   1   2
ATOM      2  C   UNL     1      -6.790  -5.242  -0.826  1.00  0.00     0.002 C 
BRANCH   2   3
ATOM      3  C   UNL     1      -6.205  -4.177   0.108  1.00  0.00     0.021 C 
BRANCH   3   4
ATOM      4  C   UNL     1      -4.792  -4.484   0.593  1.00  0.00     0.116 C 
BRANCH   4   5
ATOM      5  N   UNL     1      -3.794  -4.103  -0.389  1.00  0.00    -0.352 N 
ATOM      6  C   UNL     1      -2.724  -3.278  -0.449  1.00  0.00     0.251 C 
ATOM      7  O   UNL     1      -2.132  -3.274  -1.533  1.00  0.00    -0.270 OA
ATOM      8  H   UNL     1      -3.934  -4.572  -1.243  1.00  0.00     0.163 HD
BRANCH   6   9
ATOM      9  C   UNL     1      -2.232  -2.408   0.663  1.00  0.00     0.067 C 
ATOM     10  C   UNL     1       0.460   0.152   1.092  1.00  0.00     0.061 A 
ATOM     11  C   UNL     1       0.941   0.962   2.147  1.00  0.00     0.064 A 
ATOM     12  C   UNL     1      -0.673  -0.658   1.337  1.00  0.00     0.042 A 
ATOM     13  Cl  UNL     1       2.346   1.953   1.929  1.00  0.00    -0.082 Cl
ATOM     14  C   UNL     1       0.299   1.011   3.385  1.00  0.00     0.026 A 
ATOM     15  C   UNL     1      -1.297  -0.607   2.592  1.00  0.00     0.130 A 
ATOM     16  C   UNL     1      -1.264  -1.536   0.324  1.00  0.00     0.027 C 
ATOM     17  C   UNL     1      -0.828   0.230   3.604  1.00  0.00     0.049 A 
ATOM     18  O   UNL     1      -2.414  -1.326   2.905  1.00  0.00    -0.475 OA
ATOM     19  C   UNL     1      -2.710  -2.484   2.082  1.00  0.00     0.314 C 
BRANCH  10  20
ATOM     20  N   UNL     1       1.168   0.090  -0.112  1.00  0.00    -0.397 N 
ATOM     21  H   UNL     1       1.953   0.668  -0.251  1.00  0.00     0.156 HD
ATOM     22  H   UNL     1       0.882  -0.531  -0.820  1.00  0.00     0.156 HD
ENDBRANCH  10  20
BRANCH  19  23
ATOM     23  C   UNL     1      -2.239  -3.754   2.812  1.00  0.00     0.429 C 
ATOM     24  F   UNL     1      -2.969  -3.949   3.940  1.00  0.00    -0.167 F 
ATOM     25  F   UNL     1      -2.392  -4.872   2.066  1.00  0.00    -0.167 F 
ATOM     26  F   UNL     1      -0.939  -3.694   3.175  1.00  0.00    -0.167 F 
ENDBRANCH  19  23
ENDBRANCH   6   9
ENDBRANCH   4   5
ENDBRANCH   3   4
ENDBRANCH   2   3
ENDBRANCH   1   2
BRANCH   1  27
ATOM     27  C   UNL     1      -7.423  -6.793   1.153  1.00  0.00     0.021 C 
BRANCH  27  28
ATOM     28  C   UNL     1      -8.841  -6.254   1.292  1.00  0.00     0.116 C 
BRANCH  28  29
ATOM     29  N   UNL     1      -9.787  -7.013   0.493  1.00  0.00    -0.352 N 
ATOM     30  C   UNL     1     -10.887  -7.718   0.910  1.00  0.00     0.251 C 
ATOM     31  H   UNL     1      -9.616  -7.024  -0.476  1.00  0.00     0.163 HD
ATOM     32  O   UNL     1     -11.478  -8.475   0.147  1.00  0.00    -0.269 OA
BRANCH  30  33
ATOM     33  C   UNL     1     -11.351  -7.561   2.301  1.00  0.00     0.039 A 
ATOM     34  C   UNL     1     -11.558  -8.701   3.080  1.00  0.00     0.014 A 
ATOM     35  C   UNL     1     -11.579  -6.284   2.825  1.00  0.00     0.014 A 
ATOM     36  C   UNL     1     -11.959  -8.559   4.408  1.00  0.00     0.010 A 
ATOM     37  C   UNL     1     -11.929  -6.143   4.164  1.00  0.00     0.010 A 
ATOM     38  C   UNL     1     -12.135  -7.280   4.960  1.00  0.00    -0.014 A 
BRANCH  38  39
ATOM     39  C   UNL     1     -12.590  -7.114   6.359  1.00  0.00     0.031 A 
ATOM     40  C   UNL     1     -13.980  -6.619   6.630  1.00  0.00     0.074 A 
ATOM     41  C   UNL     1     -11.747  -7.375   7.374  1.00  0.00     0.049 A 
ATOM     42  N   UNL     1     -14.567  -6.386   7.775  1.00  0.00    -0.248 NA
ATOM     43  C   UNL     1     -14.819  -6.332   5.455  1.00  0.00     0.031 C 
ATOM     44  C   UNL     1     -10.366  -7.834   7.228  1.00  0.00     0.029 A 
ATOM     45  N   UNL     1     -11.929  -7.288   8.731  1.00  0.00    -0.354 N 
ATOM     46  C   UNL     1     -15.839  -5.933   7.459  1.00  0.00     0.074 A 
ATOM     47  C   UNL     1     -15.923  -5.864   6.017  1.00  0.00     0.031 C 
ATOM     48  C   UNL     1      -9.831  -8.007   8.447  1.00  0.00     0.029 A 
ATOM     49  C   UNL     1     -10.822  -7.648   9.459  1.00  0.00     0.049 A 
ATOM     50  H   UNL     1     -12.773  -6.995   9.144  1.00  0.00     0.167 HD
ATOM     51  C   UNL     1     -16.857  -5.631   8.298  1.00  0.00     0.037 A 
ATOM     52  C   UNL     1     -10.634  -7.686  10.792  1.00  0.00     0.037 A 
ATOM     53  C   UNL     1     -16.773  -5.714   9.731  1.00  0.00     0.049 A 
ATOM     54  C   UNL     1     -11.770  -7.307  11.704  1.00  0.00     0.074 A 
ATOM     55  C   UNL     1     -17.760  -5.471  10.668  1.00  0.00     0.029 A 
ATOM     56  N   UNL     1     -15.630  -6.067  10.433  1.00  0.00    -0.354 N 
ATOM     57  N   UNL     1     -12.989  -6.936  11.396  1.00  0.00    -0.248 NA
ATOM     58  C   UNL     1     -11.505  -7.356  13.149  1.00  0.00     0.031 C 
ATOM     59  C   UNL     1     -17.204  -5.636  11.940  1.00  0.00     0.029 A 
ATOM     60  C   UNL     1     -15.882  -6.026  11.794  1.00  0.00     0.049 A 
ATOM     61  H   UNL     1     -14.768  -6.312  10.025  1.00  0.00     0.167 HD
ATOM     62  C   UNL     1     -13.643  -6.731  12.603  1.00  0.00     0.074 A 
ATOM     63  C   UNL     1     -12.689  -7.029  13.651  1.00  0.00     0.031 C 
ATOM     64  C   UNL     1     -14.919  -6.330  12.822  1.00  0.00     0.037 A 
BRANCH  51  65
ATOM     65  C   UNL     1     -18.156  -5.199   7.686  1.00  0.00     0.064 A 
ATOM     66  C   UNL     1     -18.981  -6.110   7.009  1.00  0.00     0.173 A 
ATOM     67  C   UNL     1     -18.604  -3.877   7.817  1.00  0.00     0.173 A 
ATOM     68  F   UNL     1     -18.589  -7.383   6.846  1.00  0.00    -0.203 F 
ATOM     69  C   UNL     1     -20.198  -5.708   6.467  1.00  0.00     0.198 A 
ATOM     70  C   UNL     1     -19.835  -3.485   7.297  1.00  0.00     0.198 A 
ATOM     71  F   UNL     1     -17.854  -2.968   8.458  1.00  0.00    -0.203 F 
ATOM     72  F   UNL     1     -20.951  -6.586   5.790  1.00  0.00    -0.200 F 
ATOM     73  C   UNL     1     -20.628  -4.398   6.619  1.00  0.00     0.200 A 
ATOM     74  F   UNL     1     -20.255  -2.221   7.454  1.00  0.00    -0.200 F 
ATOM     75  F   UNL     1     -21.806  -4.015   6.107  1.00  0.00    -0.200 F 
ENDBRANCH  51  65
BRANCH  52  76
ATOM     76  C   UNL     1      -9.330  -8.138  11.339  1.00  0.00     0.064 A 
ATOM     77  C   UNL     1      -9.213  -9.380  11.978  1.00  0.00     0.173 A 
ATOM     78  C   UNL     1      -8.174  -7.353  11.220  1.00  0.00     0.173 A 
ATOM     79  F   UNL     1     -10.295 -10.156  12.133  1.00  0.00    -0.203 F 
ATOM     80  C   UNL     1      -7.991  -9.817  12.484  1.00  0.00     0.198 A 
ATOM     81  C   UNL     1      -6.947  -7.801  11.706  1.00  0.00     0.198 A 
ATOM     82  F   UNL     1      -8.233  -6.158  10.615  1.00  0.00    -0.203 F 
ATOM     83  F   UNL     1      -7.913 -10.995  13.117  1.00  0.00    -0.200 F 
ATOM     84  C   UNL     1      -6.857  -9.030  12.342  1.00  0.00     0.200 A 
ATOM     85  F   UNL     1      -5.852  -7.044  11.556  1.00  0.00    -0.200 F 
ATOM     86  F   UNL     1      -5.680  -9.456  12.820  1.00  0.00    -0.200 F 
ENDBRANCH  52  76
BRANCH  64  87
ATOM     87  C   UNL     1     -15.372  -6.202  14.246  1.00  0.00     0.064 A 
ATOM     88  C   UNL     1     -14.955  -5.132  15.051  1.00  0.00     0.173 A 
ATOM     89  C   UNL     1     -16.301  -7.107  14.781  1.00  0.00     0.173 A 
ATOM     90  F   UNL     1     -14.059  -4.248  14.587  1.00  0.00    -0.203 F 
ATOM     91  C   UNL     1     -15.446  -4.978  16.344  1.00  0.00     0.198 A 
ATOM     92  C   UNL     1     -16.810  -6.935  16.065  1.00  0.00     0.198 A 
ATOM     93  F   UNL     1     -16.737  -8.142  14.047  1.00  0.00    -0.203 F 
ATOM     94  F   UNL     1     -15.014  -3.964  17.106  1.00  0.00    -0.200 F 
ATOM     95  C   UNL     1     -16.380  -5.873  16.846  1.00  0.00     0.200 A 
ATOM     96  F   UNL     1     -17.724  -7.791  16.542  1.00  0.00    -0.200 F 
ATOM     97  F   UNL     1     -16.867  -5.711  18.084  1.00  0.00    -0.200 F 
ENDBRANCH  64  87
ENDBRANCH  38  39
ENDBRANCH  30  33
ENDBRANCH  28  29
ENDBRANCH  27  28
ENDBRANCH   1  27
TORSDOF 15
