REMARK SMILES CCN(c1ccnc(C(=O)NCCCCCCNC(=O)c2ccc(-c3c4nc(c(-c5c(F)c(F)c(F)c(F)c5F)c5ccc([nH]5)c(-c5c(F)c(F)c(F)c(F)c5F)c5nc(c(-c6c(F)c(F)c(F)c(F)c6F)c6ccc3[nH]6)C=C5)C=C4)cc2)c1)S(=O)(=O)c1ccccc1
REMARK SMILES IDX 14 1 13 2 12 3 11 4 9 5 10 6 8 8 4 9 5 10 84 11 6 12 7 13
REMARK SMILES IDX 3 14 2 15 1 16 85 17 86 18 87 19 88 20 89 21 93 22 90 23
REMARK SMILES IDX 92 24 91 25 15 26 16 27 17 28 18 29 19 30 20 32 21 33 22 34
REMARK SMILES IDX 83 35 23 36 82 37 24 38 25 39 26 40 76 41 27 42 81 43 75 44
REMARK SMILES IDX 77 45 28 46 80 47 74 48 73 49 29 51 61 52 41 53 60 54 42 55
REMARK SMILES IDX 45 56 59 57 78 58 43 59 44 60 58 62 79 63 46 64 30 65 31 66
REMARK SMILES IDX 39 67 32 68 33 69 37 70 40 71 34 72 35 73 38 74 36 75 62 76
REMARK SMILES IDX 63 77 71 78 64 79 65 80 69 81 72 82 66 83 67 84 70 85 68 86
REMARK SMILES IDX 47 87 48 88 56 89 49 90 50 91 54 92 57 93 51 94 52 95 55 96
REMARK SMILES IDX 53 97
REMARK H PARENT 11 7 18 31 77 50 45 61
REMARK Flexibility Score: inf
ROOT
ATOM      1  C   UNL     1       2.083  -2.364   7.105  1.00  0.00     0.002 C 
ENDROOT
BRANCH   1   2
ATOM      2  C   UNL     1       1.318  -1.761   5.927  1.00  0.00     0.021 C 
BRANCH   2   3
ATOM      3  C   UNL     1       1.076  -2.667   4.730  1.00  0.00     0.116 C 
BRANCH   3   4
ATOM      4  N   UNL     1       0.182  -3.776   4.971  1.00  0.00    -0.351 N 
ATOM      5  C   UNL     1      -0.611  -4.503   4.101  1.00  0.00     0.269 C 
ATOM      6  O   UNL     1      -1.278  -5.412   4.599  1.00  0.00    -0.268 OA
ATOM      7  H   UNL     1       0.127  -4.061   5.911  1.00  0.00     0.163 HD
BRANCH   5   8
ATOM      8  C   UNL     1      -0.688  -4.242   2.612  1.00  0.00     0.130 A 
ATOM      9  C   UNL     1       0.205  -3.489   0.511  1.00  0.00     0.056 A 
ATOM     10  C   UNL     1      -0.929  -4.000  -0.115  1.00  0.00     0.047 A 
ATOM     11  C   UNL     1       0.306  -3.595   1.892  1.00  0.00     0.061 A 
ATOM     12  C   UNL     1      -1.888  -4.619   0.663  1.00  0.00     0.114 A 
ATOM     13  N   UNL     1      -1.788  -4.753   2.000  1.00  0.00    -0.251 NA
BRANCH   9  14
ATOM     14  N   UNL     1       1.198  -2.820  -0.305  1.00  0.00    -0.266 N 
BRANCH  14  15
ATOM     15  C   UNL     1       0.737  -1.567  -0.999  1.00  0.00     0.132 C 
ATOM     16  C   UNL     1       0.963  -0.296  -0.191  1.00  0.00     0.028 C 
ENDBRANCH  14  15
BRANCH  14  17
ATOM     17  S   UNL     1       2.865  -2.825   0.122  1.00  0.00     0.264 S 
ATOM     18  O   UNL     1       3.635  -2.751  -1.094  1.00  0.00    -0.201 OA
ATOM     19  O   UNL     1       3.046  -1.836   1.176  1.00  0.00    -0.201 OA
BRANCH  17  20
ATOM     20  C   UNL     1       3.188  -4.406   0.877  1.00  0.00     0.088 A 
ATOM     21  C   UNL     1       3.020  -5.588   0.159  1.00  0.00     0.022 A 
ATOM     22  C   UNL     1       3.556  -4.438   2.231  1.00  0.00     0.022 A 
ATOM     23  C   UNL     1       3.158  -6.807   0.830  1.00  0.00     0.001 A 
ATOM     24  C   UNL     1       3.656  -5.653   2.899  1.00  0.00     0.001 A 
ATOM     25  C   UNL     1       3.449  -6.838   2.198  1.00  0.00     0.000 A 
ENDBRANCH  17  20
ENDBRANCH  14  17
ENDBRANCH   9  14
ENDBRANCH   5   8
ENDBRANCH   3   4
ENDBRANCH   2   3
ENDBRANCH   1   2
BRANCH   1  26
ATOM     26  C   UNL     1       3.422  -3.043   6.805  1.00  0.00     0.002 C 
BRANCH  26  27
ATOM     27  C   UNL     1       4.431  -2.258   5.967  1.00  0.00     0.021 C 
BRANCH  27  28
ATOM     28  C   UNL     1       4.733  -0.837   6.426  1.00  0.00     0.116 C 
BRANCH  28  29
ATOM     29  N   UNL     1       5.261  -0.762   7.777  1.00  0.00    -0.352 N 
ATOM     30  C   UNL     1       6.342  -0.054   8.246  1.00  0.00     0.251 C 
ATOM     31  H   UNL     1       4.777  -1.292   8.451  1.00  0.00     0.163 HD
ATOM     32  O   UNL     1       6.711  -0.178   9.409  1.00  0.00    -0.269 OA
BRANCH  30  33
ATOM     33  C   UNL     1       7.086   0.840   7.332  1.00  0.00     0.039 A 
ATOM     34  C   UNL     1       8.482   0.763   7.295  1.00  0.00     0.014 A 
ATOM     35  C   UNL     1       6.409   1.737   6.503  1.00  0.00     0.014 A 
ATOM     36  C   UNL     1       9.195   1.535   6.375  1.00  0.00     0.010 A 
ATOM     37  C   UNL     1       7.113   2.449   5.537  1.00  0.00     0.010 A 
ATOM     38  C   UNL     1       8.513   2.357   5.465  1.00  0.00    -0.014 A 
BRANCH  38  39
ATOM     39  C   UNL     1       9.226   3.157   4.437  1.00  0.00     0.031 A 
ATOM     40  C   UNL     1       9.145   4.657   4.481  1.00  0.00     0.074 A 
ATOM     41  C   UNL     1       9.856   2.543   3.418  1.00  0.00     0.049 A 
ATOM     42  N   UNL     1       9.551   5.539   3.604  1.00  0.00    -0.248 NA
ATOM     43  C   UNL     1       8.487   5.240   5.660  1.00  0.00     0.031 C 
ATOM     44  C   UNL     1       9.992   1.096   3.256  1.00  0.00     0.029 A 
ATOM     45  N   UNL     1      10.484   3.063   2.314  1.00  0.00    -0.354 N 
ATOM     46  C   UNL     1       9.172   6.774   4.111  1.00  0.00     0.074 A 
ATOM     47  C   UNL     1       8.459   6.525   5.345  1.00  0.00     0.031 C 
ATOM     48  C   UNL     1      10.678   0.843   2.129  1.00  0.00     0.029 A 
ATOM     49  C   UNL     1      10.984   2.106   1.464  1.00  0.00     0.049 A 
ATOM     50  H   UNL     1      10.569   4.029   2.147  1.00  0.00     0.167 HD
ATOM     51  C   UNL     1       9.414   8.007   3.603  1.00  0.00     0.037 A 
ATOM     52  C   UNL     1      11.604   2.236   0.275  1.00  0.00     0.037 A 
ATOM     53  C   UNL     1      10.143   8.246   2.386  1.00  0.00     0.049 A 
ATOM     54  C   UNL     1      11.819   3.613  -0.295  1.00  0.00     0.074 A 
ATOM     55  C   UNL     1      10.487   9.455   1.808  1.00  0.00     0.029 A 
ATOM     56  N   UNL     1      10.634   7.249   1.554  1.00  0.00    -0.354 N 
ATOM     57  N   UNL     1      11.502   4.779   0.214  1.00  0.00    -0.248 NA
ATOM     58  C   UNL     1      12.474   3.692  -1.609  1.00  0.00     0.031 C 
ATOM     59  C   UNL     1      11.140   9.191   0.600  1.00  0.00     0.029 A 
ATOM     60  C   UNL     1      11.257   7.817   0.454  1.00  0.00     0.049 A 
ATOM     61  H   UNL     1      10.553   6.282   1.720  1.00  0.00     0.167 HD
ATOM     62  C   UNL     1      11.959   5.729  -0.690  1.00  0.00     0.074 A 
ATOM     63  C   UNL     1      12.569   5.003  -1.785  1.00  0.00     0.031 C 
ATOM     64  C   UNL     1      11.886   7.080  -0.614  1.00  0.00     0.037 A 
BRANCH  51  65
ATOM     65  C   UNL     1       8.869   9.184   4.362  1.00  0.00     0.064 A 
ATOM     66  C   UNL     1       9.354   9.535   5.631  1.00  0.00     0.173 A 
ATOM     67  C   UNL     1       7.843   9.970   3.814  1.00  0.00     0.173 A 
ATOM     68  F   UNL     1      10.327   8.812   6.207  1.00  0.00    -0.203 F 
ATOM     69  C   UNL     1       8.798  10.594   6.344  1.00  0.00     0.198 A 
ATOM     70  C   UNL     1       7.316  11.052   4.513  1.00  0.00     0.198 A 
ATOM     71  F   UNL     1       7.348   9.687   2.599  1.00  0.00    -0.203 F 
ATOM     72  F   UNL     1       9.227  10.862   7.585  1.00  0.00    -0.200 F 
ATOM     73  C   UNL     1       7.783  11.354   5.783  1.00  0.00     0.200 A 
ATOM     74  F   UNL     1       6.346  11.795   3.963  1.00  0.00    -0.200 F 
ATOM     75  F   UNL     1       7.246  12.371   6.472  1.00  0.00    -0.200 F 
ENDBRANCH  51  65
BRANCH  52  76
ATOM     76  C   UNL     1      12.101   1.030  -0.438  1.00  0.00     0.064 A 
ATOM     77  C   UNL     1      13.478   0.786  -0.546  1.00  0.00     0.173 A 
ATOM     78  C   UNL     1      11.226   0.097  -1.012  1.00  0.00     0.173 A 
ATOM     79  F   UNL     1      14.354   1.661  -0.031  1.00  0.00    -0.203 F 
ATOM     80  C   UNL     1      13.960  -0.338  -1.212  1.00  0.00     0.198 A 
ATOM     81  C   UNL     1      11.710  -1.041  -1.655  1.00  0.00     0.198 A 
ATOM     82  F   UNL     1       9.900   0.283  -0.934  1.00  0.00    -0.203 F 
ATOM     83  F   UNL     1      15.281  -0.526  -1.333  1.00  0.00    -0.200 F 
ATOM     84  C   UNL     1      13.076  -1.254  -1.760  1.00  0.00     0.200 A 
ATOM     85  F   UNL     1      10.852  -1.932  -2.172  1.00  0.00    -0.200 F 
ATOM     86  F   UNL     1      13.540  -2.340  -2.394  1.00  0.00    -0.200 F 
ENDBRANCH  52  76
BRANCH  64  87
ATOM     87  C   UNL     1      12.539   7.878  -1.705  1.00  0.00     0.064 A 
ATOM     88  C   UNL     1      11.979   7.980  -2.985  1.00  0.00     0.173 A 
ATOM     89  C   UNL     1      13.699   8.620  -1.432  1.00  0.00     0.173 A 
ATOM     90  F   UNL     1      10.880   7.278  -3.300  1.00  0.00    -0.203 F 
ATOM     91  C   UNL     1      12.562   8.791  -3.956  1.00  0.00     0.198 A 
ATOM     92  C   UNL     1      14.261   9.452  -2.395  1.00  0.00     0.198 A 
ATOM     93  F   UNL     1      14.271   8.560  -0.219  1.00  0.00    -0.203 F 
ATOM     94  F   UNL     1      12.027   8.853  -5.184  1.00  0.00    -0.200 F 
ATOM     95  C   UNL     1      13.694   9.535  -3.657  1.00  0.00     0.200 A 
ATOM     96  F   UNL     1      15.346  10.181  -2.098  1.00  0.00    -0.200 F 
ATOM     97  F   UNL     1      14.239  10.333  -4.586  1.00  0.00    -0.200 F 
ENDBRANCH  64  87
ENDBRANCH  38  39
ENDBRANCH  30  33
ENDBRANCH  28  29
ENDBRANCH  27  28
ENDBRANCH  26  27
ENDBRANCH   1  26
TORSDOF 17
