REMARK SMILES O=C(CSCc1ccc(C(=O)NCCCCCCNC(=O)c2ccc(-c3c4nc(c(-c5c(F)c(F)c(F)c(F)c5F)c5ccc([nH]5)c(-c5c(F)c(F)c(F)c(F)c5F)c5nc(c(-c6c(F)c(F)c(F)c(F)c6F)c6ccc3[nH]6)C=C5)C=C4)cc2)cc1)Nc1ccc(Cl)cc1
REMARK SMILES IDX 14 1 13 2 12 3 10 4 11 5 9 7 6 8 7 9 86 10 8 11 85 12 5 13
REMARK SMILES IDX 4 14 3 15 2 16 1 17 87 18 88 20 89 21 94 22 90 23 93 24
REMARK SMILES IDX 91 25 92 26 15 27 16 28 17 29 18 30 19 31 20 32 21 34 22 35
REMARK SMILES IDX 23 36 84 37 24 38 83 39 25 40 26 41 27 42 77 43 28 44 82 45
REMARK SMILES IDX 76 46 78 47 29 48 81 49 75 50 74 51 30 53 62 54 42 55 61 56
REMARK SMILES IDX 43 57 46 58 60 59 79 60 44 61 45 62 59 64 80 65 47 66 31 67
REMARK SMILES IDX 32 68 40 69 33 70 34 71 38 72 41 73 35 74 36 75 39 76 37 77
REMARK SMILES IDX 63 78 64 79 72 80 65 81 66 82 70 83 73 84 67 85 68 86 71 87
REMARK SMILES IDX 69 88 48 89 49 90 57 91 50 92 51 93 55 94 58 95 52 96 53 97
REMARK SMILES IDX 56 98 54 99
REMARK H PARENT 12 6 87 19 19 33 78 52 46 63
REMARK Flexibility Score: inf
ROOT
ATOM      1  C   UNL     1      -1.326  -1.866   8.586  1.00  0.00     0.021 C 
ENDROOT
BRANCH   1   2
ATOM      2  C   UNL     1      -1.764  -1.159   7.301  1.00  0.00     0.116 C 
BRANCH   2   3
ATOM      3  N   UNL     1      -1.302   0.212   7.323  1.00  0.00    -0.352 N 
ATOM      4  C   UNL     1      -0.205   0.844   6.804  1.00  0.00     0.251 C 
ATOM      5  O   UNL     1      -0.054   2.029   7.107  1.00  0.00    -0.269 OA
ATOM      6  H   UNL     1      -1.903   0.818   7.815  1.00  0.00     0.163 HD
BRANCH   4   7
ATOM      7  C   UNL     1       0.753   0.216   5.848  1.00  0.00     0.039 A 
ATOM      8  C   UNL     1       2.445  -0.737   3.766  1.00  0.00    -0.038 A 
ATOM      9  C   UNL     1       2.308   0.630   4.012  1.00  0.00     0.005 A 
ATOM     10  C   UNL     1       1.803  -1.618   4.654  1.00  0.00     0.005 A 
ATOM     11  C   UNL     1       1.459   1.097   5.020  1.00  0.00     0.014 A 
ATOM     12  C   UNL     1       1.000  -1.148   5.705  1.00  0.00     0.014 A 
BRANCH   8  13
ATOM     13  C   UNL     1       3.153  -1.334   2.571  1.00  0.00     0.105 C 
BRANCH  13  14
ATOM     14  S   UNL     1       4.373  -0.339   1.664  1.00  0.00    -0.147 SA
BRANCH  14  15
ATOM     15  C   UNL     1       3.314   0.808   0.721  1.00  0.00     0.170 C 
BRANCH  15  16
ATOM     16  C   UNL     1       2.253   0.138  -0.126  1.00  0.00     0.234 C 
ATOM     17  O   UNL     1       1.084   0.513  -0.070  1.00  0.00    -0.274 OA
ATOM     18  N   UNL     1       2.743  -0.847  -0.964  1.00  0.00    -0.325 N 
ATOM     19  H   UNL     1       3.663  -1.156  -0.798  1.00  0.00     0.169 HD
BRANCH  18  20
ATOM     20  C   UNL     1       2.051  -1.450  -2.031  1.00  0.00     0.041 A 
ATOM     21  C   UNL     1       2.569  -2.639  -2.557  1.00  0.00     0.027 A 
ATOM     22  C   UNL     1       0.903  -0.895  -2.606  1.00  0.00     0.027 A 
ATOM     23  C   UNL     1       1.925  -3.282  -3.620  1.00  0.00     0.022 A 
ATOM     24  C   UNL     1       0.270  -1.526  -3.681  1.00  0.00     0.022 A 
ATOM     25  C   UNL     1       0.778  -2.721  -4.178  1.00  0.00     0.041 A 
ATOM     26  Cl  UNL     1      -0.010  -3.508  -5.489  1.00  0.00    -0.084 Cl
ENDBRANCH  18  20
ENDBRANCH  15  16
ENDBRANCH  14  15
ENDBRANCH  13  14
ENDBRANCH   8  13
ENDBRANCH   4   7
ENDBRANCH   2   3
ENDBRANCH   1   2
BRANCH   1  27
ATOM     27  C   UNL     1      -2.165  -1.459   9.808  1.00  0.00     0.002 C 
BRANCH  27  28
ATOM     28  C   UNL     1      -3.648  -1.841   9.725  1.00  0.00     0.002 C 
BRANCH  28  29
ATOM     29  C   UNL     1      -3.915  -3.325   9.464  1.00  0.00     0.021 C 
BRANCH  29  30
ATOM     30  C   UNL     1      -3.364  -4.256  10.540  1.00  0.00     0.116 C 
BRANCH  30  31
ATOM     31  N   UNL     1      -4.039  -4.062  11.814  1.00  0.00    -0.352 N 
ATOM     32  C   UNL     1      -4.727  -4.970  12.579  1.00  0.00     0.251 C 
ATOM     33  H   UNL     1      -3.996  -3.148  12.179  1.00  0.00     0.163 HD
ATOM     34  O   UNL     1      -5.435  -4.593  13.505  1.00  0.00    -0.269 OA
BRANCH  32  35
ATOM     35  C   UNL     1      -4.620  -6.411  12.273  1.00  0.00     0.039 A 
ATOM     36  C   UNL     1      -5.782  -7.187  12.249  1.00  0.00     0.014 A 
ATOM     37  C   UNL     1      -3.375  -6.995  12.024  1.00  0.00     0.014 A 
ATOM     38  C   UNL     1      -5.701  -8.540  11.918  1.00  0.00     0.010 A 
ATOM     39  C   UNL     1      -3.303  -8.328  11.632  1.00  0.00     0.010 A 
ATOM     40  C   UNL     1      -4.465  -9.113  11.576  1.00  0.00    -0.014 A 
BRANCH  40  41
ATOM     41  C   UNL     1      -4.365 -10.529  11.147  1.00  0.00     0.031 A 
ATOM     42  C   UNL     1      -3.610 -11.520  11.985  1.00  0.00     0.074 A 
ATOM     43  C   UNL     1      -4.891 -10.902   9.965  1.00  0.00     0.049 A 
ATOM     44  N   UNL     1      -3.337 -12.777  11.738  1.00  0.00    -0.248 NA
ATOM     45  C   UNL     1      -3.066 -11.026  13.259  1.00  0.00     0.031 C 
ATOM     46  C   UNL     1      -5.611 -10.021   9.045  1.00  0.00     0.029 A 
ATOM     47  N   UNL     1      -4.890 -12.118   9.329  1.00  0.00    -0.354 N 
ATOM     48  C   UNL     1      -2.581 -13.217  12.816  1.00  0.00     0.074 A 
ATOM     49  C   UNL     1      -2.395 -12.082  13.695  1.00  0.00     0.031 C 
ATOM     50  C   UNL     1      -5.995 -10.727   7.971  1.00  0.00     0.029 A 
ATOM     51  C   UNL     1      -5.517 -12.099   8.107  1.00  0.00     0.049 A 
ATOM     52  H   UNL     1      -4.478 -12.927   9.711  1.00  0.00     0.167 HD
ATOM     53  C   UNL     1      -2.104 -14.461  13.060  1.00  0.00     0.037 A 
ATOM     54  C   UNL     1      -5.676 -13.076   7.195  1.00  0.00     0.037 A 
ATOM     55  C   UNL     1      -2.310 -15.591  12.192  1.00  0.00     0.049 A 
ATOM     56  C   UNL     1      -5.120 -14.444   7.481  1.00  0.00     0.074 A 
ATOM     57  C   UNL     1      -1.927 -16.907  12.381  1.00  0.00     0.029 A 
ATOM     58  N   UNL     1      -2.953 -15.535  10.963  1.00  0.00    -0.354 N 
ATOM     59  N   UNL     1      -4.465 -14.867   8.534  1.00  0.00    -0.248 NA
ATOM     60  C   UNL     1      -5.327 -15.470   6.450  1.00  0.00     0.031 C 
ATOM     61  C   UNL     1      -2.295 -17.638  11.246  1.00  0.00     0.029 A 
ATOM     62  C   UNL     1      -2.951 -16.788  10.370  1.00  0.00     0.049 A 
ATOM     63  H   UNL     1      -3.353 -14.725  10.571  1.00  0.00     0.167 HD
ATOM     64  C   UNL     1      -4.198 -16.210   8.304  1.00  0.00     0.074 A 
ATOM     65  C   UNL     1      -4.779 -16.536   7.018  1.00  0.00     0.031 C 
ATOM     66  C   UNL     1      -3.529 -17.093   9.086  1.00  0.00     0.037 A 
BRANCH  53  67
ATOM     67  C   UNL     1      -1.308 -14.664  14.317  1.00  0.00     0.064 A 
ATOM     68  C   UNL     1      -1.910 -14.619  15.584  1.00  0.00     0.173 A 
ATOM     69  C   UNL     1       0.067 -14.935  14.254  1.00  0.00     0.173 A 
ATOM     70  F   UNL     1      -3.220 -14.352  15.700  1.00  0.00    -0.203 F 
ATOM     71  C   UNL     1      -1.159 -14.805  16.742  1.00  0.00     0.198 A 
ATOM     72  C   UNL     1       0.809 -15.151  15.413  1.00  0.00     0.198 A 
ATOM     73  F   UNL     1       0.691 -14.995  13.069  1.00  0.00    -0.203 F 
ATOM     74  F   UNL     1      -1.746 -14.705  17.943  1.00  0.00    -0.200 F 
ATOM     75  C   UNL     1       0.198 -15.077  16.655  1.00  0.00     0.200 A 
ATOM     76  F   UNL     1       2.118 -15.426  15.327  1.00  0.00    -0.200 F 
ATOM     77  F   UNL     1       0.918 -15.260  17.770  1.00  0.00    -0.200 F 
ENDBRANCH  53  67
BRANCH  54  78
ATOM     78  C   UNL     1      -6.410 -12.798   5.934  1.00  0.00     0.064 A 
ATOM     79  C   UNL     1      -7.676 -13.352   5.703  1.00  0.00     0.173 A 
ATOM     80  C   UNL     1      -5.868 -11.970   4.941  1.00  0.00     0.173 A 
ATOM     81  F   UNL     1      -8.226 -14.167   6.615  1.00  0.00    -0.203 F 
ATOM     82  C   UNL     1      -8.367 -13.101   4.519  1.00  0.00     0.198 A 
ATOM     83  C   UNL     1      -6.571 -11.698   3.769  1.00  0.00     0.198 A 
ATOM     84  F   UNL     1      -4.661 -11.412   5.115  1.00  0.00    -0.203 F 
ATOM     85  F   UNL     1      -9.558 -13.675   4.307  1.00  0.00    -0.200 F 
ATOM     86  C   UNL     1      -7.816 -12.269   3.556  1.00  0.00     0.200 A 
ATOM     87  F   UNL     1      -6.042 -10.882   2.847  1.00  0.00    -0.200 F 
ATOM     88  F   UNL     1      -8.484 -12.022   2.421  1.00  0.00    -0.200 F 
ENDBRANCH  54  78
BRANCH  66  89
ATOM     89  C   UNL     1      -3.403 -18.499   8.577  1.00  0.00     0.064 A 
ATOM     90  C   UNL     1      -2.552 -18.818   7.509  1.00  0.00     0.173 A 
ATOM     91  C   UNL     1      -4.114 -19.544   9.187  1.00  0.00     0.173 A 
ATOM     92  F   UNL     1      -1.864 -17.852   6.882  1.00  0.00    -0.203 F 
ATOM     93  C   UNL     1      -2.435 -20.129   7.055  1.00  0.00     0.198 A 
ATOM     94  C   UNL     1      -3.972 -20.857   8.749  1.00  0.00     0.198 A 
ATOM     95  F   UNL     1      -4.938 -19.292  10.215  1.00  0.00    -0.203 F 
ATOM     96  F   UNL     1      -1.651 -20.404   6.003  1.00  0.00    -0.200 F 
ATOM     97  C   UNL     1      -3.139 -21.148   7.679  1.00  0.00     0.200 A 
ATOM     98  F   UNL     1      -4.643 -21.842   9.361  1.00  0.00    -0.200 F 
ATOM     99  F   UNL     1      -3.020 -22.410   7.245  1.00  0.00    -0.200 F 
ENDBRANCH  66  89
ENDBRANCH  40  41
ENDBRANCH  32  35
ENDBRANCH  30  31
ENDBRANCH  29  30
ENDBRANCH  28  29
ENDBRANCH  27  28
ENDBRANCH   1  27
TORSDOF 18
