REMARK SMILES O=C(NCCCCCCNC(=O)[C@H](c1c[nH]c2cc(F)ccc12)[NH+]1CCN(c2ccccc2)CC1)c1ccc(-c2c3nc(c(-c4c(F)c(F)c(F)c(F)c4F)c4ccc([nH]4)c(-c4c(F)c(F)c(F)c(F)c4F)c4nc(c(-c5c(F)c(F)c(F)c(F)c5F)c5ccc2[nH]5)C=C4)C=C3)cc1
REMARK SMILES IDX 6 1 5 2 4 3 3 4 1 5 2 6 36 8 37 9 98 10 38 11 97 12 39 13
REMARK SMILES IDX 40 14 41 15 91 16 42 17 96 18 90 19 92 20 43 21 95 22 89 23
REMARK SMILES IDX 88 24 44 26 76 27 56 28 75 29 57 30 60 31 74 32 93 33 58 34
REMARK SMILES IDX 59 35 73 37 94 38 61 39 45 40 46 41 54 42 47 43 48 44 52 45
REMARK SMILES IDX 55 46 49 47 50 48 53 49 51 50 77 51 78 52 86 53 79 54 80 55
REMARK SMILES IDX 84 56 87 57 81 58 82 59 85 60 83 61 62 62 63 63 71 64 64 65
REMARK SMILES IDX 65 66 69 67 72 68 66 69 67 70 70 71 68 72 7 73 8 74 9 75
REMARK SMILES IDX 10 76 11 77 12 79 13 80 24 81 25 82 35 83 26 85 34 86 27 87
REMARK SMILES IDX 28 88 29 89 33 90 30 91 32 92 31 93 14 94 15 95 23 96 16 97
REMARK SMILES IDX 17 98 22 99 18 101 21 102 19 103 20 104
REMARK H PARENT 3 7 92 25 60 36 10 78 24 84 16 100
REMARK Flexibility Score: inf
ROOT
ATOM      1  C   UNL     1      13.138   1.778   2.186  1.00  0.00     0.002 C 
ENDROOT
BRANCH   1   2
ATOM      2  C   UNL     1      13.770   2.772   1.207  1.00  0.00     0.021 C 
BRANCH   2   3
ATOM      3  C   UNL     1      15.232   3.106   1.466  1.00  0.00     0.116 C 
BRANCH   3   4
ATOM      4  N   UNL     1      16.072   1.923   1.492  1.00  0.00    -0.352 N 
ATOM      5  O   UNL     1      17.642   0.487   0.749  1.00  0.00    -0.269 OA
ATOM      6  C   UNL     1      17.164   1.614   0.724  1.00  0.00     0.251 C 
ATOM      7  H   UNL     1      15.820   1.243   2.159  1.00  0.00     0.163 HD
BRANCH   6   8
ATOM      8  C   UNL     1      17.767   2.652  -0.137  1.00  0.00     0.039 A 
ATOM      9  C   UNL     1      17.988   3.941   0.357  1.00  0.00     0.014 A 
ATOM     10  C   UNL     1      18.166   2.315  -1.433  1.00  0.00     0.014 A 
ATOM     11  C   UNL     1      18.524   4.918  -0.471  1.00  0.00     0.010 A 
ATOM     12  C   UNL     1      18.783   3.274  -2.237  1.00  0.00     0.010 A 
ATOM     13  C   UNL     1      18.970   4.580  -1.759  1.00  0.00    -0.014 A 
BRANCH  13  14
ATOM     14  C   UNL     1      19.773   5.563  -2.524  1.00  0.00     0.031 A 
ATOM     15  C   UNL     1      19.281   6.139  -3.817  1.00  0.00     0.074 A 
ATOM     16  C   UNL     1      20.979   5.906  -2.030  1.00  0.00     0.049 A 
ATOM     17  N   UNL     1      19.887   6.971  -4.626  1.00  0.00    -0.248 NA
ATOM     18  C   UNL     1      17.943   5.728  -4.270  1.00  0.00     0.031 C 
ATOM     19  C   UNL     1      21.558   5.383  -0.788  1.00  0.00     0.029 A 
ATOM     20  N   UNL     1      21.938   6.764  -2.503  1.00  0.00    -0.354 N 
ATOM     21  C   UNL     1      19.018   7.168  -5.690  1.00  0.00     0.074 A 
ATOM     22  C   UNL     1      17.844   6.361  -5.433  1.00  0.00     0.031 C 
ATOM     23  C   UNL     1      22.758   5.943  -0.589  1.00  0.00     0.029 A 
ATOM     24  C   UNL     1      23.067   6.804  -1.722  1.00  0.00     0.049 A 
ATOM     25  H   UNL     1      21.828   7.298  -3.323  1.00  0.00     0.167 HD
ATOM     26  C   UNL     1      19.197   7.954  -6.778  1.00  0.00     0.037 A 
ATOM     27  C   UNL     1      24.243   7.428  -1.919  1.00  0.00     0.037 A 
ATOM     28  C   UNL     1      20.367   8.764  -7.007  1.00  0.00     0.049 A 
ATOM     29  C   UNL     1      24.418   8.256  -3.159  1.00  0.00     0.074 A 
ATOM     30  C   UNL     1      20.607   9.658  -8.036  1.00  0.00     0.029 A 
ATOM     31  N   UNL     1      21.500   8.765  -6.206  1.00  0.00    -0.354 N 
ATOM     32  N   UNL     1      23.557   8.502  -4.116  1.00  0.00    -0.248 NA
ATOM     33  C   UNL     1      25.730   8.887  -3.354  1.00  0.00     0.031 C 
ATOM     34  C   UNL     1      21.910  10.143  -7.899  1.00  0.00     0.029 A 
ATOM     35  C   UNL     1      22.461   9.603  -6.749  1.00  0.00     0.049 A 
ATOM     36  H   UNL     1      21.606   8.247  -5.375  1.00  0.00     0.167 HD
ATOM     37  C   UNL     1      24.216   9.322  -5.019  1.00  0.00     0.074 A 
ATOM     38  C   UNL     1      25.538   9.561  -4.478  1.00  0.00     0.031 C 
ATOM     39  C   UNL     1      23.773   9.823  -6.197  1.00  0.00     0.037 A 
BRANCH  26  40
ATOM     40  C   UNL     1      18.128   7.975  -7.831  1.00  0.00     0.064 A 
ATOM     41  C   UNL     1      16.905   8.630  -7.632  1.00  0.00     0.173 A 
ATOM     42  C   UNL     1      18.380   7.427  -9.099  1.00  0.00     0.173 A 
ATOM     43  F   UNL     1      16.611   9.165  -6.437  1.00  0.00    -0.203 F 
ATOM     44  C   UNL     1      15.973   8.733  -8.662  1.00  0.00     0.198 A 
ATOM     45  C   UNL     1      17.458   7.555 -10.134  1.00  0.00     0.198 A 
ATOM     46  F   UNL     1      19.538   6.796  -9.344  1.00  0.00    -0.203 F 
ATOM     47  F   UNL     1      14.802   9.349  -8.445  1.00  0.00    -0.200 F 
ATOM     48  C   UNL     1      16.255   8.207  -9.915  1.00  0.00     0.200 A 
ATOM     49  F   UNL     1      17.740   7.060 -11.347  1.00  0.00    -0.200 F 
ATOM     50  F   UNL     1      15.367   8.332 -10.912  1.00  0.00    -0.200 F 
ENDBRANCH  26  40
BRANCH  27  51
ATOM     51  C   UNL     1      25.357   7.246  -0.951  1.00  0.00     0.064 A 
ATOM     52  C   UNL     1      25.856   8.322  -0.206  1.00  0.00     0.173 A 
ATOM     53  C   UNL     1      25.967   5.993  -0.774  1.00  0.00     0.173 A 
ATOM     54  F   UNL     1      25.319   9.543  -0.351  1.00  0.00    -0.203 F 
ATOM     55  C   UNL     1      26.943   8.161   0.651  1.00  0.00     0.198 A 
ATOM     56  C   UNL     1      27.027   5.825   0.113  1.00  0.00     0.198 A 
ATOM     57  F   UNL     1      25.525   4.927  -1.457  1.00  0.00    -0.203 F 
ATOM     58  F   UNL     1      27.442   9.222   1.301  1.00  0.00    -0.200 F 
ATOM     59  C   UNL     1      27.524   6.912   0.813  1.00  0.00     0.200 A 
ATOM     60  F   UNL     1      27.570   4.612   0.281  1.00  0.00    -0.200 F 
ATOM     61  F   UNL     1      28.571   6.760   1.635  1.00  0.00    -0.200 F 
ENDBRANCH  27  51
BRANCH  39  62
ATOM     62  C   UNL     1      24.724  10.685  -6.973  1.00  0.00     0.064 A 
ATOM     63  C   UNL     1      25.846  10.140  -7.616  1.00  0.00     0.173 A 
ATOM     64  C   UNL     1      24.492  12.062  -7.109  1.00  0.00     0.173 A 
ATOM     65  F   UNL     1      26.122   8.833  -7.498  1.00  0.00    -0.203 F 
ATOM     66  C   UNL     1      26.712  10.947  -8.348  1.00  0.00     0.198 A 
ATOM     67  C   UNL     1      25.340  12.859  -7.871  1.00  0.00     0.198 A 
ATOM     68  F   UNL     1      23.431  12.631  -6.516  1.00  0.00    -0.203 F 
ATOM     69  F   UNL     1      27.804  10.413  -8.913  1.00  0.00    -0.200 F 
ATOM     70  C   UNL     1      26.453  12.303  -8.484  1.00  0.00     0.200 A 
ATOM     71  F   UNL     1      25.081  14.166  -8.013  1.00  0.00    -0.200 F 
ATOM     72  F   UNL     1      27.281  13.075  -9.200  1.00  0.00    -0.200 F 
ENDBRANCH  39  62
ENDBRANCH  13  14
ENDBRANCH   6   8
ENDBRANCH   3   4
ENDBRANCH   2   3
ENDBRANCH   1   2
BRANCH   1  73
ATOM     73  C   UNL     1      13.264   2.103   3.680  1.00  0.00     0.002 C 
BRANCH  73  74
ATOM     74  C   UNL     1      12.846   3.503   4.113  1.00  0.00     0.021 C 
BRANCH  74  75
ATOM     75  C   UNL     1      11.513   3.996   3.587  1.00  0.00     0.116 C 
BRANCH  75  76
ATOM     76  N   UNL     1      10.320   3.604   4.267  1.00  0.00    -0.351 N 
ATOM     77  C   UNL     1       9.101   4.224   4.356  1.00  0.00     0.283 C 
ATOM     78  H   UNL     1      10.384   2.749   4.751  1.00  0.00     0.163 HD
ATOM     79  O   UNL     1       8.228   3.426   4.741  1.00  0.00    -0.268 OA
BRANCH  77  80
ATOM     80  C   UNL     1       8.804   5.813   4.233  1.00  0.00     0.307 C 
BRANCH  80  81
ATOM     81  N   UNL     1       8.952   6.516   2.903  1.00  0.00    -0.318 N 
ATOM     82  C   UNL     1       8.628   7.996   3.003  1.00  0.00     0.284 C 
ATOM     83  C   UNL     1      10.269   6.494   2.256  1.00  0.00     0.284 C 
ATOM     84  H   UNL     1       8.300   5.967   2.342  1.00  0.00     0.349 HD
ATOM     85  C   UNL     1       9.695   8.922   3.687  1.00  0.00     0.178 C 
ATOM     86  C   UNL     1      11.364   7.237   3.053  1.00  0.00     0.178 C 
ATOM     87  N   UNL     1      11.018   8.646   3.119  1.00  0.00    -0.360 N 
BRANCH  87  88
ATOM     88  C   UNL     1      11.995   9.578   2.857  1.00  0.00     0.037 A 
ATOM     89  C   UNL     1      12.221  10.692   3.668  1.00  0.00     0.026 A 
ATOM     90  C   UNL     1      12.831   9.416   1.736  1.00  0.00     0.026 A 
ATOM     91  C   UNL     1      13.257  11.592   3.383  1.00  0.00     0.002 A 
ATOM     92  C   UNL     1      13.859  10.309   1.441  1.00  0.00     0.002 A 
ATOM     93  C   UNL     1      14.075  11.400   2.270  1.00  0.00     0.000 A 
ENDBRANCH  87  88
ENDBRANCH  80  81
BRANCH  80  94
ATOM     94  C   UNL     1       7.308   5.977   4.567  1.00  0.00     0.044 A 
ATOM     95  C   UNL     1       6.260   5.398   3.861  1.00  0.00     0.094 A 
ATOM     96  C   UNL     1       6.702   6.803   5.574  1.00  0.00     0.009 A 
ATOM     97  N   UNL     1       5.080   5.803   4.406  1.00  0.00    -0.361 N 
ATOM     98  C   UNL     1       5.315   6.699   5.420  1.00  0.00     0.049 A 
ATOM     99  C   UNL     1       7.202   7.672   6.568  1.00  0.00     0.014 A 
ATOM    100  H   UNL     1       4.190   5.498   4.117  1.00  0.00     0.166 HD
ATOM    101  C   UNL     1       4.406   7.423   6.197  1.00  0.00     0.065 A 
ATOM    102  C   UNL     1       6.304   8.413   7.347  1.00  0.00     0.040 A 
ATOM    103  C   UNL     1       4.935   8.285   7.153  1.00  0.00     0.125 A 
ATOM    104  F   UNL     1       4.098   9.016   7.901  1.00  0.00    -0.207 F 
ENDBRANCH  80  94
ENDBRANCH  77  80
ENDBRANCH  75  76
ENDBRANCH  74  75
ENDBRANCH  73  74
ENDBRANCH   1  73
TORSDOF 16
