REMARK SMILES Cc1ccc(S(=O)(=O)n2cc(C(=O)C(=O)NCC(=O)NCCCCCCNC(=O)c3ccc(-c4c5nc(c(-c6c(F)c(F)c(F)c(F)c6F)c6ccc([nH]6)c(-c6c(F)c(F)c(F)c(F)c6F)c6nc(c(-c7c(F)c(F)c(F)c(F)c7F)c7ccc4[nH]7)C=C6)C=C5)cc3)c3ccccc32)cc1
REMARK SMILES IDX 22 1 21 2 20 3 18 4 19 5 17 7 16 8 14 9 15 10 12 12 13 13
REMARK SMILES IDX 11 14 9 15 10 16 98 17 93 18 97 19 94 20 96 21 95 22 6 23
REMARK SMILES IDX 7 24 8 25 5 26 1 27 2 28 3 29 100 30 4 31 99 32 23 33 24 34
REMARK SMILES IDX 25 35 26 36 27 37 28 38 29 40 30 41 31 42 92 43 32 44 91 45
REMARK SMILES IDX 33 46 34 47 35 48 85 49 36 50 90 51 84 52 86 53 37 54 89 55
REMARK SMILES IDX 83 56 82 57 38 59 70 60 50 61 69 62 51 63 54 64 68 65 87 66
REMARK SMILES IDX 52 67 53 68 67 70 88 71 55 72 39 73 40 74 48 75 41 76 42 77
REMARK SMILES IDX 46 78 49 79 43 80 44 81 47 82 45 83 71 84 72 85 80 86 73 87
REMARK SMILES IDX 74 88 78 89 81 90 75 91 76 92 79 93 77 94 56 95 57 96 65 97
REMARK SMILES IDX 58 98 59 99 63 100 66 101 60 102 61 103 64 104 62 105
REMARK H PARENT 20 6 16 11 27 39 86 58 54 69
REMARK Flexibility Score: inf
ROOT
ATOM      1  C   UNL     1     -10.100   3.572   1.315  1.00  0.00     0.021 C 
ENDROOT
BRANCH   1   2
ATOM      2  C   UNL     1      -9.398   4.901   1.041  1.00  0.00     0.116 C 
BRANCH   2   3
ATOM      3  N   UNL     1      -9.873   5.935   1.931  1.00  0.00    -0.355 N 
ATOM      4  C   UNL     1      -9.210   6.608   2.914  1.00  0.00     0.239 C 
ATOM      5  O   UNL     1      -9.813   7.504   3.507  1.00  0.00    -0.273 OA
ATOM      6  H   UNL     1     -10.815   6.192   1.810  1.00  0.00     0.163 HD
BRANCH   4   7
ATOM      7  C   UNL     1      -7.718   6.357   3.163  1.00  0.00     0.216 C 
BRANCH   7   8
ATOM      8  N   UNL     1      -7.380   4.967   3.458  1.00  0.00    -0.340 N 
ATOM      9  C   UNL     1      -6.494   4.096   2.857  1.00  0.00     0.292 C 
ATOM     10  O   UNL     1      -6.380   2.968   3.326  1.00  0.00    -0.265 OA
ATOM     11  H   UNL     1      -7.872   4.583   4.220  1.00  0.00     0.164 HD
BRANCH   9  12
ATOM     12  C   UNL     1      -5.689   4.504   1.592  1.00  0.00     0.252 C 
ATOM     13  O   UNL     1      -5.603   5.697   1.316  1.00  0.00    -0.283 OA
BRANCH  12  14
ATOM     14  C   UNL     1      -5.054   3.505   0.714  1.00  0.00     0.054 A 
ATOM     15  N   UNL     1      -4.166   1.613  -0.083  1.00  0.00    -0.240 N 
ATOM     16  C   UNL     1      -4.842   2.162   0.977  1.00  0.00     0.117 A 
ATOM     17  C   UNL     1      -3.942   2.547  -1.071  1.00  0.00     0.065 A 
ATOM     18  C   UNL     1      -4.488   3.747  -0.594  1.00  0.00     0.012 A 
ATOM     19  C   UNL     1      -3.284   2.470  -2.313  1.00  0.00     0.028 A 
ATOM     20  C   UNL     1      -4.381   4.898  -1.408  1.00  0.00     0.011 A 
ATOM     21  C   UNL     1      -3.172   3.632  -3.079  1.00  0.00     0.002 A 
ATOM     22  C   UNL     1      -3.719   4.830  -2.638  1.00  0.00     0.001 A 
BRANCH  15  23
ATOM     23  S   UNL     1      -3.586   0.011  -0.106  1.00  0.00     0.268 S 
ATOM     24  O   UNL     1      -3.934  -0.499  -1.415  1.00  0.00    -0.201 OA
ATOM     25  O   UNL     1      -4.085  -0.604   1.114  1.00  0.00    -0.201 OA
BRANCH  23  26
ATOM     26  C   UNL     1      -1.817   0.064   0.013  1.00  0.00     0.088 A 
ATOM     27  C   UNL     1       2.486  -0.048   0.023  1.00  0.00     0.044 C 
ATOM     28  C   UNL     1       0.986  -0.004   0.039  1.00  0.00    -0.051 A 
ATOM     29  C   UNL     1       0.251  -1.193  -0.041  1.00  0.00     0.005 A 
ATOM     30  C   UNL     1       0.303   1.215   0.137  1.00  0.00     0.005 A 
ATOM     31  C   UNL     1      -1.144  -1.161  -0.060  1.00  0.00     0.022 A 
ATOM     32  C   UNL     1      -1.094   1.253   0.136  1.00  0.00     0.022 A 
ENDBRANCH  23  26
ENDBRANCH  15  23
ENDBRANCH  12  14
ENDBRANCH   9  12
ENDBRANCH   7   8
ENDBRANCH   4   7
ENDBRANCH   2   3
ENDBRANCH   1   2
BRANCH   1  33
ATOM     33  C   UNL     1     -11.579   3.553   0.901  1.00  0.00     0.002 C 
BRANCH  33  34
ATOM     34  C   UNL     1     -11.870   4.008  -0.537  1.00  0.00     0.002 C 
BRANCH  34  35
ATOM     35  C   UNL     1     -11.008   3.348  -1.610  1.00  0.00     0.021 C 
BRANCH  35  36
ATOM     36  C   UNL     1     -11.348   1.888  -1.853  1.00  0.00     0.116 C 
BRANCH  36  37
ATOM     37  N   UNL     1     -12.390   1.736  -2.864  1.00  0.00    -0.352 N 
ATOM     38  C   UNL     1     -12.765   0.644  -3.622  1.00  0.00     0.251 C 
ATOM     39  H   UNL     1     -12.915   2.551  -3.035  1.00  0.00     0.163 HD
ATOM     40  O   UNL     1     -13.568   0.778  -4.539  1.00  0.00    -0.269 OA
BRANCH  38  41
ATOM     41  C   UNL     1     -12.380  -0.714  -3.176  1.00  0.00     0.039 A 
ATOM     42  C   UNL     1     -13.456  -1.588  -2.958  1.00  0.00     0.014 A 
ATOM     43  C   UNL     1     -11.158  -0.921  -2.555  1.00  0.00     0.014 A 
ATOM     44  C   UNL     1     -13.421  -2.424  -1.857  1.00  0.00     0.010 A 
ATOM     45  C   UNL     1     -11.172  -1.625  -1.380  1.00  0.00     0.010 A 
ATOM     46  C   UNL     1     -12.338  -2.300  -1.001  1.00  0.00    -0.014 A 
BRANCH  46  47
ATOM     47  C   UNL     1     -12.285  -2.868   0.325  1.00  0.00     0.031 A 
ATOM     48  C   UNL     1     -11.559  -4.133   0.468  1.00  0.00     0.074 A 
ATOM     49  C   UNL     1     -12.708  -2.106   1.356  1.00  0.00     0.049 A 
ATOM     50  N   UNL     1     -11.585  -4.875   1.511  1.00  0.00    -0.248 NA
ATOM     51  C   UNL     1     -10.757  -4.695  -0.616  1.00  0.00     0.031 C 
ATOM     52  C   UNL     1     -12.438  -2.270   2.780  1.00  0.00     0.029 A 
ATOM     53  N   UNL     1     -13.671  -1.082   1.307  1.00  0.00    -0.354 N 
ATOM     54  C   UNL     1     -10.594  -5.822   1.371  1.00  0.00     0.074 A 
ATOM     55  C   UNL     1     -10.184  -5.733  -0.005  1.00  0.00     0.031 C 
ATOM     56  C   UNL     1     -13.400  -1.642   3.479  1.00  0.00     0.029 A 
ATOM     57  C   UNL     1     -14.397  -1.204   2.516  1.00  0.00     0.049 A 
ATOM     58  H   UNL     1     -13.810  -0.424   0.588  1.00  0.00     0.167 HD
ATOM     59  C   UNL     1     -10.161  -6.446   2.503  1.00  0.00     0.037 A 
ATOM     60  C   UNL     1     -15.693  -1.639   2.493  1.00  0.00     0.037 A 
ATOM     61  C   UNL     1     -11.054  -6.100   3.613  1.00  0.00     0.049 A 
ATOM     62  C   UNL     1     -15.870  -2.954   3.220  1.00  0.00     0.074 A 
ATOM     63  C   UNL     1     -10.978  -5.148   4.617  1.00  0.00     0.029 A 
ATOM     64  N   UNL     1     -12.390  -6.484   3.535  1.00  0.00    -0.354 N 
ATOM     65  N   UNL     1     -14.927  -3.849   3.360  1.00  0.00    -0.248 NA
ATOM     66  C   UNL     1     -17.107  -3.331   3.893  1.00  0.00     0.031 C 
ATOM     67  C   UNL     1     -12.299  -4.904   5.085  1.00  0.00     0.029 A 
ATOM     68  C   UNL     1     -13.169  -5.729   4.391  1.00  0.00     0.049 A 
ATOM     69  H   UNL     1     -12.734  -7.197   2.950  1.00  0.00     0.167 HD
ATOM     70  C   UNL     1     -15.388  -4.880   4.141  1.00  0.00     0.074 A 
ATOM     71  C   UNL     1     -16.755  -4.502   4.452  1.00  0.00     0.031 C 
ATOM     72  C   UNL     1     -14.607  -5.952   4.483  1.00  0.00     0.037 A 
BRANCH  59  73
ATOM     73  C   UNL     1      -8.817  -7.125   2.684  1.00  0.00     0.064 A 
ATOM     74  C   UNL     1      -8.297  -7.317   3.985  1.00  0.00     0.173 A 
ATOM     75  C   UNL     1      -7.952  -7.539   1.651  1.00  0.00     0.173 A 
ATOM     76  F   UNL     1      -9.020  -7.032   5.076  1.00  0.00    -0.203 F 
ATOM     77  C   UNL     1      -7.007  -7.806   4.221  1.00  0.00     0.198 A 
ATOM     78  C   UNL     1      -6.653  -8.005   1.886  1.00  0.00     0.198 A 
ATOM     79  F   UNL     1      -8.327  -7.560   0.372  1.00  0.00    -0.203 F 
ATOM     80  F   UNL     1      -6.572  -7.948   5.481  1.00  0.00    -0.200 F 
ATOM     81  C   UNL     1      -6.177  -8.131   3.171  1.00  0.00     0.200 A 
ATOM     82  F   UNL     1      -5.870  -8.334   0.848  1.00  0.00    -0.200 F 
ATOM     83  F   UNL     1      -4.936  -8.584   3.394  1.00  0.00    -0.200 F 
ENDBRANCH  59  73
BRANCH  60  84
ATOM     84  C   UNL     1     -16.406  -1.210   1.251  1.00  0.00     0.064 A 
ATOM     85  C   UNL     1     -16.480   0.176   0.992  1.00  0.00     0.173 A 
ATOM     86  C   UNL     1     -16.584  -2.075   0.165  1.00  0.00     0.173 A 
ATOM     87  F   UNL     1     -16.340   1.053   2.000  1.00  0.00    -0.203 F 
ATOM     88  C   UNL     1     -16.534   0.671  -0.310  1.00  0.00     0.198 A 
ATOM     89  C   UNL     1     -16.681  -1.571  -1.137  1.00  0.00     0.198 A 
ATOM     90  F   UNL     1     -16.536  -3.403   0.337  1.00  0.00    -0.203 F 
ATOM     91  F   UNL     1     -16.427   1.991  -0.528  1.00  0.00    -0.200 F 
ATOM     92  C   UNL     1     -16.601  -0.205  -1.376  1.00  0.00     0.200 A 
ATOM     93  F   UNL     1     -16.739  -2.418  -2.176  1.00  0.00    -0.200 F 
ATOM     94  F   UNL     1     -16.543   0.259  -2.632  1.00  0.00    -0.200 F 
ENDBRANCH  60  84
BRANCH  72  95
ATOM     95  C   UNL     1     -15.095  -7.283   5.031  1.00  0.00     0.064 A 
ATOM     96  C   UNL     1     -16.420  -7.741   4.940  1.00  0.00     0.173 A 
ATOM     97  C   UNL     1     -14.175  -8.234   5.550  1.00  0.00     0.173 A 
ATOM     98  F   UNL     1     -17.374  -7.024   4.335  1.00  0.00    -0.203 F 
ATOM     99  C   UNL     1     -16.809  -9.000   5.409  1.00  0.00     0.198 A 
ATOM    100  C   UNL     1     -14.552  -9.519   5.936  1.00  0.00     0.198 A 
ATOM    101  F   UNL     1     -12.867  -7.966   5.671  1.00  0.00    -0.203 F 
ATOM    102  F   UNL     1     -18.101  -9.353   5.357  1.00  0.00    -0.200 F 
ATOM    103  C   UNL     1     -15.874  -9.894   5.892  1.00  0.00     0.200 A 
ATOM    104  F   UNL     1     -13.616 -10.396   6.329  1.00  0.00    -0.200 F 
ATOM    105  F   UNL     1     -16.244 -11.118   6.288  1.00  0.00    -0.200 F 
ENDBRANCH  72  95
ENDBRANCH  46  47
ENDBRANCH  38  41
ENDBRANCH  36  37
ENDBRANCH  35  36
ENDBRANCH  34  35
ENDBRANCH  33  34
ENDBRANCH   1  33
TORSDOF 18
