REMARK SMILES Cc1cc(S(=O)(=O)N[C@@H](CO)C(=O)NCCCCCCNC(=O)c2ccc(-c3c4nc(c(-c5c(F)c(F)c(F)c(F)c5F)c5ccc([nH]5)c(-c5c(F)c(F)c(F)c(F)c5F)c5nc(c(-c6c(F)c(F)c(F)c(F)c6F)c6ccc3[nH]6)C=C5)C=C4)cc2)ccc1OC(C)C
REMARK SMILES IDX 16 1 15 2 14 3 12 4 13 5 9 7 8 8 5 10 6 11 7 12 4 13 1 14
REMARK SMILES IDX 2 15 3 16 89 17 88 18 87 19 90 20 91 21 92 22 93 23 10 24
REMARK SMILES IDX 11 25 17 27 18 28 19 29 20 30 21 31 22 32 23 34 24 35 25 36
REMARK SMILES IDX 86 37 26 38 85 39 27 40 28 41 29 42 79 43 30 44 84 45 78 46
REMARK SMILES IDX 80 47 31 48 83 49 77 50 76 51 32 53 64 54 44 55 63 56 45 57
REMARK SMILES IDX 48 58 62 59 81 60 46 61 47 62 61 64 82 65 49 66 33 67 34 68
REMARK SMILES IDX 42 69 35 70 36 71 40 72 43 73 37 74 38 75 41 76 39 77 65 78
REMARK SMILES IDX 66 79 74 80 67 81 68 82 72 83 75 84 69 85 70 86 73 87 71 88
REMARK SMILES IDX 50 89 51 90 59 91 52 92 53 93 57 94 60 95 54 96 55 97 58 98
REMARK SMILES IDX 56 99
REMARK H PARENT 14 6 8 9 11 26 21 33 80 52 48 63
REMARK Flexibility Score: inf
ROOT
ATOM      1  C   UNL     1      -6.940  -4.474   0.129  1.00  0.00     0.021 C 
ENDROOT
BRANCH   1   2
ATOM      2  C   UNL     1      -6.139  -3.837  -1.004  1.00  0.00     0.116 C 
BRANCH   2   3
ATOM      3  N   UNL     1      -6.392  -2.415  -1.131  1.00  0.00    -0.355 N 
ATOM      4  C   UNL     1      -5.522  -1.417  -1.464  1.00  0.00     0.240 C 
ATOM      5  O   UNL     1      -5.986  -0.294  -1.678  1.00  0.00    -0.273 OA
ATOM      6  H   UNL     1      -7.317  -2.130  -0.953  1.00  0.00     0.163 HD
BRANCH   4   7
ATOM      7  C   UNL     1      -4.008  -1.661  -1.513  1.00  0.00     0.184 C 
BRANCH   7   8
ATOM      8  N   UNL     1      -3.606  -2.292  -0.239  1.00  0.00    -0.196 NA
ATOM      9  H   UNL     1      -3.854  -1.620   0.486  1.00  0.00     0.142 HD
BRANCH   8  10
ATOM     10  S   UNL     1      -2.078  -2.796   0.132  1.00  0.00     0.241 S 
ATOM     11  O   UNL     1      -1.620  -3.609  -0.973  1.00  0.00    -0.207 OA
ATOM     12  O   UNL     1      -2.147  -3.314   1.480  1.00  0.00    -0.207 OA
BRANCH  10  13
ATOM     13  C   UNL     1      -1.102  -1.327   0.183  1.00  0.00     0.083 A 
ATOM     14  C   UNL     1       2.585  -0.687  -0.086  1.00  0.00     0.048 C 
ATOM     15  C   UNL     1       1.133  -0.316   0.018  1.00  0.00    -0.008 A 
ATOM     16  C   UNL     1       0.280  -1.448   0.035  1.00  0.00     0.029 A 
ATOM     17  C   UNL     1       0.545   0.956   0.093  1.00  0.00     0.122 A 
ATOM     18  C   UNL     1      -0.854   1.046   0.260  1.00  0.00     0.048 A 
ATOM     19  C   UNL     1      -1.674  -0.076   0.335  1.00  0.00     0.025 A 
BRANCH  17  20
ATOM     20  O   UNL     1       1.055   2.215   0.022  1.00  0.00    -0.491 OA
BRANCH  20  21
ATOM     21  C   UNL     1       2.419   2.601   0.007  1.00  0.00     0.167 C 
ATOM     22  C   UNL     1       3.141   2.266   1.310  1.00  0.00     0.052 C 
ATOM     23  C   UNL     1       3.114   2.277  -1.314  1.00  0.00     0.052 C 
ENDBRANCH  20  21
ENDBRANCH  17  20
ENDBRANCH  10  13
ENDBRANCH   8  10
ENDBRANCH   7   8
BRANCH   7  24
ATOM     24  C   UNL     1      -3.592  -2.375  -2.805  1.00  0.00     0.186 C 
BRANCH  24  25
ATOM     25  O   UNL     1      -3.678  -3.795  -2.748  1.00  0.00    -0.394 OA
ATOM     26  H   UNL     1      -3.068  -4.129  -2.071  1.00  0.00     0.210 HD
ENDBRANCH  24  25
ENDBRANCH   7  24
ENDBRANCH   4   7
ENDBRANCH   2   3
ENDBRANCH   1   2
BRANCH   1  27
ATOM     27  C   UNL     1      -8.461  -4.452  -0.045  1.00  0.00     0.002 C 
BRANCH  27  28
ATOM     28  C   UNL     1      -8.999  -4.947  -1.394  1.00  0.00     0.002 C 
BRANCH  28  29
ATOM     29  C   UNL     1      -8.418  -6.261  -1.912  1.00  0.00     0.021 C 
BRANCH  29  30
ATOM     30  C   UNL     1      -8.734  -7.474  -1.056  1.00  0.00     0.116 C 
BRANCH  30  31
ATOM     31  N   UNL     1      -9.979  -8.132  -1.423  1.00  0.00    -0.352 N 
ATOM     32  C   UNL     1     -10.502  -9.342  -1.009  1.00  0.00     0.251 C 
ATOM     33  H   UNL     1     -10.535  -7.638  -2.068  1.00  0.00     0.163 HD
ATOM     34  O   UNL     1     -11.491  -9.803  -1.570  1.00  0.00    -0.269 OA
BRANCH  32  35
ATOM     35  C   UNL     1     -10.007  -9.969   0.241  1.00  0.00     0.039 A 
ATOM     36  C   UNL     1     -10.990 -10.368   1.159  1.00  0.00     0.014 A 
ATOM     37  C   UNL     1      -8.688  -9.817   0.648  1.00  0.00     0.014 A 
ATOM     38  C   UNL     1     -10.722 -10.278   2.516  1.00  0.00     0.010 A 
ATOM     39  C   UNL     1      -8.453  -9.595   1.981  1.00  0.00     0.010 A 
ATOM     40  C   UNL     1      -9.499  -9.744   2.896  1.00  0.00    -0.014 A 
BRANCH  40  41
ATOM     41  C   UNL     1      -9.194  -9.272   4.229  1.00  0.00     0.031 A 
ATOM     42  C   UNL     1      -8.381 -10.139   5.093  1.00  0.00     0.074 A 
ATOM     43  C   UNL     1      -9.504  -7.994   4.540  1.00  0.00     0.049 A 
ATOM     44  N   UNL     1      -8.199  -9.935   6.346  1.00  0.00    -0.248 NA
ATOM     45  C   UNL     1      -7.749 -11.368   4.614  1.00  0.00     0.031 C 
ATOM     46  C   UNL     1      -9.001  -7.189   5.648  1.00  0.00     0.029 A 
ATOM     47  N   UNL     1     -10.523  -7.205   3.975  1.00  0.00    -0.354 N 
ATOM     48  C   UNL     1      -7.233 -10.813   6.778  1.00  0.00     0.074 A 
ATOM     49  C   UNL     1      -7.076 -11.755   5.702  1.00  0.00     0.031 C 
ATOM     50  C   UNL     1      -9.867  -6.188   5.886  1.00  0.00     0.029 A 
ATOM     51  C   UNL     1     -11.027  -6.426   5.044  1.00  0.00     0.049 A 
ATOM     52  H   UNL     1     -10.821  -7.195   3.037  1.00  0.00     0.167 HD
ATOM     53  C   UNL     1      -6.611 -10.535   7.956  1.00  0.00     0.037 A 
ATOM     54  C   UNL     1     -12.291  -6.640   5.518  1.00  0.00     0.037 A 
ATOM     55  C   UNL     1      -7.358  -9.495   8.666  1.00  0.00     0.049 A 
ATOM     56  C   UNL     1     -12.305  -7.112   6.955  1.00  0.00     0.074 A 
ATOM     57  C   UNL     1      -7.179  -8.131   8.809  1.00  0.00     0.029 A 
ATOM     58  N   UNL     1      -8.671  -9.767   9.047  1.00  0.00    -0.354 N 
ATOM     59  N   UNL     1     -11.306  -7.725   7.532  1.00  0.00    -0.248 NA
ATOM     60  C   UNL     1     -13.432  -6.902   7.857  1.00  0.00     0.031 C 
ATOM     61  C   UNL     1      -8.437  -7.570   9.171  1.00  0.00     0.029 A 
ATOM     62  C   UNL     1      -9.360  -8.597   9.299  1.00  0.00     0.049 A 
ATOM     63  H   UNL     1      -9.055 -10.670   9.127  1.00  0.00     0.167 HD
ATOM     64  C   UNL     1     -11.624  -7.984   8.840  1.00  0.00     0.074 A 
ATOM     65  C   UNL     1     -12.961  -7.441   8.995  1.00  0.00     0.031 C 
ATOM     66  C   UNL     1     -10.765  -8.625   9.690  1.00  0.00     0.037 A 
BRANCH  53  67
ATOM     67  C   UNL     1      -5.248 -11.031   8.395  1.00  0.00     0.064 A 
ATOM     68  C   UNL     1      -4.695 -10.567   9.610  1.00  0.00     0.173 A 
ATOM     69  C   UNL     1      -4.380 -11.844   7.635  1.00  0.00     0.173 A 
ATOM     70  F   UNL     1      -5.401  -9.787  10.441  1.00  0.00    -0.203 F 
ATOM     71  C   UNL     1      -3.386 -10.864  10.008  1.00  0.00     0.198 A 
ATOM     72  C   UNL     1      -3.085 -12.171   8.051  1.00  0.00     0.198 A 
ATOM     73  F   UNL     1      -4.710 -12.327   6.436  1.00  0.00    -0.203 F 
ATOM     74  F   UNL     1      -2.902 -10.347  11.146  1.00  0.00    -0.200 F 
ATOM     75  C   UNL     1      -2.581 -11.670   9.230  1.00  0.00     0.200 A 
ATOM     76  F   UNL     1      -2.321 -12.958   7.278  1.00  0.00    -0.200 F 
ATOM     77  F   UNL     1      -1.326 -11.951   9.604  1.00  0.00    -0.200 F 
ENDBRANCH  53  67
BRANCH  54  78
ATOM     78  C   UNL     1     -13.234  -7.062   4.443  1.00  0.00     0.064 A 
ATOM     79  C   UNL     1     -13.466  -6.152   3.391  1.00  0.00     0.173 A 
ATOM     80  C   UNL     1     -13.520  -8.411   4.200  1.00  0.00     0.173 A 
ATOM     81  F   UNL     1     -13.226  -4.843   3.576  1.00  0.00    -0.203 F 
ATOM     82  C   UNL     1     -13.803  -6.589   2.112  1.00  0.00     0.198 A 
ATOM     83  C   UNL     1     -13.886  -8.842   2.921  1.00  0.00     0.198 A 
ATOM     84  F   UNL     1     -13.322  -9.330   5.155  1.00  0.00    -0.203 F 
ATOM     85  F   UNL     1     -13.869  -5.710   1.101  1.00  0.00    -0.200 F 
ATOM     86  C   UNL     1     -13.977  -7.940   1.870  1.00  0.00     0.200 A 
ATOM     87  F   UNL     1     -14.049 -10.152   2.681  1.00  0.00    -0.200 F 
ATOM     88  F   UNL     1     -14.193  -8.376   0.621  1.00  0.00    -0.200 F 
ENDBRANCH  54  78
BRANCH  66  89
ATOM     89  C   UNL     1     -11.147  -9.262  11.011  1.00  0.00     0.064 A 
ATOM     90  C   UNL     1     -12.451  -9.670  11.340  1.00  0.00     0.173 A 
ATOM     91  C   UNL     1     -10.149  -9.631  11.949  1.00  0.00     0.173 A 
ATOM     92  F   UNL     1     -13.470  -9.523  10.485  1.00  0.00    -0.203 F 
ATOM     93  C   UNL     1     -12.748 -10.314  12.545  1.00  0.00     0.198 A 
ATOM     94  C   UNL     1     -10.438 -10.341  13.114  1.00  0.00     0.198 A 
ATOM     95  F   UNL     1      -8.854  -9.347  11.751  1.00  0.00    -0.203 F 
ATOM     96  F   UNL     1     -14.020 -10.625  12.832  1.00  0.00    -0.200 F 
ATOM     97  C   UNL     1     -11.742 -10.661  13.425  1.00  0.00     0.200 A 
ATOM     98  F   UNL     1      -9.441 -10.733  13.919  1.00  0.00    -0.200 F 
ATOM     99  F   UNL     1     -12.025 -11.324  14.553  1.00  0.00    -0.200 F 
ENDBRANCH  66  89
ENDBRANCH  40  41
ENDBRANCH  32  35
ENDBRANCH  30  31
ENDBRANCH  29  30
ENDBRANCH  28  29
ENDBRANCH  27  28
ENDBRANCH   1  27
TORSDOF 20
