REMARK SMILES COc1cnc(SCC(=O)NCCCCCCNC(=O)c2ccc(-c3c4nc(c(-c5c(F)c(F)c(F)c(F)c5F)c5ccc([nH]5)c(-c5c(F)c(F)c(F)c(F)c5F)c5nc(c(-c6c(F)c(F)c(F)c(F)c6F)c6ccc3[nH]6)C=C5)C=C4)cc2)[nH]c1=O
REMARK SMILES IDX 14 1 13 2 12 3 11 4 9 5 10 6 8 8 7 9 6 10 3 11 4 12 85 13
REMARK SMILES IDX 5 14 84 15 86 16 2 18 1 19 15 20 16 21 17 22 18 23 19 24
REMARK SMILES IDX 20 26 21 27 22 28 83 29 23 30 82 31 24 32 25 33 26 34 76 35
REMARK SMILES IDX 27 36 81 37 75 38 77 39 28 40 80 41 74 42 73 43 29 45 61 46
REMARK SMILES IDX 41 47 60 48 42 49 45 50 59 51 78 52 43 53 44 54 58 56 79 57
REMARK SMILES IDX 46 58 30 59 31 60 39 61 32 62 33 63 37 64 40 65 34 66 35 67
REMARK SMILES IDX 38 68 36 69 62 70 63 71 71 72 64 73 65 74 69 75 72 76 66 77
REMARK SMILES IDX 67 78 70 79 68 80 47 81 48 82 56 83 49 84 50 85 54 86 57 87
REMARK SMILES IDX 51 88 52 89 55 90 53 91
REMARK H PARENT 11 7 84 17 18 25 77 44 45 55
REMARK Flexibility Score: inf
ROOT
ATOM      1  C   UNL     1       2.306   7.363  -4.636  1.00  0.00     0.002 C 
ENDROOT
BRANCH   1   2
ATOM      2  C   UNL     1       2.607   7.511  -3.137  1.00  0.00     0.021 C 
BRANCH   2   3
ATOM      3  C   UNL     1       1.644   8.437  -2.393  1.00  0.00     0.116 C 
BRANCH   3   4
ATOM      4  N   UNL     1       0.306   7.882  -2.374  1.00  0.00    -0.355 N 
ATOM      5  C   UNL     1      -0.432   7.380  -1.344  1.00  0.00     0.230 C 
ATOM      6  O   UNL     1      -1.569   6.981  -1.611  1.00  0.00    -0.274 OA
ATOM      7  H   UNL     1      -0.145   7.865  -3.249  1.00  0.00     0.163 HD
BRANCH   5   8
ATOM      8  C   UNL     1       0.064   7.446   0.090  1.00  0.00     0.178 C 
BRANCH   8   9
ATOM      9  S   UNL     1       1.593   6.536   0.427  1.00  0.00    -0.078 SA
BRANCH   9  10
ATOM     10  C   UNL     1       1.159   4.916   0.008  1.00  0.00     0.168 A 
ATOM     11  C   UNL     1       0.767   2.285  -0.615  1.00  0.00     0.202 A 
ATOM     12  C   UNL     1      -0.195   3.220  -0.616  1.00  0.00     0.166 A 
ATOM     13  C   UNL     1       2.139   2.759  -0.262  1.00  0.00     0.293 A 
ATOM     14  N   UNL     1      -0.036   4.543  -0.287  1.00  0.00    -0.229 NA
ATOM     15  N   UNL     1       2.234   4.087   0.036  1.00  0.00    -0.298 N 
ATOM     16  O   UNL     1       3.129   2.033  -0.243  1.00  0.00    -0.265 OA
ATOM     17  H   UNL     1       3.113   4.457   0.280  1.00  0.00     0.172 HD
BRANCH  11  18
ATOM     18  O   UNL     1       0.491   0.983  -0.988  1.00  0.00    -0.490 OA
ATOM     19  C   UNL     1       1.004   0.014  -0.078  1.00  0.00     0.278 C 
ENDBRANCH  11  18
ENDBRANCH   9  10
ENDBRANCH   8   9
ENDBRANCH   5   8
ENDBRANCH   3   4
ENDBRANCH   2   3
ENDBRANCH   1   2
BRANCH   1  20
ATOM     20  C   UNL     1       2.324   8.668  -5.440  1.00  0.00     0.002 C 
BRANCH  20  21
ATOM     21  C   UNL     1       3.619   9.476  -5.339  1.00  0.00     0.021 C 
BRANCH  21  22
ATOM     22  C   UNL     1       4.871   8.733  -5.795  1.00  0.00     0.116 C 
BRANCH  22  23
ATOM     23  N   UNL     1       4.840   8.416  -7.214  1.00  0.00    -0.352 N 
ATOM     24  C   UNL     1       5.782   8.662  -8.180  1.00  0.00     0.251 C 
ATOM     25  H   UNL     1       4.026   7.958  -7.526  1.00  0.00     0.163 HD
ATOM     26  O   UNL     1       5.513   8.481  -9.367  1.00  0.00    -0.269 OA
BRANCH  24  27
ATOM     27  C   UNL     1       7.117   9.171  -7.801  1.00  0.00     0.039 A 
ATOM     28  C   UNL     1       7.679  10.213  -8.544  1.00  0.00     0.014 A 
ATOM     29  C   UNL     1       7.819   8.618  -6.726  1.00  0.00     0.014 A 
ATOM     30  C   UNL     1       8.918  10.740  -8.171  1.00  0.00     0.010 A 
ATOM     31  C   UNL     1       9.017   9.193  -6.311  1.00  0.00     0.010 A 
ATOM     32  C   UNL     1       9.582  10.256  -7.032  1.00  0.00    -0.014 A 
BRANCH  32  33
ATOM     33  C   UNL     1      10.871  10.844  -6.585  1.00  0.00     0.031 A 
ATOM     34  C   UNL     1      12.121  10.009  -6.583  1.00  0.00     0.074 A 
ATOM     35  C   UNL     1      10.905  12.110  -6.127  1.00  0.00     0.049 A 
ATOM     36  N   UNL     1      13.324  10.317  -6.166  1.00  0.00    -0.248 NA
ATOM     37  C   UNL     1      11.998   8.634  -7.093  1.00  0.00     0.031 C 
ATOM     38  C   UNL     1       9.753  13.009  -6.041  1.00  0.00     0.029 A 
ATOM     39  N   UNL     1      11.947  12.858  -5.638  1.00  0.00    -0.354 N 
ATOM     40  C   UNL     1      14.093   9.176  -6.354  1.00  0.00     0.074 A 
ATOM     41  C   UNL     1      13.210   8.151  -6.866  1.00  0.00     0.031 C 
ATOM     42  C   UNL     1      10.155  14.194  -5.553  1.00  0.00     0.029 A 
ATOM     43  C   UNL     1      11.582  14.126  -5.254  1.00  0.00     0.049 A 
ATOM     44  H   UNL     1      12.868  12.518  -5.569  1.00  0.00     0.167 HD
ATOM     45  C   UNL     1      15.420   9.007  -6.144  1.00  0.00     0.037 A 
ATOM     46  C   UNL     1      12.316  15.118  -4.714  1.00  0.00     0.037 A 
ATOM     47  C   UNL     1      16.300  10.035  -5.652  1.00  0.00     0.049 A 
ATOM     48  C   UNL     1      13.785  14.897  -4.472  1.00  0.00     0.074 A 
ATOM     49  C   UNL     1      17.668   9.976  -5.448  1.00  0.00     0.029 A 
ATOM     50  N   UNL     1      15.896  11.310  -5.286  1.00  0.00    -0.354 N 
ATOM     51  N   UNL     1      14.514  13.834  -4.711  1.00  0.00    -0.248 NA
ATOM     52  C   UNL     1      14.536  16.018  -3.890  1.00  0.00     0.031 C 
ATOM     53  C   UNL     1      18.084  11.200  -4.913  1.00  0.00     0.029 A 
ATOM     54  C   UNL     1      16.985  12.041  -4.837  1.00  0.00     0.049 A 
ATOM     55  H   UNL     1      14.972  11.647  -5.337  1.00  0.00     0.167 HD
ATOM     56  C   UNL     1      15.810  14.168  -4.343  1.00  0.00     0.074 A 
ATOM     57  C   UNL     1      15.771  15.538  -3.876  1.00  0.00     0.031 C 
ATOM     58  C   UNL     1      16.932  13.409  -4.388  1.00  0.00     0.037 A 
BRANCH  45  59
ATOM     59  C   UNL     1      16.005   7.657  -6.450  1.00  0.00     0.064 A 
ATOM     60  C   UNL     1      16.116   7.186  -7.767  1.00  0.00     0.173 A 
ATOM     61  C   UNL     1      16.491   6.839  -5.419  1.00  0.00     0.173 A 
ATOM     62  F   UNL     1      15.657   7.924  -8.789  1.00  0.00    -0.203 F 
ATOM     63  C   UNL     1      16.663   5.934  -8.038  1.00  0.00     0.198 A 
ATOM     64  C   UNL     1      17.067   5.602  -5.697  1.00  0.00     0.198 A 
ATOM     65  F   UNL     1      16.416   7.242  -4.142  1.00  0.00    -0.203 F 
ATOM     66  F   UNL     1      16.710   5.485  -9.300  1.00  0.00    -0.200 F 
ATOM     67  C   UNL     1      17.145   5.147  -7.004  1.00  0.00     0.200 A 
ATOM     68  F   UNL     1      17.546   4.848  -4.697  1.00  0.00    -0.200 F 
ATOM     69  F   UNL     1      17.679   3.946  -7.267  1.00  0.00    -0.200 F 
ENDBRANCH  45  59
BRANCH  46  70
ATOM     70  C   UNL     1      11.681  16.422  -4.388  1.00  0.00     0.064 A 
ATOM     71  C   UNL     1      12.006  17.581  -5.108  1.00  0.00     0.173 A 
ATOM     72  C   UNL     1      10.752  16.543  -3.344  1.00  0.00     0.173 A 
ATOM     73  F   UNL     1      12.905  17.520  -6.102  1.00  0.00    -0.203 F 
ATOM     74  C   UNL     1      11.445  18.814  -4.781  1.00  0.00     0.198 A 
ATOM     75  C   UNL     1      10.169  17.771  -3.038  1.00  0.00     0.198 A 
ATOM     76  F   UNL     1      10.402  15.465  -2.627  1.00  0.00    -0.203 F 
ATOM     77  F   UNL     1      11.814  19.913  -5.452  1.00  0.00    -0.200 F 
ATOM     78  C   UNL     1      10.524  18.907  -3.749  1.00  0.00     0.200 A 
ATOM     79  F   UNL     1       9.267  17.854  -2.050  1.00  0.00    -0.200 F 
ATOM     80  F   UNL     1       9.984  20.092  -3.435  1.00  0.00    -0.200 F 
ENDBRANCH  46  70
BRANCH  58  81
ATOM     81  C   UNL     1      18.220  14.056  -3.965  1.00  0.00     0.064 A 
ATOM     82  C   UNL     1      18.486  14.365  -2.623  1.00  0.00     0.173 A 
ATOM     83  C   UNL     1      19.216  14.335  -4.913  1.00  0.00     0.173 A 
ATOM     84  F   UNL     1      17.560  14.132  -1.680  1.00  0.00    -0.203 F 
ATOM     85  C   UNL     1      19.691  14.955  -2.250  1.00  0.00     0.198 A 
ATOM     86  C   UNL     1      20.432  14.895  -4.532  1.00  0.00     0.198 A 
ATOM     87  F   UNL     1      19.015  14.053  -6.209  1.00  0.00    -0.203 F 
ATOM     88  F   UNL     1      19.902  15.289  -0.970  1.00  0.00    -0.200 F 
ATOM     89  C   UNL     1      20.665  15.213  -3.203  1.00  0.00     0.200 A 
ATOM     90  F   UNL     1      21.378  15.129  -5.452  1.00  0.00    -0.200 F 
ATOM     91  F   UNL     1      21.827  15.774  -2.841  1.00  0.00    -0.200 F 
ENDBRANCH  58  81
ENDBRANCH  32  33
ENDBRANCH  24  27
ENDBRANCH  22  23
ENDBRANCH  21  22
ENDBRANCH  20  21
ENDBRANCH   1  20
TORSDOF 16
