REMARK SMILES CC(C)c1cc(C2CC[NH+](Cc3c[nH]nc3C(=O)NCCCCCCNC(=O)c3ccc(-c4c5nc(c(-c6c(F)c(F)c(F)c(F)c6F)c6ccc([nH]6)c(-c6c(F)c(F)c(F)c(F)c6F)c6nc(c(-c7c(F)c(F)c(F)c(F)c7F)c7ccc4[nH]7)C=C6)C=C5)cc3)CC2)n[nH]1
REMARK SMILES IDX 21 1 20 2 19 3 17 4 18 5 16 7 12 8 13 9 14 10 15 11 11 13
REMARK SMILES IDX 10 14 7 15 8 16 93 17 9 18 92 19 6 21 4 22 5 23 95 24 94 25
REMARK SMILES IDX 2 27 1 28 3 29 22 30 23 31 24 32 25 33 26 34 27 35 28 37
REMARK SMILES IDX 29 38 30 39 91 40 31 41 90 42 32 43 33 44 34 45 84 46 35 47
REMARK SMILES IDX 89 48 83 49 85 50 36 51 88 52 82 53 81 54 37 56 69 57 49 58
REMARK SMILES IDX 68 59 50 60 53 61 67 62 86 63 51 64 52 65 66 67 87 68 54 69
REMARK SMILES IDX 38 70 39 71 47 72 40 73 41 74 45 75 48 76 42 77 43 78 46 79
REMARK SMILES IDX 44 80 70 81 71 82 79 83 72 84 73 85 77 86 80 87 74 88 75 89
REMARK SMILES IDX 78 90 76 91 55 92 56 93 64 94 57 95 58 96 62 97 65 98 59 99
REMARK SMILES IDX 60 100 63 101 61 102
REMARK H PARENT 19 6 14 12 10 20 95 26 26 36 85 55 53 66
REMARK Flexibility Score: inf
ROOT
ATOM      1  C   UNL     1      -3.499  -1.665   7.390  1.00  0.00     0.021 C 
ENDROOT
BRANCH   1   2
ATOM      2  C   UNL     1      -2.442  -0.576   7.485  1.00  0.00     0.116 C 
BRANCH   2   3
ATOM      3  N   UNL     1      -1.102  -1.031   7.327  1.00  0.00    -0.351 N 
ATOM      4  C   UNL     1      -0.053  -0.522   6.600  1.00  0.00     0.272 C 
ATOM      5  O   UNL     1       0.966  -1.222   6.697  1.00  0.00    -0.267 OA
ATOM      6  H   UNL     1      -0.890  -1.852   7.827  1.00  0.00     0.163 HD
BRANCH   4   7
ATOM      7  C   UNL     1      -0.051   0.733   5.766  1.00  0.00     0.158 A 
ATOM      8  C   UNL     1      -0.941   1.860   5.465  1.00  0.00     0.057 A 
ATOM      9  C   UNL     1      -0.157   2.705   4.687  1.00  0.00     0.115 A 
ATOM     10  N   UNL     1       1.022   2.085   4.476  1.00  0.00    -0.284 N 
ATOM     11  N   UNL     1       1.110   0.915   5.085  1.00  0.00    -0.170 NA
ATOM     12  H   UNL     1       1.743   2.465   3.925  1.00  0.00     0.189 HD
BRANCH   8  13
ATOM     13  C   UNL     1      -2.344   2.261   5.856  1.00  0.00     0.303 C 
BRANCH  13  14
ATOM     14  N   UNL     1      -3.397   1.971   4.843  1.00  0.00    -0.331 N 
ATOM     15  C   UNL     1      -4.309   1.364   2.069  1.00  0.00     0.051 C 
ATOM     16  C   UNL     1      -4.499   2.741   2.707  1.00  0.00     0.071 C 
ATOM     17  C   UNL     1      -4.412   0.324   3.179  1.00  0.00     0.071 C 
ATOM     18  C   UNL     1      -3.488   3.019   3.822  1.00  0.00     0.263 C 
ATOM     19  C   UNL     1      -3.463   0.592   4.351  1.00  0.00     0.263 C 
ATOM     20  H   UNL     1      -4.275   2.016   5.360  1.00  0.00     0.348 HD
BRANCH  15  21
ATOM     21  C   UNL     1      -3.047   1.241   1.252  1.00  0.00     0.066 A 
ATOM     22  C   UNL     1      -0.924   1.098   0.583  1.00  0.00     0.038 A 
ATOM     23  C   UNL     1      -1.710   1.225   1.698  1.00  0.00     0.049 A 
ATOM     24  N   UNL     1      -1.805   1.028  -0.460  1.00  0.00    -0.282 N 
ATOM     25  N   UNL     1      -3.097   1.121  -0.082  1.00  0.00    -0.180 NA
ATOM     26  H   UNL     1      -1.524   0.921  -1.397  1.00  0.00     0.190 HD
BRANCH  22  27
ATOM     27  C   UNL     1       0.566   1.058   0.491  1.00  0.00     0.031 C 
ATOM     28  C   UNL     1       1.074   0.007  -0.488  1.00  0.00     0.014 C 
ATOM     29  C   UNL     1       1.123   2.446   0.177  1.00  0.00     0.014 C 
ENDBRANCH  22  27
ENDBRANCH  15  21
ENDBRANCH  13  14
ENDBRANCH   8  13
ENDBRANCH   4   7
ENDBRANCH   2   3
ENDBRANCH   1   2
BRANCH   1  30
ATOM     30  C   UNL     1      -3.877  -2.330   8.708  1.00  0.00     0.002 C 
BRANCH  30  31
ATOM     31  C   UNL     1      -4.307  -1.381   9.832  1.00  0.00     0.002 C 
BRANCH  31  32
ATOM     32  C   UNL     1      -5.344  -0.310   9.472  1.00  0.00     0.021 C 
BRANCH  32  33
ATOM     33  C   UNL     1      -6.635  -0.812   8.828  1.00  0.00     0.116 C 
BRANCH  33  34
ATOM     34  N   UNL     1      -7.284  -1.848   9.611  1.00  0.00    -0.352 N 
ATOM     35  C   UNL     1      -8.535  -1.894  10.167  1.00  0.00     0.251 C 
ATOM     36  H   UNL     1      -6.734  -2.650   9.768  1.00  0.00     0.163 HD
ATOM     37  O   UNL     1      -8.825  -2.803  10.939  1.00  0.00    -0.269 OA
BRANCH  35  38
ATOM     38  C   UNL     1      -9.537  -0.849   9.865  1.00  0.00     0.039 A 
ATOM     39  C   UNL     1     -10.313  -0.350  10.915  1.00  0.00     0.014 A 
ATOM     40  C   UNL     1      -9.749  -0.390   8.562  1.00  0.00     0.014 A 
ATOM     41  C   UNL     1     -11.259   0.648  10.670  1.00  0.00     0.010 A 
ATOM     42  C   UNL     1     -10.646   0.652   8.328  1.00  0.00     0.010 A 
ATOM     43  C   UNL     1     -11.409   1.182   9.380  1.00  0.00    -0.014 A 
BRANCH  43  44
ATOM     44  C   UNL     1     -12.345   2.308   9.126  1.00  0.00     0.031 A 
ATOM     45  C   UNL     1     -13.539   2.122   8.231  1.00  0.00     0.074 A 
ATOM     46  C   UNL     1     -12.080   3.519   9.655  1.00  0.00     0.049 A 
ATOM     47  N   UNL     1     -14.427   3.004   7.843  1.00  0.00    -0.248 NA
ATOM     48  C   UNL     1     -13.752   0.775   7.679  1.00  0.00     0.031 C 
ATOM     49  C   UNL     1     -10.925   3.838  10.496  1.00  0.00     0.029 A 
ATOM     50  N   UNL     1     -12.753   4.712   9.550  1.00  0.00    -0.354 N 
ATOM     51  C   UNL     1     -15.288   2.325   6.991  1.00  0.00     0.074 A 
ATOM     52  C   UNL     1     -14.797   0.968   6.886  1.00  0.00     0.031 C 
ATOM     53  C   UNL     1     -10.974   5.135  10.839  1.00  0.00     0.029 A 
ATOM     54  C   UNL     1     -12.140   5.749  10.211  1.00  0.00     0.049 A 
ATOM     55  H   UNL     1     -13.594   4.814   9.049  1.00  0.00     0.167 HD
ATOM     56  C   UNL     1     -16.397   2.790   6.367  1.00  0.00     0.037 A 
ATOM     57  C   UNL     1     -12.472   7.052  10.290  1.00  0.00     0.037 A 
ATOM     58  C   UNL     1     -16.902   4.132   6.503  1.00  0.00     0.049 A 
ATOM     59  C   UNL     1     -13.716   7.536   9.594  1.00  0.00     0.074 A 
ATOM     60  C   UNL     1     -18.065   4.672   5.980  1.00  0.00     0.029 A 
ATOM     61  N   UNL     1     -16.271   5.147   7.205  1.00  0.00    -0.354 N 
ATOM     62  N   UNL     1     -14.570   6.863   8.863  1.00  0.00    -0.248 NA
ATOM     63  C   UNL     1     -14.046   8.961   9.740  1.00  0.00     0.031 C 
ATOM     64  C   UNL     1     -18.110   6.027   6.319  1.00  0.00     0.029 A 
ATOM     65  C   UNL     1     -17.005   6.319   7.103  1.00  0.00     0.049 A 
ATOM     66  H   UNL     1     -15.427   5.051   7.703  1.00  0.00     0.167 HD
ATOM     67  C   UNL     1     -15.550   7.771   8.486  1.00  0.00     0.074 A 
ATOM     68  C   UNL     1     -15.195   9.040   9.085  1.00  0.00     0.031 C 
ATOM     69  C   UNL     1     -16.643   7.573   7.710  1.00  0.00     0.037 A 
BRANCH  56  70
ATOM     70  C   UNL     1     -17.153   1.847   5.477  1.00  0.00     0.064 A 
ATOM     71  C   UNL     1     -17.905   0.783   5.997  1.00  0.00     0.173 A 
ATOM     72  C   UNL     1     -17.188   2.058   4.090  1.00  0.00     0.173 A 
ATOM     73  F   UNL     1     -17.900   0.534   7.316  1.00  0.00    -0.203 F 
ATOM     74  C   UNL     1     -18.650  -0.044   5.161  1.00  0.00     0.198 A 
ATOM     75  C   UNL     1     -17.957   1.246   3.260  1.00  0.00     0.198 A 
ATOM     76  F   UNL     1     -16.493   3.065   3.541  1.00  0.00    -0.203 F 
ATOM     77  F   UNL     1     -19.335  -1.074   5.677  1.00  0.00    -0.200 F 
ATOM     78  C   UNL     1     -18.683   0.194   3.795  1.00  0.00     0.200 A 
ATOM     79  F   UNL     1     -18.000   1.487   1.942  1.00  0.00    -0.200 F 
ATOM     80  F   UNL     1     -19.416  -0.593   2.994  1.00  0.00    -0.200 F 
ENDBRANCH  56  70
BRANCH  57  81
ATOM     81  C   UNL     1     -11.614   7.996  11.055  1.00  0.00     0.064 A 
ATOM     82  C   UNL     1     -12.072   8.597  12.236  1.00  0.00     0.173 A 
ATOM     83  C   UNL     1     -10.328   8.335  10.607  1.00  0.00     0.173 A 
ATOM     84  F   UNL     1     -13.302   8.320  12.694  1.00  0.00    -0.203 F 
ATOM     85  C   UNL     1     -11.290   9.524  12.922  1.00  0.00     0.198 A 
ATOM     86  C   UNL     1      -9.535   9.238  11.313  1.00  0.00     0.198 A 
ATOM     87  F   UNL     1      -9.839   7.785   9.487  1.00  0.00    -0.203 F 
ATOM     88  F   UNL     1     -11.777  10.127  14.015  1.00  0.00    -0.200 F 
ATOM     89  C   UNL     1     -10.021   9.840  12.463  1.00  0.00     0.200 A 
ATOM     90  F   UNL     1      -8.303   9.528  10.874  1.00  0.00    -0.200 F 
ATOM     91  F   UNL     1      -9.271  10.733  13.122  1.00  0.00    -0.200 F 
ENDBRANCH  57  81
BRANCH  69  92
ATOM     92  C   UNL     1     -17.554   8.747   7.491  1.00  0.00     0.064 A 
ATOM     93  C   UNL     1     -17.176   9.831   6.685  1.00  0.00     0.173 A 
ATOM     94  C   UNL     1     -18.835   8.768   8.064  1.00  0.00     0.173 A 
ATOM     95  F   UNL     1     -15.957   9.866   6.127  1.00  0.00    -0.203 F 
ATOM     96  C   UNL     1     -18.038  10.907   6.484  1.00  0.00     0.198 A 
ATOM     97  C   UNL     1     -19.705   9.830   7.833  1.00  0.00     0.198 A 
ATOM     98  F   UNL     1     -19.247   7.753   8.837  1.00  0.00    -0.203 F 
ATOM     99  F   UNL     1     -17.637  11.955   5.752  1.00  0.00    -0.200 F 
ATOM    100  C   UNL     1     -19.303  10.901   7.051  1.00  0.00     0.200 A 
ATOM    101  F   UNL     1     -20.933   9.816   8.370  1.00  0.00    -0.200 F 
ATOM    102  F   UNL     1     -20.134  11.934   6.849  1.00  0.00    -0.200 F 
ENDBRANCH  69  92
ENDBRANCH  43  44
ENDBRANCH  35  38
ENDBRANCH  33  34
ENDBRANCH  32  33
ENDBRANCH  31  32
ENDBRANCH  30  31
ENDBRANCH   1  30
TORSDOF 17
