REMARK SMILES COc1cccc(O[C@@H](C)c2nnc(SCC(=O)NCCCCCCNC(=O)c3ccc(-c4c5nc(c(-c6c(F)c(F)c(F)c(F)c6F)c6ccc([nH]6)c(-c6c(F)c(F)c(F)c(F)c6F)c6nc(c(-c7c(F)c(F)c(F)c(F)c7F)c7ccc4[nH]7)C=C6)C=C5)cc3)n2C)c1
REMARK SMILES IDX 20 1 19 2 17 3 18 4 16 6 15 7 14 8 11 9 12 10 92 11 13 12
REMARK SMILES IDX 93 13 9 14 10 15 8 16 7 17 3 18 4 19 94 20 5 21 6 22 2 23
REMARK SMILES IDX 1 24 21 25 22 26 23 27 24 28 25 29 26 30 27 31 28 33 29 34
REMARK SMILES IDX 30 35 91 36 31 37 90 38 32 39 33 40 34 41 84 42 35 43 89 44
REMARK SMILES IDX 83 45 85 46 36 47 88 48 82 49 81 50 37 52 69 53 49 54 68 55
REMARK SMILES IDX 50 56 53 57 67 58 86 59 51 60 52 61 66 63 87 64 54 65 38 66
REMARK SMILES IDX 39 67 47 68 40 69 41 70 45 71 48 72 42 73 43 74 46 75 44 76
REMARK SMILES IDX 70 77 71 78 79 79 72 80 73 81 77 82 80 83 74 84 75 85 78 86
REMARK SMILES IDX 76 87 55 88 56 89 64 90 57 91 58 92 62 93 65 94 59 95 60 96
REMARK SMILES IDX 63 97 61 98
REMARK H PARENT 19 5 26 32 85 51 53 62
REMARK Flexibility Score: inf
ROOT
ATOM      1  C   UNL     1       8.254  -1.906   3.731  1.00  0.00     0.116 C 
ENDROOT
BRANCH   1   2
ATOM      2  N   UNL     1       8.092  -0.829   2.776  1.00  0.00    -0.355 N 
ATOM      3  C   UNL     1       6.963  -0.176   2.400  1.00  0.00     0.230 C 
ATOM      4  O   UNL     1       7.048   0.665   1.502  1.00  0.00    -0.274 OA
ATOM      5  H   UNL     1       8.920  -0.528   2.336  1.00  0.00     0.163 HD
BRANCH   3   6
ATOM      6  C   UNL     1       5.657  -0.423   3.112  1.00  0.00     0.178 C 
BRANCH   6   7
ATOM      7  S   UNL     1       4.774  -1.918   2.659  1.00  0.00    -0.076 SA
BRANCH   7   8
ATOM      8  C   UNL     1       5.238  -2.375   1.059  1.00  0.00     0.191 A 
ATOM      9  C   UNL     1       5.109  -2.611  -1.120  1.00  0.00     0.174 A 
ATOM     10  N   UNL     1       5.534  -3.747  -0.591  1.00  0.00    -0.130 NA
ATOM     11  N   UNL     1       5.042  -1.670  -0.103  1.00  0.00    -0.306 N 
ATOM     12  N   UNL     1       5.597  -3.603   0.767  1.00  0.00    -0.123 NA
ATOM     13  C   UNL     1       4.840  -0.253  -0.241  1.00  0.00     0.154 C 
BRANCH   9  14
ATOM     14  C   UNL     1       4.798  -2.462  -2.586  1.00  0.00     0.238 C 
ATOM     15  C   UNL     1       4.755  -1.084  -3.223  1.00  0.00     0.062 C 
BRANCH  14  16
ATOM     16  O   UNL     1       3.674  -3.278  -2.978  1.00  0.00    -0.483 OA
BRANCH  16  17
ATOM     17  C   UNL     1       2.382  -3.053  -2.604  1.00  0.00     0.124 A 
ATOM     18  C   UNL     1       0.572  -2.092  -1.296  1.00  0.00     0.122 A 
ATOM     19  C   UNL     1      -0.349  -2.888  -1.972  1.00  0.00     0.046 A 
ATOM     20  C   UNL     1       1.932  -2.191  -1.608  1.00  0.00     0.092 A 
ATOM     21  C   UNL     1       0.082  -3.748  -2.978  1.00  0.00     0.008 A 
ATOM     22  C   UNL     1       1.441  -3.826  -3.290  1.00  0.00     0.047 A 
BRANCH  18  23
ATOM     23  O   UNL     1       0.046  -1.295  -0.314  1.00  0.00    -0.497 OA
ATOM     24  C   UNL     1       0.779  -0.114  -0.010  1.00  0.00     0.278 C 
ENDBRANCH  18  23
ENDBRANCH  16  17
ENDBRANCH  14  16
ENDBRANCH   9  14
ENDBRANCH   7   8
ENDBRANCH   6   7
ENDBRANCH   3   6
ENDBRANCH   1   2
BRANCH   1  25
ATOM     25  C   UNL     1       8.803  -3.163   3.059  1.00  0.00     0.021 C 
BRANCH  25  26
ATOM     26  C   UNL     1      10.168  -2.987   2.379  1.00  0.00     0.002 C 
BRANCH  26  27
ATOM     27  C   UNL     1      11.275  -2.399   3.259  1.00  0.00     0.002 C 
BRANCH  27  28
ATOM     28  C   UNL     1      11.515  -3.123   4.586  1.00  0.00     0.021 C 
BRANCH  28  29
ATOM     29  C   UNL     1      11.832  -4.609   4.464  1.00  0.00     0.116 C 
BRANCH  29  30
ATOM     30  N   UNL     1      13.078  -4.854   3.759  1.00  0.00    -0.352 N 
ATOM     31  C   UNL     1      14.131  -5.659   4.104  1.00  0.00     0.251 C 
ATOM     32  H   UNL     1      13.180  -4.370   2.908  1.00  0.00     0.163 HD
ATOM     33  O   UNL     1      15.175  -5.612   3.454  1.00  0.00    -0.269 OA
BRANCH  31  34
ATOM     34  C   UNL     1      14.037  -6.570   5.266  1.00  0.00     0.039 A 
ATOM     35  C   UNL     1      15.146  -6.693   6.109  1.00  0.00     0.014 A 
ATOM     36  C   UNL     1      12.890  -7.333   5.509  1.00  0.00     0.014 A 
ATOM     37  C   UNL     1      15.091  -7.546   7.214  1.00  0.00     0.010 A 
ATOM     38  C   UNL     1      12.812  -8.132   6.649  1.00  0.00     0.010 A 
ATOM     39  C   UNL     1      13.917  -8.258   7.505  1.00  0.00    -0.014 A 
BRANCH  39  40
ATOM     40  C   UNL     1      13.845  -9.154   8.687  1.00  0.00     0.031 A 
ATOM     41  C   UNL     1      13.709 -10.641   8.503  1.00  0.00     0.074 A 
ATOM     42  C   UNL     1      13.865  -8.627   9.926  1.00  0.00     0.049 A 
ATOM     43  N   UNL     1      13.619 -11.582   9.409  1.00  0.00    -0.248 NA
ATOM     44  C   UNL     1      13.643 -11.135   7.118  1.00  0.00     0.031 C 
ATOM     45  C   UNL     1      13.946  -7.199  10.236  1.00  0.00     0.029 A 
ATOM     46  N   UNL     1      13.816  -9.232  11.157  1.00  0.00    -0.354 N 
ATOM     47  C   UNL     1      13.467 -12.770   8.707  1.00  0.00     0.074 A 
ATOM     48  C   UNL     1      13.433 -12.430   7.301  1.00  0.00     0.031 C 
ATOM     49  C   UNL     1      13.970  -7.040  11.570  1.00  0.00     0.029 A 
ATOM     50  C   UNL     1      13.878  -8.350  12.208  1.00  0.00     0.049 A 
ATOM     51  H   UNL     1      13.744 -10.207  11.276  1.00  0.00     0.167 HD
ATOM     52  C   UNL     1      13.385 -14.033   9.190  1.00  0.00     0.037 A 
ATOM     53  C   UNL     1      13.865  -8.575  13.536  1.00  0.00     0.037 A 
ATOM     54  C   UNL     1      13.464 -14.374  10.585  1.00  0.00     0.049 A 
ATOM     55  C   UNL     1      13.786  -9.989  14.043  1.00  0.00     0.074 A 
ATOM     56  C   UNL     1      13.480 -15.630  11.166  1.00  0.00     0.029 A 
ATOM     57  N   UNL     1      13.539 -13.454  11.619  1.00  0.00    -0.354 N 
ATOM     58  N   UNL     1      13.733 -11.110  13.366  1.00  0.00    -0.248 NA
ATOM     59  C   UNL     1      13.774 -10.169  15.502  1.00  0.00     0.031 C 
ATOM     60  C   UNL     1      13.524 -15.469  12.555  1.00  0.00     0.029 A 
ATOM     61  C   UNL     1      13.577 -14.114  12.836  1.00  0.00     0.049 A 
ATOM     62  H   UNL     1      13.562 -12.476  11.505  1.00  0.00     0.167 HD
ATOM     63  C   UNL     1      13.713 -12.126  14.311  1.00  0.00     0.074 A 
ATOM     64  C   UNL     1      13.772 -11.490  15.611  1.00  0.00     0.031 C 
ATOM     65  C   UNL     1      13.652 -13.466  14.120  1.00  0.00     0.037 A 
BRANCH  52  66
ATOM     66  C   UNL     1      13.208 -15.148   8.201  1.00  0.00     0.064 A 
ATOM     67  C   UNL     1      14.251 -15.554   7.356  1.00  0.00     0.173 A 
ATOM     68  C   UNL     1      11.997 -15.854   8.137  1.00  0.00     0.173 A 
ATOM     69  F   UNL     1      15.425 -14.905   7.373  1.00  0.00    -0.203 F 
ATOM     70  C   UNL     1      14.081 -16.611   6.466  1.00  0.00     0.198 A 
ATOM     71  C   UNL     1      11.839 -16.928   7.265  1.00  0.00     0.198 A 
ATOM     72  F   UNL     1      10.970 -15.510   8.929  1.00  0.00    -0.203 F 
ATOM     73  F   UNL     1      15.078 -16.957   5.640  1.00  0.00    -0.200 F 
ATOM     74  C   UNL     1      12.879 -17.302   6.426  1.00  0.00     0.200 A 
ATOM     75  F   UNL     1      10.681 -17.602   7.237  1.00  0.00    -0.200 F 
ATOM     76  F   UNL     1      12.720 -18.326   5.577  1.00  0.00    -0.200 F 
ENDBRANCH  52  66
BRANCH  53  77
ATOM     77  C   UNL     1      13.966  -7.436  14.485  1.00  0.00     0.064 A 
ATOM     78  C   UNL     1      15.123  -7.246  15.254  1.00  0.00     0.173 A 
ATOM     79  C   UNL     1      12.909  -6.532  14.659  1.00  0.00     0.173 A 
ATOM     80  F   UNL     1      16.151  -8.099  15.138  1.00  0.00    -0.203 F 
ATOM     81  C   UNL     1      15.210  -6.207  16.178  1.00  0.00     0.198 A 
ATOM     82  C   UNL     1      13.008  -5.477  15.565  1.00  0.00     0.198 A 
ATOM     83  F   UNL     1      11.783  -6.669  13.946  1.00  0.00    -0.203 F 
ATOM     84  F   UNL     1      16.309  -6.076  16.934  1.00  0.00    -0.200 F 
ATOM     85  C   UNL     1      14.154  -5.321  16.330  1.00  0.00     0.200 A 
ATOM     86  F   UNL     1      11.990  -4.616  15.701  1.00  0.00    -0.200 F 
ATOM     87  F   UNL     1      14.238  -4.322  17.219  1.00  0.00    -0.200 F 
ENDBRANCH  53  77
BRANCH  65  88
ATOM     88  C   UNL     1      13.684 -14.337  15.341  1.00  0.00     0.064 A 
ATOM     89  C   UNL     1      12.579 -14.441  16.198  1.00  0.00     0.173 A 
ATOM     90  C   UNL     1      14.820 -15.106  15.633  1.00  0.00     0.173 A 
ATOM     91  F   UNL     1      11.476 -13.713  15.969  1.00  0.00    -0.203 F 
ATOM     92  C   UNL     1      12.620 -15.268  17.318  1.00  0.00     0.198 A 
ATOM     93  C   UNL     1      14.847 -15.952  16.738  1.00  0.00     0.198 A 
ATOM     94  F   UNL     1      15.901 -15.046  14.840  1.00  0.00    -0.203 F 
ATOM     95  F   UNL     1      11.569 -15.319  18.148  1.00  0.00    -0.200 F 
ATOM     96  C   UNL     1      13.750 -16.027  17.583  1.00  0.00     0.200 A 
ATOM     97  F   UNL     1      15.935 -16.694  16.986  1.00  0.00    -0.200 F 
ATOM     98  F   UNL     1      13.784 -16.827  18.658  1.00  0.00    -0.200 F 
ENDBRANCH  65  88
ENDBRANCH  39  40
ENDBRANCH  31  34
ENDBRANCH  29  30
ENDBRANCH  28  29
ENDBRANCH  27  28
ENDBRANCH  26  27
ENDBRANCH  25  26
ENDBRANCH   1  25
TORSDOF 19
