REMARK SMILES O=C(C[NH+]1CC2(CCCC2)C1)NCCCCCCNC(=O)c1ccc(-c2c3nc(c(-c4c(F)c(F)c(F)c(F)c4F)c4ccc([nH]4)c(-c4c(F)c(F)c(F)c(F)c4F)c4nc(c(-c5c(F)c(F)c(F)c(F)c5F)c5ccc2[nH]5)C=C4)C=C3)cc1
REMARK SMILES IDX 16 1 15 2 14 3 13 4 12 5 1 6 2 7 3 9 4 10 5 11 11 12 6 14
REMARK SMILES IDX 7 15 10 16 8 17 9 18 17 19 18 20 19 21 20 22 21 24 22 25
REMARK SMILES IDX 23 26 84 27 24 28 83 29 25 30 26 31 27 32 77 33 28 34 82 35
REMARK SMILES IDX 76 36 78 37 29 38 81 39 75 40 74 41 30 43 62 44 42 45 61 46
REMARK SMILES IDX 43 47 46 48 60 49 79 50 44 51 45 52 59 54 80 55 47 56 31 57
REMARK SMILES IDX 32 58 40 59 33 60 34 61 38 62 41 63 35 64 36 65 39 66 37 67
REMARK SMILES IDX 63 68 64 69 72 70 65 71 66 72 70 73 73 74 67 75 68 76 71 77
REMARK SMILES IDX 69 78 48 79 49 80 57 81 50 82 51 83 55 84 58 85 52 86 53 87
REMARK SMILES IDX 56 88 54 89
REMARK H PARENT 12 8 4 13 19 23 78 42 46 53
REMARK Flexibility Score: inf
ROOT
ATOM      1  C   UNL     1       4.627   2.223  -3.703  1.00  0.00     0.002 C 
ENDROOT
BRANCH   1   2
ATOM      2  C   UNL     1       4.128   2.884  -2.414  1.00  0.00     0.002 C 
BRANCH   2   3
ATOM      3  C   UNL     1       2.616   2.780  -2.174  1.00  0.00     0.021 C 
BRANCH   3   4
ATOM      4  C   UNL     1       2.081   1.348  -2.190  1.00  0.00     0.116 C 
BRANCH   4   5
ATOM      5  N   UNL     1       2.759   0.537  -1.210  1.00  0.00    -0.351 N 
ATOM      6  O   UNL     1       1.171   0.764   0.431  1.00  0.00    -0.269 OA
ATOM      7  C   UNL     1       2.271   0.360   0.062  1.00  0.00     0.275 C 
ATOM      8  H   UNL     1       3.602   0.095  -1.461  1.00  0.00     0.163 HD
BRANCH   7   9
ATOM      9  C   UNL     1       3.247  -0.328   1.010  1.00  0.00     0.363 C 
BRANCH   9  10
ATOM     10  N   UNL     1       3.733  -1.616   0.470  1.00  0.00    -0.326 N 
ATOM     11  C   UNL     1       2.633  -2.576   0.229  1.00  0.00     0.275 C 
ATOM     12  C   UNL     1       4.224  -2.477   1.577  1.00  0.00     0.275 C 
ATOM     13  H   UNL     1       4.336  -1.327  -0.300  1.00  0.00     0.348 HD
ATOM     14  C   UNL     1       2.840  -3.193   1.636  1.00  0.00     0.068 C 
ATOM     15  C   UNL     1       2.856  -4.729   1.681  1.00  0.00     0.019 C 
ATOM     16  C   UNL     1       1.890  -2.733   2.753  1.00  0.00     0.019 C 
ATOM     17  C   UNL     1       1.821  -5.102   2.743  1.00  0.00     0.001 C 
ATOM     18  C   UNL     1       1.835  -3.925   3.696  1.00  0.00     0.001 C 
ENDBRANCH   9  10
ENDBRANCH   7   9
ENDBRANCH   4   5
ENDBRANCH   3   4
ENDBRANCH   2   3
ENDBRANCH   1   2
BRANCH   1  19
ATOM     19  C   UNL     1       3.952   2.719  -4.982  1.00  0.00     0.021 C 
BRANCH  19  20
ATOM     20  C   UNL     1       4.068   4.220  -5.216  1.00  0.00     0.116 C 
BRANCH  20  21
ATOM     21  N   UNL     1       5.446   4.643  -5.410  1.00  0.00    -0.352 N 
ATOM     22  C   UNL     1       5.997   5.362  -6.444  1.00  0.00     0.251 C 
ATOM     23  H   UNL     1       6.073   4.377  -4.700  1.00  0.00     0.163 HD
ATOM     24  O   UNL     1       7.210   5.478  -6.544  1.00  0.00    -0.269 OA
BRANCH  22  25
ATOM     25  C   UNL     1       5.109   5.972  -7.457  1.00  0.00     0.039 A 
ATOM     26  C   UNL     1       5.420   5.812  -8.809  1.00  0.00     0.014 A 
ATOM     27  C   UNL     1       3.967   6.680  -7.074  1.00  0.00     0.014 A 
ATOM     28  C   UNL     1       4.542   6.299  -9.780  1.00  0.00     0.010 A 
ATOM     29  C   UNL     1       3.057   7.095  -8.040  1.00  0.00     0.010 A 
ATOM     30  C   UNL     1       3.333   6.905  -9.403  1.00  0.00    -0.014 A 
BRANCH  30  31
ATOM     31  C   UNL     1       2.333   7.325 -10.418  1.00  0.00     0.031 A 
ATOM     32  C   UNL     1       1.960   8.773 -10.562  1.00  0.00     0.074 A 
ATOM     33  C   UNL     1       1.706   6.390 -11.157  1.00  0.00     0.049 A 
ATOM     34  N   UNL     1       1.056   9.323 -11.333  1.00  0.00    -0.248 NA
ATOM     35  C   UNL     1       2.678   9.727  -9.704  1.00  0.00     0.031 C 
ATOM     36  C   UNL     1       1.943   4.948 -11.072  1.00  0.00     0.029 A 
ATOM     37  N   UNL     1       0.729   6.510 -12.114  1.00  0.00    -0.354 N 
ATOM     38  C   UNL     1       1.092  10.681 -11.047  1.00  0.00     0.074 A 
ATOM     39  C   UNL     1       2.062  10.864  -9.990  1.00  0.00     0.031 C 
ATOM     40  C   UNL     1       1.144   4.319 -11.947  1.00  0.00     0.029 A 
ATOM     41  C   UNL     1       0.308   5.306 -12.623  1.00  0.00     0.049 A 
ATOM     42  H   UNL     1       0.364   7.376 -12.406  1.00  0.00     0.167 HD
ATOM     43  C   UNL     1       0.395  11.686 -11.631  1.00  0.00     0.037 A 
ATOM     44  C   UNL     1      -0.657   5.026 -13.520  1.00  0.00     0.037 A 
ATOM     45  C   UNL     1      -0.565  11.496 -12.688  1.00  0.00     0.049 A 
ATOM     46  C   UNL     1      -1.434   6.156 -14.139  1.00  0.00     0.074 A 
ATOM     47  C   UNL     1      -1.278  12.454 -13.387  1.00  0.00     0.029 A 
ATOM     48  N   UNL     1      -0.955  10.262 -13.190  1.00  0.00    -0.354 N 
ATOM     49  N   UNL     1      -1.335   7.445 -13.920  1.00  0.00    -0.248 NA
ATOM     50  C   UNL     1      -2.452   5.794 -15.134  1.00  0.00     0.031 C 
ATOM     51  C   UNL     1      -2.145  11.797 -14.268  1.00  0.00     0.029 A 
ATOM     52  C   UNL     1      -1.925  10.433 -14.166  1.00  0.00     0.049 A 
ATOM     53  H   UNL     1      -0.595   9.394 -12.896  1.00  0.00     0.167 HD
ATOM     54  C   UNL     1      -2.259   8.048 -14.762  1.00  0.00     0.074 A 
ATOM     55  C   UNL     1      -2.896   6.984 -15.511  1.00  0.00     0.031 C 
ATOM     56  C   UNL     1      -2.554   9.364 -14.902  1.00  0.00     0.037 A 
BRANCH  43  57
ATOM     57  C   UNL     1       0.641  13.081 -11.129  1.00  0.00     0.064 A 
ATOM     58  C   UNL     1       1.869  13.732 -11.329  1.00  0.00     0.173 A 
ATOM     59  C   UNL     1      -0.370  13.785 -10.457  1.00  0.00     0.173 A 
ATOM     60  F   UNL     1       2.873  13.103 -11.958  1.00  0.00    -0.203 F 
ATOM     61  C   UNL     1       2.088  15.018 -10.840  1.00  0.00     0.198 A 
ATOM     62  C   UNL     1      -0.159  15.084 -10.001  1.00  0.00     0.198 A 
ATOM     63  F   UNL     1      -1.566  13.216 -10.244  1.00  0.00    -0.203 F 
ATOM     64  F   UNL     1       3.289  15.593 -10.990  1.00  0.00    -0.200 F 
ATOM     65  C   UNL     1       1.073  15.695 -10.183  1.00  0.00     0.200 A 
ATOM     66  F   UNL     1      -1.147  15.743  -9.380  1.00  0.00    -0.200 F 
ATOM     67  F   UNL     1       1.284  16.933  -9.716  1.00  0.00    -0.200 F 
ENDBRANCH  43  57
BRANCH  44  68
ATOM     68  C   UNL     1      -0.935   3.612 -13.886  1.00  0.00     0.064 A 
ATOM     69  C   UNL     1      -0.631   3.121 -15.164  1.00  0.00     0.173 A 
ATOM     70  C   UNL     1      -1.501   2.720 -12.963  1.00  0.00     0.173 A 
ATOM     71  F   UNL     1      -0.107   3.939 -16.088  1.00  0.00    -0.203 F 
ATOM     72  C   UNL     1      -0.898   1.798 -15.509  1.00  0.00     0.198 A 
ATOM     73  C   UNL     1      -1.739   1.389 -13.299  1.00  0.00     0.198 A 
ATOM     74  F   UNL     1      -1.805   3.137 -11.725  1.00  0.00    -0.203 F 
ATOM     75  F   UNL     1      -0.638   1.366 -16.750  1.00  0.00    -0.200 F 
ATOM     76  C   UNL     1      -1.445   0.931 -14.574  1.00  0.00     0.200 A 
ATOM     77  F   UNL     1      -2.250   0.551 -12.387  1.00  0.00    -0.200 F 
ATOM     78  F   UNL     1      -1.692  -0.344 -14.904  1.00  0.00    -0.200 F 
ENDBRANCH  44  68
BRANCH  56  79
ATOM     79  C   UNL     1      -3.595   9.735 -15.920  1.00  0.00     0.064 A 
ATOM     80  C   UNL     1      -4.953   9.445 -15.725  1.00  0.00     0.173 A 
ATOM     81  C   UNL     1      -3.233  10.430 -17.084  1.00  0.00     0.173 A 
ATOM     82  F   UNL     1      -5.350   8.768 -14.637  1.00  0.00    -0.203 F 
ATOM     83  C   UNL     1      -5.907   9.816 -16.669  1.00  0.00     0.198 A 
ATOM     84  C   UNL     1      -4.194  10.829 -18.010  1.00  0.00     0.198 A 
ATOM     85  F   UNL     1      -1.948  10.738 -17.317  1.00  0.00    -0.203 F 
ATOM     86  F   UNL     1      -7.193   9.486 -16.485  1.00  0.00    -0.200 F 
ATOM     87  C   UNL     1      -5.528  10.515 -17.805  1.00  0.00     0.200 A 
ATOM     88  F   UNL     1      -3.827  11.519 -19.099  1.00  0.00    -0.200 F 
ATOM     89  F   UNL     1      -6.449  10.882 -18.707  1.00  0.00    -0.200 F 
ENDBRANCH  56  79
ENDBRANCH  30  31
ENDBRANCH  22  25
ENDBRANCH  20  21
ENDBRANCH  19  20
ENDBRANCH   1  19
TORSDOF 14
