REMARK SMILES CC(C)Cc1cc2c(cc1Cl)C=C(C(=O)NCCCCCCNC(=O)c1ccc(-c3c4nc(c(-c5c(F)c(F)c(F)c(F)c5F)c5ccc([nH]5)c(-c5c(F)c(F)c(F)c(F)c5F)c5nc(c(-c6c(F)c(F)c(F)c(F)c6F)c6ccc3[nH]6)C=C5)C=C4)cc1)[C@@H](C(F)(F)F)O2
REMARK SMILES IDX 19 1 18 2 17 3 16 4 14 5 15 6 13 8 5 9 6 10 10 11 7 12 9 13
REMARK SMILES IDX 11 14 8 15 94 16 12 17 89 18 4 19 2 20 1 21 3 22 90 23 91 24
REMARK SMILES IDX 92 25 93 26 20 27 21 28 22 29 23 30 24 31 25 33 26 34 27 35
REMARK SMILES IDX 88 36 28 37 87 38 29 39 30 40 31 41 81 42 32 43 86 44 80 45
REMARK SMILES IDX 82 46 33 47 85 48 79 49 78 50 34 52 66 53 46 54 65 55 47 56
REMARK SMILES IDX 50 57 64 58 83 59 48 60 49 61 63 63 84 64 51 65 35 66 36 67
REMARK SMILES IDX 44 68 37 69 38 70 42 71 45 72 39 73 40 74 43 75 41 76 67 77
REMARK SMILES IDX 68 78 76 79 69 80 70 81 74 82 77 83 71 84 72 85 75 86 73 87
REMARK SMILES IDX 52 88 53 89 61 90 54 91 55 92 59 93 62 94 56 95 57 96 60 97
REMARK SMILES IDX 58 98
REMARK H PARENT 16 7 23 32 82 51 50 62
REMARK Flexibility Score: inf
ROOT
ATOM      1  C   UNL     1      -6.068  -1.424 -10.201  1.00  0.00     0.002 C 
ENDROOT
BRANCH   1   2
ATOM      2  C   UNL     1      -5.733  -1.789  -8.752  1.00  0.00     0.021 C 
BRANCH   2   3
ATOM      3  C   UNL     1      -4.261  -1.647  -8.379  1.00  0.00     0.116 C 
BRANCH   3   4
ATOM      4  N   UNL     1      -3.885  -0.269  -8.133  1.00  0.00    -0.352 N 
ATOM      5  C   UNL     1      -3.338   0.433  -7.113  1.00  0.00     0.251 C 
ATOM      6  O   UNL     1      -3.154   1.633  -7.341  1.00  0.00    -0.270 OA
ATOM      7  H   UNL     1      -4.076   0.305  -8.909  1.00  0.00     0.163 HD
BRANCH   5   8
ATOM      8  C   UNL     1      -2.959  -0.130  -5.781  1.00  0.00     0.067 C 
ATOM      9  C   UNL     1      -1.489  -0.504  -0.952  1.00  0.00    -0.025 A 
ATOM     10  C   UNL     1      -1.802  -1.425  -1.964  1.00  0.00     0.052 A 
ATOM     11  C   UNL     1      -1.654   0.863  -1.224  1.00  0.00     0.045 A 
ATOM     12  C   UNL     1      -2.230  -0.993  -3.218  1.00  0.00     0.128 A 
ATOM     13  C   UNL     1      -2.083   1.292  -2.487  1.00  0.00     0.032 A 
ATOM     14  Cl  UNL     1      -1.339   2.083  -0.042  1.00  0.00    -0.084 Cl
ATOM     15  C   UNL     1      -2.363   0.362  -3.491  1.00  0.00     0.019 A 
ATOM     16  O   UNL     1      -2.524  -1.970  -4.117  1.00  0.00    -0.475 OA
ATOM     17  C   UNL     1      -2.796   0.790  -4.812  1.00  0.00     0.025 C 
ATOM     18  C   UNL     1      -2.703  -1.589  -5.509  1.00  0.00     0.314 C 
BRANCH   9  19
ATOM     19  C   UNL     1      -0.945  -1.041   0.354  1.00  0.00     0.040 C 
BRANCH  19  20
ATOM     20  C   UNL     1       0.552  -1.411   0.278  1.00  0.00    -0.013 C 
ATOM     21  C   UNL     1       1.449  -0.186   0.083  1.00  0.00     0.008 C 
ATOM     22  C   UNL     1       0.969  -2.154   1.549  1.00  0.00     0.008 C 
ENDBRANCH  19  20
ENDBRANCH   9  19
BRANCH  18  23
ATOM     23  C   UNL     1      -1.524  -2.171  -6.307  1.00  0.00     0.429 C 
ATOM     24  F   UNL     1      -1.577  -3.528  -6.298  1.00  0.00    -0.167 F 
ATOM     25  F   UNL     1      -1.531  -1.803  -7.608  1.00  0.00    -0.167 F 
ATOM     26  F   UNL     1      -0.327  -1.808  -5.796  1.00  0.00    -0.167 F 
ENDBRANCH  18  23
ENDBRANCH   5   8
ENDBRANCH   3   4
ENDBRANCH   2   3
ENDBRANCH   1   2
BRANCH   1  27
ATOM     27  C   UNL     1      -5.261  -2.154 -11.283  1.00  0.00     0.002 C 
BRANCH  27  28
ATOM     28  C   UNL     1      -5.148  -3.672 -11.128  1.00  0.00     0.021 C 
BRANCH  28  29
ATOM     29  C   UNL     1      -6.472  -4.420 -11.055  1.00  0.00     0.116 C 
BRANCH  29  30
ATOM     30  N   UNL     1      -7.241  -4.340 -12.285  1.00  0.00    -0.352 N 
ATOM     31  C   UNL     1      -7.879  -5.345 -12.974  1.00  0.00     0.251 C 
ATOM     32  H   UNL     1      -7.317  -3.441 -12.680  1.00  0.00     0.163 HD
ATOM     33  O   UNL     1      -8.383  -5.125 -14.070  1.00  0.00    -0.269 OA
BRANCH  31  34
ATOM     34  C   UNL     1      -7.920  -6.710 -12.403  1.00  0.00     0.039 A 
ATOM     35  C   UNL     1      -8.244  -6.911 -11.061  1.00  0.00     0.014 A 
ATOM     36  C   UNL     1      -7.601  -7.799 -13.220  1.00  0.00     0.014 A 
ATOM     37  C   UNL     1      -8.087  -8.173 -10.498  1.00  0.00     0.010 A 
ATOM     38  C   UNL     1      -7.526  -9.083 -12.669  1.00  0.00     0.010 A 
ATOM     39  C   UNL     1      -7.719  -9.272 -11.293  1.00  0.00    -0.014 A 
BRANCH  39  40
ATOM     40  C   UNL     1      -7.540 -10.599 -10.647  1.00  0.00     0.031 A 
ATOM     41  C   UNL     1      -6.184 -11.247 -10.574  1.00  0.00     0.074 A 
ATOM     42  C   UNL     1      -8.598 -11.180 -10.047  1.00  0.00     0.049 A 
ATOM     43  N   UNL     1      -5.831 -12.351  -9.963  1.00  0.00    -0.248 NA
ATOM     44  C   UNL     1      -5.080 -10.576 -11.277  1.00  0.00     0.031 C 
ATOM     45  C   UNL     1      -9.961 -10.647 -10.053  1.00  0.00     0.029 A 
ATOM     46  N   UNL     1      -8.688 -12.316  -9.284  1.00  0.00    -0.354 N 
ATOM     47  C   UNL     1      -4.475 -12.511 -10.216  1.00  0.00     0.074 A 
ATOM     48  C   UNL     1      -4.071 -11.410 -11.063  1.00  0.00     0.031 C 
ATOM     49  C   UNL     1     -10.734 -11.412  -9.270  1.00  0.00     0.029 A 
ATOM     50  C   UNL     1      -9.938 -12.519  -8.751  1.00  0.00     0.049 A 
ATOM     51  H   UNL     1      -7.931 -12.928  -9.134  1.00  0.00     0.167 HD
ATOM     52  C   UNL     1      -3.641 -13.479  -9.768  1.00  0.00     0.037 A 
ATOM     53  C   UNL     1     -10.392 -13.485  -7.930  1.00  0.00     0.037 A 
ATOM     54  C   UNL     1      -4.038 -14.557  -8.901  1.00  0.00     0.049 A 
ATOM     55  C   UNL     1      -9.451 -14.562  -7.471  1.00  0.00     0.074 A 
ATOM     56  C   UNL     1      -3.255 -15.566  -8.367  1.00  0.00     0.029 A 
ATOM     57  N   UNL     1      -5.329 -14.765  -8.439  1.00  0.00    -0.354 N 
ATOM     58  N   UNL     1      -8.167 -14.685  -7.699  1.00  0.00    -0.248 NA
ATOM     59  C   UNL     1     -10.023 -15.639  -6.652  1.00  0.00     0.031 C 
ATOM     60  C   UNL     1      -4.079 -16.407  -7.614  1.00  0.00     0.029 A 
ATOM     61  C   UNL     1      -5.367 -15.900  -7.645  1.00  0.00     0.049 A 
ATOM     62  H   UNL     1      -6.102 -14.192  -8.645  1.00  0.00     0.167 HD
ATOM     63  C   UNL     1      -7.775 -15.846  -7.050  1.00  0.00     0.074 A 
ATOM     64  C   UNL     1      -8.953 -16.381  -6.399  1.00  0.00     0.031 C 
ATOM     65  C   UNL     1      -6.548 -16.419  -7.005  1.00  0.00     0.037 A 
BRANCH  52  66
ATOM     66  C   UNL     1      -2.204 -13.424 -10.197  1.00  0.00     0.064 A 
ATOM     67  C   UNL     1      -1.315 -12.483  -9.658  1.00  0.00     0.173 A 
ATOM     68  C   UNL     1      -1.693 -14.373 -11.095  1.00  0.00     0.173 A 
ATOM     69  F   UNL     1      -1.757 -11.549  -8.803  1.00  0.00    -0.203 F 
ATOM     70  C   UNL     1       0.032 -12.487 -10.012  1.00  0.00     0.198 A 
ATOM     71  C   UNL     1      -0.341 -14.389 -11.428  1.00  0.00     0.198 A 
ATOM     72  F   UNL     1      -2.501 -15.300 -11.632  1.00  0.00    -0.203 F 
ATOM     73  F   UNL     1       0.859 -11.562  -9.505  1.00  0.00    -0.200 F 
ATOM     74  C   UNL     1       0.519 -13.445 -10.889  1.00  0.00     0.200 A 
ATOM     75  F   UNL     1       0.131 -15.324 -12.265  1.00  0.00    -0.200 F 
ATOM     76  F   UNL     1       1.819 -13.458 -11.215  1.00  0.00    -0.200 F 
ENDBRANCH  52  66
BRANCH  53  77
ATOM     77  C   UNL     1     -11.806 -13.454  -7.478  1.00  0.00     0.064 A 
ATOM     78  C   UNL     1     -12.127 -13.146  -6.149  1.00  0.00     0.173 A 
ATOM     79  C   UNL     1     -12.863 -13.687  -8.370  1.00  0.00     0.173 A 
ATOM     80  F   UNL     1     -11.150 -12.933  -5.256  1.00  0.00    -0.203 F 
ATOM     81  C   UNL     1     -13.454 -13.071  -5.730  1.00  0.00     0.198 A 
ATOM     82  C   UNL     1     -14.189 -13.586  -7.956  1.00  0.00     0.198 A 
ATOM     83  F   UNL     1     -12.606 -13.981  -9.652  1.00  0.00    -0.203 F 
ATOM     84  F   UNL     1     -13.735 -12.797  -4.449  1.00  0.00    -0.200 F 
ATOM     85  C   UNL     1     -14.483 -13.282  -6.635  1.00  0.00     0.200 A 
ATOM     86  F   UNL     1     -15.180 -13.774  -8.838  1.00  0.00    -0.200 F 
ATOM     87  F   UNL     1     -15.759 -13.191  -6.236  1.00  0.00    -0.200 F 
ENDBRANCH  53  77
BRANCH  65  88
ATOM     88  C   UNL     1      -6.405 -17.692  -6.228  1.00  0.00     0.064 A 
ATOM     89  C   UNL     1      -6.864 -18.912  -6.743  1.00  0.00     0.173 A 
ATOM     90  C   UNL     1      -5.721 -17.707  -5.003  1.00  0.00     0.173 A 
ATOM     91  F   UNL     1      -7.534 -18.945  -7.905  1.00  0.00    -0.203 F 
ATOM     92  C   UNL     1      -6.647 -20.104  -6.057  1.00  0.00     0.198 A 
ATOM     93  C   UNL     1      -5.486 -18.903  -4.331  1.00  0.00     0.198 A 
ATOM     94  F   UNL     1      -5.258 -16.565  -4.474  1.00  0.00    -0.203 F 
ATOM     95  F   UNL     1      -7.111 -21.257  -6.557  1.00  0.00    -0.200 F 
ATOM     96  C   UNL     1      -5.949 -20.099  -4.858  1.00  0.00     0.200 A 
ATOM     97  F   UNL     1      -4.801 -18.899  -3.179  1.00  0.00    -0.200 F 
ATOM     98  F   UNL     1      -5.723 -21.250  -4.209  1.00  0.00    -0.200 F 
ENDBRANCH  65  88
ENDBRANCH  39  40
ENDBRANCH  31  34
ENDBRANCH  29  30
ENDBRANCH  28  29
ENDBRANCH  27  28
ENDBRANCH   1  27
TORSDOF 16
