REMARK SMILES Cc1ccc(C)c(-c2cc(C(=O)NCCCCCCNC(=O)c3ccc(-c4c5nc(c(-c6c(F)c(F)c(F)c(F)c6F)c6ccc([nH]6)c(-c6c(F)c(F)c(F)c(F)c6F)c6nc(c(-c7c(F)c(F)c(F)c(F)c7F)c7ccc4[nH]7)C=C6)C=C5)cc3)c3cc(C)ccc3n2)c1
REMARK SMILES IDX 17 1 16 2 15 3 14 4 13 5 11 6 12 7 10 9 8 10 9 11 93 12
REMARK SMILES IDX 92 13 86 14 91 15 87 16 90 17 88 18 89 19 7 20 1 21 2 22
REMARK SMILES IDX 3 23 94 24 4 25 5 26 6 27 18 28 19 29 20 30 21 31 22 33
REMARK SMILES IDX 23 34 24 35 85 36 25 37 84 38 26 39 27 40 28 41 78 42 29 43
REMARK SMILES IDX 83 44 77 45 79 46 30 47 82 48 76 49 75 50 31 52 63 53 43 54
REMARK SMILES IDX 62 55 44 56 47 57 61 58 80 59 45 60 46 61 60 63 81 64 48 65
REMARK SMILES IDX 32 66 33 67 41 68 34 69 35 70 39 71 42 72 36 73 37 74 40 75
REMARK SMILES IDX 38 76 64 77 65 78 73 79 66 80 67 81 71 82 74 83 68 84 69 85
REMARK SMILES IDX 72 86 70 87 49 88 50 89 58 90 51 91 52 92 56 93 59 94 53 95
REMARK SMILES IDX 54 96 57 97 55 98
REMARK H PARENT 13 8 20 32 79 51 47 62
REMARK Flexibility Score: inf
ROOT
ATOM      1  C   UNL     1      -4.121   9.721  -2.815  1.00  0.00     0.002 C 
ENDROOT
BRANCH   1   2
ATOM      2  C   UNL     1      -2.707   9.902  -2.244  1.00  0.00     0.002 C 
BRANCH   2   3
ATOM      3  C   UNL     1      -2.252   9.083  -1.028  1.00  0.00     0.021 C 
BRANCH   3   4
ATOM      4  C   UNL     1      -2.657   7.617  -0.944  1.00  0.00     0.116 C 
BRANCH   4   5
ATOM      5  N   UNL     1      -2.292   6.767  -2.060  1.00  0.00    -0.352 N 
ATOM      6  C   UNL     1      -2.218   5.390  -2.167  1.00  0.00     0.252 C 
ATOM      7  O   UNL     1      -1.957   4.923  -3.277  1.00  0.00    -0.269 OA
ATOM      8  H   UNL     1      -2.056   7.254  -2.883  1.00  0.00     0.163 HD
BRANCH   6   9
ATOM      9  C   UNL     1      -2.334   4.444  -1.011  1.00  0.00     0.051 A 
ATOM     10  C   UNL     1      -1.425   2.484   0.043  1.00  0.00     0.072 A 
ATOM     11  C   UNL     1      -1.442   3.361  -1.031  1.00  0.00     0.043 A 
ATOM     12  N   UNL     1      -2.144   2.714   1.164  1.00  0.00    -0.248 NA
ATOM     13  C   UNL     1      -3.019   3.728   1.177  1.00  0.00     0.072 A 
ATOM     14  C   UNL     1      -3.247   4.553   0.062  1.00  0.00     0.013 A 
ATOM     15  C   UNL     1      -3.735   3.962   2.343  1.00  0.00     0.029 A 
ATOM     16  C   UNL     1      -4.370   5.407   0.098  1.00  0.00     0.014 A 
ATOM     17  C   UNL     1      -4.700   4.969   2.427  1.00  0.00     0.005 A 
ATOM     18  C   UNL     1      -5.047   5.685   1.288  1.00  0.00    -0.050 A 
ATOM     19  C   UNL     1      -6.027   6.817   1.344  1.00  0.00     0.044 C 
BRANCH  10  20
ATOM     20  C   UNL     1      -0.689   1.208   0.015  1.00  0.00     0.003 A 
ATOM     21  C   UNL     1       2.957   0.021   0.023  1.00  0.00     0.044 C 
ATOM     22  C   UNL     1       1.458   0.013   0.006  1.00  0.00    -0.050 A 
ATOM     23  C   UNL     1       0.777  -1.206  -0.016  1.00  0.00     0.004 A 
ATOM     24  C   UNL     1       0.721   1.208   0.025  1.00  0.00     0.014 A 
ATOM     25  C   UNL     1      -0.615  -1.232  -0.027  1.00  0.00     0.004 A 
ATOM     26  C   UNL     1      -1.360  -0.039  -0.023  1.00  0.00    -0.042 A 
ATOM     27  C   UNL     1      -2.862  -0.166  -0.028  1.00  0.00     0.045 C 
ENDBRANCH  10  20
ENDBRANCH   6   9
ENDBRANCH   4   5
ENDBRANCH   3   4
ENDBRANCH   2   3
ENDBRANCH   1   2
BRANCH   1  28
ATOM     28  C   UNL     1      -5.325   9.836  -1.880  1.00  0.00     0.021 C 
BRANCH  28  29
ATOM     29  C   UNL     1      -5.392  11.088  -1.023  1.00  0.00     0.116 C 
BRANCH  29  30
ATOM     30  N   UNL     1      -5.836  12.295  -1.709  1.00  0.00    -0.352 N 
ATOM     31  C   UNL     1      -5.731  13.614  -1.278  1.00  0.00     0.251 C 
ATOM     32  H   UNL     1      -6.263  12.160  -2.586  1.00  0.00     0.163 HD
ATOM     33  O   UNL     1      -6.160  14.537  -1.935  1.00  0.00    -0.269 OA
BRANCH  31  34
ATOM     34  C   UNL     1      -4.986  13.866  -0.023  1.00  0.00     0.039 A 
ATOM     35  C   UNL     1      -3.859  14.690  -0.068  1.00  0.00     0.014 A 
ATOM     36  C   UNL     1      -5.262  13.097   1.100  1.00  0.00     0.014 A 
ATOM     37  C   UNL     1      -2.888  14.562   0.923  1.00  0.00     0.010 A 
ATOM     38  C   UNL     1      -4.257  12.901   2.026  1.00  0.00     0.010 A 
ATOM     39  C   UNL     1      -3.043  13.587   1.915  1.00  0.00    -0.014 A 
BRANCH  39  40
ATOM     40  C   UNL     1      -1.926  13.244   2.799  1.00  0.00     0.031 A 
ATOM     41  C   UNL     1      -2.107  13.427   4.264  1.00  0.00     0.074 A 
ATOM     42  C   UNL     1      -0.873  12.505   2.393  1.00  0.00     0.049 A 
ATOM     43  N   UNL     1      -1.589  14.327   5.038  1.00  0.00    -0.248 NA
ATOM     44  C   UNL     1      -3.051  12.532   4.947  1.00  0.00     0.031 C 
ATOM     45  C   UNL     1      -0.697  11.799   1.124  1.00  0.00     0.029 A 
ATOM     46  N   UNL     1       0.223  12.132   3.114  1.00  0.00    -0.354 N 
ATOM     47  C   UNL     1      -2.061  14.032   6.318  1.00  0.00     0.074 A 
ATOM     48  C   UNL     1      -3.150  13.114   6.138  1.00  0.00     0.031 C 
ATOM     49  C   UNL     1       0.341  10.937   1.239  1.00  0.00     0.029 A 
ATOM     50  C   UNL     1       0.965  11.113   2.542  1.00  0.00     0.049 A 
ATOM     51  H   UNL     1       0.466  12.553   3.971  1.00  0.00     0.167 HD
ATOM     52  C   UNL     1      -1.374  14.338   7.456  1.00  0.00     0.037 A 
ATOM     53  C   UNL     1       1.971  10.424   3.135  1.00  0.00     0.037 A 
ATOM     54  C   UNL     1      -0.280  15.235   7.188  1.00  0.00     0.049 A 
ATOM     55  C   UNL     1       2.420  11.195   4.324  1.00  0.00     0.074 A 
ATOM     56  C   UNL     1      -0.154  16.486   6.614  1.00  0.00     0.029 A 
ATOM     57  N   UNL     1       0.997  14.732   7.241  1.00  0.00    -0.354 N 
ATOM     58  N   UNL     1       3.068  12.326   4.276  1.00  0.00    -0.248 NA
ATOM     59  C   UNL     1       1.816  10.880   5.611  1.00  0.00     0.031 C 
ATOM     60  C   UNL     1       1.091  16.452   5.916  1.00  0.00     0.029 A 
ATOM     61  C   UNL     1       1.651  15.193   6.130  1.00  0.00     0.049 A 
ATOM     62  H   UNL     1       1.370  14.152   7.944  1.00  0.00     0.167 HD
ATOM     63  C   UNL     1       2.620  13.040   5.376  1.00  0.00     0.074 A 
ATOM     64  C   UNL     1       1.946  12.061   6.220  1.00  0.00     0.031 C 
ATOM     65  C   UNL     1       2.586  14.405   5.365  1.00  0.00     0.037 A 
BRANCH  52  66
ATOM     66  C   UNL     1      -1.480  13.580   8.768  1.00  0.00     0.064 A 
ATOM     67  C   UNL     1      -0.860  14.115   9.916  1.00  0.00     0.173 A 
ATOM     68  C   UNL     1      -1.942  12.252   8.906  1.00  0.00     0.173 A 
ATOM     69  F   UNL     1      -0.354  15.357   9.905  1.00  0.00    -0.203 F 
ATOM     70  C   UNL     1      -0.661  13.360  11.076  1.00  0.00     0.198 A 
ATOM     71  C   UNL     1      -1.811  11.527  10.091  1.00  0.00     0.198 A 
ATOM     72  F   UNL     1      -2.434  11.548   7.881  1.00  0.00    -0.203 F 
ATOM     73  F   UNL     1       0.053  13.872  12.087  1.00  0.00    -0.200 F 
ATOM     74  C   UNL     1      -1.140  12.067  11.164  1.00  0.00     0.200 A 
ATOM     75  F   UNL     1      -2.273  10.270  10.147  1.00  0.00    -0.200 F 
ATOM     76  F   UNL     1      -0.909  11.325  12.254  1.00  0.00    -0.200 F 
ENDBRANCH  52  66
BRANCH  53  77
ATOM     77  C   UNL     1       2.419   9.033   2.891  1.00  0.00     0.064 A 
ATOM     78  C   UNL     1       3.688   8.596   3.306  1.00  0.00     0.173 A 
ATOM     79  C   UNL     1       1.522   8.033   2.468  1.00  0.00     0.173 A 
ATOM     80  F   UNL     1       4.587   9.477   3.768  1.00  0.00    -0.203 F 
ATOM     81  C   UNL     1       4.033   7.241   3.313  1.00  0.00     0.198 A 
ATOM     82  C   UNL     1       1.871   6.682   2.462  1.00  0.00     0.198 A 
ATOM     83  F   UNL     1       0.258   8.338   2.137  1.00  0.00    -0.203 F 
ATOM     84  F   UNL     1       5.233   6.859   3.771  1.00  0.00    -0.200 F 
ATOM     85  C   UNL     1       3.122   6.284   2.897  1.00  0.00     0.200 A 
ATOM     86  F   UNL     1       0.968   5.766   2.085  1.00  0.00    -0.200 F 
ATOM     87  F   UNL     1       3.434   4.982   2.949  1.00  0.00    -0.200 F 
ENDBRANCH  53  77
BRANCH  65  88
ATOM     88  C   UNL     1       3.345  15.118   4.286  1.00  0.00     0.064 A 
ATOM     89  C   UNL     1       3.046  15.002   2.919  1.00  0.00     0.173 A 
ATOM     90  C   UNL     1       4.306  16.067   4.662  1.00  0.00     0.173 A 
ATOM     91  F   UNL     1       2.064  14.194   2.494  1.00  0.00    -0.203 F 
ATOM     92  C   UNL     1       3.715  15.769   1.968  1.00  0.00     0.198 A 
ATOM     93  C   UNL     1       4.945  16.859   3.712  1.00  0.00     0.198 A 
ATOM     94  F   UNL     1       4.588  16.261   5.960  1.00  0.00    -0.203 F 
ATOM     95  F   UNL     1       3.420  15.631   0.666  1.00  0.00    -0.200 F 
ATOM     96  C   UNL     1       4.657  16.702   2.366  1.00  0.00     0.200 A 
ATOM     97  F   UNL     1       5.820  17.796   4.105  1.00  0.00    -0.200 F 
ATOM     98  F   UNL     1       5.268  17.472   1.454  1.00  0.00    -0.200 F 
ENDBRANCH  65  88
ENDBRANCH  39  40
ENDBRANCH  31  34
ENDBRANCH  29  30
ENDBRANCH  28  29
ENDBRANCH   1  28
TORSDOF 14
