REMARK SMILES O=C(COc1ccc(/C=C/C(=O)c2ccc(F)cc2F)cc1[N+](=O)[O-])NCCCCCCNC(=O)c1ccc(-c2c3nc(c(-c4c(F)c(F)c(F)c(F)c4F)c4ccc([nH]4)c(-c4c(F)c(F)c(F)c(F)c4F)c4nc(c(-c5c(F)c(F)c(F)c(F)c5F)c5ccc2[nH]5)C=C4)C=C3)cc1
REMARK SMILES IDX 28 1 27 2 26 3 1 4 2 5 3 7 4 8 5 9 6 10 22 11 7 12 21 13
REMARK SMILES IDX 8 14 23 15 24 16 25 17 9 18 10 19 11 20 12 21 13 22 14 23
REMARK SMILES IDX 19 24 15 25 18 26 20 27 16 28 17 29 29 30 30 31 31 32 32 33
REMARK SMILES IDX 33 34 34 35 35 37 36 38 37 39 98 40 38 41 97 42 39 43 40 44
REMARK SMILES IDX 41 45 91 46 42 47 96 48 90 49 92 50 43 51 95 52 89 53 88 54
REMARK SMILES IDX 44 56 76 57 56 58 75 59 57 60 60 61 74 62 93 63 58 64 59 65
REMARK SMILES IDX 73 67 94 68 61 69 45 70 46 71 54 72 47 73 48 74 52 75 55 76
REMARK SMILES IDX 49 77 50 78 53 79 51 80 77 81 78 82 86 83 79 84 80 85 84 86
REMARK SMILES IDX 87 87 81 88 82 89 85 90 83 91 62 92 63 93 71 94 64 95 65 96
REMARK SMILES IDX 69 97 72 98 66 99 67 100 70 101 68 102
REMARK H PARENT 26 6 33 36 92 55 60 66
REMARK Flexibility Score: inf
ROOT
ATOM      1  C   UNL     1       2.932   3.079   2.077  1.00  0.00     0.021 C 
ENDROOT
BRANCH   1   2
ATOM      2  C   UNL     1       2.205   2.295   0.991  1.00  0.00     0.116 C 
BRANCH   2   3
ATOM      3  N   UNL     1       2.895   1.082   0.590  1.00  0.00    -0.353 N 
ATOM      4  O   UNL     1       1.156  -0.384   0.955  1.00  0.00    -0.271 OA
ATOM      5  C   UNL     1       2.268  -0.143   0.495  1.00  0.00     0.257 C 
ATOM      6  H   UNL     1       3.855   1.136   0.377  1.00  0.00     0.163 HD
BRANCH   5   7
ATOM      7  C   UNL     1       3.086  -1.205  -0.250  1.00  0.00     0.329 C 
BRANCH   7   8
ATOM      8  O   UNL     1       3.850  -0.679  -1.345  1.00  0.00    -0.477 OA
BRANCH   8   9
ATOM      9  C   UNL     1       3.214  -0.798  -2.552  1.00  0.00     0.197 A 
ATOM     10  C   UNL     1       3.601  -1.835  -3.406  1.00  0.00     0.054 A 
ATOM     11  C   UNL     1       2.295   0.132  -3.036  1.00  0.00     0.311 A 
ATOM     12  C   UNL     1       3.050  -1.943  -4.699  1.00  0.00     0.012 A 
ATOM     13  C   UNL     1       1.700   0.005  -4.292  1.00  0.00     0.098 A 
ATOM     14  C   UNL     1       2.091  -1.025  -5.147  1.00  0.00    -0.018 A 
BRANCH  11  15
ATOM     15  N   UNL     1       2.044   1.373  -2.352  1.00  0.00     0.066 N 
ATOM     16  O   UNL     1       0.871   1.620  -2.042  1.00  0.00    -0.258 OA
ATOM     17  O   UNL     1       3.011   2.132  -2.196  1.00  0.00    -0.258 OA
ENDBRANCH  11  15
BRANCH  14  18
ATOM     18  C   UNL     1       1.464  -1.022  -6.473  1.00  0.00     0.012 C 
ATOM     19  C   UNL     1       2.073  -1.331  -7.626  1.00  0.00     0.053 C 
BRANCH  19  20
ATOM     20  C   UNL     1       1.412  -1.156  -8.950  1.00  0.00     0.188 C 
ATOM     21  O   UNL     1       1.720  -1.887  -9.886  1.00  0.00    -0.289 OA
BRANCH  20  22
ATOM     22  C   UNL     1       0.373  -0.117  -9.146  1.00  0.00     0.058 A 
ATOM     23  C   UNL     1      -0.784  -0.454  -9.861  1.00  0.00     0.018 A 
ATOM     24  C   UNL     1       0.532   1.190  -8.672  1.00  0.00     0.137 A 
ATOM     25  C   UNL     1      -1.784   0.502 -10.056  1.00  0.00     0.040 A 
ATOM     26  C   UNL     1      -0.462   2.145  -8.866  1.00  0.00     0.079 A 
ATOM     27  F   UNL     1       1.646   1.558  -8.025  1.00  0.00    -0.206 F 
ATOM     28  C   UNL     1      -1.615   1.789  -9.553  1.00  0.00     0.126 A 
ATOM     29  F   UNL     1      -2.579   2.700  -9.739  1.00  0.00    -0.207 F 
ENDBRANCH  20  22
ENDBRANCH  19  20
ENDBRANCH  14  18
ENDBRANCH   8   9
ENDBRANCH   7   8
ENDBRANCH   5   7
ENDBRANCH   2   3
ENDBRANCH   1   2
BRANCH   1  30
ATOM     30  C   UNL     1       4.398   3.419   1.781  1.00  0.00     0.002 C 
BRANCH  30  31
ATOM     31  C   UNL     1       4.670   4.221   0.505  1.00  0.00     0.002 C 
BRANCH  31  32
ATOM     32  C   UNL     1       3.958   5.569   0.391  1.00  0.00     0.021 C 
BRANCH  32  33
ATOM     33  C   UNL     1       4.151   6.518   1.569  1.00  0.00     0.116 C 
BRANCH  33  34
ATOM     34  N   UNL     1       5.540   6.886   1.790  1.00  0.00    -0.352 N 
ATOM     35  C   UNL     1       6.088   8.121   2.051  1.00  0.00     0.251 C 
ATOM     36  H   UNL     1       6.183   6.142   1.746  1.00  0.00     0.163 HD
ATOM     37  O   UNL     1       7.302   8.261   2.098  1.00  0.00    -0.269 OA
BRANCH  35  38
ATOM     38  C   UNL     1       5.205   9.295   2.242  1.00  0.00     0.039 A 
ATOM     39  C   UNL     1       5.533  10.492   1.598  1.00  0.00     0.014 A 
ATOM     40  C   UNL     1       4.064   9.222   3.044  1.00  0.00     0.014 A 
ATOM     41  C   UNL     1       4.678  11.592   1.701  1.00  0.00     0.010 A 
ATOM     42  C   UNL     1       3.175  10.295   3.085  1.00  0.00     0.010 A 
ATOM     43  C   UNL     1       3.472  11.491   2.413  1.00  0.00    -0.014 A 
BRANCH  43  44
ATOM     44  C   UNL     1       2.505  12.619   2.455  1.00  0.00     0.031 A 
ATOM     45  C   UNL     1       2.173  13.286   3.761  1.00  0.00     0.074 A 
ATOM     46  C   UNL     1       1.876  12.999   1.326  1.00  0.00     0.049 A 
ATOM     47  N   UNL     1       1.309  14.239   4.009  1.00  0.00    -0.248 NA
ATOM     48  C   UNL     1       2.887  12.799   4.951  1.00  0.00     0.031 C 
ATOM     49  C   UNL     1       2.075  12.401   0.005  1.00  0.00     0.029 A 
ATOM     50  N   UNL     1       0.932  13.973   1.110  1.00  0.00    -0.354 N 
ATOM     51  C   UNL     1       1.368  14.455   5.379  1.00  0.00     0.074 A 
ATOM     52  C   UNL     1       2.309  13.496   5.918  1.00  0.00     0.031 C 
ATOM     53  C   UNL     1       1.296  13.034  -0.886  1.00  0.00     0.029 A 
ATOM     54  C   UNL     1       0.512  14.053  -0.195  1.00  0.00     0.049 A 
ATOM     55  H   UNL     1       0.589  14.559   1.823  1.00  0.00     0.167 HD
ATOM     56  C   UNL     1       0.714  15.383   6.118  1.00  0.00     0.037 A 
ATOM     57  C   UNL     1      -0.409  14.851  -0.769  1.00  0.00     0.037 A 
ATOM     58  C   UNL     1      -0.209  16.346   5.576  1.00  0.00     0.049 A 
ATOM     59  C   UNL     1      -1.134  15.863   0.076  1.00  0.00     0.074 A 
ATOM     60  C   UNL     1      -0.877  17.365   6.232  1.00  0.00     0.029 A 
ATOM     61  N   UNL     1      -0.601  16.404   4.246  1.00  0.00    -0.354 N 
ATOM     62  N   UNL     1      -1.016  16.108   1.359  1.00  0.00    -0.248 NA
ATOM     63  C   UNL     1      -2.116  16.715  -0.608  1.00  0.00     0.031 C 
ATOM     64  C   UNL     1      -1.715  18.003   5.312  1.00  0.00     0.029 A 
ATOM     65  C   UNL     1      -1.523  17.424   4.068  1.00  0.00     0.049 A 
ATOM     66  H   UNL     1      -0.272  15.809   3.534  1.00  0.00     0.167 HD
ATOM     67  C   UNL     1      -1.883  17.159   1.629  1.00  0.00     0.074 A 
ATOM     68  C   UNL     1      -2.509  17.515   0.373  1.00  0.00     0.031 C 
ATOM     69  C   UNL     1      -2.135  17.774   2.811  1.00  0.00     0.037 A 
BRANCH  56  70
ATOM     70  C   UNL     1       0.973  15.401   7.599  1.00  0.00     0.064 A 
ATOM     71  C   UNL     1       2.215  15.789   8.126  1.00  0.00     0.173 A 
ATOM     72  C   UNL     1      -0.043  15.058   8.504  1.00  0.00     0.173 A 
ATOM     73  F   UNL     1       3.224  16.119   7.305  1.00  0.00    -0.203 F 
ATOM     74  C   UNL     1       2.440  15.799   9.500  1.00  0.00     0.198 A 
ATOM     75  C   UNL     1       0.175  15.101   9.879  1.00  0.00     0.198 A 
ATOM     76  F   UNL     1      -1.252  14.687   8.056  1.00  0.00    -0.203 F 
ATOM     77  F   UNL     1       3.651  16.119   9.977  1.00  0.00    -0.200 F 
ATOM     78  C   UNL     1       1.419  15.462  10.375  1.00  0.00     0.200 A 
ATOM     79  F   UNL     1      -0.818  14.791  10.723  1.00  0.00    -0.200 F 
ATOM     80  F   UNL     1       1.635  15.478  11.698  1.00  0.00    -0.200 F 
ENDBRANCH  56  70
BRANCH  57  81
ATOM     81  C   UNL     1      -0.682  14.740  -2.227  1.00  0.00     0.064 A 
ATOM     82  C   UNL     1      -0.319  15.768  -3.108  1.00  0.00     0.173 A 
ATOM     83  C   UNL     1      -1.313  13.611  -2.768  1.00  0.00     0.173 A 
ATOM     84  F   UNL     1       0.268  16.878  -2.636  1.00  0.00    -0.203 F 
ATOM     85  C   UNL     1      -0.594  15.680  -4.471  1.00  0.00     0.198 A 
ATOM     86  C   UNL     1      -1.560  13.510  -4.136  1.00  0.00     0.198 A 
ATOM     87  F   UNL     1      -1.678  12.597  -1.970  1.00  0.00    -0.203 F 
ATOM     88  F   UNL     1      -0.279  16.698  -5.283  1.00  0.00    -0.200 F 
ATOM     89  C   UNL     1      -1.209  14.548  -4.985  1.00  0.00     0.200 A 
ATOM     90  F   UNL     1      -2.141  12.408  -4.631  1.00  0.00    -0.200 F 
ATOM     91  F   UNL     1      -1.470  14.462  -6.296  1.00  0.00    -0.200 F 
ENDBRANCH  57  81
BRANCH  69  92
ATOM     92  C   UNL     1      -3.101  18.924   2.799  1.00  0.00     0.064 A 
ATOM     93  C   UNL     1      -4.476  18.732   2.599  1.00  0.00     0.173 A 
ATOM     94  C   UNL     1      -2.648  20.232   3.031  1.00  0.00     0.173 A 
ATOM     95  F   UNL     1      -4.960  17.504   2.358  1.00  0.00    -0.203 F 
ATOM     96  C   UNL     1      -5.357  19.811   2.605  1.00  0.00     0.198 A 
ATOM     97  C   UNL     1      -3.536  21.303   3.070  1.00  0.00     0.198 A 
ATOM     98  F   UNL     1      -1.343  20.470   3.235  1.00  0.00    -0.203 F 
ATOM     99  F   UNL     1      -6.660  19.611   2.361  1.00  0.00    -0.200 F 
ATOM    100  C   UNL     1      -4.888  21.093   2.849  1.00  0.00     0.200 A 
ATOM    101  F   UNL     1      -3.082  22.539   3.321  1.00  0.00    -0.200 F 
ATOM    102  F   UNL     1      -5.739  22.128   2.863  1.00  0.00    -0.200 F 
ENDBRANCH  69  92
ENDBRANCH  43  44
ENDBRANCH  35  38
ENDBRANCH  33  34
ENDBRANCH  32  33
ENDBRANCH  31  32
ENDBRANCH  30  31
ENDBRANCH   1  30
TORSDOF 19
