REMARK SMILES O=C(CCNC(=O)C1CCCC1)NCCCCCCNC(=O)c1ccc(-c2c3nc(c(-c4c(F)c(F)c(F)c(F)c4F)c4ccc([nH]4)c(-c4c(F)c(F)c(F)c(F)c4F)c4nc(c(-c5c(F)c(F)c(F)c(F)c5F)c5ccc2[nH]5)C=C4)C=C3)cc1
REMARK SMILES IDX 16 1 15 2 14 3 13 4 1 5 2 6 3 8 4 9 5 10 6 11 7 13 8 14 9 15
REMARK SMILES IDX 12 16 10 17 11 18 17 19 18 20 19 21 20 22 21 23 22 25 23 26
REMARK SMILES IDX 24 27 85 28 25 29 84 30 26 31 27 32 28 33 78 34 29 35 83 36
REMARK SMILES IDX 77 37 79 38 30 39 82 40 76 41 75 42 31 44 63 45 43 46 62 47
REMARK SMILES IDX 44 48 47 49 61 50 80 51 45 52 46 53 60 55 81 56 48 57 32 58
REMARK SMILES IDX 33 59 41 60 34 61 35 62 39 63 42 64 36 65 37 66 40 67 38 68
REMARK SMILES IDX 64 69 65 70 73 71 66 72 67 73 71 74 74 75 68 76 69 77 72 78
REMARK SMILES IDX 70 79 49 80 50 81 58 82 51 83 52 84 56 85 59 86 53 87 54 88
REMARK SMILES IDX 57 89 55 90
REMARK H PARENT 13 7 5 12 20 24 79 43 47 54
REMARK Flexibility Score: inf
ROOT
ATOM      1  C   UNL     1       4.212   0.595   3.629  1.00  0.00     0.002 C 
ENDROOT
BRANCH   1   2
ATOM      2  C   UNL     1       2.702   0.392   3.433  1.00  0.00     0.021 C 
BRANCH   2   3
ATOM      3  C   UNL     1       2.147   0.980   2.137  1.00  0.00     0.116 C 
BRANCH   3   4
ATOM      4  N   UNL     1       2.764   0.361   0.983  1.00  0.00    -0.356 N 
ATOM      5  O   UNL     1       0.839   0.030  -0.231  1.00  0.00    -0.275 OA
ATOM      6  C   UNL     1       2.054  -0.075  -0.109  1.00  0.00     0.221 C 
ATOM      7  H   UNL     1       3.742   0.247   0.981  1.00  0.00     0.163 HD
BRANCH   6   8
ATOM      8  C   UNL     1       2.924  -0.700  -1.173  1.00  0.00     0.121 C 
BRANCH   8   9
ATOM      9  C   UNL     1       3.674   0.364  -1.965  1.00  0.00     0.125 C 
BRANCH   9  10
ATOM     10  N   UNL     1       4.777   0.948  -1.213  1.00  0.00    -0.355 N 
ATOM     11  C   UNL     1       6.124   0.820  -1.328  1.00  0.00     0.223 C 
ATOM     12  H   UNL     1       4.492   1.546  -0.484  1.00  0.00     0.163 HD
ATOM     13  O   UNL     1       6.811   1.379  -0.469  1.00  0.00    -0.275 OA
BRANCH  11  14
ATOM     14  C   UNL     1       6.786   0.042  -2.454  1.00  0.00     0.078 C 
ATOM     15  C   UNL     1       6.505  -1.457  -2.460  1.00  0.00     0.013 C 
ATOM     16  C   UNL     1       6.453   0.554  -3.861  1.00  0.00     0.013 C 
ATOM     17  C   UNL     1       6.687  -1.861  -3.914  1.00  0.00     0.001 C 
ATOM     18  C   UNL     1       6.145  -0.681  -4.705  1.00  0.00     0.001 C 
ENDBRANCH  11  14
ENDBRANCH   9  10
ENDBRANCH   8   9
ENDBRANCH   6   8
ENDBRANCH   3   4
ENDBRANCH   2   3
ENDBRANCH   1   2
BRANCH   1  19
ATOM     19  C   UNL     1       4.676   2.054   3.654  1.00  0.00     0.002 C 
BRANCH  19  20
ATOM     20  C   UNL     1       4.014   2.925   4.724  1.00  0.00     0.021 C 
BRANCH  20  21
ATOM     21  C   UNL     1       4.146   2.400   6.150  1.00  0.00     0.116 C 
BRANCH  21  22
ATOM     22  N   UNL     1       5.529   2.333   6.594  1.00  0.00    -0.352 N 
ATOM     23  C   UNL     1       6.093   2.786   7.759  1.00  0.00     0.251 C 
ATOM     24  H   UNL     1       6.152   1.898   5.967  1.00  0.00     0.163 HD
ATOM     25  O   UNL     1       7.316   2.784   7.895  1.00  0.00    -0.269 OA
BRANCH  23  26
ATOM     26  C   UNL     1       5.238   3.305   8.848  1.00  0.00     0.039 A 
ATOM     27  C   UNL     1       5.628   4.473   9.508  1.00  0.00     0.014 A 
ATOM     28  C   UNL     1       4.065   2.646   9.227  1.00  0.00     0.014 A 
ATOM     29  C   UNL     1       4.815   5.010  10.507  1.00  0.00     0.010 A 
ATOM     30  C   UNL     1       3.216   3.224  10.168  1.00  0.00     0.010 A 
ATOM     31  C   UNL     1       3.584   4.409  10.822  1.00  0.00    -0.014 A 
BRANCH  31  32
ATOM     32  C   UNL     1       2.675   5.021  11.825  1.00  0.00     0.031 A 
ATOM     33  C   UNL     1       2.347   4.301  13.103  1.00  0.00     0.074 A 
ATOM     34  C   UNL     1       2.108   6.215  11.561  1.00  0.00     0.049 A 
ATOM     35  N   UNL     1       1.579   4.681  14.094  1.00  0.00    -0.248 NA
ATOM     36  C   UNL     1       2.937   2.966  13.280  1.00  0.00     0.031 C 
ATOM     37  C   UNL     1       2.305   6.989  10.334  1.00  0.00     0.029 A 
ATOM     38  N   UNL     1       1.254   6.987  12.308  1.00  0.00    -0.354 N 
ATOM     39  C   UNL     1       1.584   3.630  15.002  1.00  0.00     0.074 A 
ATOM     40  C   UNL     1       2.384   2.574  14.418  1.00  0.00     0.031 C 
ATOM     41  C   UNL     1       1.629   8.145  10.432  1.00  0.00     0.029 A 
ATOM     42  C   UNL     1       0.921   8.176  11.708  1.00  0.00     0.049 A 
ATOM     43  H   UNL     1       0.913   6.714  13.190  1.00  0.00     0.167 HD
ATOM     44  C   UNL     1       0.993   3.559  16.219  1.00  0.00     0.037 A 
ATOM     45  C   UNL     1       0.139   9.182  12.141  1.00  0.00     0.037 A 
ATOM     46  C   UNL     1       0.213   4.621  16.803  1.00  0.00     0.049 A 
ATOM     47  C   UNL     1      -0.513   9.074  13.493  1.00  0.00     0.074 A 
ATOM     48  C   UNL     1      -0.360   4.680  18.061  1.00  0.00     0.029 A 
ATOM     49  N   UNL     1      -0.113   5.808  16.162  1.00  0.00    -0.354 N 
ATOM     50  N   UNL     1      -0.427   8.116  14.382  1.00  0.00    -0.248 NA
ATOM     51  C   UNL     1      -1.367  10.198  13.902  1.00  0.00     0.031 C 
ATOM     52  C   UNL     1      -1.086   5.873  18.157  1.00  0.00     0.029 A 
ATOM     53  C   UNL     1      -0.911   6.589  16.984  1.00  0.00     0.049 A 
ATOM     54  H   UNL     1       0.180   6.058  15.256  1.00  0.00     0.167 HD
ATOM     55  C   UNL     1      -1.188   8.531  15.467  1.00  0.00     0.074 A 
ATOM     56  C   UNL     1      -1.712   9.839  15.130  1.00  0.00     0.031 C 
ATOM     57  C   UNL     1      -1.431   7.888  16.636  1.00  0.00     0.037 A 
BRANCH  44  58
ATOM     58  C   UNL     1       1.156   2.283  16.997  1.00  0.00     0.064 A 
ATOM     59  C   UNL     1       2.398   1.883  17.515  1.00  0.00     0.173 A 
ATOM     60  C   UNL     1       0.050   1.455  17.243  1.00  0.00     0.173 A 
ATOM     61  F   UNL     1       3.492   2.630  17.302  1.00  0.00    -0.203 F 
ATOM     62  C   UNL     1       2.534   0.684  18.212  1.00  0.00     0.198 A 
ATOM     63  C   UNL     1       0.182   0.276  17.972  1.00  0.00     0.198 A 
ATOM     64  F   UNL     1      -1.163   1.791  16.779  1.00  0.00    -0.203 F 
ATOM     65  F   UNL     1       3.741   0.294  18.642  1.00  0.00    -0.200 F 
ATOM     66  C   UNL     1       1.425  -0.114  18.446  1.00  0.00     0.200 A 
ATOM     67  F   UNL     1      -0.894  -0.487  18.209  1.00  0.00    -0.200 F 
ATOM     68  F   UNL     1       1.556  -1.266  19.119  1.00  0.00    -0.200 F 
ENDBRANCH  44  58
BRANCH  45  69
ATOM     69  C   UNL     1      -0.035  10.400  11.308  1.00  0.00     0.064 A 
ATOM     70  C   UNL     1       0.515  11.626  11.710  1.00  0.00     0.173 A 
ATOM     71  C   UNL     1      -0.748  10.370  10.101  1.00  0.00     0.173 A 
ATOM     72  F   UNL     1       1.188  11.710  12.867  1.00  0.00    -0.203 F 
ATOM     73  C   UNL     1       0.342  12.778  10.947  1.00  0.00     0.198 A 
ATOM     74  C   UNL     1      -0.895  11.517   9.324  1.00  0.00     0.198 A 
ATOM     75  F   UNL     1      -1.290   9.222   9.669  1.00  0.00    -0.203 F 
ATOM     76  F   UNL     1       0.839  13.946  11.378  1.00  0.00    -0.200 F 
ATOM     77  C   UNL     1      -0.358  12.722   9.751  1.00  0.00     0.200 A 
ATOM     78  F   UNL     1      -1.559  11.455   8.161  1.00  0.00    -0.200 F 
ATOM     79  F   UNL     1      -0.520  13.829   9.014  1.00  0.00    -0.200 F 
ENDBRANCH  45  69
BRANCH  57  80
ATOM     80  C   UNL     1      -2.276   8.607  17.649  1.00  0.00     0.064 A 
ATOM     81  C   UNL     1      -3.646   8.833  17.444  1.00  0.00     0.173 A 
ATOM     82  C   UNL     1      -1.710   9.070  18.847  1.00  0.00     0.173 A 
ATOM     83  F   UNL     1      -4.235   8.425  16.309  1.00  0.00    -0.203 F 
ATOM     84  C   UNL     1      -4.406   9.530  18.380  1.00  0.00     0.198 A 
ATOM     85  C   UNL     1      -2.481   9.733  19.798  1.00  0.00     0.198 A 
ATOM     86  F   UNL     1      -0.407   8.874  19.100  1.00  0.00    -0.203 F 
ATOM     87  F   UNL     1      -5.697   9.791  18.130  1.00  0.00    -0.200 F 
ATOM     88  C   UNL     1      -3.825   9.974  19.558  1.00  0.00     0.200 A 
ATOM     89  F   UNL     1      -1.921  10.147  20.943  1.00  0.00    -0.200 F 
ATOM     90  F   UNL     1      -4.558  10.644  20.457  1.00  0.00    -0.200 F 
ENDBRANCH  57  80
ENDBRANCH  31  32
ENDBRANCH  23  26
ENDBRANCH  21  22
ENDBRANCH  20  21
ENDBRANCH  19  20
ENDBRANCH   1  19
TORSDOF 16
