REMARK SMILES COc1ccc(Br)cc1S(=O)(=O)N(C)CC(=O)NCCCCCCNC(=O)c1ccc(-c2c3nc(c(-c4c(F)c(F)c(F)c(F)c4F)c4ccc([nH]4)c(-c4c(F)c(F)c(F)c(F)c4F)c4nc(c(-c5c(F)c(F)c(F)c(F)c5F)c5ccc2[nH]5)C=C4)C=C3)cc1
REMARK SMILES IDX 20 1 19 2 18 3 16 4 17 5 15 7 13 8 14 9 10 10 11 11 12 12
REMARK SMILES IDX 9 13 3 14 4 15 5 16 8 17 6 18 7 19 2 20 1 21 21 22 22 23
REMARK SMILES IDX 23 24 24 25 25 26 26 27 27 29 28 30 29 31 90 32 30 33 89 34
REMARK SMILES IDX 31 35 32 36 33 37 83 38 34 39 88 40 82 41 84 42 35 43 87 44
REMARK SMILES IDX 81 45 80 46 36 48 68 49 48 50 67 51 49 52 52 53 66 54 85 55
REMARK SMILES IDX 50 56 51 57 65 59 86 60 53 61 37 62 38 63 46 64 39 65 40 66
REMARK SMILES IDX 44 67 47 68 41 69 42 70 45 71 43 72 69 73 70 74 78 75 71 76
REMARK SMILES IDX 72 77 76 78 79 79 73 80 74 81 77 82 75 83 54 84 55 85 63 86
REMARK SMILES IDX 56 87 57 88 61 89 64 90 58 91 59 92 62 93 60 94
REMARK H PARENT 18 6 25 28 84 47 52 58
REMARK Flexibility Score: inf
ROOT
ATOM      1  C   UNL     1      -2.954   1.893  -0.907  1.00  0.00     0.021 C 
ENDROOT
BRANCH   1   2
ATOM      2  C   UNL     1      -4.068   1.196  -0.118  1.00  0.00     0.116 C 
BRANCH   2   3
ATOM      3  N   UNL     1      -4.626   0.074  -0.846  1.00  0.00    -0.355 N 
ATOM      4  C   UNL     1      -4.345  -1.263  -0.797  1.00  0.00     0.235 C 
ATOM      5  O   UNL     1      -5.026  -2.002  -1.514  1.00  0.00    -0.274 OA
ATOM      6  H   UNL     1      -5.330   0.317  -1.489  1.00  0.00     0.163 HD
BRANCH   4   7
ATOM      7  C   UNL     1      -3.275  -1.836   0.136  1.00  0.00     0.202 C 
BRANCH   7   8
ATOM      8  N   UNL     1      -1.836  -1.780  -0.302  1.00  0.00    -0.191 NA
ATOM      9  C   UNL     1      -1.140  -0.611   0.233  1.00  0.00     0.125 C 
BRANCH   8  10
ATOM     10  S   UNL     1      -1.627  -2.205  -1.934  1.00  0.00     0.247 S 
ATOM     11  O   UNL     1      -2.112  -1.078  -2.710  1.00  0.00    -0.207 OA
ATOM     12  O   UNL     1      -2.214  -3.519  -2.089  1.00  0.00    -0.207 OA
BRANCH  10  13
ATOM     13  C   UNL     1       0.069  -2.392  -2.450  1.00  0.00     0.125 A 
ATOM     14  C   UNL     1       1.233  -2.168  -1.711  1.00  0.00     0.138 A 
ATOM     15  C   UNL     1       2.479  -2.289  -2.359  1.00  0.00     0.049 A 
ATOM     16  C   UNL     1       2.572  -2.596  -3.718  1.00  0.00     0.019 A 
ATOM     17  C   UNL     1       0.176  -2.732  -3.820  1.00  0.00     0.041 A 
ATOM     18  C   UNL     1       1.415  -2.824  -4.444  1.00  0.00     0.019 A 
ATOM     19  Br  UNL     1       1.522  -3.250  -6.280  1.00  0.00    -0.051 Br
BRANCH  14  20
ATOM     20  O   UNL     1       1.190  -1.905  -0.374  1.00  0.00    -0.495 OA
ATOM     21  C   UNL     1       2.139  -0.933   0.081  1.00  0.00     0.278 C 
ENDBRANCH  14  20
ENDBRANCH  10  13
ENDBRANCH   8  10
ENDBRANCH   7   8
ENDBRANCH   4   7
ENDBRANCH   2   3
ENDBRANCH   1   2
BRANCH   1  22
ATOM     22  C   UNL     1      -3.426   3.085  -1.743  1.00  0.00     0.002 C 
BRANCH  22  23
ATOM     23  C   UNL     1      -3.740   4.349  -0.934  1.00  0.00     0.002 C 
BRANCH  23  24
ATOM     24  C   UNL     1      -2.581   4.923  -0.107  1.00  0.00     0.021 C 
BRANCH  24  25
ATOM     25  C   UNL     1      -1.313   5.259  -0.892  1.00  0.00     0.116 C 
BRANCH  25  26
ATOM     26  N   UNL     1      -1.535   6.308  -1.872  1.00  0.00    -0.352 N 
ATOM     27  C   UNL     1      -0.966   7.552  -1.982  1.00  0.00     0.251 C 
ATOM     28  H   UNL     1      -2.198   6.093  -2.567  1.00  0.00     0.163 HD
ATOM     29  O   UNL     1      -1.433   8.373  -2.766  1.00  0.00    -0.269 OA
BRANCH  27  30
ATOM     30  C   UNL     1       0.206   7.924  -1.157  1.00  0.00     0.039 A 
ATOM     31  C   UNL     1       0.236   9.190  -0.565  1.00  0.00     0.014 A 
ATOM     32  C   UNL     1       1.300   7.064  -1.019  1.00  0.00     0.014 A 
ATOM     33  C   UNL     1       1.335   9.576   0.207  1.00  0.00     0.010 A 
ATOM     34  C   UNL     1       2.375   7.429  -0.209  1.00  0.00     0.010 A 
ATOM     35  C   UNL     1       2.405   8.689   0.408  1.00  0.00    -0.014 A 
BRANCH  35  36
ATOM     36  C   UNL     1       3.566   9.069   1.252  1.00  0.00     0.031 A 
ATOM     37  C   UNL     1       4.918   9.277   0.629  1.00  0.00     0.074 A 
ATOM     38  C   UNL     1       3.418   9.169   2.586  1.00  0.00     0.049 A 
ATOM     39  N   UNL     1       6.066   9.532   1.206  1.00  0.00    -0.248 NA
ATOM     40  C   UNL     1       4.994   9.159  -0.835  1.00  0.00     0.031 C 
ATOM     41  C   UNL     1       2.168   8.956   3.316  1.00  0.00     0.029 A 
ATOM     42  N   UNL     1       4.331   9.464   3.568  1.00  0.00    -0.354 N 
ATOM     43  C   UNL     1       7.001   9.585   0.181  1.00  0.00     0.074 A 
ATOM     44  C   UNL     1       6.295   9.301  -1.051  1.00  0.00     0.031 C 
ATOM     45  C   UNL     1       2.389   9.138   4.628  1.00  0.00     0.029 A 
ATOM     46  C   UNL     1       3.800   9.454   4.834  1.00  0.00     0.049 A 
ATOM     47  H   UNL     1       5.277   9.663   3.382  1.00  0.00     0.167 HD
ATOM     48  C   UNL     1       8.325   9.860   0.258  1.00  0.00     0.037 A 
ATOM     49  C   UNL     1       4.386   9.670   6.027  1.00  0.00     0.037 A 
ATOM     50  C   UNL     1       9.022  10.179   1.476  1.00  0.00     0.049 A 
ATOM     51  C   UNL     1       5.852   9.999   6.082  1.00  0.00     0.074 A 
ATOM     52  C   UNL     1      10.351  10.528   1.646  1.00  0.00     0.029 A 
ATOM     53  N   UNL     1       8.441  10.194   2.735  1.00  0.00    -0.354 N 
ATOM     54  N   UNL     1       6.716  10.092   5.101  1.00  0.00    -0.248 NA
ATOM     55  C   UNL     1       6.423  10.261   7.411  1.00  0.00     0.031 C 
ATOM     56  C   UNL     1      10.580  10.727   3.012  1.00  0.00     0.029 A 
ATOM     57  C   UNL     1       9.386  10.536   3.688  1.00  0.00     0.049 A 
ATOM     58  H   UNL     1       7.495   9.993   2.923  1.00  0.00     0.167 HD
ATOM     59  C   UNL     1       7.923  10.445   5.687  1.00  0.00     0.074 A 
ATOM     60  C   UNL     1       7.679  10.560   7.110  1.00  0.00     0.031 C 
ATOM     61  C   UNL     1       9.125  10.655   5.098  1.00  0.00     0.037 A 
BRANCH  48  62
ATOM     62  C   UNL     1       9.112   9.831  -1.019  1.00  0.00     0.064 A 
ATOM     63  C   UNL     1       8.986  10.844  -1.981  1.00  0.00     0.173 A 
ATOM     64  C   UNL     1      10.027   8.798  -1.268  1.00  0.00     0.173 A 
ATOM     65  F   UNL     1       8.114  11.847  -1.794  1.00  0.00    -0.203 F 
ATOM     66  C   UNL     1       9.730  10.811  -3.157  1.00  0.00     0.198 A 
ATOM     67  C   UNL     1      10.788   8.781  -2.434  1.00  0.00     0.198 A 
ATOM     68  F   UNL     1      10.188   7.808  -0.377  1.00  0.00    -0.203 F 
ATOM     69  F   UNL     1       9.562  11.766  -4.082  1.00  0.00    -0.200 F 
ATOM     70  C   UNL     1      10.634   9.783  -3.380  1.00  0.00     0.200 A 
ATOM     71  F   UNL     1      11.667   7.791  -2.644  1.00  0.00    -0.200 F 
ATOM     72  F   UNL     1      11.352   9.754  -4.511  1.00  0.00    -0.200 F 
ENDBRANCH  48  62
BRANCH  49  73
ATOM     73  C   UNL     1       3.575   9.612   7.268  1.00  0.00     0.064 A 
ATOM     74  C   UNL     1       3.244  10.783   7.963  1.00  0.00     0.173 A 
ATOM     75  C   UNL     1       3.111   8.393   7.780  1.00  0.00     0.173 A 
ATOM     76  F   UNL     1       3.684  11.970   7.520  1.00  0.00    -0.203 F 
ATOM     77  C   UNL     1       2.490  10.736   9.133  1.00  0.00     0.198 A 
ATOM     78  C   UNL     1       2.338   8.348   8.938  1.00  0.00     0.198 A 
ATOM     79  F   UNL     1       3.398   7.246   7.147  1.00  0.00    -0.203 F 
ATOM     80  F   UNL     1       2.217  11.867   9.797  1.00  0.00    -0.200 F 
ATOM     81  C   UNL     1       2.033   9.519   9.617  1.00  0.00     0.200 A 
ATOM     82  F   UNL     1       1.889   7.172   9.397  1.00  0.00    -0.200 F 
ATOM     83  F   UNL     1       1.304   9.474  10.740  1.00  0.00    -0.200 F 
ENDBRANCH  49  73
BRANCH  61  84
ATOM     84  C   UNL     1      10.262  11.059   5.988  1.00  0.00     0.064 A 
ATOM     85  C   UNL     1      10.905  10.133   6.821  1.00  0.00     0.173 A 
ATOM     86  C   UNL     1      10.735  12.380   5.979  1.00  0.00     0.173 A 
ATOM     87  F   UNL     1      10.476   8.863   6.875  1.00  0.00    -0.203 F 
ATOM     88  C   UNL     1      11.971  10.519   7.628  1.00  0.00     0.198 A 
ATOM     89  C   UNL     1      11.816  12.757   6.771  1.00  0.00     0.198 A 
ATOM     90  F   UNL     1      10.154  13.300   5.196  1.00  0.00    -0.203 F 
ATOM     91  F   UNL     1      12.549   9.627   8.444  1.00  0.00    -0.200 F 
ATOM     92  C   UNL     1      12.429  11.828   7.598  1.00  0.00     0.200 A 
ATOM     93  F   UNL     1      12.262  14.020   6.735  1.00  0.00    -0.200 F 
ATOM     94  F   UNL     1      13.459  12.197   8.373  1.00  0.00    -0.200 F 
ENDBRANCH  61  84
ENDBRANCH  35  36
ENDBRANCH  27  30
ENDBRANCH  25  26
ENDBRANCH  24  25
ENDBRANCH  23  24
ENDBRANCH  22  23
ENDBRANCH   1  22
TORSDOF 17
