REMARK SMILES C[C@](NC(=O)NCCC[NH3+])(C(=O)NCCCCCCNC(=O)c1ccc(-c2c3nc(c(-c4c(F)c(F)c(F)c(F)c4F)c4ccc([nH]4)c(-c4c(F)c(F)c(F)c(F)c4F)c4nc(c(-c5c(F)c(F)c(F)c(F)c5F)c5ccc2[nH]5)C=C4)C=C3)cc1)C(F)(F)F
REMARK SMILES IDX 15 1 14 2 13 3 11 4 12 5 2 7 1 8 86 9 87 10 88 11 89 12 3 13
REMARK SMILES IDX 4 14 5 16 6 17 7 19 8 20 9 21 10 22 16 26 17 27 18 28 19 29
REMARK SMILES IDX 20 30 21 31 22 33 23 34 24 35 85 36 25 37 84 38 26 39 27 40
REMARK SMILES IDX 28 41 78 42 29 43 83 44 77 45 79 46 30 47 82 48 76 49 75 50
REMARK SMILES IDX 31 52 63 53 43 54 62 55 44 56 47 57 61 58 80 59 45 60 46 61
REMARK SMILES IDX 60 63 81 64 48 65 32 66 33 67 41 68 34 69 35 70 39 71 42 72
REMARK SMILES IDX 36 73 37 74 40 75 38 76 64 77 65 78 73 79 66 80 67 81 71 82
REMARK SMILES IDX 74 83 68 84 69 85 72 86 70 87 49 88 50 89 58 90 51 91 52 92
REMARK SMILES IDX 56 93 59 94 53 95 54 96 57 97 55 98
REMARK H PARENT 13 6 3 15 6 18 10 23 10 24 10 25 20 32 79 51 47 62
REMARK Flexibility Score: inf
ROOT
ATOM      1  C   UNL     1      -1.476  -2.598  -0.805  1.00  0.00     0.021 C 
ENDROOT
BRANCH   1   2
ATOM      2  C   UNL     1      -0.871  -1.529  -1.711  1.00  0.00     0.116 C 
BRANCH   2   3
ATOM      3  N   UNL     1      -1.617  -0.301  -1.572  1.00  0.00    -0.354 N 
ATOM      4  C   UNL     1      -1.302   0.961  -1.210  1.00  0.00     0.255 C 
ATOM      5  O   UNL     1      -2.219   1.768  -1.413  1.00  0.00    -0.272 OA
ATOM      6  H   UNL     1      -2.571  -0.408  -1.791  1.00  0.00     0.163 HD
BRANCH   4   7
ATOM      7  C   UNL     1       0.135   1.431  -0.911  1.00  0.00     0.213 C 
ATOM      8  C   UNL     1       0.665   1.635  -2.356  1.00  0.00     0.056 C 
BRANCH   7   9
ATOM      9  C   UNL     1      -0.123   2.686  -0.021  1.00  0.00     0.420 C 
ATOM     10  F   UNL     1      -1.280   2.630   0.684  1.00  0.00    -0.168 F 
ATOM     11  F   UNL     1       0.813   2.804   0.953  1.00  0.00    -0.168 F 
ATOM     12  F   UNL     1      -0.108   3.839  -0.722  1.00  0.00    -0.168 F 
ENDBRANCH   7   9
BRANCH   7  13
ATOM     13  N   UNL     1       1.052   0.488  -0.216  1.00  0.00    -0.316 N 
ATOM     14  C   UNL     1       2.316   0.611   0.226  1.00  0.00     0.315 C 
ATOM     15  H   UNL     1       0.656  -0.398  -0.046  1.00  0.00     0.166 HD
ATOM     16  O   UNL     1       2.770  -0.336   0.875  1.00  0.00    -0.249 OA
ATOM     17  N   UNL     1       3.120   1.669   0.032  1.00  0.00    -0.338 N 
ATOM     18  H   UNL     1       3.956   1.573   0.544  1.00  0.00     0.165 HD
BRANCH  17  19
ATOM     19  C   UNL     1       3.111   2.924  -0.722  1.00  0.00     0.123 C 
BRANCH  19  20
ATOM     20  C   UNL     1       3.080   4.206   0.112  1.00  0.00     0.082 C 
BRANCH  20  21
ATOM     21  C   UNL     1       4.421   4.694   0.633  1.00  0.00     0.260 C 
BRANCH  21  22
ATOM     22  N   UNL     1       5.284   5.162  -0.444  1.00  0.00    -0.358 N 
ATOM     23  H   UNL     1       5.469   4.394  -1.089  1.00  0.00     0.344 HD
ATOM     24  H   UNL     1       6.164   5.498  -0.054  1.00  0.00     0.344 HD
ATOM     25  H   UNL     1       4.822   5.921  -0.944  1.00  0.00     0.344 HD
ENDBRANCH  21  22
ENDBRANCH  20  21
ENDBRANCH  19  20
ENDBRANCH  17  19
ENDBRANCH   7  13
ENDBRANCH   4   7
ENDBRANCH   2   3
ENDBRANCH   1   2
BRANCH   1  26
ATOM     26  C   UNL     1      -2.993  -2.784  -0.988  1.00  0.00     0.002 C 
BRANCH  26  27
ATOM     27  C   UNL     1      -3.456  -2.994  -2.435  1.00  0.00     0.002 C 
BRANCH  27  28
ATOM     28  C   UNL     1      -2.772  -4.152  -3.159  1.00  0.00     0.021 C 
BRANCH  28  29
ATOM     29  C   UNL     1      -2.872  -5.482  -2.429  1.00  0.00     0.116 C 
BRANCH  29  30
ATOM     30  N   UNL     1      -4.250  -5.913  -2.267  1.00  0.00    -0.352 N 
ATOM     31  C   UNL     1      -4.814  -7.124  -2.581  1.00  0.00     0.251 C 
ATOM     32  H   UNL     1      -4.862  -5.245  -1.881  1.00  0.00     0.163 HD
ATOM     33  O   UNL     1      -6.027  -7.271  -2.568  1.00  0.00    -0.269 OA
BRANCH  31  34
ATOM     34  C   UNL     1      -3.931  -8.244  -2.965  1.00  0.00     0.039 A 
ATOM     35  C   UNL     1      -4.251  -8.993  -4.097  1.00  0.00     0.014 A 
ATOM     36  C   UNL     1      -2.777  -8.526  -2.228  1.00  0.00     0.014 A 
ATOM     37  C   UNL     1      -3.377  -9.991  -4.527  1.00  0.00     0.010 A 
ATOM     38  C   UNL     1      -1.866  -9.461  -2.706  1.00  0.00     0.010 A 
ATOM     39  C   UNL     1      -2.159 -10.204  -3.858  1.00  0.00    -0.014 A 
BRANCH  39  40
ATOM     40  C   UNL     1      -1.175 -11.191  -4.364  1.00  0.00     0.031 A 
ATOM     41  C   UNL     1      -0.801 -12.384  -3.534  1.00  0.00     0.074 A 
ATOM     42  C   UNL     1      -0.571 -10.973  -5.548  1.00  0.00     0.049 A 
ATOM     43  N   UNL     1       0.070 -13.329  -3.787  1.00  0.00    -0.248 NA
ATOM     44  C   UNL     1      -1.475 -12.520  -2.234  1.00  0.00     0.031 C 
ATOM     45  C   UNL     1      -0.807  -9.819  -6.415  1.00  0.00     0.029 A 
ATOM     46  N   UNL     1       0.374 -11.707  -6.219  1.00  0.00    -0.354 N 
ATOM     47  C   UNL     1       0.050 -14.165  -2.679  1.00  0.00     0.074 A 
ATOM     48  C   UNL     1      -0.866 -13.579  -1.724  1.00  0.00     0.031 C 
ATOM     49  C   UNL     1      -0.045  -9.932  -7.514  1.00  0.00     0.029 A 
ATOM     50  C   UNL     1       0.764 -11.142  -7.408  1.00  0.00     0.049 A 
ATOM     51  H   UNL     1       0.738 -12.557  -5.881  1.00  0.00     0.167 HD
ATOM     52  C   UNL     1       0.714 -15.330  -2.487  1.00  0.00     0.037 A 
ATOM     53  C   UNL     1       1.681 -11.547  -8.307  1.00  0.00     0.037 A 
ATOM     54  C   UNL     1       1.624 -15.905  -3.444  1.00  0.00     0.049 A 
ATOM     55  C   UNL     1       2.425 -12.831  -8.065  1.00  0.00     0.074 A 
ATOM     56  C   UNL     1       2.306 -17.106  -3.373  1.00  0.00     0.029 A 
ATOM     57  N   UNL     1       1.992 -15.308  -4.643  1.00  0.00    -0.354 N 
ATOM     58  N   UNL     1       2.339 -13.658  -7.052  1.00  0.00    -0.248 NA
ATOM     59  C   UNL     1       3.389 -13.240  -9.095  1.00  0.00     0.031 C 
ATOM     60  C   UNL     1       3.134 -17.207  -4.497  1.00  0.00     0.029 A 
ATOM     61  C   UNL     1       2.919 -16.099  -5.303  1.00  0.00     0.049 A 
ATOM     62  H   UNL     1       1.645 -14.448  -4.975  1.00  0.00     0.167 HD
ATOM     63  C   UNL     1       3.223 -14.693  -7.327  1.00  0.00     0.074 A 
ATOM     64  C   UNL     1       3.818 -14.399  -8.615  1.00  0.00     0.031 C 
ATOM     65  C   UNL     1       3.515 -15.787  -6.579  1.00  0.00     0.037 A 
BRANCH  52  66
ATOM     66  C   UNL     1       0.483 -16.048  -1.187  1.00  0.00     0.064 A 
ATOM     67  C   UNL     1      -0.763 -16.610  -0.864  1.00  0.00     0.173 A 
ATOM     68  C   UNL     1       1.520 -16.181  -0.251  1.00  0.00     0.173 A 
ATOM     69  F   UNL     1      -1.793 -16.505  -1.718  1.00  0.00    -0.203 F 
ATOM     70  C   UNL     1      -0.975 -17.232   0.364  1.00  0.00     0.198 A 
ATOM     71  C   UNL     1       1.315 -16.837   0.960  1.00  0.00     0.198 A 
ATOM     72  F   UNL     1       2.734 -15.671  -0.508  1.00  0.00    -0.203 F 
ATOM     73  F   UNL     1      -2.193 -17.695   0.676  1.00  0.00    -0.200 F 
ATOM     74  C   UNL     1       0.065 -17.350   1.272  1.00  0.00     0.200 A 
ATOM     75  F   UNL     1       2.326 -16.965   1.831  1.00  0.00    -0.200 F 
ATOM     76  F   UNL     1      -0.140 -17.948   2.454  1.00  0.00    -0.200 F 
ENDBRANCH  52  66
BRANCH  53  77
ATOM     77  C   UNL     1       1.927 -10.726  -9.521  1.00  0.00     0.064 A 
ATOM     78  C   UNL     1       1.534 -11.173 -10.790  1.00  0.00     0.173 A 
ATOM     79  C   UNL     1       2.532  -9.463  -9.432  1.00  0.00     0.173 A 
ATOM     80  F   UNL     1       0.968 -12.381 -10.928  1.00  0.00    -0.203 F 
ATOM     81  C   UNL     1       1.746 -10.393 -11.925  1.00  0.00     0.198 A 
ATOM     82  C   UNL     1       2.716  -8.672 -10.563  1.00  0.00     0.198 A 
ATOM     83  F   UNL     1       2.919  -8.986  -8.240  1.00  0.00    -0.203 F 
ATOM     84  F   UNL     1       1.392 -10.859 -13.130  1.00  0.00    -0.200 F 
ATOM     85  C   UNL     1       2.328  -9.139 -11.810  1.00  0.00     0.200 A 
ATOM     86  F   UNL     1       3.260  -7.453 -10.444  1.00  0.00    -0.200 F 
ATOM     87  F   UNL     1       2.517  -8.383 -12.899  1.00  0.00    -0.200 F 
ENDBRANCH  53  77
BRANCH  65  88
ATOM     88  C   UNL     1       4.517 -16.755  -7.141  1.00  0.00     0.064 A 
ATOM     89  C   UNL     1       5.879 -16.432  -7.239  1.00  0.00     0.173 A 
ATOM     90  C   UNL     1       4.117 -18.036  -7.552  1.00  0.00     0.173 A 
ATOM     91  F   UNL     1       6.313 -15.215  -6.875  1.00  0.00    -0.203 F 
ATOM     92  C   UNL     1       6.797 -17.344  -7.754  1.00  0.00     0.198 A 
ATOM     93  C   UNL     1       5.043 -18.958  -8.033  1.00  0.00     0.198 A 
ATOM     94  F   UNL     1       2.828 -18.399  -7.474  1.00  0.00    -0.203 F 
ATOM     95  F   UNL     1       8.084 -16.994  -7.888  1.00  0.00    -0.200 F 
ATOM     96  C   UNL     1       6.380 -18.608  -8.142  1.00  0.00     0.200 A 
ATOM     97  F   UNL     1       4.640 -20.184  -8.393  1.00  0.00    -0.200 F 
ATOM     98  F   UNL     1       7.266 -19.488  -8.628  1.00  0.00    -0.200 F 
ENDBRANCH  65  88
ENDBRANCH  39  40
ENDBRANCH  31  34
ENDBRANCH  29  30
ENDBRANCH  28  29
ENDBRANCH  27  28
ENDBRANCH  26  27
ENDBRANCH   1  26
TORSDOF 19
