REMARK SMILES O=C(NCCCCCCNC(=O)[C@@H]1C[C@@H]2CC[C@H]1N2C(=O)C[C@H]1CCCCO1)c1ccc(-c2c3nc(c(-c4c(F)c(F)c(F)c(F)c4F)c4ccc([nH]4)c(-c4c(F)c(F)c(F)c(F)c4F)c4nc(c(-c5c(F)c(F)c(F)c(F)c5F)c5ccc2[nH]5)C=C4)C=C3)cc1
REMARK SMILES IDX 7 1 6 2 5 3 4 4 3 5 1 6 2 7 29 9 30 10 91 11 31 12 90 13
REMARK SMILES IDX 32 14 33 15 34 16 84 17 35 18 89 19 83 20 85 21 36 22 88 23
REMARK SMILES IDX 82 24 81 25 37 27 69 28 49 29 68 30 50 31 53 32 67 33 86 34
REMARK SMILES IDX 51 35 52 36 66 38 87 39 54 40 38 41 39 42 47 43 40 44 41 45
REMARK SMILES IDX 45 46 48 47 42 48 43 49 46 50 44 51 70 52 71 53 79 54 72 55
REMARK SMILES IDX 73 56 77 57 80 58 74 59 75 60 78 61 76 62 55 63 56 64 64 65
REMARK SMILES IDX 57 66 58 67 62 68 65 69 59 70 60 71 63 72 61 73 8 74 9 75
REMARK SMILES IDX 10 76 11 77 12 79 13 80 14 81 18 82 15 83 17 84 19 85 16 86
REMARK SMILES IDX 20 87 21 88 22 89 23 90 24 91 28 92 25 93 27 94 26 95
REMARK H PARENT 3 8 85 26 53 37 10 78
REMARK Flexibility Score: inf
ROOT
ATOM      1  C   UNL     1      11.864   1.632  -0.034  1.00  0.00     0.002 C 
ENDROOT
BRANCH   1   2
ATOM      2  C   UNL     1      12.649   2.185  -1.228  1.00  0.00     0.002 C 
BRANCH   2   3
ATOM      3  C   UNL     1      12.090   1.900  -2.622  1.00  0.00     0.021 C 
BRANCH   3   4
ATOM      4  C   UNL     1      10.620   2.229  -2.833  1.00  0.00     0.116 C 
BRANCH   4   5
ATOM      5  N   UNL     1      10.303   3.620  -2.573  1.00  0.00    -0.352 N 
ATOM      6  O   UNL     1       9.585   5.705  -3.032  1.00  0.00    -0.269 OA
ATOM      7  C   UNL     1       9.654   4.532  -3.369  1.00  0.00     0.251 C 
ATOM      8  H   UNL     1      10.597   3.960  -1.697  1.00  0.00     0.163 HD
BRANCH   7   9
ATOM      9  C   UNL     1       9.059   4.096  -4.652  1.00  0.00     0.039 A 
ATOM     10  C   UNL     1       8.307   2.922  -4.735  1.00  0.00     0.014 A 
ATOM     11  C   UNL     1       9.250   4.890  -5.786  1.00  0.00     0.014 A 
ATOM     12  C   UNL     1       7.862   2.473  -5.973  1.00  0.00     0.010 A 
ATOM     13  C   UNL     1       8.725   4.482  -7.014  1.00  0.00     0.010 A 
ATOM     14  C   UNL     1       8.047   3.258  -7.122  1.00  0.00    -0.014 A 
BRANCH  14  15
ATOM     15  C   UNL     1       7.463   2.816  -8.413  1.00  0.00     0.031 A 
ATOM     16  C   UNL     1       8.337   2.480  -9.588  1.00  0.00     0.074 A 
ATOM     17  C   UNL     1       6.124   2.717  -8.514  1.00  0.00     0.049 A 
ATOM     18  N   UNL     1       7.991   2.098 -10.792  1.00  0.00    -0.248 NA
ATOM     19  C   UNL     1       9.790   2.594  -9.390  1.00  0.00     0.031 C 
ATOM     20  C   UNL     1       5.176   3.029  -7.441  1.00  0.00     0.029 A 
ATOM     21  N   UNL     1       5.326   2.324  -9.557  1.00  0.00    -0.354 N 
ATOM     22  C   UNL     1       9.176   1.943 -11.499  1.00  0.00     0.074 A 
ATOM     23  C   UNL     1      10.252   2.300 -10.598  1.00  0.00     0.031 C 
ATOM     24  C   UNL     1       3.931   2.782  -7.869  1.00  0.00     0.029 A 
ATOM     25  C   UNL     1       3.985   2.361  -9.264  1.00  0.00     0.049 A 
ATOM     26  H   UNL     1       5.680   2.043 -10.431  1.00  0.00     0.167 HD
ATOM     27  C   UNL     1       9.345   1.534 -12.779  1.00  0.00     0.037 A 
ATOM     28  C   UNL     1       2.915   2.110 -10.039  1.00  0.00     0.037 A 
ATOM     29  C   UNL     1       8.265   1.176 -13.665  1.00  0.00     0.049 A 
ATOM     30  C   UNL     1       3.133   1.696 -11.466  1.00  0.00     0.074 A 
ATOM     31  C   UNL     1       8.334   0.715 -14.969  1.00  0.00     0.029 A 
ATOM     32  N   UNL     1       6.918   1.250 -13.340  1.00  0.00    -0.354 N 
ATOM     33  N   UNL     1       4.259   1.515 -12.111  1.00  0.00    -0.248 NA
ATOM     34  C   UNL     1       1.930   1.454 -12.272  1.00  0.00     0.031 C 
ATOM     35  C   UNL     1       7.030   0.565 -15.451  1.00  0.00     0.029 A 
ATOM     36  C   UNL     1       6.146   0.870 -14.428  1.00  0.00     0.049 A 
ATOM     37  H   UNL     1       6.562   1.530 -12.466  1.00  0.00     0.167 HD
ATOM     38  C   UNL     1       3.904   1.116 -13.392  1.00  0.00     0.074 A 
ATOM     39  C   UNL     1       2.456   1.063 -13.424  1.00  0.00     0.031 C 
ATOM     40  C   UNL     1       4.705   0.820 -14.444  1.00  0.00     0.037 A 
BRANCH  27  41
ATOM     41  C   UNL     1      10.749   1.470 -13.313  1.00  0.00     0.064 A 
ATOM     42  C   UNL     1      11.669   0.509 -12.866  1.00  0.00     0.173 A 
ATOM     43  C   UNL     1      11.168   2.357 -14.317  1.00  0.00     0.173 A 
ATOM     44  F   UNL     1      11.325  -0.357 -11.902  1.00  0.00    -0.203 F 
ATOM     45  C   UNL     1      12.962   0.457 -13.384  1.00  0.00     0.198 A 
ATOM     46  C   UNL     1      12.451   2.283 -14.854  1.00  0.00     0.198 A 
ATOM     47  F   UNL     1      10.328   3.292 -14.787  1.00  0.00    -0.203 F 
ATOM     48  F   UNL     1      13.837  -0.438 -12.906  1.00  0.00    -0.200 F 
ATOM     49  C   UNL     1      13.349   1.339 -14.382  1.00  0.00     0.200 A 
ATOM     50  F   UNL     1      12.818   3.126 -15.829  1.00  0.00    -0.200 F 
ATOM     51  F   UNL     1      14.591   1.283 -14.883  1.00  0.00    -0.200 F 
ENDBRANCH  27  41
BRANCH  28  52
ATOM     52  C   UNL     1       1.548   2.251  -9.475  1.00  0.00     0.064 A 
ATOM     53  C   UNL     1       0.729   1.132  -9.279  1.00  0.00     0.173 A 
ATOM     54  C   UNL     1       1.040   3.506  -9.105  1.00  0.00     0.173 A 
ATOM     55  F   UNL     1       1.164  -0.087  -9.631  1.00  0.00    -0.203 F 
ATOM     56  C   UNL     1      -0.553   1.264  -8.750  1.00  0.00     0.198 A 
ATOM     57  C   UNL     1      -0.229   3.632  -8.546  1.00  0.00     0.198 A 
ATOM     58  F   UNL     1       1.788   4.607  -9.265  1.00  0.00    -0.203 F 
ATOM     59  F   UNL     1      -1.333   0.182  -8.611  1.00  0.00    -0.200 F 
ATOM     60  C   UNL     1      -1.028   2.512  -8.376  1.00  0.00     0.200 A 
ATOM     61  F   UNL     1      -0.675   4.838  -8.168  1.00  0.00    -0.200 F 
ATOM     62  F   UNL     1      -2.257   2.637  -7.858  1.00  0.00    -0.200 F 
ENDBRANCH  28  52
BRANCH  40  63
ATOM     63  C   UNL     1       4.032   0.375 -15.711  1.00  0.00     0.064 A 
ATOM     64  C   UNL     1       3.298   1.265 -16.510  1.00  0.00     0.173 A 
ATOM     65  C   UNL     1       4.149  -0.954 -16.145  1.00  0.00     0.173 A 
ATOM     66  F   UNL     1       3.142   2.542 -16.130  1.00  0.00    -0.203 F 
ATOM     67  C   UNL     1       2.682   0.832 -17.681  1.00  0.00     0.198 A 
ATOM     68  C   UNL     1       3.560  -1.375 -17.334  1.00  0.00     0.198 A 
ATOM     69  F   UNL     1       4.844  -1.844 -15.420  1.00  0.00    -0.203 F 
ATOM     70  F   UNL     1       1.941   1.686 -18.400  1.00  0.00    -0.200 F 
ATOM     71  C   UNL     1       2.820  -0.484 -18.096  1.00  0.00     0.200 A 
ATOM     72  F   UNL     1       3.706  -2.643 -17.740  1.00  0.00    -0.200 F 
ATOM     73  F   UNL     1       2.232  -0.896 -19.227  1.00  0.00    -0.200 F 
ENDBRANCH  40  63
ENDBRANCH  14  15
ENDBRANCH   7   9
ENDBRANCH   4   5
ENDBRANCH   3   4
ENDBRANCH   2   3
ENDBRANCH   1   2
BRANCH   1  74
ATOM     74  C   UNL     1      11.474   0.154  -0.076  1.00  0.00     0.021 C 
BRANCH  74  75
ATOM     75  C   UNL     1      12.579  -0.824  -0.443  1.00  0.00     0.116 C 
BRANCH  75  76
ATOM     76  N   UNL     1      13.633  -0.959   0.533  1.00  0.00    -0.356 N 
ATOM     77  C   UNL     1      14.613  -1.897   0.639  1.00  0.00     0.225 C 
ATOM     78  H   UNL     1      13.644  -0.265   1.231  1.00  0.00     0.163 HD
ATOM     79  O   UNL     1      15.566  -1.607   1.371  1.00  0.00    -0.275 OA
BRANCH  77  80
ATOM     80  C   UNL     1      14.511  -3.304   0.057  1.00  0.00     0.103 C 
ATOM     81  C   UNL     1      15.900  -3.905  -0.342  1.00  0.00     0.040 C 
ATOM     82  C   UNL     1      13.678  -3.647  -1.178  1.00  0.00     0.098 C 
ATOM     83  C   UNL     1      15.599  -4.641  -1.669  1.00  0.00     0.086 C 
ATOM     84  C   UNL     1      14.174  -2.881  -2.424  1.00  0.00     0.028 C 
ATOM     85  N   UNL     1      14.206  -4.962  -1.486  1.00  0.00    -0.336 N 
ATOM     86  C   UNL     1      15.488  -3.604  -2.789  1.00  0.00     0.027 C 
BRANCH  85  87
ATOM     87  C   UNL     1      13.579  -6.114  -1.876  1.00  0.00     0.225 C 
ATOM     88  O   UNL     1      14.155  -6.970  -2.545  1.00  0.00    -0.275 OA
BRANCH  87  89
ATOM     89  C   UNL     1      12.142  -6.296  -1.419  1.00  0.00     0.132 C 
BRANCH  89  90
ATOM     90  C   UNL     1      12.105  -6.461   0.102  1.00  0.00     0.127 C 
ATOM     91  C   UNL     1      10.686  -6.350   0.665  1.00  0.00     0.033 C 
ATOM     92  O   UNL     1      12.635  -7.750   0.434  1.00  0.00    -0.378 OA
ATOM     93  C   UNL     1      10.709  -6.560   2.180  1.00  0.00     0.005 C 
ATOM     94  C   UNL     1      12.798  -7.919   1.841  1.00  0.00     0.160 C 
ATOM     95  C   UNL     1      11.449  -7.845   2.543  1.00  0.00     0.029 C 
ENDBRANCH  89  90
ENDBRANCH  87  89
ENDBRANCH  85  87
ENDBRANCH  77  80
ENDBRANCH  75  76
ENDBRANCH  74  75
ENDBRANCH   1  74
TORSDOF 16
