REMARK SMILES O=C(NCCCCCCNC(=O)c1c(F)cccc1NS(=O)(=O)C(F)(F)F)c1ccc(-c2c3nc(c(-c4c(F)c(F)c(F)c(F)c4F)c4ccc([nH]4)c(-c4c(F)c(F)c(F)c(F)c4F)c4nc(c(-c5c(F)c(F)c(F)c(F)c5F)c5ccc2[nH]5)C=C4)C=C3)cc1
REMARK SMILES IDX 7 1 6 2 5 3 4 4 3 5 1 6 2 7 28 9 29 10 90 11 30 12 89 13
REMARK SMILES IDX 31 14 32 15 33 16 83 17 34 18 88 19 82 20 84 21 35 22 87 23
REMARK SMILES IDX 81 24 80 25 36 27 68 28 48 29 67 30 49 31 52 32 66 33 85 34
REMARK SMILES IDX 50 35 51 36 65 38 86 39 53 40 37 41 38 42 46 43 39 44 40 45
REMARK SMILES IDX 44 46 47 47 41 48 42 49 45 50 43 51 69 52 70 53 78 54 71 55
REMARK SMILES IDX 72 56 76 57 79 58 73 59 74 60 77 61 75 62 54 63 55 64 63 65
REMARK SMILES IDX 56 66 57 67 61 68 64 69 58 70 59 71 62 72 60 73 8 74 9 75
REMARK SMILES IDX 10 76 11 77 12 79 13 80 14 81 19 82 15 83 16 84 18 85 17 86
REMARK SMILES IDX 20 87 21 89 22 90 23 91 24 92 25 93 26 94 27 95
REMARK H PARENT 3 8 84 26 52 37 10 78 20 88
REMARK Flexibility Score: inf
ROOT
ATOM      1  C   UNL     1       4.894  -2.578   3.516  1.00  0.00     0.002 C 
ENDROOT
BRANCH   1   2
ATOM      2  C   UNL     1       4.359  -1.147   3.628  1.00  0.00     0.002 C 
BRANCH   2   3
ATOM      3  C   UNL     1       4.837  -0.187   2.538  1.00  0.00     0.021 C 
BRANCH   3   4
ATOM      4  C   UNL     1       4.561  -0.654   1.113  1.00  0.00     0.116 C 
BRANCH   4   5
ATOM      5  N   UNL     1       3.139  -0.781   0.843  1.00  0.00    -0.352 N 
ATOM      6  O   UNL     1       1.147  -0.227  -0.063  1.00  0.00    -0.269 OA
ATOM      7  C   UNL     1       2.374  -0.145  -0.100  1.00  0.00     0.251 C 
ATOM      8  H   UNL     1       2.655  -1.415   1.420  1.00  0.00     0.163 HD
BRANCH   7   9
ATOM      9  C   UNL     1       3.023   0.657  -1.155  1.00  0.00     0.039 A 
ATOM     10  C   UNL     1       4.126   0.160  -1.857  1.00  0.00     0.014 A 
ATOM     11  C   UNL     1       2.498   1.914  -1.466  1.00  0.00     0.014 A 
ATOM     12  C   UNL     1       4.774   0.964  -2.790  1.00  0.00     0.010 A 
ATOM     13  C   UNL     1       3.104   2.689  -2.454  1.00  0.00     0.010 A 
ATOM     14  C   UNL     1       4.257   2.228  -3.110  1.00  0.00    -0.014 A 
BRANCH  14  15
ATOM     15  C   UNL     1       4.877   3.041  -4.184  1.00  0.00     0.031 A 
ATOM     16  C   UNL     1       5.511   4.364  -3.877  1.00  0.00     0.074 A 
ATOM     17  C   UNL     1       4.820   2.594  -5.452  1.00  0.00     0.049 A 
ATOM     18  N   UNL     1       6.009   5.251  -4.700  1.00  0.00    -0.248 NA
ATOM     19  C   UNL     1       5.590   4.748  -2.460  1.00  0.00     0.031 C 
ATOM     20  C   UNL     1       4.229   1.321  -5.866  1.00  0.00     0.029 A 
ATOM     21  N   UNL     1       5.248   3.161  -6.626  1.00  0.00    -0.354 N 
ATOM     22  C   UNL     1       6.433   6.308  -3.907  1.00  0.00     0.074 A 
ATOM     23  C   UNL     1       6.119   5.961  -2.538  1.00  0.00     0.031 C 
ATOM     24  C   UNL     1       4.342   1.196  -7.195  1.00  0.00     0.029 A 
ATOM     25  C   UNL     1       4.949   2.409  -7.734  1.00  0.00     0.049 A 
ATOM     26  H   UNL     1       5.724   4.022  -6.668  1.00  0.00     0.167 HD
ATOM     27  C   UNL     1       7.032   7.459  -4.296  1.00  0.00     0.037 A 
ATOM     28  C   UNL     1       5.107   2.678  -9.044  1.00  0.00     0.037 A 
ATOM     29  C   UNL     1       7.349   7.781  -5.663  1.00  0.00     0.049 A 
ATOM     30  C   UNL     1       5.726   3.981  -9.456  1.00  0.00     0.074 A 
ATOM     31  C   UNL     1       8.014   8.892  -6.152  1.00  0.00     0.029 A 
ATOM     32  N   UNL     1       7.010   7.003  -6.762  1.00  0.00    -0.354 N 
ATOM     33  N   UNL     1       6.164   4.957  -8.698  1.00  0.00    -0.248 NA
ATOM     34  C   UNL     1       5.869   4.228 -10.897  1.00  0.00     0.031 C 
ATOM     35  C   UNL     1       8.010   8.824  -7.547  1.00  0.00     0.029 A 
ATOM     36  C   UNL     1       7.412   7.633  -7.928  1.00  0.00     0.049 A 
ATOM     37  H   UNL     1       6.551   6.133  -6.718  1.00  0.00     0.167 HD
ATOM     38  C   UNL     1       6.654   5.924  -9.564  1.00  0.00     0.074 A 
ATOM     39  C   UNL     1       6.460   5.418 -10.908  1.00  0.00     0.031 C 
ATOM     40  C   UNL     1       7.218   7.118  -9.263  1.00  0.00     0.037 A 
BRANCH  27  41
ATOM     41  C   UNL     1       7.358   8.476  -3.239  1.00  0.00     0.064 A 
ATOM     42  C   UNL     1       6.694   9.714  -3.222  1.00  0.00     0.173 A 
ATOM     43  C   UNL     1       8.360   8.260  -2.282  1.00  0.00     0.173 A 
ATOM     44  F   UNL     1       5.733   9.979  -4.120  1.00  0.00    -0.203 F 
ATOM     45  C   UNL     1       7.024  10.695  -2.291  1.00  0.00     0.198 A 
ATOM     46  C   UNL     1       8.665   9.231  -1.331  1.00  0.00     0.198 A 
ATOM     47  F   UNL     1       9.022   7.094  -2.248  1.00  0.00    -0.203 F 
ATOM     48  F   UNL     1       6.396  11.879  -2.316  1.00  0.00    -0.200 F 
ATOM     49  C   UNL     1       8.004  10.450  -1.341  1.00  0.00     0.200 A 
ATOM     50  F   UNL     1       9.594   8.983  -0.397  1.00  0.00    -0.200 F 
ATOM     51  F   UNL     1       8.307  11.387  -0.433  1.00  0.00    -0.200 F 
ENDBRANCH  27  41
BRANCH  28  52
ATOM     52  C   UNL     1       4.662   1.666 -10.034  1.00  0.00     0.064 A 
ATOM     53  C   UNL     1       3.300   1.381 -10.219  1.00  0.00     0.173 A 
ATOM     54  C   UNL     1       5.594   0.885 -10.728  1.00  0.00     0.173 A 
ATOM     55  F   UNL     1       2.371   2.095  -9.565  1.00  0.00    -0.203 F 
ATOM     56  C   UNL     1       2.890   0.324 -11.027  1.00  0.00     0.198 A 
ATOM     57  C   UNL     1       5.181  -0.156 -11.557  1.00  0.00     0.198 A 
ATOM     58  F   UNL     1       6.905   1.129 -10.593  1.00  0.00    -0.203 F 
ATOM     59  F   UNL     1       1.586   0.033 -11.136  1.00  0.00    -0.200 F 
ATOM     60  C   UNL     1       3.831  -0.445 -11.694  1.00  0.00     0.200 A 
ATOM     61  F   UNL     1       6.091  -0.889 -12.212  1.00  0.00    -0.200 F 
ATOM     62  F   UNL     1       3.437  -1.471 -12.461  1.00  0.00    -0.200 F 
ENDBRANCH  28  52
BRANCH  40  63
ATOM     63  C   UNL     1       7.703   7.977 -10.394  1.00  0.00     0.064 A 
ATOM     64  C   UNL     1       9.079   8.185 -10.579  1.00  0.00     0.173 A 
ATOM     65  C   UNL     1       6.813   8.706 -11.194  1.00  0.00     0.173 A 
ATOM     66  F   UNL     1       9.970   7.515  -9.832  1.00  0.00    -0.203 F 
ATOM     67  C   UNL     1       9.545   9.121 -11.496  1.00  0.00     0.198 A 
ATOM     68  C   UNL     1       7.284   9.622 -12.131  1.00  0.00     0.198 A 
ATOM     69  F   UNL     1       5.490   8.531 -11.064  1.00  0.00    -0.203 F 
ATOM     70  F   UNL     1      10.861   9.346 -11.612  1.00  0.00    -0.200 F 
ATOM     71  C   UNL     1       8.648   9.842 -12.269  1.00  0.00     0.200 A 
ATOM     72  F   UNL     1       6.418  10.306 -12.892  1.00  0.00    -0.200 F 
ATOM     73  F   UNL     1       9.096  10.755 -13.142  1.00  0.00    -0.200 F 
ENDBRANCH  40  63
ENDBRANCH  14  15
ENDBRANCH   7   9
ENDBRANCH   4   5
ENDBRANCH   3   4
ENDBRANCH   2   3
ENDBRANCH   1   2
BRANCH   1  74
ATOM     74  C   UNL     1       6.420  -2.700   3.441  1.00  0.00     0.021 C 
BRANCH  74  75
ATOM     75  C   UNL     1       7.165  -2.099   4.631  1.00  0.00     0.116 C 
BRANCH  75  76
ATOM     76  N   UNL     1       6.891  -2.835   5.853  1.00  0.00    -0.352 N 
ATOM     77  C   UNL     1       7.782  -3.409   6.722  1.00  0.00     0.256 C 
ATOM     78  H   UNL     1       5.941  -2.933   6.089  1.00  0.00     0.163 HD
ATOM     79  O   UNL     1       7.397  -4.218   7.561  1.00  0.00    -0.269 OA
BRANCH  77  80
ATOM     80  C   UNL     1       9.222  -3.141   6.594  1.00  0.00     0.099 A 
ATOM     81  C   UNL     1       9.661  -1.812   6.620  1.00  0.00     0.138 A 
ATOM     82  C   UNL     1      10.137  -4.198   6.421  1.00  0.00     0.065 A 
ATOM     83  F   UNL     1       8.797  -0.803   6.805  1.00  0.00    -0.206 F 
ATOM     84  C   UNL     1      10.993  -1.498   6.389  1.00  0.00     0.040 A 
ATOM     85  C   UNL     1      11.467  -3.858   6.151  1.00  0.00     0.028 A 
ATOM     86  C   UNL     1      11.896  -2.524   6.144  1.00  0.00     0.005 A 
BRANCH  82  87
ATOM     87  N   UNL     1       9.673  -5.559   6.242  1.00  0.00    -0.275 N 
ATOM     88  H   UNL     1       8.959  -5.737   5.588  1.00  0.00     0.180 HD
BRANCH  87  89
ATOM     89  S   UNL     1      10.326  -6.862   7.128  1.00  0.00     0.333 S 
ATOM     90  O   UNL     1      10.191  -6.513   8.530  1.00  0.00    -0.197 OA
ATOM     91  O   UNL     1       9.594  -8.011   6.616  1.00  0.00    -0.197 OA
BRANCH  89  92
ATOM     92  C   UNL     1      12.125  -7.047   6.677  1.00  0.00     0.516 C 
ATOM     93  F   UNL     1      12.356  -6.816   5.352  1.00  0.00    -0.155 F 
ATOM     94  F   UNL     1      12.917  -6.175   7.368  1.00  0.00    -0.155 F 
ATOM     95  F   UNL     1      12.604  -8.294   6.946  1.00  0.00    -0.155 F 
ENDBRANCH  89  92
ENDBRANCH  87  89
ENDBRANCH  82  87
ENDBRANCH  77  80
ENDBRANCH  75  76
ENDBRANCH  74  75
ENDBRANCH   1  74
TORSDOF 16
