REMARK SMILES C[C@H]1CC=C(C2=NN=C(C(=O)NCCCCCCNC(=O)c3ccc(-c4c5nc(c(-c6c(F)c(F)c(F)c(F)c6F)c6ccc([nH]6)c(-c6c(F)c(F)c(F)c(F)c6F)c6nc(c(-c7c(F)c(F)c(F)c(F)c7F)c7ccc4[nH]7)C=C6)C=C5)cc3)C2)O1
REMARK SMILES IDX 16 1 15 2 14 3 13 4 12 5 10 6 11 7 9 9 6 10 7 11 85 12 8 13
REMARK SMILES IDX 5 14 1 15 2 16 3 17 86 18 4 19 17 20 18 21 19 22 20 23 21 25
REMARK SMILES IDX 22 26 23 27 84 28 24 29 83 30 25 31 26 32 27 33 77 34 28 35
REMARK SMILES IDX 82 36 76 37 78 38 29 39 81 40 75 41 74 42 30 44 62 45 42 46
REMARK SMILES IDX 61 47 43 48 46 49 60 50 79 51 44 52 45 53 59 55 80 56 47 57
REMARK SMILES IDX 31 58 32 59 40 60 33 61 34 62 38 63 41 64 35 65 36 66 39 67
REMARK SMILES IDX 37 68 63 69 64 70 72 71 65 72 66 73 70 74 73 75 67 76 68 77
REMARK SMILES IDX 71 78 69 79 48 80 49 81 57 82 50 83 51 84 55 85 58 86 52 87
REMARK SMILES IDX 53 88 56 89 54 90
REMARK H PARENT 12 8 19 24 78 43 46 54
REMARK Flexibility Score: inf
ROOT
ATOM      1  C   UNL     1     -11.040   0.646  -0.597  1.00  0.00     0.002 C 
ENDROOT
BRANCH   1   2
ATOM      2  C   UNL     1     -10.189   1.666   0.176  1.00  0.00     0.002 C 
BRANCH   2   3
ATOM      3  C   UNL     1      -9.085   1.096   1.072  1.00  0.00     0.021 C 
BRANCH   3   4
ATOM      4  C   UNL     1      -8.124   0.131   0.381  1.00  0.00     0.116 C 
BRANCH   4   5
ATOM      5  N   UNL     1      -7.350   0.794  -0.653  1.00  0.00    -0.351 N 
ATOM      6  C   UNL     1      -5.993   0.887  -0.826  1.00  0.00     0.267 C 
ATOM      7  O   UNL     1      -5.529   1.529  -1.764  1.00  0.00    -0.268 OA
ATOM      8  H   UNL     1      -7.886   1.251  -1.341  1.00  0.00     0.163 HD
BRANCH   6   9
ATOM      9  C   UNL     1      -5.021   0.199   0.088  1.00  0.00     0.134 C 
ATOM     10  C   UNL     1      -3.112  -0.520   0.986  1.00  0.00     0.111 C 
ATOM     11  N   UNL     1      -4.094  -1.131   1.576  1.00  0.00    -0.151 NA
ATOM     12  C   UNL     1      -3.562   0.452  -0.053  1.00  0.00     0.126 C 
ATOM     13  N   UNL     1      -5.311  -0.677   1.001  1.00  0.00    -0.149 NA
BRANCH  10  14
ATOM     14  C   UNL     1      -1.685  -0.761   1.229  1.00  0.00     0.139 C 
ATOM     15  C   UNL     1       1.453   0.265   2.197  1.00  0.00     0.053 C 
ATOM     16  C   UNL     1       0.517  -0.435   1.225  1.00  0.00     0.174 C 
ATOM     17  C   UNL     1       0.254  -1.894   1.621  1.00  0.00     0.076 C 
ATOM     18  O   UNL     1      -0.751   0.263   1.176  1.00  0.00    -0.489 OA
ATOM     19  C   UNL     1      -1.207  -1.984   1.442  1.00  0.00     0.025 C 
ENDBRANCH  10  14
ENDBRANCH   6   9
ENDBRANCH   4   5
ENDBRANCH   3   4
ENDBRANCH   2   3
ENDBRANCH   1   2
BRANCH   1  20
ATOM     20  C   UNL     1     -11.670  -0.502   0.206  1.00  0.00     0.021 C 
BRANCH  20  21
ATOM     21  C   UNL     1     -12.644  -0.066   1.289  1.00  0.00     0.116 C 
BRANCH  21  22
ATOM     22  N   UNL     1     -13.840   0.597   0.761  1.00  0.00    -0.352 N 
ATOM     23  C   UNL     1     -14.858   1.238   1.453  1.00  0.00     0.251 C 
ATOM     24  H   UNL     1     -13.934   0.586  -0.219  1.00  0.00     0.163 HD
ATOM     25  O   UNL     1     -15.956   1.406   0.952  1.00  0.00    -0.269 OA
BRANCH  23  26
ATOM     26  C   UNL     1     -14.580   1.727   2.817  1.00  0.00     0.039 A 
ATOM     27  C   UNL     1     -15.535   1.708   3.838  1.00  0.00     0.014 A 
ATOM     28  C   UNL     1     -13.298   2.194   3.062  1.00  0.00     0.014 A 
ATOM     29  C   UNL     1     -15.149   2.105   5.118  1.00  0.00     0.010 A 
ATOM     30  C   UNL     1     -12.861   2.323   4.346  1.00  0.00     0.010 A 
ATOM     31  C   UNL     1     -13.800   2.402   5.360  1.00  0.00    -0.014 A 
BRANCH  31  32
ATOM     32  C   UNL     1     -13.297   2.755   6.678  1.00  0.00     0.031 A 
ATOM     33  C   UNL     1     -13.545   1.734   7.723  1.00  0.00     0.074 A 
ATOM     34  C   UNL     1     -12.453   3.795   6.870  1.00  0.00     0.049 A 
ATOM     35  N   UNL     1     -14.317   1.833   8.752  1.00  0.00    -0.248 NA
ATOM     36  C   UNL     1     -12.974   0.392   7.532  1.00  0.00     0.031 C 
ATOM     37  C   UNL     1     -11.844   4.679   5.864  1.00  0.00     0.029 A 
ATOM     38  N   UNL     1     -11.862   4.215   8.019  1.00  0.00    -0.354 N 
ATOM     39  C   UNL     1     -14.172   0.641   9.454  1.00  0.00     0.074 A 
ATOM     40  C   UNL     1     -13.508  -0.271   8.560  1.00  0.00     0.031 C 
ATOM     41  C   UNL     1     -10.811   5.354   6.413  1.00  0.00     0.029 A 
ATOM     42  C   UNL     1     -10.800   5.093   7.839  1.00  0.00     0.049 A 
ATOM     43  H   UNL     1     -12.164   3.921   8.909  1.00  0.00     0.167 HD
ATOM     44  C   UNL     1     -14.368   0.604  10.801  1.00  0.00     0.037 A 
ATOM     45  C   UNL     1      -9.956   5.547   8.798  1.00  0.00     0.037 A 
ATOM     46  C   UNL     1     -15.077   1.781  11.247  1.00  0.00     0.049 A 
ATOM     47  C   UNL     1     -10.626   5.330  10.104  1.00  0.00     0.074 A 
ATOM     48  C   UNL     1     -16.302   2.350  10.953  1.00  0.00     0.029 A 
ATOM     49  N   UNL     1     -14.345   2.777  11.849  1.00  0.00    -0.354 N 
ATOM     50  N   UNL     1     -11.700   5.966  10.483  1.00  0.00    -0.248 NA
ATOM     51  C   UNL     1     -10.371   4.071  10.787  1.00  0.00     0.031 C 
ATOM     52  C   UNL     1     -16.063   3.757  10.941  1.00  0.00     0.029 A 
ATOM     53  C   UNL     1     -14.732   3.970  11.298  1.00  0.00     0.049 A 
ATOM     54  H   UNL     1     -13.666   2.654  12.550  1.00  0.00     0.167 HD
ATOM     55  C   UNL     1     -12.474   5.002  11.112  1.00  0.00     0.074 A 
ATOM     56  C   UNL     1     -11.567   3.881  11.351  1.00  0.00     0.031 C 
ATOM     57  C   UNL     1     -13.837   5.089  11.110  1.00  0.00     0.037 A 
BRANCH  44  58
ATOM     58  C   UNL     1     -13.578  -0.258  11.763  1.00  0.00     0.064 A 
ATOM     59  C   UNL     1     -13.924  -0.228  13.131  1.00  0.00     0.173 A 
ATOM     60  C   UNL     1     -12.327  -0.845  11.471  1.00  0.00     0.173 A 
ATOM     61  F   UNL     1     -15.090   0.300  13.530  1.00  0.00    -0.203 F 
ATOM     62  C   UNL     1     -13.036  -0.639  14.128  1.00  0.00     0.198 A 
ATOM     63  C   UNL     1     -11.467  -1.304  12.468  1.00  0.00     0.198 A 
ATOM     64  F   UNL     1     -11.827  -0.900  10.233  1.00  0.00    -0.203 F 
ATOM     65  F   UNL     1     -13.351  -0.450  15.417  1.00  0.00    -0.200 F 
ATOM     66  C   UNL     1     -11.803  -1.165  13.796  1.00  0.00     0.200 A 
ATOM     67  F   UNL     1     -10.270  -1.801  12.124  1.00  0.00    -0.200 F 
ATOM     68  F   UNL     1     -10.920  -1.489  14.749  1.00  0.00    -0.200 F 
ENDBRANCH  44  58
BRANCH  45  69
ATOM     69  C   UNL     1      -8.514   5.870   8.688  1.00  0.00     0.064 A 
ATOM     70  C   UNL     1      -7.862   6.614   9.685  1.00  0.00     0.173 A 
ATOM     71  C   UNL     1      -7.686   5.212   7.757  1.00  0.00     0.173 A 
ATOM     72  F   UNL     1      -8.575   7.238  10.634  1.00  0.00    -0.203 F 
ATOM     73  C   UNL     1      -6.466   6.669   9.767  1.00  0.00     0.198 A 
ATOM     74  C   UNL     1      -6.293   5.272   7.836  1.00  0.00     0.198 A 
ATOM     75  F   UNL     1      -8.210   4.418   6.812  1.00  0.00    -0.203 F 
ATOM     76  F   UNL     1      -5.881   7.335  10.772  1.00  0.00    -0.200 F 
ATOM     77  C   UNL     1      -5.683   5.988   8.850  1.00  0.00     0.200 A 
ATOM     78  F   UNL     1      -5.548   4.579   6.964  1.00  0.00    -0.200 F 
ATOM     79  F   UNL     1      -4.348   5.985   8.967  1.00  0.00    -0.200 F 
ENDBRANCH  45  69
BRANCH  57  80
ATOM     80  C   UNL     1     -14.457   6.384  10.662  1.00  0.00     0.064 A 
ATOM     81  C   UNL     1     -14.335   6.914   9.365  1.00  0.00     0.173 A 
ATOM     82  C   UNL     1     -15.323   7.041  11.545  1.00  0.00     0.173 A 
ATOM     83  F   UNL     1     -13.606   6.294   8.430  1.00  0.00    -0.203 F 
ATOM     84  C   UNL     1     -15.015   8.072   8.988  1.00  0.00     0.198 A 
ATOM     85  C   UNL     1     -16.030   8.175  11.155  1.00  0.00     0.198 A 
ATOM     86  F   UNL     1     -15.521   6.552  12.779  1.00  0.00    -0.203 F 
ATOM     87  F   UNL     1     -14.871   8.564   7.749  1.00  0.00    -0.200 F 
ATOM     88  C   UNL     1     -15.868   8.697   9.882  1.00  0.00     0.200 A 
ATOM     89  F   UNL     1     -16.890   8.748  12.009  1.00  0.00    -0.200 F 
ATOM     90  F   UNL     1     -16.553   9.787   9.509  1.00  0.00    -0.200 F 
ENDBRANCH  57  80
ENDBRANCH  31  32
ENDBRANCH  23  26
ENDBRANCH  21  22
ENDBRANCH  20  21
ENDBRANCH   1  20
TORSDOF 14
