REMARK SMILES Cc1ccc(C(=O)NCCCCCCNC(=O)c2ccc(-c3c4nc(c(-c5c(F)c(F)c(F)c(F)c5F)c5ccc([nH]5)c(-c5c(F)c(F)c(F)c(F)c5F)c5nc(c(-c6c(F)c(F)c(F)c(F)c6F)c6ccc3[nH]6)C=C5)C=C4)cc2)cc1N1C(=O)/C(=C\c2nc3ccccc3n2C)SC1=S
REMARK SMILES IDX 11 1 10 2 9 3 8 4 6 5 7 6 5 8 1 9 2 10 3 11 82 12 4 13 81 14
REMARK SMILES IDX 83 15 84 16 99 17 85 18 86 19 98 20 100 21 87 22 88 23 89 24
REMARK SMILES IDX 96 25 90 26 95 27 97 28 91 29 94 30 92 31 93 32 12 33 13 34
REMARK SMILES IDX 14 35 15 36 16 37 17 39 18 40 19 41 80 42 20 43 79 44 21 45
REMARK SMILES IDX 22 46 23 47 73 48 24 49 78 50 72 51 74 52 25 53 77 54 71 55
REMARK SMILES IDX 70 56 26 58 58 59 38 60 57 61 39 62 42 63 56 64 75 65 40 66
REMARK SMILES IDX 41 67 55 69 76 70 43 71 27 72 28 73 36 74 29 75 30 76 34 77
REMARK SMILES IDX 37 78 31 79 32 80 35 81 33 82 59 83 60 84 68 85 61 86 62 87
REMARK SMILES IDX 66 88 69 89 63 90 64 91 67 92 65 93 44 94 45 95 53 96 46 97
REMARK SMILES IDX 47 98 51 99 54 100 48 101 49 102 52 103 50 104
REMARK H PARENT 8 7 15 38 74 57 42 68
REMARK Flexibility Score: inf
ROOT
ATOM      1  C   UNL     1      -5.430   3.555  -1.088  1.00  0.00     0.002 C 
ENDROOT
BRANCH   1   2
ATOM      2  C   UNL     1      -3.952   3.205  -0.850  1.00  0.00     0.021 C 
BRANCH   2   3
ATOM      3  C   UNL     1      -3.710   2.235   0.312  1.00  0.00     0.116 C 
BRANCH   3   4
ATOM      4  N   UNL     1      -3.927   0.862  -0.105  1.00  0.00    -0.352 N 
ATOM      5  C   UNL     1      -3.076  -0.177  -0.383  1.00  0.00     0.251 C 
ATOM      6  O   UNL     1      -3.589  -1.268  -0.641  1.00  0.00    -0.269 OA
ATOM      7  H   UNL     1      -4.878   0.630  -0.210  1.00  0.00     0.163 HD
BRANCH   5   8
ATOM      8  C   UNL     1      -1.587  -0.079  -0.345  1.00  0.00     0.041 A 
ATOM      9  C   UNL     1       2.725  -0.144   0.135  1.00  0.00     0.046 C 
ATOM     10  C   UNL     1       1.242  -0.056  -0.109  1.00  0.00    -0.027 A 
ATOM     11  C   UNL     1       0.516  -1.257  -0.026  1.00  0.00     0.006 A 
ATOM     12  C   UNL     1       0.541   1.140  -0.371  1.00  0.00     0.054 A 
ATOM     13  C   UNL     1      -0.877  -1.264  -0.118  1.00  0.00     0.014 A 
ATOM     14  C   UNL     1      -0.860   1.097  -0.532  1.00  0.00     0.041 A 
BRANCH  12  15
ATOM     15  N   UNL     1       1.177   2.418  -0.298  1.00  0.00    -0.261 N 
ATOM     16  C   UNL     1       0.696   3.359   0.608  1.00  0.00     0.270 C 
ATOM     17  C   UNL     1       2.174   2.868  -1.144  1.00  0.00     0.152 C 
ATOM     18  O   UNL     1      -0.431   3.411   1.085  1.00  0.00    -0.268 OA
ATOM     19  C   UNL     1       1.698   4.453   0.772  1.00  0.00     0.084 C 
ATOM     20  S   UNL     1       2.743   4.458  -0.597  1.00  0.00    -0.054 SA
ATOM     21  S   UNL     1       2.757   2.180  -2.552  1.00  0.00    -0.051 S 
ATOM     22  C   UNL     1       1.825   5.276   1.826  1.00  0.00     0.068 C 
BRANCH  22  23
ATOM     23  C   UNL     1       1.094   5.031   3.017  1.00  0.00     0.134 A 
ATOM     24  N   UNL     1       0.858   3.863   3.581  1.00  0.00    -0.229 NA
ATOM     25  N   UNL     1       0.499   6.042   3.745  1.00  0.00    -0.328 N 
ATOM     26  C   UNL     1      -0.086   4.096   4.542  1.00  0.00     0.089 A 
ATOM     27  C   UNL     1      -0.358   5.456   4.654  1.00  0.00     0.068 A 
ATOM     28  C   UNL     1       0.698   7.461   3.578  1.00  0.00     0.152 C 
ATOM     29  C   UNL     1      -0.778   3.176   5.343  1.00  0.00     0.030 A 
ATOM     30  C   UNL     1      -1.326   5.954   5.536  1.00  0.00     0.028 A 
ATOM     31  C   UNL     1      -1.758   3.652   6.219  1.00  0.00     0.002 A 
ATOM     32  C   UNL     1      -2.029   5.019   6.307  1.00  0.00     0.002 A 
ENDBRANCH  22  23
ENDBRANCH  12  15
ENDBRANCH   5   8
ENDBRANCH   3   4
ENDBRANCH   2   3
ENDBRANCH   1   2
BRANCH   1  33
ATOM     33  C   UNL     1      -6.191   4.163   0.105  1.00  0.00     0.002 C 
BRANCH  33  34
ATOM     34  C   UNL     1      -5.479   5.298   0.848  1.00  0.00     0.021 C 
BRANCH  34  35
ATOM     35  C   UNL     1      -5.377   6.590   0.046  1.00  0.00     0.116 C 
BRANCH  35  36
ATOM     36  N   UNL     1      -6.314   7.626   0.470  1.00  0.00    -0.352 N 
ATOM     37  C   UNL     1      -6.603   8.842  -0.126  1.00  0.00     0.251 C 
ATOM     38  H   UNL     1      -6.812   7.433   1.297  1.00  0.00     0.163 HD
ATOM     39  O   UNL     1      -7.403   9.612   0.378  1.00  0.00    -0.269 OA
BRANCH  37  40
ATOM     40  C   UNL     1      -6.012   9.144  -1.451  1.00  0.00     0.039 A 
ATOM     41  C   UNL     1      -6.874   9.523  -2.486  1.00  0.00     0.014 A 
ATOM     42  C   UNL     1      -4.674   8.859  -1.712  1.00  0.00     0.014 A 
ATOM     43  C   UNL     1      -6.452   9.381  -3.806  1.00  0.00     0.010 A 
ATOM     44  C   UNL     1      -4.284   8.631  -3.017  1.00  0.00     0.010 A 
ATOM     45  C   UNL     1      -5.196   8.826  -4.058  1.00  0.00    -0.014 A 
BRANCH  45  46
ATOM     46  C   UNL     1      -4.819   8.289  -5.359  1.00  0.00     0.031 A 
ATOM     47  C   UNL     1      -3.893   9.012  -6.247  1.00  0.00     0.074 A 
ATOM     48  C   UNL     1      -5.292   7.084  -5.751  1.00  0.00     0.049 A 
ATOM     49  N   UNL     1      -3.944   8.936  -7.536  1.00  0.00    -0.248 NA
ATOM     50  C   UNL     1      -2.842   9.897  -5.756  1.00  0.00     0.031 C 
ATOM     51  C   UNL     1      -4.848   6.294  -6.897  1.00  0.00     0.029 A 
ATOM     52  N   UNL     1      -6.440   6.420  -5.292  1.00  0.00    -0.354 N 
ATOM     53  C   UNL     1      -2.795   9.503  -8.021  1.00  0.00     0.074 A 
ATOM     54  C   UNL     1      -2.180  10.161  -6.888  1.00  0.00     0.031 C 
ATOM     55  C   UNL     1      -5.837   5.461  -7.255  1.00  0.00     0.029 A 
ATOM     56  C   UNL     1      -6.986   5.782  -6.429  1.00  0.00     0.049 A 
ATOM     57  H   UNL     1      -6.791   6.402  -4.372  1.00  0.00     0.167 HD
ATOM     58  C   UNL     1      -2.385   9.237  -9.292  1.00  0.00     0.037 A 
ATOM     59  C   UNL     1      -8.232   6.074  -6.895  1.00  0.00     0.037 A 
ATOM     60  C   UNL     1      -3.284   8.328  -9.989  1.00  0.00     0.049 A 
ATOM     61  C   UNL     1      -8.271   6.501  -8.342  1.00  0.00     0.074 A 
ATOM     62  C   UNL     1      -3.235   6.966 -10.238  1.00  0.00     0.029 A 
ATOM     63  N   UNL     1      -4.585   8.728 -10.278  1.00  0.00    -0.354 N 
ATOM     64  N   UNL     1      -7.240   6.950  -8.999  1.00  0.00    -0.248 NA
ATOM     65  C   UNL     1      -9.485   6.488  -9.149  1.00  0.00     0.031 C 
ATOM     66  C   UNL     1      -4.506   6.548 -10.699  1.00  0.00     0.029 A 
ATOM     67  C   UNL     1      -5.331   7.657 -10.730  1.00  0.00     0.049 A 
ATOM     68  H   UNL     1      -4.926   9.646 -10.174  1.00  0.00     0.167 HD
ATOM     69  C   UNL     1      -7.618   7.294 -10.277  1.00  0.00     0.074 A 
ATOM     70  C   UNL     1      -9.030   6.962 -10.322  1.00  0.00     0.031 C 
ATOM     71  C   UNL     1      -6.714   7.824 -11.159  1.00  0.00     0.037 A 
BRANCH  58  72
ATOM     72  C   UNL     1      -0.994   9.585  -9.744  1.00  0.00     0.064 A 
ATOM     73  C   UNL     1      -0.190   8.668 -10.450  1.00  0.00     0.173 A 
ATOM     74  C   UNL     1      -0.384  10.814  -9.435  1.00  0.00     0.173 A 
ATOM     75  F   UNL     1      -0.668   7.489 -10.864  1.00  0.00    -0.203 F 
ATOM     76  C   UNL     1       1.154   8.918 -10.727  1.00  0.00     0.198 A 
ATOM     77  C   UNL     1       0.975  11.045  -9.670  1.00  0.00     0.198 A 
ATOM     78  F   UNL     1      -1.093  11.810  -8.883  1.00  0.00    -0.203 F 
ATOM     79  F   UNL     1       1.881   8.000 -11.380  1.00  0.00    -0.200 F 
ATOM     80  C   UNL     1       1.746  10.091 -10.305  1.00  0.00     0.200 A 
ATOM     81  F   UNL     1       1.537  12.189  -9.253  1.00  0.00    -0.200 F 
ATOM     82  F   UNL     1       3.053  10.302 -10.512  1.00  0.00    -0.200 F 
ENDBRANCH  58  72
BRANCH  59  83
ATOM     83  C   UNL     1      -9.160   6.553  -5.840  1.00  0.00     0.064 A 
ATOM     84  C   UNL     1      -9.470   5.684  -4.774  1.00  0.00     0.173 A 
ATOM     85  C   UNL     1      -9.430   7.914  -5.666  1.00  0.00     0.173 A 
ATOM     86  F   UNL     1      -9.225   4.369  -4.889  1.00  0.00    -0.203 F 
ATOM     87  C   UNL     1      -9.916   6.172  -3.549  1.00  0.00     0.198 A 
ATOM     88  C   UNL     1      -9.893   8.398  -4.440  1.00  0.00     0.198 A 
ATOM     89  F   UNL     1      -9.140   8.793  -6.636  1.00  0.00    -0.203 F 
ATOM     90  F   UNL     1     -10.091   5.332  -2.518  1.00  0.00    -0.200 F 
ATOM     91  C   UNL     1     -10.103   7.532  -3.375  1.00  0.00     0.200 A 
ATOM     92  F   UNL     1     -10.048   9.717  -4.261  1.00  0.00    -0.200 F 
ATOM     93  F   UNL     1     -10.444   8.015  -2.172  1.00  0.00    -0.200 F 
ENDBRANCH  59  83
BRANCH  71  94
ATOM     94  C   UNL     1      -6.957   8.447 -12.529  1.00  0.00     0.064 A 
ATOM     95  C   UNL     1      -8.208   8.822 -13.044  1.00  0.00     0.173 A 
ATOM     96  C   UNL     1      -5.854   8.793 -13.361  1.00  0.00     0.173 A 
ATOM     97  F   UNL     1      -9.335   8.669 -12.344  1.00  0.00    -0.203 F 
ATOM     98  C   UNL     1      -8.350   9.437 -14.297  1.00  0.00     0.198 A 
ATOM     99  C   UNL     1      -5.995   9.456 -14.581  1.00  0.00     0.198 A 
ATOM    100  F   UNL     1      -4.587   8.528 -13.012  1.00  0.00    -0.203 F 
ATOM    101  F   UNL     1      -9.577   9.736 -14.749  1.00  0.00    -0.200 F 
ATOM    102  C   UNL     1      -7.247   9.765 -15.057  1.00  0.00     0.200 A 
ATOM    103  F   UNL     1      -4.904   9.807 -15.277  1.00  0.00    -0.200 F 
ATOM    104  F   UNL     1      -7.388  10.396 -16.230  1.00  0.00    -0.200 F 
ENDBRANCH  71  94
ENDBRANCH  45  46
ENDBRANCH  37  40
ENDBRANCH  35  36
ENDBRANCH  34  35
ENDBRANCH  33  34
ENDBRANCH   1  33
TORSDOF 15
