REMARK SMILES Cc1cccc2nc(C(=O)NCC(=O)NCCCCCCNC(=O)c3ccc(-c4c5nc(c(-c6c(F)c(F)c(F)c(F)c6F)c6ccc([nH]6)c(-c6c(F)c(F)c(F)c(F)c6F)c6nc(c(-c7c(F)c(F)c(F)c(F)c7F)c7ccc4[nH]7)C=C6)C=C5)cc3)cn12
REMARK SMILES IDX 18 1 17 2 16 3 15 4 13 5 14 6 12 8 11 9 9 10 10 11 8 13 1 14
REMARK SMILES IDX 2 15 3 16 89 17 4 18 6 19 88 20 5 21 7 22 19 23 20 24 21 25
REMARK SMILES IDX 22 26 23 27 24 29 25 30 26 31 87 32 27 33 86 34 28 35 29 36
REMARK SMILES IDX 30 37 80 38 31 39 85 40 79 41 81 42 32 43 84 44 78 45 77 46
REMARK SMILES IDX 33 48 65 49 45 50 64 51 46 52 49 53 63 54 82 55 47 56 48 57
REMARK SMILES IDX 62 59 83 60 50 61 34 62 35 63 43 64 36 65 37 66 41 67 44 68
REMARK SMILES IDX 38 69 39 70 42 71 40 72 66 73 67 74 75 75 68 76 69 77 73 78
REMARK SMILES IDX 76 79 70 80 71 81 74 82 72 83 51 84 52 85 60 86 53 87 54 88
REMARK SMILES IDX 58 89 61 90 55 91 56 92 59 93 57 94
REMARK H PARENT 15 7 11 12 22 28 81 47 49 58
REMARK Flexibility Score: inf
ROOT
ATOM      1  C   UNL     1      -7.163  -1.206  -2.918  1.00  0.00     0.002 C 
ENDROOT
BRANCH   1   2
ATOM      2  C   UNL     1      -5.755  -0.736  -3.299  1.00  0.00     0.021 C 
BRANCH   2   3
ATOM      3  C   UNL     1      -4.784  -1.883  -3.564  1.00  0.00     0.116 C 
BRANCH   3   4
ATOM      4  N   UNL     1      -5.066  -2.534  -4.824  1.00  0.00    -0.355 N 
ATOM      5  C   UNL     1      -4.315  -2.604  -5.957  1.00  0.00     0.239 C 
ATOM      6  O   UNL     1      -4.744  -3.313  -6.874  1.00  0.00    -0.273 OA
ATOM      7  H   UNL     1      -5.933  -2.997  -4.869  1.00  0.00     0.163 HD
BRANCH   5   8
ATOM      8  C   UNL     1      -2.921  -1.966  -6.052  1.00  0.00     0.216 C 
BRANCH   8   9
ATOM      9  N   UNL     1      -2.841  -0.557  -5.687  1.00  0.00    -0.342 N 
ATOM     10  C   UNL     1      -2.139   0.089  -4.697  1.00  0.00     0.271 C 
ATOM     11  O   UNL     1      -2.233   1.317  -4.643  1.00  0.00    -0.267 OA
ATOM     12  H   UNL     1      -3.386   0.039  -6.251  1.00  0.00     0.164 HD
BRANCH  10  13
ATOM     13  C   UNL     1      -1.361  -0.660  -3.699  1.00  0.00     0.147 A 
ATOM     14  C   UNL     1       0.903   0.145   0.028  1.00  0.00     0.065 C 
ATOM     15  C   UNL     1       0.556  -1.129  -0.680  1.00  0.00     0.021 A 
ATOM     16  C   UNL     1       0.951  -2.321  -0.181  1.00  0.00     0.022 A 
ATOM     17  N   UNL     1      -0.184  -1.128  -1.879  1.00  0.00    -0.304 N 
ATOM     18  C   UNL     1       0.606  -3.550  -0.875  1.00  0.00     0.006 A 
ATOM     19  C   UNL     1      -0.525  -2.292  -2.565  1.00  0.00     0.137 A 
ATOM     20  C   UNL     1      -0.723  -0.096  -2.608  1.00  0.00     0.127 A 
ATOM     21  C   UNL     1      -0.102  -3.534  -2.018  1.00  0.00     0.048 A 
ATOM     22  N   UNL     1      -1.226  -2.033  -3.646  1.00  0.00    -0.223 NA
ENDBRANCH  10  13
ENDBRANCH   8   9
ENDBRANCH   5   8
ENDBRANCH   3   4
ENDBRANCH   2   3
ENDBRANCH   1   2
BRANCH   1  23
ATOM     23  C   UNL     1      -7.231  -2.146  -1.704  1.00  0.00     0.002 C 
BRANCH  23  24
ATOM     24  C   UNL     1      -6.566  -1.621  -0.423  1.00  0.00     0.021 C 
BRANCH  24  25
ATOM     25  C   UNL     1      -7.274  -0.408   0.160  1.00  0.00     0.116 C 
BRANCH  25  26
ATOM     26  N   UNL     1      -8.600  -0.755   0.654  1.00  0.00    -0.352 N 
ATOM     27  C   UNL     1      -9.493   0.036   1.337  1.00  0.00     0.251 C 
ATOM     28  H   UNL     1      -8.896  -1.677   0.475  1.00  0.00     0.163 HD
ATOM     29  O   UNL     1     -10.409  -0.461   1.974  1.00  0.00    -0.269 OA
BRANCH  27  30
ATOM     30  C   UNL     1      -9.334   1.498   1.290  1.00  0.00     0.039 A 
ATOM     31  C   UNL     1      -9.547   2.256   2.446  1.00  0.00     0.014 A 
ATOM     32  C   UNL     1      -9.015   2.113   0.078  1.00  0.00     0.014 A 
ATOM     33  C   UNL     1      -9.390   3.635   2.385  1.00  0.00     0.010 A 
ATOM     34  C   UNL     1      -8.773   3.467   0.037  1.00  0.00     0.010 A 
ATOM     35  C   UNL     1      -8.998   4.231   1.179  1.00  0.00    -0.014 A 
BRANCH  35  36
ATOM     36  C   UNL     1      -8.744   5.663   1.130  1.00  0.00     0.031 A 
ATOM     37  C   UNL     1      -7.637   6.146   2.002  1.00  0.00     0.074 A 
ATOM     38  C   UNL     1      -9.326   6.470   0.220  1.00  0.00     0.049 A 
ATOM     39  N   UNL     1      -7.703   7.002   2.968  1.00  0.00    -0.248 NA
ATOM     40  C   UNL     1      -6.306   5.542   1.834  1.00  0.00     0.031 C 
ATOM     41  C   UNL     1     -10.195   6.107  -0.903  1.00  0.00     0.029 A 
ATOM     42  N   UNL     1      -9.167   7.810   0.058  1.00  0.00    -0.354 N 
ATOM     43  C   UNL     1      -6.403   7.161   3.444  1.00  0.00     0.074 A 
ATOM     44  C   UNL     1      -5.607   6.151   2.794  1.00  0.00     0.031 C 
ATOM     45  C   UNL     1     -10.300   7.158  -1.747  1.00  0.00     0.029 A 
ATOM     46  C   UNL     1      -9.637   8.303  -1.150  1.00  0.00     0.049 A 
ATOM     47  H   UNL     1      -8.752   8.383   0.742  1.00  0.00     0.167 HD
ATOM     48  C   UNL     1      -6.050   8.235   4.205  1.00  0.00     0.037 A 
ATOM     49  C   UNL     1      -9.445   9.555  -1.634  1.00  0.00     0.037 A 
ATOM     50  C   UNL     1      -7.208   8.892   4.750  1.00  0.00     0.049 A 
ATOM     51  C   UNL     1      -9.104  10.423  -0.477  1.00  0.00     0.074 A 
ATOM     52  C   UNL     1      -8.222   8.506   5.606  1.00  0.00     0.029 A 
ATOM     53  N   UNL     1      -7.661  10.033   4.134  1.00  0.00    -0.354 N 
ATOM     54  N   UNL     1      -9.944  10.725   0.475  1.00  0.00    -0.248 NA
ATOM     55  C   UNL     1      -7.696  10.580  -0.142  1.00  0.00     0.031 C 
ATOM     56  C   UNL     1      -9.397   9.118   5.080  1.00  0.00     0.029 A 
ATOM     57  C   UNL     1      -9.016   9.888   3.980  1.00  0.00     0.049 A 
ATOM     58  H   UNL     1      -7.118  10.805   3.856  1.00  0.00     0.167 HD
ATOM     59  C   UNL     1      -9.186  10.691   1.636  1.00  0.00     0.074 A 
ATOM     60  C   UNL     1      -7.796  10.682   1.186  1.00  0.00     0.031 C 
ATOM     61  C   UNL     1      -9.750  10.384   2.840  1.00  0.00     0.037 A 
BRANCH  48  62
ATOM     62  C   UNL     1      -4.690   8.886   4.207  1.00  0.00     0.064 A 
ATOM     63  C   UNL     1      -4.404   9.888   5.158  1.00  0.00     0.173 A 
ATOM     64  C   UNL     1      -3.776   8.783   3.138  1.00  0.00     0.173 A 
ATOM     65  F   UNL     1      -5.214  10.087   6.208  1.00  0.00    -0.203 F 
ATOM     66  C   UNL     1      -3.329  10.769   5.003  1.00  0.00     0.198 A 
ATOM     67  C   UNL     1      -2.675   9.629   3.015  1.00  0.00     0.198 A 
ATOM     68  F   UNL     1      -3.972   7.941   2.116  1.00  0.00    -0.203 F 
ATOM     69  F   UNL     1      -3.171  11.783   5.864  1.00  0.00    -0.200 F 
ATOM     70  C   UNL     1      -2.470  10.642   3.928  1.00  0.00     0.200 A 
ATOM     71  F   UNL     1      -1.862   9.502   1.957  1.00  0.00    -0.200 F 
ATOM     72  F   UNL     1      -1.476  11.521   3.743  1.00  0.00    -0.200 F 
ENDBRANCH  48  62
BRANCH  49  73
ATOM     73  C   UNL     1      -9.227   9.975  -3.039  1.00  0.00     0.064 A 
ATOM     74  C   UNL     1      -9.296  11.329  -3.405  1.00  0.00     0.173 A 
ATOM     75  C   UNL     1      -8.669   9.098  -3.990  1.00  0.00     0.173 A 
ATOM     76  F   UNL     1      -9.776  12.237  -2.544  1.00  0.00    -0.203 F 
ATOM     77  C   UNL     1      -8.802  11.783  -4.633  1.00  0.00     0.198 A 
ATOM     78  C   UNL     1      -8.184   9.551  -5.218  1.00  0.00     0.198 A 
ATOM     79  F   UNL     1      -8.492   7.799  -3.711  1.00  0.00    -0.203 F 
ATOM     80  F   UNL     1      -8.821  13.093  -4.917  1.00  0.00    -0.200 F 
ATOM     81  C   UNL     1      -8.235  10.896  -5.532  1.00  0.00     0.200 A 
ATOM     82  F   UNL     1      -7.607   8.686  -6.064  1.00  0.00    -0.200 F 
ATOM     83  F   UNL     1      -7.701  11.339  -6.679  1.00  0.00    -0.200 F 
ENDBRANCH  49  73
BRANCH  61  84
ATOM     84  C   UNL     1     -11.249  10.302   2.923  1.00  0.00     0.064 A 
ATOM     85  C   UNL     1     -12.021   9.356   2.226  1.00  0.00     0.173 A 
ATOM     86  C   UNL     1     -11.906  11.086   3.881  1.00  0.00     0.173 A 
ATOM     87  F   UNL     1     -11.456   8.501   1.368  1.00  0.00    -0.203 F 
ATOM     88  C   UNL     1     -13.390   9.225   2.455  1.00  0.00     0.198 A 
ATOM     89  C   UNL     1     -13.266  10.928   4.134  1.00  0.00     0.198 A 
ATOM     90  F   UNL     1     -11.212  11.967   4.618  1.00  0.00    -0.203 F 
ATOM     91  F   UNL     1     -14.102   8.314   1.775  1.00  0.00    -0.200 F 
ATOM     92  C   UNL     1     -14.009  10.004   3.417  1.00  0.00     0.200 A 
ATOM     93  F   UNL     1     -13.850  11.648   5.102  1.00  0.00    -0.200 F 
ATOM     94  F   UNL     1     -15.314   9.843   3.676  1.00  0.00    -0.200 F 
ENDBRANCH  61  84
ENDBRANCH  35  36
ENDBRANCH  27  30
ENDBRANCH  25  26
ENDBRANCH  24  25
ENDBRANCH  23  24
ENDBRANCH   1  23
TORSDOF 15
