REMARK SMILES O=C1CCCC2=C1[C@H](c1ccc([N+](=O)[O-])cc1)CC(=O)N2c1ccccc1C(=O)NCCCCCCNC(=O)c1ccc(-c2c3nc(c(-c4c(F)c(F)c(F)c(F)c4F)c4ccc([nH]4)c(-c4c(F)c(F)c(F)c(F)c4F)c4nc(c(-c5c(F)c(F)c(F)c(F)c5F)c5ccc2[nH]5)C=C4)C=C3)cc1
REMARK SMILES IDX 33 1 32 2 31 3 30 4 28 5 29 6 27 8 22 9 23 10 24 11 26 12
REMARK SMILES IDX 25 13 21 14 1 15 2 16 3 17 7 18 4 19 6 20 8 21 5 22 18 23
REMARK SMILES IDX 19 24 20 25 9 26 10 27 17 28 11 29 16 30 12 31 13 32 14 33
REMARK SMILES IDX 15 34 34 35 35 36 36 37 37 38 38 39 39 41 40 42 41 43 102 44
REMARK SMILES IDX 42 45 101 46 43 47 44 48 45 49 95 50 46 51 100 52 94 53
REMARK SMILES IDX 96 54 47 55 99 56 93 57 92 58 48 60 80 61 60 62 79 63 61 64
REMARK SMILES IDX 64 65 78 66 97 67 62 68 63 69 77 71 98 72 65 73 49 74 50 75
REMARK SMILES IDX 58 76 51 77 52 78 56 79 59 80 53 81 54 82 57 83 55 84 81 85
REMARK SMILES IDX 82 86 90 87 83 88 84 89 88 90 91 91 85 92 86 93 89 94 87 95
REMARK SMILES IDX 66 96 67 97 75 98 68 99 69 100 73 101 76 102 70 103 71 104
REMARK SMILES IDX 74 105 72 106
REMARK H PARENT 30 7 37 40 96 59 64 70
REMARK Flexibility Score: inf
ROOT
ATOM      1  C   UNL     1       2.680   0.065   3.334  1.00  0.00     0.002 C 
ENDROOT
BRANCH   1   2
ATOM      2  C   UNL     1       3.994  -0.763   3.054  1.00  0.00     0.021 C 
BRANCH   2   3
ATOM      3  C   UNL     1       4.818  -0.778   1.756  1.00  0.00     0.116 C 
BRANCH   3   4
ATOM      4  N   UNL     1       6.263  -0.620   1.884  1.00  0.00    -0.352 N 
ATOM      5  C   UNL     1       7.384  -0.869   1.113  1.00  0.00     0.253 C 
ATOM      6  O   UNL     1       8.384  -0.295   1.577  1.00  0.00    -0.269 OA
ATOM      7  H   UNL     1       6.506  -0.232   2.756  1.00  0.00     0.163 HD
BRANCH   5   8
ATOM      8  C   UNL     1       7.606  -1.678  -0.168  1.00  0.00     0.063 A 
ATOM      9  C   UNL     1       6.753  -2.447  -0.989  1.00  0.00     0.061 A 
ATOM     10  C   UNL     1       7.263  -3.099  -2.154  1.00  0.00     0.027 A 
ATOM     11  C   UNL     1       8.596  -3.035  -2.526  1.00  0.00     0.002 A 
ATOM     12  C   UNL     1       8.975  -1.662  -0.587  1.00  0.00     0.016 A 
ATOM     13  C   UNL     1       9.461  -2.319  -1.730  1.00  0.00     0.001 A 
BRANCH   9  14
ATOM     14  N   UNL     1       5.342  -2.595  -0.857  1.00  0.00    -0.284 N 
ATOM     15  O   UNL     1       1.171  -0.800  -1.628  1.00  0.00    -0.294 OA
ATOM     16  C   UNL     1       2.306  -0.583  -1.216  1.00  0.00     0.161 C 
ATOM     17  C   UNL     1       2.876   0.822  -1.114  1.00  0.00     0.081 C 
ATOM     18  C   UNL     1       3.166  -1.705  -0.740  1.00  0.00     0.023 C 
ATOM     19  C   UNL     1       4.118   0.912  -1.960  1.00  0.00     0.015 C 
ATOM     20  C   UNL     1       4.466  -1.530  -1.078  1.00  0.00     0.033 C 
ATOM     21  C   UNL     1       2.583  -3.052  -0.245  1.00  0.00     0.064 C 
ATOM     22  C   UNL     1       5.065  -0.254  -1.690  1.00  0.00     0.055 C 
ATOM     23  C   UNL     1       3.380  -4.105  -0.998  1.00  0.00     0.114 C 
ATOM     24  C   UNL     1       4.864  -3.921  -0.741  1.00  0.00     0.232 C 
ATOM     25  O   UNL     1       5.570  -4.906  -0.519  1.00  0.00    -0.274 OA
BRANCH  21  26
ATOM     26  C   UNL     1       2.471  -3.408   1.284  1.00  0.00    -0.039 A 
ATOM     27  C   UNL     1       3.249  -4.364   1.975  1.00  0.00     0.011 A 
ATOM     28  C   UNL     1       1.421  -2.882   2.047  1.00  0.00     0.011 A 
ATOM     29  C   UNL     1       3.047  -4.672   3.346  1.00  0.00     0.086 A 
ATOM     30  C   UNL     1       1.226  -3.122   3.421  1.00  0.00     0.086 A 
ATOM     31  C   UNL     1       2.062  -4.011   4.078  1.00  0.00     0.269 A 
BRANCH  31  32
ATOM     32  N   UNL     1       1.906  -4.233   5.522  1.00  0.00     0.062 N 
ATOM     33  O   UNL     1       2.460  -5.224   6.016  1.00  0.00    -0.258 OA
ATOM     34  O   UNL     1       1.242  -3.404   6.162  1.00  0.00    -0.258 OA
ENDBRANCH  31  32
ENDBRANCH  21  26
ENDBRANCH   9  14
ENDBRANCH   5   8
ENDBRANCH   3   4
ENDBRANCH   2   3
ENDBRANCH   1   2
BRANCH   1  35
ATOM     35  C   UNL     1       1.584   0.774   2.460  1.00  0.00     0.002 C 
BRANCH  35  36
ATOM     36  C   UNL     1       0.708   0.189   1.334  1.00  0.00     0.021 C 
BRANCH  36  37
ATOM     37  C   UNL     1      -0.750  -0.374   1.359  1.00  0.00     0.116 C 
BRANCH  37  38
ATOM     38  N   UNL     1      -1.347  -0.778   2.608  1.00  0.00    -0.352 N 
ATOM     39  C   UNL     1      -2.479  -1.571   2.769  1.00  0.00     0.251 C 
ATOM     40  H   UNL     1      -0.909  -0.460   3.431  1.00  0.00     0.163 HD
ATOM     41  O   UNL     1      -3.063  -1.601   3.840  1.00  0.00    -0.269 OA
BRANCH  39  42
ATOM     42  C   UNL     1      -3.007  -2.395   1.645  1.00  0.00     0.039 A 
ATOM     43  C   UNL     1      -4.223  -2.057   1.042  1.00  0.00     0.014 A 
ATOM     44  C   UNL     1      -2.364  -3.580   1.273  1.00  0.00     0.014 A 
ATOM     45  C   UNL     1      -4.761  -2.867   0.026  1.00  0.00     0.010 A 
ATOM     46  C   UNL     1      -2.890  -4.376   0.241  1.00  0.00     0.010 A 
ATOM     47  C   UNL     1      -4.090  -4.026  -0.403  1.00  0.00    -0.014 A 
BRANCH  47  48
ATOM     48  C   UNL     1      -4.622  -4.857  -1.527  1.00  0.00     0.031 A 
ATOM     49  C   UNL     1      -5.151  -6.247  -1.285  1.00  0.00     0.074 A 
ATOM     50  C   UNL     1      -4.583  -4.384  -2.789  1.00  0.00     0.049 A 
ATOM     51  N   UNL     1      -5.592  -7.134  -2.145  1.00  0.00    -0.248 NA
ATOM     52  C   UNL     1      -5.169  -6.704   0.110  1.00  0.00     0.031 C 
ATOM     53  C   UNL     1      -4.071  -3.070  -3.174  1.00  0.00     0.029 A 
ATOM     54  N   UNL     1      -4.960  -4.956  -3.983  1.00  0.00    -0.354 N 
ATOM     55  C   UNL     1      -5.927  -8.258  -1.398  1.00  0.00     0.074 A 
ATOM     56  C   UNL     1      -5.598  -7.952  -0.020  1.00  0.00     0.031 C 
ATOM     57  C   UNL     1      -4.165  -2.934  -4.506  1.00  0.00     0.029 A 
ATOM     58  C   UNL     1      -4.709  -4.164  -5.078  1.00  0.00     0.049 A 
ATOM     59  H   UNL     1      -5.371  -5.848  -4.047  1.00  0.00     0.167 HD
ATOM     60  C   UNL     1      -6.469  -9.430  -1.817  1.00  0.00     0.037 A 
ATOM     61  C   UNL     1      -4.878  -4.401  -6.395  1.00  0.00     0.037 A 
ATOM     62  C   UNL     1      -6.801  -9.730  -3.187  1.00  0.00     0.049 A 
ATOM     63  C   UNL     1      -5.467  -5.711  -6.845  1.00  0.00     0.074 A 
ATOM     64  C   UNL     1      -7.398 -10.868  -3.704  1.00  0.00     0.029 A 
ATOM     65  N   UNL     1      -6.551  -8.889  -4.263  1.00  0.00    -0.354 N 
ATOM     66  N   UNL     1      -5.837  -6.739  -6.122  1.00  0.00    -0.248 NA
ATOM     67  C   UNL     1      -5.670  -5.894  -8.290  1.00  0.00     0.031 C 
ATOM     68  C   UNL     1      -7.457 -10.739  -5.096  1.00  0.00     0.029 A 
ATOM     69  C   UNL     1      -6.955  -9.495  -5.443  1.00  0.00     0.049 A 
ATOM     70  H   UNL     1      -6.146  -7.994  -4.199  1.00  0.00     0.167 HD
ATOM     71  C   UNL     1      -6.341  -7.676  -7.014  1.00  0.00     0.074 A 
ATOM     72  C   UNL     1      -6.232  -7.095  -8.336  1.00  0.00     0.031 C 
ATOM     73  C   UNL     1      -6.853  -8.905  -6.755  1.00  0.00     0.037 A 
BRANCH  60  74
ATOM     74  C   UNL     1      -6.712 -10.489  -0.775  1.00  0.00     0.064 A 
ATOM     75  C   UNL     1      -7.680 -10.331   0.230  1.00  0.00     0.173 A 
ATOM     76  C   UNL     1      -5.969 -11.681  -0.782  1.00  0.00     0.173 A 
ATOM     77  F   UNL     1      -8.421  -9.214   0.284  1.00  0.00    -0.203 F 
ATOM     78  C   UNL     1      -7.852 -11.296   1.220  1.00  0.00     0.198 A 
ATOM     79  C   UNL     1      -6.170 -12.660   0.189  1.00  0.00     0.198 A 
ATOM     80  F   UNL     1      -5.045 -11.897  -1.730  1.00  0.00    -0.203 F 
ATOM     81  F   UNL     1      -8.730 -11.087   2.211  1.00  0.00    -0.200 F 
ATOM     82  C   UNL     1      -7.098 -12.460   1.198  1.00  0.00     0.200 A 
ATOM     83  F   UNL     1      -5.454 -13.792   0.154  1.00  0.00    -0.200 F 
ATOM     84  F   UNL     1      -7.259 -13.383   2.156  1.00  0.00    -0.200 F 
ENDBRANCH  60  74
BRANCH  61  85
ATOM     85  C   UNL     1      -4.484  -3.357  -7.380  1.00  0.00     0.064 A 
ATOM     86  C   UNL     1      -5.446  -2.631  -8.094  1.00  0.00     0.173 A 
ATOM     87  C   UNL     1      -3.134  -3.036  -7.594  1.00  0.00     0.173 A 
ATOM     88  F   UNL     1      -6.748  -2.915  -7.942  1.00  0.00    -0.203 F 
ATOM     89  C   UNL     1      -5.075  -1.625  -8.986  1.00  0.00     0.198 A 
ATOM     90  C   UNL     1      -2.766  -2.012  -8.465  1.00  0.00     0.198 A 
ATOM     91  F   UNL     1      -2.174  -3.700  -6.935  1.00  0.00    -0.203 F 
ATOM     92  F   UNL     1      -6.014  -0.964  -9.676  1.00  0.00    -0.200 F 
ATOM     93  C   UNL     1      -3.736  -1.309  -9.162  1.00  0.00     0.200 A 
ATOM     94  F   UNL     1      -1.472  -1.701  -8.620  1.00  0.00    -0.200 F 
ATOM     95  F   UNL     1      -3.381  -0.329 -10.004  1.00  0.00    -0.200 F 
ENDBRANCH  61  85
BRANCH  73  96
ATOM     96  C   UNL     1      -7.377  -9.705  -7.913  1.00  0.00     0.064 A 
ATOM     97  C   UNL     1      -6.519 -10.325  -8.832  1.00  0.00     0.173 A 
ATOM     98  C   UNL     1      -8.757  -9.928  -8.049  1.00  0.00     0.173 A 
ATOM     99  F   UNL     1      -5.194 -10.132  -8.755  1.00  0.00    -0.203 F 
ATOM    100  C   UNL     1      -7.023 -11.138  -9.846  1.00  0.00     0.198 A 
ATOM    101  C   UNL     1      -9.255 -10.761  -9.047  1.00  0.00     0.198 A 
ATOM    102  F   UNL     1      -9.620  -9.359  -7.194  1.00  0.00    -0.203 F 
ATOM    103  F   UNL     1      -6.186 -11.703 -10.727  1.00  0.00    -0.200 F 
ATOM    104  C   UNL     1      -8.388 -11.365  -9.944  1.00  0.00     0.200 A 
ATOM    105  F   UNL     1     -10.572 -10.990  -9.131  1.00  0.00    -0.200 F 
ATOM    106  F   UNL     1      -8.868 -12.165 -10.906  1.00  0.00    -0.200 F 
ENDBRANCH  73  96
ENDBRANCH  47  48
ENDBRANCH  39  42
ENDBRANCH  37  38
ENDBRANCH  36  37
ENDBRANCH  35  36
ENDBRANCH   1  35
TORSDOF 16
