REMARK SMILES O=C1[NH+]=C(S)N(c2cccc(Br)c2)C(=O)/C1=C/c1ccc(-c2ccc(C(=O)NCCCCCCNC(=O)c3ccc(-c4c5nc(c(-c6c(F)c(F)c(F)c(F)c6F)c6ccc([nH]6)c(-c6c(F)c(F)c(F)c(F)c6F)c6nc(c(-c7c(F)c(F)c(F)c(F)c7F)c7ccc4[nH]7)C=C6)C=C5)cc3)cc2)o1
REMARK SMILES IDX 31 1 30 2 29 3 28 4 26 5 27 6 25 8 22 9 23 10 102 11 24 12
REMARK SMILES IDX 101 13 21 14 18 15 19 16 103 17 20 18 17 19 1 20 2 21 3 22
REMARK SMILES IDX 16 23 4 24 14 26 6 27 15 28 5 29 7 31 8 32 13 33 9 34 11 35
REMARK SMILES IDX 10 36 12 37 32 38 33 39 34 40 35 41 36 42 37 44 38 45 39 46
REMARK SMILES IDX 100 47 40 48 99 49 41 50 42 51 43 52 93 53 44 54 98 55 92 56
REMARK SMILES IDX 94 57 45 58 97 59 91 60 90 61 46 63 78 64 58 65 77 66 59 67
REMARK SMILES IDX 62 68 76 69 95 70 60 71 61 72 75 74 96 75 63 76 47 77 48 78
REMARK SMILES IDX 56 79 49 80 50 81 54 82 57 83 51 84 52 85 55 86 53 87 79 88
REMARK SMILES IDX 80 89 88 90 81 91 82 92 86 93 89 94 83 95 84 96 87 97 85 98
REMARK SMILES IDX 64 99 65 100 73 101 66 102 67 103 71 104 74 105 68 106
REMARK SMILES IDX 69 107 72 108 70 109
REMARK H PARENT 28 7 3 25 5 30 35 43 94 62 62 73
REMARK Flexibility Score: inf
ROOT
ATOM      1  C   UNL     1      -7.959  -7.867   2.287  1.00  0.00     0.002 C 
ENDROOT
BRANCH   1   2
ATOM      2  C   UNL     1      -6.748  -7.108   1.730  1.00  0.00     0.021 C 
BRANCH   2   3
ATOM      3  C   UNL     1      -6.891  -5.590   1.863  1.00  0.00     0.116 C 
BRANCH   3   4
ATOM      4  N   UNL     1      -6.570  -5.186   3.219  1.00  0.00    -0.352 N 
ATOM      5  C   UNL     1      -5.446  -4.634   3.777  1.00  0.00     0.251 C 
ATOM      6  O   UNL     1      -5.454  -4.419   4.989  1.00  0.00    -0.269 OA
ATOM      7  H   UNL     1      -7.300  -5.338   3.862  1.00  0.00     0.163 HD
BRANCH   5   8
ATOM      8  C   UNL     1      -4.266  -4.219   2.971  1.00  0.00     0.039 A 
ATOM      9  C   UNL     1      -2.168  -3.154   1.437  1.00  0.00     0.017 A 
ATOM     10  C   UNL     1      -2.462  -2.607   2.687  1.00  0.00     0.013 A 
ATOM     11  C   UNL     1      -2.863  -4.283   1.000  1.00  0.00     0.013 A 
ATOM     12  C   UNL     1      -3.515  -3.131   3.444  1.00  0.00     0.014 A 
ATOM     13  C   UNL     1      -3.873  -4.839   1.784  1.00  0.00     0.014 A 
BRANCH   9  14
ATOM     14  C   UNL     1      -1.185  -2.562   0.559  1.00  0.00     0.134 A 
ATOM     15  C   UNL     1       0.890  -2.109  -0.036  1.00  0.00     0.128 A 
ATOM     16  C   UNL     1       0.055  -1.697  -1.068  1.00  0.00     0.051 A 
ATOM     17  O   UNL     1       0.110  -2.658   0.952  1.00  0.00    -0.457 OA
ATOM     18  C   UNL     1      -1.273  -1.971  -0.678  1.00  0.00     0.051 A 
BRANCH  15  19
ATOM     19  C   UNL     1       2.302  -2.058   0.040  1.00  0.00     0.071 C 
ATOM     20  O   UNL     1       1.228   0.629   0.412  1.00  0.00    -0.241 OA
ATOM     21  C   UNL     1       2.420   0.438   0.233  1.00  0.00     0.347 C 
ATOM     22  N   UNL     1       3.282   1.486   0.138  1.00  0.00    -0.200 N 
ATOM     23  C   UNL     1       3.014  -0.915   0.105  1.00  0.00     0.158 C 
ATOM     24  C   UNL     1       4.553   1.325   0.090  1.00  0.00     0.323 C 
ATOM     25  H   UNL     1       2.917   2.400   0.105  1.00  0.00     0.316 HD
ATOM     26  C   UNL     1       4.489  -1.071   0.069  1.00  0.00     0.354 C 
ATOM     27  N   UNL     1       5.215   0.111   0.096  1.00  0.00    -0.151 N 
ATOM     28  O   UNL     1       4.993  -2.194   0.025  1.00  0.00    -0.240 OA
BRANCH  24  29
ATOM     29  S   UNL     1       5.445   2.825  -0.090  1.00  0.00    -0.055 SA
ATOM     30  H   UNL     1       4.580   3.874  -0.065  1.00  0.00     0.116 HD
ENDBRANCH  24  29
BRANCH  27  31
ATOM     31  C   UNL     1       6.641   0.009   0.100  1.00  0.00     0.138 A 
ATOM     32  C   UNL     1       7.301  -0.690  -0.923  1.00  0.00     0.052 A 
ATOM     33  C   UNL     1       7.394   0.581   1.133  1.00  0.00     0.068 A 
ATOM     34  C   UNL     1       8.694  -0.778  -0.936  1.00  0.00     0.006 A 
ATOM     35  C   UNL     1       8.785   0.480   1.118  1.00  0.00     0.022 A 
ATOM     36  C   UNL     1       9.438  -0.188   0.084  1.00  0.00     0.016 A 
ATOM     37  Br  UNL     1       9.791   1.253   2.518  1.00  0.00    -0.051 Br
ENDBRANCH  27  31
ENDBRANCH  15  19
ENDBRANCH   9  14
ENDBRANCH   5   8
ENDBRANCH   3   4
ENDBRANCH   2   3
ENDBRANCH   1   2
BRANCH   1  38
ATOM     38  C   UNL     1      -9.275  -7.583   1.552  1.00  0.00     0.002 C 
BRANCH  38  39
ATOM     39  C   UNL     1      -9.230  -7.846   0.045  1.00  0.00     0.021 C 
BRANCH  39  40
ATOM     40  C   UNL     1      -8.934  -9.297  -0.315  1.00  0.00     0.116 C 
BRANCH  40  41
ATOM     41  N   UNL     1      -9.995 -10.184   0.138  1.00  0.00    -0.352 N 
ATOM     42  C   UNL     1     -10.803 -11.013  -0.598  1.00  0.00     0.251 C 
ATOM     43  H   UNL     1     -10.156 -10.191   1.109  1.00  0.00     0.163 HD
ATOM     44  O   UNL     1     -11.816 -11.496  -0.105  1.00  0.00    -0.269 OA
BRANCH  42  45
ATOM     45  C   UNL     1     -10.448 -11.310  -2.000  1.00  0.00     0.039 A 
ATOM     46  C   UNL     1     -11.444 -11.274  -2.977  1.00  0.00     0.014 A 
ATOM     47  C   UNL     1      -9.129 -11.617  -2.344  1.00  0.00     0.014 A 
ATOM     48  C   UNL     1     -11.104 -11.488  -4.313  1.00  0.00     0.010 A 
ATOM     49  C   UNL     1      -8.778 -11.748  -3.682  1.00  0.00     0.010 A 
ATOM     50  C   UNL     1      -9.763 -11.689  -4.680  1.00  0.00    -0.014 A 
BRANCH  50  51
ATOM     51  C   UNL     1      -9.367 -11.835  -6.103  1.00  0.00     0.031 A 
ATOM     52  C   UNL     1      -8.746 -13.115  -6.585  1.00  0.00     0.074 A 
ATOM     53  C   UNL     1      -9.509 -10.791  -6.941  1.00  0.00     0.049 A 
ATOM     54  N   UNL     1      -8.271 -13.411  -7.769  1.00  0.00    -0.248 NA
ATOM     55  C   UNL     1      -8.616 -14.199  -5.599  1.00  0.00     0.031 C 
ATOM     56  C   UNL     1     -10.062  -9.485  -6.579  1.00  0.00     0.029 A 
ATOM     57  N   UNL     1      -9.190 -10.659  -8.270  1.00  0.00    -0.354 N 
ATOM     58  C   UNL     1      -7.782 -14.706  -7.666  1.00  0.00     0.074 A 
ATOM     59  C   UNL     1      -7.957 -15.117  -6.290  1.00  0.00     0.031 C 
ATOM     60  C   UNL     1     -10.071  -8.695  -7.664  1.00  0.00     0.029 A 
ATOM     61  C   UNL     1      -9.481  -9.420  -8.785  1.00  0.00     0.049 A 
ATOM     62  H   UNL     1      -8.792 -11.385  -8.803  1.00  0.00     0.167 HD
ATOM     63  C   UNL     1      -7.257 -15.490  -8.638  1.00  0.00     0.037 A 
ATOM     64  C   UNL     1      -9.282  -8.922 -10.020  1.00  0.00     0.037 A 
ATOM     65  C   UNL     1      -7.095 -15.077 -10.008  1.00  0.00     0.049 A 
ATOM     66  C   UNL     1      -8.657  -9.800 -11.071  1.00  0.00     0.074 A 
ATOM     67  C   UNL     1      -6.619 -15.810 -11.080  1.00  0.00     0.029 A 
ATOM     68  N   UNL     1      -7.395 -13.811 -10.492  1.00  0.00    -0.354 N 
ATOM     69  N   UNL     1      -8.262 -11.047 -10.982  1.00  0.00    -0.248 NA
ATOM     70  C   UNL     1      -8.454  -9.201 -12.397  1.00  0.00     0.031 C 
ATOM     71  C   UNL     1      -6.571 -14.971 -12.197  1.00  0.00     0.029 A 
ATOM     72  C   UNL     1      -7.083 -13.734 -11.840  1.00  0.00     0.049 A 
ATOM     73  H   UNL     1      -7.774 -13.077  -9.957  1.00  0.00     0.167 HD
ATOM     74  C   UNL     1      -7.797 -11.393 -12.244  1.00  0.00     0.074 A 
ATOM     75  C   UNL     1      -7.973 -10.227 -13.085  1.00  0.00     0.031 C 
ATOM     76  C   UNL     1      -7.272 -12.569 -12.668  1.00  0.00     0.037 A 
BRANCH  63  77
ATOM     77  C   UNL     1      -6.816 -16.874  -8.251  1.00  0.00     0.064 A 
ATOM     78  C   UNL     1      -7.735 -17.862  -7.864  1.00  0.00     0.173 A 
ATOM     79  C   UNL     1      -5.458 -17.227  -8.294  1.00  0.00     0.173 A 
ATOM     80  F   UNL     1      -9.044 -17.577  -7.797  1.00  0.00    -0.203 F 
ATOM     81  C   UNL     1      -7.309 -19.136  -7.499  1.00  0.00     0.198 A 
ATOM     82  C   UNL     1      -5.039 -18.513  -7.964  1.00  0.00     0.198 A 
ATOM     83  F   UNL     1      -4.535 -16.325  -8.663  1.00  0.00    -0.203 F 
ATOM     84  F   UNL     1      -8.200 -20.043  -7.075  1.00  0.00    -0.200 F 
ATOM     85  C   UNL     1      -5.963 -19.463  -7.556  1.00  0.00     0.200 A 
ATOM     86  F   UNL     1      -3.740 -18.832  -8.036  1.00  0.00    -0.200 F 
ATOM     87  F   UNL     1      -5.555 -20.692  -7.211  1.00  0.00    -0.200 F 
ENDBRANCH  63  77
BRANCH  64  88
ATOM     88  C   UNL     1      -9.694  -7.528 -10.338  1.00  0.00     0.064 A 
ATOM     89  C   UNL     1     -10.739  -7.275 -11.237  1.00  0.00     0.173 A 
ATOM     90  C   UNL     1      -9.047  -6.424  -9.764  1.00  0.00     0.173 A 
ATOM     91  F   UNL     1     -11.377  -8.297 -11.828  1.00  0.00    -0.203 F 
ATOM     92  C   UNL     1     -11.104  -5.972 -11.570  1.00  0.00     0.198 A 
ATOM     93  C   UNL     1      -9.435  -5.122 -10.071  1.00  0.00     0.198 A 
ATOM     94  F   UNL     1      -8.044  -6.610  -8.893  1.00  0.00    -0.203 F 
ATOM     95  F   UNL     1     -12.070  -5.760 -12.473  1.00  0.00    -0.200 F 
ATOM     96  C   UNL     1     -10.456  -4.896 -10.982  1.00  0.00     0.200 A 
ATOM     97  F   UNL     1      -8.818  -4.086  -9.488  1.00  0.00    -0.200 F 
ATOM     98  F   UNL     1     -10.809  -3.643 -11.300  1.00  0.00    -0.200 F 
ENDBRANCH  64  88
BRANCH  76  99
ATOM     99  C   UNL     1      -6.890 -12.672 -14.117  1.00  0.00     0.064 A 
ATOM    100  C   UNL     1      -5.794 -11.976 -14.646  1.00  0.00     0.173 A 
ATOM    101  C   UNL     1      -7.607 -13.518 -14.979  1.00  0.00     0.173 A 
ATOM    102  F   UNL     1      -5.084 -11.143 -13.870  1.00  0.00    -0.203 F 
ATOM    103  C   UNL     1      -5.447 -12.099 -15.989  1.00  0.00     0.198 A 
ATOM    104  C   UNL     1      -7.235 -13.667 -16.312  1.00  0.00     0.198 A 
ATOM    105  F   UNL     1      -8.660 -14.213 -14.524  1.00  0.00    -0.203 F 
ATOM    106  F   UNL     1      -4.429 -11.382 -16.485  1.00  0.00    -0.200 F 
ATOM    107  C   UNL     1      -6.162 -12.951 -16.818  1.00  0.00     0.200 A 
ATOM    108  F   UNL     1      -7.916 -14.505 -17.106  1.00  0.00    -0.200 F 
ATOM    109  F   UNL     1      -5.819 -13.078 -18.108  1.00  0.00    -0.200 F 
ENDBRANCH  76  99
ENDBRANCH  50  51
ENDBRANCH  42  45
ENDBRANCH  40  41
ENDBRANCH  39  40
ENDBRANCH  38  39
ENDBRANCH   1  38
TORSDOF 17
