REMARK SMILES CC(C)=CCC/C(C)=C/C[N@@H+]1CCc2nc[nH]c2[C@@H]1C(=O)NCCCCCCNC(=O)c1ccc(-c2c3nc(c(-c4c(F)c(F)c(F)c(F)c4F)c4ccc([nH]4)c(-c4c(F)c(F)c(F)c(F)c4F)c4nc(c(-c5c(F)c(F)c(F)c(F)c5F)c5ccc2[nH]5)C=C4)C=C3)cc1
REMARK SMILES IDX 24 1 23 2 22 3 20 4 21 5 19 7 11 8 12 9 13 11 18 12 14 13
REMARK SMILES IDX 17 14 15 15 16 16 10 18 9 19 7 20 8 21 6 22 5 23 4 24 1 25
REMARK SMILES IDX 2 26 3 27 25 28 26 29 27 30 28 31 29 32 30 33 31 35 32 36
REMARK SMILES IDX 33 37 94 38 34 39 93 40 35 41 36 42 37 43 87 44 38 45 92 46
REMARK SMILES IDX 86 47 88 48 39 49 91 50 85 51 84 52 40 54 72 55 52 56 71 57
REMARK SMILES IDX 53 58 56 59 70 60 89 61 54 62 55 63 69 65 90 66 57 67 41 68
REMARK SMILES IDX 42 69 50 70 43 71 44 72 48 73 51 74 45 75 46 76 49 77 47 78
REMARK SMILES IDX 73 79 74 80 82 81 75 82 76 83 80 84 83 85 77 86 78 87 81 88
REMARK SMILES IDX 79 89 58 90 59 91 67 92 60 93 61 94 65 95 68 96 62 97 63 98
REMARK SMILES IDX 66 99 64 100
REMARK H PARENT 22 6 11 10 17 17 29 34 88 53 56 64
REMARK Flexibility Score: inf
ROOT
ATOM      1  C   UNL     1       3.182 -10.869   5.881  1.00  0.00     0.021 C 
ENDROOT
BRANCH   1   2
ATOM      2  C   UNL     1       3.393  -9.388   6.169  1.00  0.00     0.116 C 
BRANCH   2   3
ATOM      3  N   UNL     1       3.824  -8.633   5.020  1.00  0.00    -0.351 N 
ATOM      4  C   UNL     1       3.643  -7.305   4.743  1.00  0.00     0.284 C 
ATOM      5  O   UNL     1       4.324  -6.864   3.813  1.00  0.00    -0.268 OA
ATOM      6  H   UNL     1       4.318  -9.143   4.339  1.00  0.00     0.163 HD
BRANCH   4   7
ATOM      7  C   UNL     1       2.580  -6.468   5.542  1.00  0.00     0.324 C 
ATOM      8  N   UNL     1       2.146  -5.232   4.799  1.00  0.00    -0.316 N 
ATOM      9  C   UNL     1       3.207  -4.184   4.781  1.00  0.00     0.270 C 
ATOM     10  H   UNL     1       1.384  -4.791   5.313  1.00  0.00     0.349 HD
ATOM     11  C   UNL     1       3.632  -3.683   6.184  1.00  0.00     0.120 C 
ATOM     12  C   UNL     1       3.170  -6.048   6.850  1.00  0.00     0.106 A 
ATOM     13  C   UNL     1       3.697  -4.811   7.131  1.00  0.00     0.074 A 
ATOM     14  N   UNL     1       3.264  -6.735   8.026  1.00  0.00    -0.343 N 
ATOM     15  N   UNL     1       4.200  -4.755   8.399  1.00  0.00    -0.241 NA
ATOM     16  C   UNL     1       3.944  -5.938   8.909  1.00  0.00     0.197 A 
ATOM     17  H   UNL     1       2.910  -7.635   8.206  1.00  0.00     0.167 HD
BRANCH   8  18
ATOM     18  C   UNL     1       1.561  -5.574   3.487  1.00  0.00     0.291 C 
BRANCH  18  19
ATOM     19  C   UNL     1       1.759  -4.544   2.413  1.00  0.00     0.032 C 
ATOM     20  C   UNL     1       2.382  -4.678   1.223  1.00  0.00    -0.071 C 
ATOM     21  C   UNL     1       2.962  -5.977   0.732  1.00  0.00     0.039 C 
BRANCH  20  22
ATOM     22  C   UNL     1       2.646  -3.458   0.351  1.00  0.00     0.035 C 
BRANCH  22  23
ATOM     23  C   UNL     1       1.420  -2.869  -0.372  1.00  0.00     0.032 C 
BRANCH  23  24
ATOM     24  C   UNL     1       0.454  -2.206   0.577  1.00  0.00    -0.028 C 
ATOM     25  C   UNL     1       1.058   0.173   0.063  1.00  0.00     0.039 C 
ATOM     26  C   UNL     1       0.324  -0.889   0.827  1.00  0.00    -0.080 C 
ATOM     27  C   UNL     1      -0.556  -0.430   1.958  1.00  0.00     0.039 C 
ENDBRANCH  23  24
ENDBRANCH  22  23
ENDBRANCH  20  22
ENDBRANCH  18  19
ENDBRANCH   8  18
ENDBRANCH   4   7
ENDBRANCH   2   3
ENDBRANCH   1   2
BRANCH   1  28
ATOM     28  C   UNL     1       4.349 -11.601   5.214  1.00  0.00     0.002 C 
BRANCH  28  29
ATOM     29  C   UNL     1       5.742 -11.433   5.835  1.00  0.00     0.002 C 
BRANCH  29  30
ATOM     30  C   UNL     1       5.899 -11.725   7.332  1.00  0.00     0.021 C 
BRANCH  30  31
ATOM     31  C   UNL     1       5.450 -13.108   7.775  1.00  0.00     0.116 C 
BRANCH  31  32
ATOM     32  N   UNL     1       6.216 -14.193   7.166  1.00  0.00    -0.352 N 
ATOM     33  C   UNL     1       5.982 -15.555   7.252  1.00  0.00     0.251 C 
ATOM     34  H   UNL     1       6.994 -13.922   6.627  1.00  0.00     0.163 HD
ATOM     35  O   UNL     1       6.867 -16.365   7.040  1.00  0.00    -0.269 OA
BRANCH  33  36
ATOM     36  C   UNL     1       4.625 -16.012   7.606  1.00  0.00     0.039 A 
ATOM     37  C   UNL     1       4.414 -17.088   8.471  1.00  0.00     0.014 A 
ATOM     38  C   UNL     1       3.550 -15.312   7.069  1.00  0.00     0.014 A 
ATOM     39  C   UNL     1       3.109 -17.395   8.850  1.00  0.00     0.010 A 
ATOM     40  C   UNL     1       2.293 -15.494   7.580  1.00  0.00     0.010 A 
ATOM     41  C   UNL     1       2.054 -16.577   8.413  1.00  0.00    -0.014 A 
BRANCH  41  42
ATOM     42  C   UNL     1       0.690 -16.795   8.872  1.00  0.00     0.031 A 
ATOM     43  C   UNL     1       0.513 -16.799  10.347  1.00  0.00     0.074 A 
ATOM     44  C   UNL     1      -0.375 -16.784   8.042  1.00  0.00     0.049 A 
ATOM     45  N   UNL     1       0.187 -17.799  11.097  1.00  0.00    -0.248 NA
ATOM     46  C   UNL     1       0.846 -15.578  11.095  1.00  0.00     0.031 C 
ATOM     47  C   UNL     1      -0.426 -16.463   6.610  1.00  0.00     0.029 A 
ATOM     48  N   UNL     1      -1.686 -16.973   8.348  1.00  0.00    -0.354 N 
ATOM     49  C   UNL     1       0.093 -17.300  12.393  1.00  0.00     0.074 A 
ATOM     50  C   UNL     1       0.670 -15.981  12.356  1.00  0.00     0.031 C 
ATOM     51  C   UNL     1      -1.708 -16.260   6.234  1.00  0.00     0.029 A 
ATOM     52  C   UNL     1      -2.573 -16.613   7.343  1.00  0.00     0.049 A 
ATOM     53  H   UNL     1      -1.982 -17.337   9.213  1.00  0.00     0.167 HD
ATOM     54  C   UNL     1      -0.665 -17.935  13.331  1.00  0.00     0.037 A 
ATOM     55  C   UNL     1      -3.925 -16.592   7.432  1.00  0.00     0.037 A 
ATOM     56  C   UNL     1      -0.966 -19.286  12.917  1.00  0.00     0.049 A 
ATOM     57  C   UNL     1      -4.302 -17.462   8.574  1.00  0.00     0.074 A 
ATOM     58  C   UNL     1      -0.204 -20.392  12.590  1.00  0.00     0.029 A 
ATOM     59  N   UNL     1      -2.218 -19.545  12.412  1.00  0.00    -0.354 N 
ATOM     60  N   UNL     1      -4.149 -18.757   8.581  1.00  0.00    -0.248 NA
ATOM     61  C   UNL     1      -4.420 -16.839   9.884  1.00  0.00     0.031 C 
ATOM     62  C   UNL     1      -0.881 -20.990  11.484  1.00  0.00     0.029 A 
ATOM     63  C   UNL     1      -2.047 -20.260  11.254  1.00  0.00     0.049 A 
ATOM     64  H   UNL     1      -3.076 -19.269  12.807  1.00  0.00     0.167 HD
ATOM     65  C   UNL     1      -3.712 -19.051   9.863  1.00  0.00     0.074 A 
ATOM     66  C   UNL     1      -3.988 -17.848  10.645  1.00  0.00     0.031 C 
ATOM     67  C   UNL     1      -2.908 -20.128  10.103  1.00  0.00     0.037 A 
BRANCH  54  68
ATOM     68  C   UNL     1      -1.450 -17.244  14.424  1.00  0.00     0.064 A 
ATOM     69  C   UNL     1      -2.151 -18.033  15.361  1.00  0.00     0.173 A 
ATOM     70  C   UNL     1      -1.800 -15.876  14.408  1.00  0.00     0.173 A 
ATOM     71  F   UNL     1      -1.904 -19.348  15.469  1.00  0.00    -0.203 F 
ATOM     72  C   UNL     1      -3.194 -17.516  16.134  1.00  0.00     0.198 A 
ATOM     73  C   UNL     1      -2.805 -15.353  15.221  1.00  0.00     0.198 A 
ATOM     74  F   UNL     1      -1.274 -15.010  13.537  1.00  0.00    -0.203 F 
ATOM     75  F   UNL     1      -3.924 -18.339  16.899  1.00  0.00    -0.200 F 
ATOM     76  C   UNL     1      -3.529 -16.178  16.054  1.00  0.00     0.200 A 
ATOM     77  F   UNL     1      -3.122 -14.054  15.120  1.00  0.00    -0.200 F 
ATOM     78  F   UNL     1      -4.574 -15.695  16.737  1.00  0.00    -0.200 F 
ENDBRANCH  54  68
BRANCH  55  79
ATOM     79  C   UNL     1      -4.885 -15.663   6.793  1.00  0.00     0.064 A 
ATOM     80  C   UNL     1      -6.257 -15.960   6.756  1.00  0.00     0.173 A 
ATOM     81  C   UNL     1      -4.520 -14.340   6.479  1.00  0.00     0.173 A 
ATOM     82  F   UNL     1      -6.689 -17.189   7.077  1.00  0.00    -0.203 F 
ATOM     83  C   UNL     1      -7.211 -14.981   6.465  1.00  0.00     0.198 A 
ATOM     84  C   UNL     1      -5.474 -13.364   6.183  1.00  0.00     0.198 A 
ATOM     85  F   UNL     1      -3.242 -13.942   6.553  1.00  0.00    -0.203 F 
ATOM     86  F   UNL     1      -8.516 -15.285   6.513  1.00  0.00    -0.200 F 
ATOM     87  C   UNL     1      -6.820 -13.681   6.194  1.00  0.00     0.200 A 
ATOM     88  F   UNL     1      -5.084 -12.101   5.958  1.00  0.00    -0.200 F 
ATOM     89  F   UNL     1      -7.737 -12.725   5.988  1.00  0.00    -0.200 F 
ENDBRANCH  55  79
BRANCH  67  90
ATOM     90  C   UNL     1      -2.726 -21.131   8.997  1.00  0.00     0.064 A 
ATOM     91  C   UNL     1      -2.151 -20.838   7.747  1.00  0.00     0.173 A 
ATOM     92  C   UNL     1      -3.029 -22.473   9.264  1.00  0.00     0.173 A 
ATOM     93  F   UNL     1      -1.738 -19.601   7.449  1.00  0.00    -0.203 F 
ATOM     94  C   UNL     1      -1.939 -21.835   6.795  1.00  0.00     0.198 A 
ATOM     95  C   UNL     1      -2.780 -23.472   8.327  1.00  0.00     0.198 A 
ATOM     96  F   UNL     1      -3.529 -22.823  10.460  1.00  0.00    -0.203 F 
ATOM     97  F   UNL     1      -1.405 -21.524   5.604  1.00  0.00    -0.200 F 
ATOM     98  C   UNL     1      -2.247 -23.152   7.089  1.00  0.00     0.200 A 
ATOM     99  F   UNL     1      -3.035 -24.751   8.636  1.00  0.00    -0.200 F 
ATOM    100  F   UNL     1      -2.009 -24.116   6.190  1.00  0.00    -0.200 F 
ENDBRANCH  67  90
ENDBRANCH  41  42
ENDBRANCH  33  36
ENDBRANCH  31  32
ENDBRANCH  30  31
ENDBRANCH  29  30
ENDBRANCH  28  29
ENDBRANCH   1  28
TORSDOF 18
