REMARK SMILES Nc1c(C(=O)OCC2c3ccccc3-c3ccccc32)ccc(F)c1C(=O)NCCCCCCNC(=O)c1ccc(-c2c3nc(c(-c4c(F)c(F)c(F)c(F)c4F)c4ccc([nH]4)c(-c4c(F)c(F)c(F)c(F)c4F)c4nc(c(-c5c(F)c(F)c(F)c(F)c5F)c5ccc2[nH]5)C=C4)C=C3)cc1
REMARK SMILES IDX 30 1 29 2 28 3 26 4 27 5 25 7 2 8 3 9 21 10 23 11 22 12
REMARK SMILES IDX 24 13 1 14 4 17 5 18 6 19 7 20 8 21 9 22 20 23 10 24 14 25
REMARK SMILES IDX 15 26 19 27 11 28 13 29 16 30 18 31 12 32 17 33 31 34 32 35
REMARK SMILES IDX 33 36 34 37 35 38 36 39 37 41 38 42 39 43 100 44 40 45 99 46
REMARK SMILES IDX 41 47 42 48 43 49 93 50 44 51 98 52 92 53 94 54 45 55 97 56
REMARK SMILES IDX 91 57 90 58 46 60 78 61 58 62 77 63 59 64 62 65 76 66 95 67
REMARK SMILES IDX 60 68 61 69 75 71 96 72 63 73 47 74 48 75 56 76 49 77 50 78
REMARK SMILES IDX 54 79 57 80 51 81 52 82 55 83 53 84 79 85 80 86 88 87 81 88
REMARK SMILES IDX 82 89 86 90 89 91 83 92 84 93 87 94 85 95 64 96 65 97 73 98
REMARK SMILES IDX 66 99 67 100 71 101 74 102 68 103 69 104 72 105 70 106
REMARK H PARENT 28 6 1 15 1 16 35 40 94 59 62 70
REMARK Flexibility Score: inf
ROOT
ATOM      1  C   UNL     1       3.042   3.530  -0.728  1.00  0.00     0.021 C 
ENDROOT
BRANCH   1   2
ATOM      2  C   UNL     1       2.209   3.097   0.487  1.00  0.00     0.116 C 
BRANCH   2   3
ATOM      3  N   UNL     1       0.798   3.214   0.173  1.00  0.00    -0.352 N 
ATOM      4  C   UNL     1      -0.122   2.302  -0.286  1.00  0.00     0.256 C 
ATOM      5  O   UNL     1      -1.201   2.756  -0.668  1.00  0.00    -0.269 OA
ATOM      6  H   UNL     1       0.430   4.116   0.314  1.00  0.00     0.163 HD
BRANCH   4   7
ATOM      7  C   UNL     1       0.087   0.825  -0.283  1.00  0.00     0.099 A 
ATOM      8  C   UNL     1       1.276   0.152  -0.638  1.00  0.00     0.062 A 
ATOM      9  C   UNL     1       1.322  -1.258  -0.507  1.00  0.00     0.084 A 
ATOM     10  C   UNL     1       0.183  -1.998  -0.170  1.00  0.00     0.021 A 
ATOM     11  C   UNL     1      -1.035   0.059   0.087  1.00  0.00     0.138 A 
ATOM     12  C   UNL     1      -1.002  -1.334   0.114  1.00  0.00     0.041 A 
ATOM     13  F   UNL     1      -2.192   0.642   0.438  1.00  0.00    -0.206 F 
BRANCH   8  14
ATOM     14  N   UNL     1       2.321   0.789  -1.322  1.00  0.00    -0.397 N 
ATOM     15  H   UNL     1       3.136   0.288  -1.553  1.00  0.00     0.156 HD
ATOM     16  H   UNL     1       2.241   1.739  -1.570  1.00  0.00     0.156 HD
ENDBRANCH   8  14
BRANCH   9  17
ATOM     17  C   UNL     1       2.584  -2.007  -0.716  1.00  0.00     0.340 C 
ATOM     18  O   UNL     1       2.653  -3.081  -1.289  1.00  0.00    -0.246 OA
BRANCH  17  19
ATOM     19  O   UNL     1       3.595  -1.340  -0.085  1.00  0.00    -0.461 OA
BRANCH  19  20
ATOM     20  C   UNL     1       4.861  -2.022  -0.022  1.00  0.00     0.246 C 
BRANCH  20  21
ATOM     21  C   UNL     1       5.114  -2.695   1.345  1.00  0.00     0.088 C 
ATOM     22  C   UNL     1       3.941  -3.550   1.804  1.00  0.00    -0.029 A 
ATOM     23  C   UNL     1       6.208  -3.747   1.183  1.00  0.00    -0.029 A 
ATOM     24  C   UNL     1       2.705  -3.131   2.273  1.00  0.00     0.005 A 
ATOM     25  C   UNL     1       4.252  -4.917   1.661  1.00  0.00    -0.014 A 
ATOM     26  C   UNL     1       5.652  -5.041   1.315  1.00  0.00    -0.014 A 
ATOM     27  C   UNL     1       7.554  -3.561   0.905  1.00  0.00     0.005 A 
ATOM     28  C   UNL     1       1.724  -4.097   2.488  1.00  0.00     0.000 A 
ATOM     29  C   UNL     1       3.275  -5.875   1.866  1.00  0.00     0.009 A 
ATOM     30  C   UNL     1       6.446  -6.163   1.156  1.00  0.00     0.009 A 
ATOM     31  C   UNL     1       8.352  -4.696   0.748  1.00  0.00     0.000 A 
ATOM     32  C   UNL     1       1.998  -5.455   2.259  1.00  0.00     0.001 A 
ATOM     33  C   UNL     1       7.803  -5.984   0.868  1.00  0.00     0.001 A 
ENDBRANCH  20  21
ENDBRANCH  19  20
ENDBRANCH  17  19
ENDBRANCH   9  17
ENDBRANCH   4   7
ENDBRANCH   2   3
ENDBRANCH   1   2
BRANCH   1  34
ATOM     34  C   UNL     1       3.352   5.026  -0.777  1.00  0.00     0.002 C 
BRANCH  34  35
ATOM     35  C   UNL     1       4.299   5.509   0.322  1.00  0.00     0.002 C 
BRANCH  35  36
ATOM     36  C   UNL     1       5.638   4.769   0.389  1.00  0.00     0.021 C 
BRANCH  36  37
ATOM     37  C   UNL     1       6.453   4.826  -0.899  1.00  0.00     0.116 C 
BRANCH  37  38
ATOM     38  N   UNL     1       6.812   6.194  -1.242  1.00  0.00    -0.352 N 
ATOM     39  C   UNL     1       8.050   6.780  -1.294  1.00  0.00     0.251 C 
ATOM     40  H   UNL     1       6.057   6.783  -1.470  1.00  0.00     0.163 HD
ATOM     41  O   UNL     1       8.158   8.002  -1.319  1.00  0.00    -0.269 OA
BRANCH  39  42
ATOM     42  C   UNL     1       9.260   5.934  -1.318  1.00  0.00     0.039 A 
ATOM     43  C   UNL     1      10.359   6.294  -0.535  1.00  0.00     0.014 A 
ATOM     44  C   UNL     1       9.316   4.798  -2.131  1.00  0.00     0.014 A 
ATOM     45  C   UNL     1      11.495   5.484  -0.529  1.00  0.00     0.010 A 
ATOM     46  C   UNL     1      10.416   3.951  -2.063  1.00  0.00     0.010 A 
ATOM     47  C   UNL     1      11.521   4.289  -1.268  1.00  0.00    -0.014 A 
BRANCH  47  48
ATOM     48  C   UNL     1      12.697   3.384  -1.224  1.00  0.00     0.031 A 
ATOM     49  C   UNL     1      13.492   3.117  -2.472  1.00  0.00     0.074 A 
ATOM     50  C   UNL     1      13.010   2.757  -0.073  1.00  0.00     0.049 A 
ATOM     51  N   UNL     1      14.507   2.310  -2.651  1.00  0.00    -0.248 NA
ATOM     52  C   UNL     1      13.075   3.832  -3.690  1.00  0.00     0.031 C 
ATOM     53  C   UNL     1      12.288   2.902   1.192  1.00  0.00     0.029 A 
ATOM     54  N   UNL     1      14.013   1.866   0.219  1.00  0.00    -0.354 N 
ATOM     55  C   UNL     1      14.841   2.413  -3.995  1.00  0.00     0.074 A 
ATOM     56  C   UNL     1      13.886   3.314  -4.601  1.00  0.00     0.031 C 
ATOM     57  C   UNL     1      12.884   2.148   2.129  1.00  0.00     0.029 A 
ATOM     58  C   UNL     1      14.002   1.431   1.522  1.00  0.00     0.049 A 
ATOM     59  H   UNL     1      14.677   1.567  -0.443  1.00  0.00     0.167 HD
ATOM     60  C   UNL     1      15.866   1.826  -4.657  1.00  0.00     0.037 A 
ATOM     61  C   UNL     1      14.796   0.545   2.152  1.00  0.00     0.037 A 
ATOM     62  C   UNL     1      16.826   0.947  -4.043  1.00  0.00     0.049 A 
ATOM     63  C   UNL     1      15.915  -0.108   1.384  1.00  0.00     0.074 A 
ATOM     64  C   UNL     1      17.934   0.346  -4.614  1.00  0.00     0.029 A 
ATOM     65  N   UNL     1      16.788   0.537  -2.718  1.00  0.00    -0.354 N 
ATOM     66  N   UNL     1      16.264   0.052   0.130  1.00  0.00    -0.248 NA
ATOM     67  C   UNL     1      16.755  -1.062   2.121  1.00  0.00     0.031 C 
ATOM     68  C   UNL     1      18.531  -0.474  -3.653  1.00  0.00     0.029 A 
ATOM     69  C   UNL     1      17.837  -0.332  -2.462  1.00  0.00     0.049 A 
ATOM     70  H   UNL     1      16.116   0.822  -2.057  1.00  0.00     0.167 HD
ATOM     71  C   UNL     1      17.382  -0.748  -0.061  1.00  0.00     0.074 A 
ATOM     72  C   UNL     1      17.663  -1.381   1.210  1.00  0.00     0.031 C 
ATOM     73  C   UNL     1      18.111  -0.943  -1.187  1.00  0.00     0.037 A 
BRANCH  60  74
ATOM     74  C   UNL     1      16.009   2.113  -6.125  1.00  0.00     0.064 A 
ATOM     75  C   UNL     1      16.393   3.378  -6.595  1.00  0.00     0.173 A 
ATOM     76  C   UNL     1      15.820   1.093  -7.070  1.00  0.00     0.173 A 
ATOM     77  F   UNL     1      16.577   4.392  -5.736  1.00  0.00    -0.203 F 
ATOM     78  C   UNL     1      16.558   3.618  -7.957  1.00  0.00     0.198 A 
ATOM     79  C   UNL     1      16.019   1.327  -8.428  1.00  0.00     0.198 A 
ATOM     80  F   UNL     1      15.458  -0.137  -6.676  1.00  0.00    -0.203 F 
ATOM     81  F   UNL     1      16.882   4.846  -8.386  1.00  0.00    -0.200 F 
ATOM     82  C   UNL     1      16.381   2.590  -8.871  1.00  0.00     0.200 A 
ATOM     83  F   UNL     1      15.863   0.329  -9.308  1.00  0.00    -0.200 F 
ATOM     84  F   UNL     1      16.557   2.818 -10.180  1.00  0.00    -0.200 F 
ENDBRANCH  60  74
BRANCH  61  85
ATOM     85  C   UNL     1      14.573   0.225   3.588  1.00  0.00     0.064 A 
ATOM     86  C   UNL     1      15.520   0.573   4.561  1.00  0.00     0.173 A 
ATOM     87  C   UNL     1      13.425  -0.459   4.013  1.00  0.00     0.173 A 
ATOM     88  F   UNL     1      16.644   1.212   4.204  1.00  0.00    -0.203 F 
ATOM     89  C   UNL     1      15.345   0.217   5.897  1.00  0.00     0.198 A 
ATOM     90  C   UNL     1      13.234  -0.783   5.355  1.00  0.00     0.198 A 
ATOM     91  F   UNL     1      12.482  -0.809   3.126  1.00  0.00    -0.203 F 
ATOM     92  F   UNL     1      16.298   0.506   6.795  1.00  0.00    -0.200 F 
ATOM     93  C   UNL     1      14.200  -0.457   6.294  1.00  0.00     0.200 A 
ATOM     94  F   UNL     1      12.117  -1.417   5.736  1.00  0.00    -0.200 F 
ATOM     95  F   UNL     1      14.034  -0.801   7.578  1.00  0.00    -0.200 F 
ENDBRANCH  61  85
BRANCH  73  96
ATOM     96  C   UNL     1      19.313  -1.839  -1.086  1.00  0.00     0.064 A 
ATOM     97  C   UNL     1      19.192  -3.224  -0.904  1.00  0.00     0.173 A 
ATOM     98  C   UNL     1      20.605  -1.305  -1.214  1.00  0.00     0.173 A 
ATOM     99  F   UNL     1      17.980  -3.783  -0.762  1.00  0.00    -0.203 F 
ATOM    100  C   UNL     1      20.319  -4.037  -0.823  1.00  0.00     0.198 A 
ATOM    101  C   UNL     1      21.728  -2.125  -1.171  1.00  0.00     0.198 A 
ATOM    102  F   UNL     1      20.778   0.013  -1.399  1.00  0.00    -0.203 F 
ATOM    103  F   UNL     1      20.181  -5.350  -0.593  1.00  0.00    -0.200 F 
ATOM    104  C   UNL     1      21.585  -3.489  -0.965  1.00  0.00     0.200 A 
ATOM    105  F   UNL     1      22.949  -1.596  -1.327  1.00  0.00    -0.200 F 
ATOM    106  F   UNL     1      22.669  -4.274  -0.897  1.00  0.00    -0.200 F 
ENDBRANCH  73  96
ENDBRANCH  47  48
ENDBRANCH  39  42
ENDBRANCH  37  38
ENDBRANCH  36  37
ENDBRANCH  35  36
ENDBRANCH  34  35
ENDBRANCH   1  34
TORSDOF 18
