REMARK SMILES Cc1cc(C)cc(Oc2nc3ccccn3c(=O)c2/C=C2\SC(=S)N(CCC(=O)NCCCCCCNC(=O)c3ccc(-c4c5nc(c(-c6c(F)c(F)c(F)c(F)c6F)c6ccc([nH]6)c(-c6c(F)c(F)c(F)c(F)c6F)c6nc(c(-c7c(F)c(F)c(F)c(F)c7F)c7ccc4[nH]7)C=C6)C=C5)cc3)C2=O)c1
REMARK SMILES IDX 32 1 31 2 30 3 28 4 29 5 27 7 26 8 25 9 20 10 21 11 22 12
REMARK SMILES IDX 103 13 23 14 104 15 24 16 19 17 9 18 10 19 11 20 17 21 12 22
REMARK SMILES IDX 16 23 18 24 13 25 15 26 14 27 8 28 7 29 1 30 2 31 3 32
REMARK SMILES IDX 105 33 4 34 5 35 6 36 33 37 34 38 35 39 36 40 37 41 38 42
REMARK SMILES IDX 39 44 40 45 41 46 102 47 42 48 101 49 43 50 44 51 45 52
REMARK SMILES IDX 95 53 46 54 100 55 94 56 96 57 47 58 99 59 93 60 92 61 48 63
REMARK SMILES IDX 80 64 60 65 79 66 61 67 64 68 78 69 97 70 62 71 63 72 77 74
REMARK SMILES IDX 98 75 65 76 49 77 50 78 58 79 51 80 52 81 56 82 59 83 53 84
REMARK SMILES IDX 54 85 57 86 55 87 81 88 82 89 90 90 83 91 84 92 88 93 91 94
REMARK SMILES IDX 85 95 86 96 89 97 87 98 66 99 67 100 75 101 68 102 69 103
REMARK SMILES IDX 73 104 76 105 70 106 71 107 74 108 72 109
REMARK H PARENT 30 6 37 43 96 62 64 73
REMARK Flexibility Score: inf
ROOT
ATOM      1  C   UNL     1       0.754  -1.250   3.251  1.00  0.00     0.021 C 
ENDROOT
BRANCH   1   2
ATOM      2  C   UNL     1       0.325   0.198   3.063  1.00  0.00     0.116 C 
BRANCH   2   3
ATOM      3  N   UNL     1       0.207   0.866   4.340  1.00  0.00    -0.356 N 
ATOM      4  C   UNL     1       1.133   1.575   5.046  1.00  0.00     0.221 C 
ATOM      5  O   UNL     1       0.896   1.810   6.233  1.00  0.00    -0.275 OA
ATOM      6  H   UNL     1      -0.678   0.797   4.766  1.00  0.00     0.163 HD
BRANCH   4   7
ATOM      7  C   UNL     1       2.391   2.124   4.391  1.00  0.00     0.122 C 
BRANCH   7   8
ATOM      8  C   UNL     1       3.678   1.353   4.729  1.00  0.00     0.137 C 
BRANCH   8   9
ATOM      9  N   UNL     1       4.174   0.559   3.593  1.00  0.00    -0.292 N 
ATOM     10  C   UNL     1       3.423  -2.304   1.643  1.00  0.00     0.041 C 
ATOM     11  C   UNL     1       4.109  -1.273   2.153  1.00  0.00     0.081 C 
ATOM     12  S   UNL     1       5.150  -0.200   1.323  1.00  0.00    -0.054 SA
ATOM     13  C   UNL     1       3.948  -0.802   3.553  1.00  0.00     0.266 C 
ATOM     14  C   UNL     1       4.926   1.053   2.544  1.00  0.00     0.148 C 
ATOM     15  O   UNL     1       3.664  -1.529   4.492  1.00  0.00    -0.268 OA
ATOM     16  S   UNL     1       5.538   2.589   2.343  1.00  0.00    -0.052 S 
BRANCH  10  17
ATOM     17  C   UNL     1       3.562  -2.837   0.294  1.00  0.00     0.104 A 
ATOM     18  C   UNL     1       2.659  -2.749  -0.738  1.00  0.00     0.234 A 
ATOM     19  N   UNL     1       2.722  -3.445  -1.916  1.00  0.00    -0.194 NA
ATOM     20  C   UNL     1       3.199  -4.618  -1.731  1.00  0.00     0.143 A 
ATOM     21  C   UNL     1       4.703  -3.840   0.249  1.00  0.00     0.269 A 
ATOM     22  C   UNL     1       2.386  -6.191  -2.510  1.00  0.00     0.048 A 
ATOM     23  N   UNL     1       4.373  -4.911  -0.527  1.00  0.00    -0.267 N 
ATOM     24  O   UNL     1       5.636  -3.812   1.045  1.00  0.00    -0.268 OA
ATOM     25  C   UNL     1       2.994  -7.821  -1.852  1.00  0.00     0.005 A 
ATOM     26  C   UNL     1       4.927  -6.470  -0.027  1.00  0.00     0.096 A 
ATOM     27  C   UNL     1       4.359  -7.778  -0.537  1.00  0.00     0.019 A 
BRANCH  18  28
ATOM     28  O   UNL     1       1.333  -2.336  -0.562  1.00  0.00    -0.438 OA
BRANCH  28  29
ATOM     29  C   UNL     1       0.902  -1.053  -0.740  1.00  0.00     0.130 A 
ATOM     30  C   UNL     1       2.502   2.246  -0.291  1.00  0.00     0.044 C 
ATOM     31  C   UNL     1       1.416   1.253  -0.530  1.00  0.00    -0.047 A 
ATOM     32  C   UNL     1       0.062   1.548  -0.313  1.00  0.00     0.007 A 
ATOM     33  C   UNL     1       1.807  -0.032  -0.870  1.00  0.00     0.050 A 
ATOM     34  C   UNL     1      -0.908   0.539  -0.371  1.00  0.00    -0.047 A 
ATOM     35  C   UNL     1      -2.352   0.887  -0.129  1.00  0.00     0.044 C 
ATOM     36  C   UNL     1      -0.471  -0.778  -0.566  1.00  0.00     0.050 A 
ENDBRANCH  28  29
ENDBRANCH  18  28
ENDBRANCH  10  17
ENDBRANCH   8   9
ENDBRANCH   7   8
ENDBRANCH   4   7
ENDBRANCH   2   3
ENDBRANCH   1   2
BRANCH   1  37
ATOM     37  C   UNL     1      -0.234  -2.362   3.633  1.00  0.00     0.002 C 
BRANCH  37  38
ATOM     38  C   UNL     1      -1.029  -3.026   2.493  1.00  0.00     0.002 C 
BRANCH  38  39
ATOM     39  C   UNL     1      -0.195  -3.676   1.383  1.00  0.00     0.021 C 
BRANCH  39  40
ATOM     40  C   UNL     1       0.510  -5.025   1.533  1.00  0.00     0.116 C 
BRANCH  40  41
ATOM     41  N   UNL     1      -0.227  -6.128   0.936  1.00  0.00    -0.352 N 
ATOM     42  C   UNL     1      -0.042  -6.971  -0.137  1.00  0.00     0.251 C 
ATOM     43  H   UNL     1      -1.064  -6.319   1.418  1.00  0.00     0.163 HD
ATOM     44  O   UNL     1      -0.972  -7.729  -0.423  1.00  0.00    -0.269 OA
BRANCH  42  45
ATOM     45  C   UNL     1       1.142  -7.041  -1.027  1.00  0.00     0.039 A 
ATOM     46  C   UNL     1       0.895  -7.787  -2.639  1.00  0.00     0.014 A 
ATOM     47  C   UNL     1       2.772  -6.347  -0.686  1.00  0.00     0.014 A 
ATOM     48  C   UNL     1       2.153  -7.845  -3.927  1.00  0.00     0.010 A 
ATOM     49  C   UNL     1       4.199  -6.380  -2.141  1.00  0.00     0.010 A 
ATOM     50  C   UNL     1       3.790  -7.156  -3.731  1.00  0.00    -0.014 A 
BRANCH  50  51
ATOM     51  C   UNL     1       4.765  -7.237  -4.817  1.00  0.00     0.031 A 
ATOM     52  C   UNL     1       5.913  -8.178  -4.681  1.00  0.00     0.074 A 
ATOM     53  C   UNL     1       4.552  -6.503  -5.920  1.00  0.00     0.049 A 
ATOM     54  N   UNL     1       6.841  -8.501  -5.539  1.00  0.00    -0.248 NA
ATOM     55  C   UNL     1       6.043  -8.859  -3.389  1.00  0.00     0.031 C 
ATOM     56  C   UNL     1       3.469  -5.534  -6.099  1.00  0.00     0.029 A 
ATOM     57  N   UNL     1       5.224  -6.474  -7.109  1.00  0.00    -0.354 N 
ATOM     58  C   UNL     1       7.634  -9.439  -4.889  1.00  0.00     0.074 A 
ATOM     59  C   UNL     1       7.154  -9.555  -3.537  1.00  0.00     0.031 C 
ATOM     60  C   UNL     1       3.522  -5.041  -7.347  1.00  0.00     0.029 A 
ATOM     61  C   UNL     1       4.659  -5.635  -8.038  1.00  0.00     0.049 A 
ATOM     62  H   UNL     1       6.035  -7.004  -7.284  1.00  0.00     0.167 HD
ATOM     63  C   UNL     1       8.635 -10.185  -5.404  1.00  0.00     0.037 A 
ATOM     64  C   UNL     1       5.037  -5.396  -9.306  1.00  0.00     0.037 A 
ATOM     65  C   UNL     1       9.078 -10.040  -6.760  1.00  0.00     0.049 A 
ATOM     66  C   UNL     1       6.215  -6.177  -9.830  1.00  0.00     0.074 A 
ATOM     67  C   UNL     1      10.090 -10.704  -7.421  1.00  0.00     0.029 A 
ATOM     68  N   UNL     1       8.517  -9.144  -7.663  1.00  0.00    -0.354 N 
ATOM     69  N   UNL     1       6.935  -7.100  -9.231  1.00  0.00    -0.248 NA
ATOM     70  C   UNL     1       6.624  -5.899 -11.210  1.00  0.00     0.031 C 
ATOM     71  C   UNL     1      10.190 -10.156  -8.704  1.00  0.00     0.029 A 
ATOM     72  C   UNL     1       9.182  -9.216  -8.871  1.00  0.00     0.049 A 
ATOM     73  H   UNL     1       7.758  -8.547  -7.470  1.00  0.00     0.167 HD
ATOM     74  C   UNL     1       7.857  -7.538 -10.169  1.00  0.00     0.074 A 
ATOM     75  C   UNL     1       7.577  -6.801 -11.387  1.00  0.00     0.031 C 
ATOM     76  C   UNL     1       8.851  -8.456 -10.051  1.00  0.00     0.037 A 
BRANCH  63  77
ATOM     77  C   UNL     1       9.295 -11.187  -4.502  1.00  0.00     0.064 A 
ATOM     78  C   UNL     1       8.604 -12.307  -4.008  1.00  0.00     0.173 A 
ATOM     79  C   UNL     1      10.631 -11.024  -4.113  1.00  0.00     0.173 A 
ATOM     80  F   UNL     1       7.313 -12.500  -4.322  1.00  0.00    -0.203 F 
ATOM     81  C   UNL     1       9.217 -13.204  -3.135  1.00  0.00     0.198 A 
ATOM     82  C   UNL     1      11.253 -11.943  -3.271  1.00  0.00     0.198 A 
ATOM     83  F   UNL     1      11.336  -9.967  -4.542  1.00  0.00    -0.203 F 
ATOM     84  F   UNL     1       8.514 -14.225  -2.623  1.00  0.00    -0.200 F 
ATOM     85  C   UNL     1      10.543 -13.027  -2.775  1.00  0.00     0.200 A 
ATOM     86  F   UNL     1      12.537 -11.773  -2.929  1.00  0.00    -0.200 F 
ATOM     87  F   UNL     1      11.134 -13.892  -1.940  1.00  0.00    -0.200 F 
ENDBRANCH  63  77
BRANCH  64  88
ATOM     88  C   UNL     1       4.309  -4.409 -10.151  1.00  0.00     0.064 A 
ATOM     89  C   UNL     1       3.663  -4.792 -11.336  1.00  0.00     0.173 A 
ATOM     90  C   UNL     1       4.279  -3.046  -9.814  1.00  0.00     0.173 A 
ATOM     91  F   UNL     1       3.660  -6.080 -11.712  1.00  0.00    -0.203 F 
ATOM     92  C   UNL     1       3.067  -3.849 -12.173  1.00  0.00     0.198 A 
ATOM     93  C   UNL     1       3.645  -2.111 -10.629  1.00  0.00     0.198 A 
ATOM     94  F   UNL     1       4.867  -2.619  -8.687  1.00  0.00    -0.203 F 
ATOM     95  F   UNL     1       2.528  -4.237 -13.338  1.00  0.00    -0.200 F 
ATOM     96  C   UNL     1       3.057  -2.510 -11.818  1.00  0.00     0.200 A 
ATOM     97  F   UNL     1       3.618  -0.821 -10.268  1.00  0.00    -0.200 F 
ATOM     98  F   UNL     1       2.493  -1.603 -12.628  1.00  0.00    -0.200 F 
ENDBRANCH  64  88
BRANCH  76  99
ATOM     99  C   UNL     1       9.656  -8.734 -11.285  1.00  0.00     0.064 A 
ATOM    100  C   UNL     1      10.498  -7.766 -11.853  1.00  0.00     0.173 A 
ATOM    101  C   UNL     1       9.588  -9.994 -11.899  1.00  0.00     0.173 A 
ATOM    102  F   UNL     1      10.594  -6.546 -11.302  1.00  0.00    -0.203 F 
ATOM    103  C   UNL     1      11.186  -8.028 -13.031  1.00  0.00     0.198 A 
ATOM    104  C   UNL     1      10.325 -10.270 -13.044  1.00  0.00     0.198 A 
ATOM    105  F   UNL     1       8.816 -10.961 -11.382  1.00  0.00    -0.203 F 
ATOM    106  F   UNL     1      11.905  -7.057 -13.611  1.00  0.00    -0.200 F 
ATOM    107  C   UNL     1      11.105  -9.280 -13.621  1.00  0.00     0.200 A 
ATOM    108  F   UNL     1      10.273 -11.491 -13.592  1.00  0.00    -0.200 F 
ATOM    109  F   UNL     1      11.771  -9.530 -14.757  1.00  0.00    -0.200 F 
ENDBRANCH  76  99
ENDBRANCH  50  51
ENDBRANCH  42  45
ENDBRANCH  40  41
ENDBRANCH  39  40
ENDBRANCH  38  39
ENDBRANCH  37  38
ENDBRANCH   1  37
TORSDOF 18
