REMARK SMILES N#CCC(=O)N/N=C/c1ccc(OCc2ccc(C(=O)NCCCCCCNC(=O)c3ccc(-c4c5nc(c(-c6c(F)c(F)c(F)c(F)c6F)c6ccc([nH]6)c(-c6c(F)c(F)c(F)c(F)c6F)c6nc(c(-c7c(F)c(F)c(F)c(F)c7F)c7ccc4[nH]7)C=C6)C=C5)cc3)cc2)c(Br)c1
REMARK SMILES IDX 22 1 21 2 19 3 20 4 18 6 15 7 16 8 95 9 17 10 94 11 14 12
REMARK SMILES IDX 13 13 12 14 9 15 10 16 98 17 11 18 96 19 97 20 8 21 7 22
REMARK SMILES IDX 6 23 4 24 5 25 3 27 2 28 1 29 23 30 24 31 25 32 26 33 27 34
REMARK SMILES IDX 28 35 29 36 30 38 31 39 32 40 93 41 33 42 92 43 34 44 35 45
REMARK SMILES IDX 36 46 86 47 37 48 91 49 85 50 87 51 38 52 90 53 84 54 83 55
REMARK SMILES IDX 39 57 71 58 51 59 70 60 52 61 55 62 69 63 88 64 53 65 54 66
REMARK SMILES IDX 68 68 89 69 56 70 40 71 41 72 49 73 42 74 43 75 47 76 50 77
REMARK SMILES IDX 44 78 45 79 48 80 46 81 72 82 73 83 81 84 74 85 75 86 79 87
REMARK SMILES IDX 82 88 76 89 77 90 80 91 78 92 57 93 58 94 66 95 59 96 60 97
REMARK SMILES IDX 64 98 67 99 61 100 62 101 65 102 63 103
REMARK H PARENT 21 5 6 26 28 37 87 56 55 67
REMARK Flexibility Score: inf
ROOT
ATOM      1  C   UNL     1      -1.270   0.693  -9.710  1.00  0.00     0.116 C 
ENDROOT
BRANCH   1   2
ATOM      2  N   UNL     1      -0.664  -0.204  -8.747  1.00  0.00    -0.352 N 
ATOM      3  C   UNL     1      -0.313  -0.031  -7.435  1.00  0.00     0.251 C 
ATOM      4  O   UNL     1       0.262  -0.955  -6.861  1.00  0.00    -0.269 OA
ATOM      5  H   UNL     1      -0.469  -1.101  -9.101  1.00  0.00     0.163 HD
BRANCH   3   6
ATOM      6  C   UNL     1      -0.683   1.183  -6.665  1.00  0.00     0.039 A 
ATOM      7  C   UNL     1      -1.605   3.334  -5.092  1.00  0.00    -0.011 A 
ATOM      8  C   UNL     1      -1.568   2.034  -4.572  1.00  0.00     0.008 A 
ATOM      9  C   UNL     1      -1.101   3.558  -6.381  1.00  0.00     0.008 A 
ATOM     10  C   UNL     1      -1.108   0.972  -5.349  1.00  0.00     0.014 A 
ATOM     11  C   UNL     1      -0.630   2.490  -7.158  1.00  0.00     0.014 A 
BRANCH   7  12
ATOM     12  C   UNL     1      -2.224   4.457  -4.285  1.00  0.00     0.265 C 
BRANCH  12  13
ATOM     13  O   UNL     1      -1.326   5.326  -3.585  1.00  0.00    -0.488 OA
BRANCH  13  14
ATOM     14  C   UNL     1      -0.389   4.742  -2.780  1.00  0.00     0.134 A 
ATOM     15  C   UNL     1       1.759   3.744  -1.286  1.00  0.00    -0.004 A 
ATOM     16  C   UNL     1       2.004   4.607  -2.352  1.00  0.00     0.013 A 
ATOM     17  C   UNL     1       0.447   3.408  -0.938  1.00  0.00     0.029 A 
ATOM     18  C   UNL     1       0.929   5.109  -3.086  1.00  0.00     0.048 A 
ATOM     19  C   UNL     1      -0.631   3.925  -1.668  1.00  0.00     0.060 A 
ATOM     20  Br  UNL     1      -2.364   3.554  -0.989  1.00  0.00    -0.047 Br
BRANCH  15  21
ATOM     21  C   UNL     1       2.909   3.209  -0.532  1.00  0.00     0.141 C 
ATOM     22  N   UNL     1       2.761   2.700   0.650  1.00  0.00    -0.181 NA
BRANCH  22  23
ATOM     23  N   UNL     1       3.888   2.190   1.210  1.00  0.00    -0.246 N 
ATOM     24  C   UNL     1       4.267   0.870   1.093  1.00  0.00     0.254 C 
ATOM     25  O   UNL     1       5.150   0.423   1.831  1.00  0.00    -0.272 OA
ATOM     26  H   UNL     1       4.466   2.796   1.728  1.00  0.00     0.193 HD
BRANCH  24  27
ATOM     27  C   UNL     1       3.689   0.034  -0.022  1.00  0.00     0.221 C 
BRANCH  27  28
ATOM     28  C   UNL     1       2.169   0.034  -0.022  1.00  0.00     0.072 C 
ATOM     29  N   UNL     1       0.908   0.034  -0.022  1.00  0.00    -0.198 NA
ENDBRANCH  27  28
ENDBRANCH  24  27
ENDBRANCH  22  23
ENDBRANCH  15  21
ENDBRANCH  13  14
ENDBRANCH  12  13
ENDBRANCH   7  12
ENDBRANCH   3   6
ENDBRANCH   1   2
BRANCH   1  30
ATOM     30  C   UNL     1      -0.194   1.223 -10.659  1.00  0.00     0.021 C 
BRANCH  30  31
ATOM     31  C   UNL     1       0.274   0.181 -11.685  1.00  0.00     0.002 C 
BRANCH  31  32
ATOM     32  C   UNL     1      -0.805  -0.273 -12.674  1.00  0.00     0.002 C 
BRANCH  32  33
ATOM     33  C   UNL     1      -1.484   0.859 -13.450  1.00  0.00     0.021 C 
BRANCH  33  34
ATOM     34  C   UNL     1      -0.530   1.717 -14.275  1.00  0.00     0.116 C 
BRANCH  34  35
ATOM     35  N   UNL     1       0.124   0.943 -15.318  1.00  0.00    -0.352 N 
ATOM     36  C   UNL     1       0.170   1.165 -16.667  1.00  0.00     0.251 C 
ATOM     37  H   UNL     1       0.604   0.141 -15.007  1.00  0.00     0.163 HD
ATOM     38  O   UNL     1       0.566   0.277 -17.424  1.00  0.00    -0.269 OA
BRANCH  36  39
ATOM     39  C   UNL     1      -0.260   2.463 -17.226  1.00  0.00     0.039 A 
ATOM     40  C   UNL     1      -1.013   2.470 -18.402  1.00  0.00     0.014 A 
ATOM     41  C   UNL     1       0.111   3.669 -16.621  1.00  0.00     0.014 A 
ATOM     42  C   UNL     1      -1.429   3.684 -18.949  1.00  0.00     0.010 A 
ATOM     43  C   UNL     1      -0.363   4.876 -17.130  1.00  0.00     0.010 A 
ATOM     44  C   UNL     1      -1.128   4.896 -18.305  1.00  0.00    -0.014 A 
BRANCH  44  45
ATOM     45  C   UNL     1      -1.618   6.182 -18.858  1.00  0.00     0.031 A 
ATOM     46  C   UNL     1      -0.654   7.204 -19.393  1.00  0.00     0.074 A 
ATOM     47  C   UNL     1      -2.941   6.437 -18.853  1.00  0.00     0.049 A 
ATOM     48  N   UNL     1      -0.902   8.367 -19.941  1.00  0.00    -0.248 NA
ATOM     49  C   UNL     1       0.778   6.890 -19.277  1.00  0.00     0.031 C 
ATOM     50  C   UNL     1      -3.967   5.551 -18.303  1.00  0.00     0.029 A 
ATOM     51  N   UNL     1      -3.648   7.513 -19.326  1.00  0.00    -0.354 N 
ATOM     52  C   UNL     1       0.337   8.923 -20.229  1.00  0.00     0.074 A 
ATOM     53  C   UNL     1       1.338   7.997 -19.743  1.00  0.00     0.031 C 
ATOM     54  C   UNL     1      -5.175   6.101 -18.502  1.00  0.00     0.029 A 
ATOM     55  C   UNL     1      -5.007   7.388 -19.169  1.00  0.00     0.049 A 
ATOM     56  H   UNL     1      -3.223   8.299 -19.740  1.00  0.00     0.167 HD
ATOM     57  C   UNL     1       0.614  10.086 -20.865  1.00  0.00     0.037 A 
ATOM     58  C   UNL     1      -6.004   8.217 -19.530  1.00  0.00     0.037 A 
ATOM     59  C   UNL     1      -0.386  10.994 -21.363  1.00  0.00     0.049 A 
ATOM     60  C   UNL     1      -5.670   9.494 -20.249  1.00  0.00     0.074 A 
ATOM     61  C   UNL     1      -0.211  12.168 -22.075  1.00  0.00     0.029 A 
ATOM     62  N   UNL     1      -1.754  10.829 -21.197  1.00  0.00    -0.354 N 
ATOM     63  N   UNL     1      -4.497   9.969 -20.592  1.00  0.00    -0.248 NA
ATOM     64  C   UNL     1      -6.801  10.345 -20.644  1.00  0.00     0.031 C 
ATOM     65  C   UNL     1      -1.469  12.737 -22.300  1.00  0.00     0.029 A 
ATOM     66  C   UNL     1      -2.433  11.892 -21.773  1.00  0.00     0.049 A 
ATOM     67  H   UNL     1      -2.180  10.070 -20.738  1.00  0.00     0.167 HD
ATOM     68  C   UNL     1      -4.747  11.158 -21.261  1.00  0.00     0.074 A 
ATOM     69  C   UNL     1      -6.186  11.321 -21.297  1.00  0.00     0.031 C 
ATOM     70  C   UNL     1      -3.866  12.039 -21.797  1.00  0.00     0.037 A 
BRANCH  57  71
ATOM     71  C   UNL     1       2.060  10.442 -21.064  1.00  0.00     0.064 A 
ATOM     72  C   UNL     1       2.876   9.730 -21.957  1.00  0.00     0.173 A 
ATOM     73  C   UNL     1       2.627  11.532 -20.386  1.00  0.00     0.173 A 
ATOM     74  F   UNL     1       2.387   8.673 -22.622  1.00  0.00    -0.203 F 
ATOM     75  C   UNL     1       4.212  10.077 -22.140  1.00  0.00     0.198 A 
ATOM     76  C   UNL     1       3.955  11.895 -20.595  1.00  0.00     0.198 A 
ATOM     77  F   UNL     1       1.891  12.251 -19.526  1.00  0.00    -0.203 F 
ATOM     78  F   UNL     1       4.984   9.351 -22.961  1.00  0.00    -0.200 F 
ATOM     79  C   UNL     1       4.749  11.163 -21.466  1.00  0.00     0.200 A 
ATOM     80  F   UNL     1       4.469  12.952 -19.952  1.00  0.00    -0.200 F 
ATOM     81  F   UNL     1       6.033  11.500 -21.649  1.00  0.00    -0.200 F 
ENDBRANCH  57  71
BRANCH  58  82
ATOM     82  C   UNL     1      -7.415   7.841 -19.254  1.00  0.00     0.064 A 
ATOM     83  C   UNL     1      -8.287   7.498 -20.297  1.00  0.00     0.173 A 
ATOM     84  C   UNL     1      -7.920   7.813 -17.946  1.00  0.00     0.173 A 
ATOM     85  F   UNL     1      -7.855   7.528 -21.567  1.00  0.00    -0.203 F 
ATOM     86  C   UNL     1      -9.615   7.163 -20.045  1.00  0.00     0.198 A 
ATOM     87  C   UNL     1      -9.241   7.450 -17.692  1.00  0.00     0.198 A 
ATOM     88  F   UNL     1      -7.124   8.125 -16.912  1.00  0.00    -0.203 F 
ATOM     89  F   UNL     1     -10.438   6.884 -21.064  1.00  0.00    -0.200 F 
ATOM     90  C   UNL     1     -10.089   7.133 -18.742  1.00  0.00     0.200 A 
ATOM     91  F   UNL     1      -9.691   7.407 -16.431  1.00  0.00    -0.200 F 
ATOM     92  F   UNL     1     -11.366   6.806 -18.499  1.00  0.00    -0.200 F 
ENDBRANCH  58  82
BRANCH  70  93
ATOM     93  C   UNL     1      -4.439  13.244 -22.484  1.00  0.00     0.064 A 
ATOM     94  C   UNL     1      -5.055  14.278 -21.763  1.00  0.00     0.173 A 
ATOM     95  C   UNL     1      -4.355  13.375 -23.878  1.00  0.00     0.173 A 
ATOM     96  F   UNL     1      -5.174  14.194 -20.429  1.00  0.00    -0.203 F 
ATOM     97  C   UNL     1      -5.596  15.382 -22.417  1.00  0.00     0.198 A 
ATOM     98  C   UNL     1      -4.869  14.495 -24.525  1.00  0.00     0.198 A 
ATOM     99  F   UNL     1      -3.769  12.418 -24.614  1.00  0.00    -0.203 F 
ATOM    100  F   UNL     1      -6.231  16.330 -21.713  1.00  0.00    -0.200 F 
ATOM    101  C   UNL     1      -5.498  15.492 -23.796  1.00  0.00     0.200 A 
ATOM    102  F   UNL     1      -4.762  14.606 -25.857  1.00  0.00    -0.200 F 
ATOM    103  F   UNL     1      -6.019  16.556 -24.423  1.00  0.00    -0.200 F 
ENDBRANCH  70  93
ENDBRANCH  44  45
ENDBRANCH  36  39
ENDBRANCH  34  35
ENDBRANCH  33  34
ENDBRANCH  32  33
ENDBRANCH  31  32
ENDBRANCH  30  31
ENDBRANCH   1  30
TORSDOF 20
