REMARK SMILES Cc1c(NC(=O)[C@@H]2CC=CC[C@@H]2C(=O)NCCCCCCNC(=O)c2ccc(-c3c4nc(c(-c5c(F)c(F)c(F)c(F)c5F)c5ccc([nH]5)c(-c5c(F)c(F)c(F)c(F)c5F)c5nc(c(-c6c(F)c(F)c(F)c(F)c6F)c6ccc3[nH]6)C=C5)C=C4)cc2)cccc1C(=O)N1CCOCC1
REMARK SMILES IDX 18 1 17 2 16 3 15 4 13 5 14 6 12 8 7 9 8 10 9 11 11 12 10 13
REMARK SMILES IDX 5 14 4 15 6 17 3 18 1 19 2 20 91 21 88 22 90 23 89 24 92 25
REMARK SMILES IDX 93 26 94 27 95 28 99 29 96 30 98 31 97 32 19 33 20 34 21 35
REMARK SMILES IDX 22 36 23 37 24 39 25 40 26 41 87 42 27 43 86 44 28 45 29 46
REMARK SMILES IDX 30 47 80 48 31 49 85 50 79 51 81 52 32 53 84 54 78 55 77 56
REMARK SMILES IDX 33 58 65 59 45 60 64 61 46 62 49 63 63 64 82 65 47 66 48 67
REMARK SMILES IDX 62 69 83 70 50 71 34 72 35 73 43 74 36 75 37 76 41 77 44 78
REMARK SMILES IDX 38 79 39 80 42 81 40 82 66 83 67 84 75 85 68 86 69 87 73 88
REMARK SMILES IDX 76 89 70 90 71 91 74 92 72 93 51 94 52 95 60 96 53 97 54 98
REMARK SMILES IDX 58 99 61 100 55 101 56 102 59 103 57 104
REMARK H PARENT 15 7 4 16 22 38 81 57 49 68
REMARK Flexibility Score: inf
ROOT
ATOM      1  C   UNL     1      -6.101  -5.050   1.784  1.00  0.00     0.002 C 
ENDROOT
BRANCH   1   2
ATOM      2  C   UNL     1      -4.620  -4.663   1.753  1.00  0.00     0.021 C 
BRANCH   2   3
ATOM      3  C   UNL     1      -3.982  -4.623   0.363  1.00  0.00     0.116 C 
BRANCH   3   4
ATOM      4  N   UNL     1      -4.235  -3.372  -0.318  1.00  0.00    -0.356 N 
ATOM      5  C   UNL     1      -3.499  -2.428  -0.943  1.00  0.00     0.224 C 
ATOM      6  O   UNL     1      -4.196  -1.550  -1.482  1.00  0.00    -0.275 OA
ATOM      7  H   UNL     1      -5.195  -3.151  -0.329  1.00  0.00     0.163 HD
BRANCH   5   8
ATOM      8  C   UNL     1      -1.963  -2.359  -1.125  1.00  0.00     0.095 C 
ATOM      9  C   UNL     1      -0.978  -3.211  -0.290  1.00  0.00     0.095 C 
ATOM     10  C   UNL     1      -1.149  -2.890   1.204  1.00  0.00     0.041 C 
ATOM     11  C   UNL     1      -1.110  -1.406   1.453  1.00  0.00    -0.030 C 
ATOM     12  C   UNL     1      -1.529  -0.875  -0.959  1.00  0.00     0.041 C 
ATOM     13  C   UNL     1      -1.255  -0.500   0.474  1.00  0.00    -0.030 C 
BRANCH   9  14
ATOM     14  C   UNL     1      -0.994  -4.662  -0.752  1.00  0.00     0.228 C 
ATOM     15  N   UNL     1      -0.303  -5.670  -0.168  1.00  0.00    -0.326 N 
ATOM     16  H   UNL     1      -0.628  -6.551  -0.464  1.00  0.00     0.169 HD
ATOM     17  O   UNL     1      -1.701  -5.011  -1.707  1.00  0.00    -0.274 OA
BRANCH  15  18
ATOM     18  C   UNL     1       0.754  -5.791   0.749  1.00  0.00     0.044 A 
ATOM     19  C   UNL     1      -0.173  -8.083   1.266  1.00  0.00     0.047 C 
ATOM     20  C   UNL     1       0.925  -7.055   1.383  1.00  0.00    -0.015 A 
ATOM     21  C   UNL     1       2.076  -7.286   2.170  1.00  0.00     0.045 A 
ATOM     22  C   UNL     1       1.663  -4.763   0.996  1.00  0.00     0.026 A 
ATOM     23  C   UNL     1       2.961  -6.223   2.415  1.00  0.00     0.014 A 
ATOM     24  C   UNL     1       2.745  -4.968   1.850  1.00  0.00     0.003 A 
BRANCH  21  25
ATOM     25  C   UNL     1       2.328  -8.530   2.955  1.00  0.00     0.254 C 
ATOM     26  O   UNL     1       2.658  -8.378   4.132  1.00  0.00    -0.269 OA
ATOM     27  N   UNL     1       2.140  -9.796   2.410  1.00  0.00    -0.334 N 
ATOM     28  C   UNL     1       2.259 -10.189   1.000  1.00  0.00     0.148 C 
ATOM     29  C   UNL     1       2.038 -10.931   3.329  1.00  0.00     0.148 C 
ATOM     30  C   UNL     1       1.203 -11.244   0.615  1.00  0.00     0.181 C 
ATOM     31  C   UNL     1       0.910 -11.861   2.881  1.00  0.00     0.181 C 
ATOM     32  O   UNL     1       1.157 -12.335   1.548  1.00  0.00    -0.378 OA
ENDBRANCH  21  25
ENDBRANCH  15  18
ENDBRANCH   9  14
ENDBRANCH   5   8
ENDBRANCH   3   4
ENDBRANCH   2   3
ENDBRANCH   1   2
BRANCH   1  33
ATOM     33  C   UNL     1      -6.479  -6.375   1.101  1.00  0.00     0.002 C 
BRANCH  33  34
ATOM     34  C   UNL     1      -5.584  -7.579   1.409  1.00  0.00     0.021 C 
BRANCH  34  35
ATOM     35  C   UNL     1      -5.625  -8.032   2.858  1.00  0.00     0.116 C 
BRANCH  35  36
ATOM     36  N   UNL     1      -6.728  -8.934   3.180  1.00  0.00    -0.352 N 
ATOM     37  C   UNL     1      -7.165  -9.417   4.394  1.00  0.00     0.251 C 
ATOM     38  H   UNL     1      -7.243  -9.248   2.402  1.00  0.00     0.163 HD
ATOM     39  O   UNL     1      -8.054 -10.246   4.430  1.00  0.00    -0.269 OA
BRANCH  37  40
ATOM     40  C   UNL     1      -6.649  -8.839   5.670  1.00  0.00     0.039 A 
ATOM     41  C   UNL     1      -7.544  -8.676   6.740  1.00  0.00     0.014 A 
ATOM     42  C   UNL     1      -5.364  -8.321   5.769  1.00  0.00     0.014 A 
ATOM     43  C   UNL     1      -7.230  -7.806   7.785  1.00  0.00     0.010 A 
ATOM     44  C   UNL     1      -5.097  -7.375   6.732  1.00  0.00     0.010 A 
ATOM     45  C   UNL     1      -6.051  -7.074   7.712  1.00  0.00    -0.014 A 
BRANCH  45  46
ATOM     46  C   UNL     1      -5.700  -5.934   8.551  1.00  0.00     0.031 A 
ATOM     47  C   UNL     1      -4.578  -6.042   9.510  1.00  0.00     0.074 A 
ATOM     48  C   UNL     1      -6.210  -4.723   8.236  1.00  0.00     0.049 A 
ATOM     49  N   UNL     1      -4.221  -5.111  10.325  1.00  0.00    -0.248 NA
ATOM     50  C   UNL     1      -3.790  -7.259   9.656  1.00  0.00     0.031 C 
ATOM     51  C   UNL     1      -5.639  -3.416   8.550  1.00  0.00     0.029 A 
ATOM     52  N   UNL     1      -7.477  -4.429   7.705  1.00  0.00    -0.354 N 
ATOM     53  C   UNL     1      -3.032  -5.482  10.913  1.00  0.00     0.074 A 
ATOM     54  C   UNL     1      -2.858  -6.861  10.527  1.00  0.00     0.031 C 
ATOM     55  C   UNL     1      -6.608  -2.491   8.488  1.00  0.00     0.029 A 
ATOM     56  C   UNL     1      -7.859  -3.205   8.318  1.00  0.00     0.049 A 
ATOM     57  H   UNL     1      -7.990  -4.955   7.050  1.00  0.00     0.167 HD
ATOM     58  C   UNL     1      -2.308  -4.529  11.573  1.00  0.00     0.037 A 
ATOM     59  C   UNL     1      -8.907  -3.152   9.194  1.00  0.00     0.037 A 
ATOM     60  C   UNL     1      -3.087  -3.296  11.714  1.00  0.00     0.049 A 
ATOM     61  C   UNL     1      -8.560  -2.684  10.592  1.00  0.00     0.074 A 
ATOM     62  C   UNL     1      -3.113  -2.069  11.072  1.00  0.00     0.029 A 
ATOM     63  N   UNL     1      -4.216  -3.333  12.510  1.00  0.00    -0.354 N 
ATOM     64  N   UNL     1      -7.344  -2.475  11.014  1.00  0.00    -0.248 NA
ATOM     65  C   UNL     1      -9.552  -2.518  11.657  1.00  0.00     0.031 C 
ATOM     66  C   UNL     1      -4.292  -1.380  11.486  1.00  0.00     0.029 A 
ATOM     67  C   UNL     1      -4.969  -2.187  12.382  1.00  0.00     0.049 A 
ATOM     68  H   UNL     1      -4.453  -4.087  13.097  1.00  0.00     0.167 HD
ATOM     69  C   UNL     1      -7.367  -2.236  12.360  1.00  0.00     0.074 A 
ATOM     70  C   UNL     1      -8.771  -2.255  12.719  1.00  0.00     0.031 C 
ATOM     71  C   UNL     1      -6.230  -2.100  13.095  1.00  0.00     0.037 A 
BRANCH  58  72
ATOM     72  C   UNL     1      -0.849  -4.607  11.992  1.00  0.00     0.064 A 
ATOM     73  C   UNL     1      -0.176  -3.438  12.421  1.00  0.00     0.173 A 
ATOM     74  C   UNL     1      -0.029  -5.751  11.940  1.00  0.00     0.173 A 
ATOM     75  F   UNL     1      -0.824  -2.277  12.593  1.00  0.00    -0.203 F 
ATOM     76  C   UNL     1       1.197  -3.406  12.693  1.00  0.00     0.198 A 
ATOM     77  C   UNL     1       1.345  -5.718  12.204  1.00  0.00     0.198 A 
ATOM     78  F   UNL     1      -0.504  -6.963  11.662  1.00  0.00    -0.203 F 
ATOM     79  F   UNL     1       1.773  -2.256  13.069  1.00  0.00    -0.200 F 
ATOM     80  C   UNL     1       1.962  -4.544  12.567  1.00  0.00     0.200 A 
ATOM     81  F   UNL     1       2.062  -6.847  12.099  1.00  0.00    -0.200 F 
ATOM     82  F   UNL     1       3.279  -4.514  12.807  1.00  0.00    -0.200 F 
ENDBRANCH  58  72
BRANCH  59  83
ATOM     83  C   UNL     1      -9.947  -4.168   8.886  1.00  0.00     0.064 A 
ATOM     84  C   UNL     1     -10.630  -4.072   7.659  1.00  0.00     0.173 A 
ATOM     85  C   UNL     1      -9.952  -5.404   9.543  1.00  0.00     0.173 A 
ATOM     86  F   UNL     1     -10.648  -2.907   6.992  1.00  0.00    -0.203 F 
ATOM     87  C   UNL     1     -11.176  -5.199   7.051  1.00  0.00     0.198 A 
ATOM     88  C   UNL     1     -10.514  -6.527   8.937  1.00  0.00     0.198 A 
ATOM     89  F   UNL     1      -9.305  -5.557  10.708  1.00  0.00    -0.203 F 
ATOM     90  F   UNL     1     -11.708  -5.105   5.824  1.00  0.00    -0.200 F 
ATOM     91  C   UNL     1     -11.088  -6.432   7.677  1.00  0.00     0.200 A 
ATOM     92  F   UNL     1     -10.408  -7.725   9.530  1.00  0.00    -0.200 F 
ATOM     93  F   UNL     1     -11.514  -7.536   7.048  1.00  0.00    -0.200 F 
ENDBRANCH  59  83
BRANCH  71  94
ATOM     94  C   UNL     1      -6.228  -1.888  14.575  1.00  0.00     0.064 A 
ATOM     95  C   UNL     1      -6.948  -0.848  15.177  1.00  0.00     0.173 A 
ATOM     96  C   UNL     1      -5.386  -2.646  15.414  1.00  0.00     0.173 A 
ATOM     97  F   UNL     1      -7.760  -0.069  14.447  1.00  0.00    -0.203 F 
ATOM     98  C   UNL     1      -6.831  -0.582  16.543  1.00  0.00     0.198 A 
ATOM     99  C   UNL     1      -5.235  -2.348  16.765  1.00  0.00     0.198 A 
ATOM    100  F   UNL     1      -4.709  -3.705  14.945  1.00  0.00    -0.203 F 
ATOM    101  F   UNL     1      -7.558   0.400  17.094  1.00  0.00    -0.200 F 
ATOM    102  C   UNL     1      -5.961  -1.318  17.331  1.00  0.00     0.200 A 
ATOM    103  F   UNL     1      -4.383  -3.064  17.513  1.00  0.00    -0.200 F 
ATOM    104  F   UNL     1      -5.827  -1.040  18.635  1.00  0.00    -0.200 F 
ENDBRANCH  71  94
ENDBRANCH  45  46
ENDBRANCH  37  40
ENDBRANCH  35  36
ENDBRANCH  34  35
ENDBRANCH  33  34
ENDBRANCH   1  33
TORSDOF 16
