REMARK SMILES C[C@H](C(=O)NCCCCCCNC(=O)c1ccc(-c2c3nc(c(-c4c(F)c(F)c(F)c(F)c4F)c4ccc([nH]4)c(-c4c(F)c(F)c(F)c(F)c4F)c4nc(c(-c5c(F)c(F)c(F)c(F)c5F)c5ccc2[nH]5)C=C4)C=C3)cc1)c1ccc2c3cc(Cl)ccc3n(C(=O)c3ccc(Cl)cc3)c2c1
REMARK SMILES IDX 8 1 7 2 6 3 5 4 3 5 4 6 2 8 1 9 78 10 79 11 100 12 80 13
REMARK SMILES IDX 99 14 81 15 89 16 82 17 88 18 83 19 87 20 84 21 86 22 85 23
REMARK SMILES IDX 90 24 91 25 92 26 93 27 98 28 94 29 97 30 95 31 96 32 9 33
REMARK SMILES IDX 10 34 11 35 12 36 13 37 14 39 15 40 16 41 77 42 17 43 76 44
REMARK SMILES IDX 18 45 19 46 20 47 70 48 21 49 75 50 69 51 71 52 22 53 74 54
REMARK SMILES IDX 68 55 67 56 23 58 55 59 35 60 54 61 36 62 39 63 53 64 72 65
REMARK SMILES IDX 37 66 38 67 52 69 73 70 40 71 24 72 25 73 33 74 26 75 27 76
REMARK SMILES IDX 31 77 34 78 28 79 29 80 32 81 30 82 56 83 57 84 65 85 58 86
REMARK SMILES IDX 59 87 63 88 66 89 60 90 61 91 64 92 62 93 41 94 42 95 50 96
REMARK SMILES IDX 43 97 44 98 48 99 51 100 45 101 46 102 49 103 47 104
REMARK H PARENT 5 7 12 38 71 57 39 68
REMARK Flexibility Score: inf
ROOT
ATOM      1  C   UNL     1      -1.403  -1.037   3.220  1.00  0.00     0.002 C 
ENDROOT
BRANCH   1   2
ATOM      2  C   UNL     1      -1.564  -0.379   1.847  1.00  0.00     0.021 C 
BRANCH   2   3
ATOM      3  C   UNL     1      -0.587   0.765   1.554  1.00  0.00     0.116 C 
BRANCH   3   4
ATOM      4  N   UNL     1       0.698   0.247   1.121  1.00  0.00    -0.356 N 
ATOM      5  C   UNL     1       1.263   0.109  -0.111  1.00  0.00     0.227 C 
ATOM      6  O   UNL     1       2.332  -0.515  -0.130  1.00  0.00    -0.274 OA
ATOM      7  H   UNL     1       1.271  -0.063   1.859  1.00  0.00     0.163 HD
BRANCH   5   8
ATOM      8  C   UNL     1       0.726   0.787  -1.391  1.00  0.00     0.105 C 
ATOM      9  C   UNL     1       1.400   0.158  -2.621  1.00  0.00     0.023 C 
BRANCH   8  10
ATOM     10  C   UNL     1      -0.778   0.776  -1.606  1.00  0.00    -0.034 A 
ATOM     11  C   UNL     1      -1.464   1.960  -1.883  1.00  0.00     0.005 A 
ATOM     12  C   UNL     1      -1.496  -0.420  -1.499  1.00  0.00     0.032 A 
ATOM     13  C   UNL     1      -2.861   1.976  -1.969  1.00  0.00     0.011 A 
ATOM     14  C   UNL     1      -2.905  -0.384  -1.454  1.00  0.00     0.057 A 
ATOM     15  C   UNL     1      -3.592   0.796  -1.710  1.00  0.00     0.008 A 
ATOM     16  N   UNL     1      -3.837  -1.391  -1.139  1.00  0.00    -0.276 N 
ATOM     17  C   UNL     1      -4.979   0.512  -1.600  1.00  0.00     0.009 A 
ATOM     18  C   UNL     1      -5.117  -0.812  -1.155  1.00  0.00     0.057 A 
ATOM     19  C   UNL     1      -6.124   1.323  -1.769  1.00  0.00     0.031 A 
ATOM     20  C   UNL     1      -6.384  -1.291  -0.759  1.00  0.00     0.029 A 
ATOM     21  C   UNL     1      -7.378   0.817  -1.441  1.00  0.00     0.041 A 
ATOM     22  C   UNL     1      -7.505  -0.464  -0.922  1.00  0.00     0.023 A 
ATOM     23  Cl  UNL     1      -8.770   1.808  -1.640  1.00  0.00    -0.084 Cl
BRANCH  16  24
ATOM     24  C   UNL     1      -3.453  -2.711  -0.768  1.00  0.00     0.262 C 
ATOM     25  O   UNL     1      -2.276  -2.866  -0.432  1.00  0.00    -0.268 OA
BRANCH  24  26
ATOM     26  C   UNL     1      -4.235  -3.968  -0.737  1.00  0.00     0.040 A 
ATOM     27  C   UNL     1      -3.751  -4.988   0.110  1.00  0.00     0.015 A 
ATOM     28  C   UNL     1      -5.267  -4.259  -1.630  1.00  0.00     0.015 A 
ATOM     29  C   UNL     1      -4.277  -6.277   0.059  1.00  0.00     0.021 A 
ATOM     30  C   UNL     1      -5.816  -5.550  -1.657  1.00  0.00     0.021 A 
ATOM     31  C   UNL     1      -5.309  -6.554  -0.828  1.00  0.00     0.041 A 
ATOM     32  Cl  UNL     1      -5.931  -8.153  -0.932  1.00  0.00    -0.084 Cl
ENDBRANCH  24  26
ENDBRANCH  16  24
ENDBRANCH   8  10
ENDBRANCH   5   8
ENDBRANCH   3   4
ENDBRANCH   2   3
ENDBRANCH   1   2
BRANCH   1  33
ATOM     33  C   UNL     1      -1.692  -0.127   4.415  1.00  0.00     0.002 C 
BRANCH  33  34
ATOM     34  C   UNL     1      -3.057   0.566   4.396  1.00  0.00     0.021 C 
BRANCH  34  35
ATOM     35  C   UNL     1      -4.258  -0.377   4.346  1.00  0.00     0.116 C 
BRANCH  35  36
ATOM     36  N   UNL     1      -4.332  -1.228   5.523  1.00  0.00    -0.352 N 
ATOM     37  C   UNL     1      -5.328  -1.355   6.457  1.00  0.00     0.251 C 
ATOM     38  H   UNL     1      -3.545  -1.801   5.672  1.00  0.00     0.163 HD
ATOM     39  O   UNL     1      -5.113  -1.964   7.501  1.00  0.00    -0.269 OA
BRANCH  37  40
ATOM     40  C   UNL     1      -6.664  -0.766   6.219  1.00  0.00     0.039 A 
ATOM     41  C   UNL     1      -7.330  -0.157   7.286  1.00  0.00     0.014 A 
ATOM     42  C   UNL     1      -7.289  -0.868   4.972  1.00  0.00     0.014 A 
ATOM     43  C   UNL     1      -8.606   0.378   7.096  1.00  0.00     0.010 A 
ATOM     44  C   UNL     1      -8.532  -0.273   4.766  1.00  0.00     0.010 A 
ATOM     45  C   UNL     1      -9.211   0.339   5.830  1.00  0.00    -0.014 A 
BRANCH  45  46
ATOM     46  C   UNL     1     -10.569   0.898   5.614  1.00  0.00     0.031 A 
ATOM     47  C   UNL     1     -11.713  -0.012   5.257  1.00  0.00     0.074 A 
ATOM     48  C   UNL     1     -10.766   2.228   5.696  1.00  0.00     0.049 A 
ATOM     49  N   UNL     1     -12.961   0.286   4.996  1.00  0.00    -0.248 NA
ATOM     50  C   UNL     1     -11.406  -1.447   5.153  1.00  0.00     0.031 C 
ATOM     51  C   UNL     1      -9.730   3.218   5.992  1.00  0.00     0.029 A 
ATOM     52  N   UNL     1     -11.905   2.976   5.533  1.00  0.00    -0.354 N 
ATOM     53  C   UNL     1     -13.578  -0.916   4.676  1.00  0.00     0.074 A 
ATOM     54  C   UNL     1     -12.559  -1.942   4.727  1.00  0.00     0.031 C 
ATOM     55  C   UNL     1     -10.286   4.440   6.021  1.00  0.00     0.029 A 
ATOM     56  C   UNL     1     -11.709   4.323   5.713  1.00  0.00     0.049 A 
ATOM     57  H   UNL     1     -12.779   2.584   5.308  1.00  0.00     0.167 HD
ATOM     58  C   UNL     1     -14.882  -1.148   4.389  1.00  0.00     0.037 A 
ATOM     59  C   UNL     1     -12.581   5.346   5.641  1.00  0.00     0.037 A 
ATOM     60  C   UNL     1     -15.900  -0.131   4.378  1.00  0.00     0.049 A 
ATOM     61  C   UNL     1     -14.025   5.060   5.331  1.00  0.00     0.074 A 
ATOM     62  C   UNL     1     -17.262  -0.274   4.174  1.00  0.00     0.029 A 
ATOM     63  N   UNL     1     -15.666   1.221   4.581  1.00  0.00    -0.354 N 
ATOM     64  N   UNL     1     -14.613   3.910   5.106  1.00  0.00    -0.248 NA
ATOM     65  C   UNL     1     -14.930   6.217   5.275  1.00  0.00     0.031 C 
ATOM     66  C   UNL     1     -17.845   0.998   4.207  1.00  0.00     0.029 A 
ATOM     67  C   UNL     1     -16.855   1.927   4.484  1.00  0.00     0.049 A 
ATOM     68  H   UNL     1     -14.786   1.621   4.766  1.00  0.00     0.167 HD
ATOM     69  C   UNL     1     -15.958   4.199   4.918  1.00  0.00     0.074 A 
ATOM     70  C   UNL     1     -16.101   5.633   5.066  1.00  0.00     0.031 C 
ATOM     71  C   UNL     1     -16.983   3.353   4.648  1.00  0.00     0.037 A 
BRANCH  58  72
ATOM     72  C   UNL     1     -15.281  -2.558   4.059  1.00  0.00     0.064 A 
ATOM     73  C   UNL     1     -15.285  -3.572   5.030  1.00  0.00     0.173 A 
ATOM     74  C   UNL     1     -15.689  -2.896   2.760  1.00  0.00     0.173 A 
ATOM     75  F   UNL     1     -14.892  -3.307   6.285  1.00  0.00    -0.203 F 
ATOM     76  C   UNL     1     -15.648  -4.877   4.704  1.00  0.00     0.198 A 
ATOM     77  C   UNL     1     -16.083  -4.194   2.445  1.00  0.00     0.198 A 
ATOM     78  F   UNL     1     -15.710  -1.965   1.794  1.00  0.00    -0.203 F 
ATOM     79  F   UNL     1     -15.589  -5.839   5.634  1.00  0.00    -0.200 F 
ATOM     80  C   UNL     1     -16.053  -5.185   3.414  1.00  0.00     0.200 A 
ATOM     81  F   UNL     1     -16.485  -4.487   1.200  1.00  0.00    -0.200 F 
ATOM     82  F   UNL     1     -16.405  -6.440   3.102  1.00  0.00    -0.200 F 
ENDBRANCH  58  72
BRANCH  59  83
ATOM     83  C   UNL     1     -12.123   6.733   5.915  1.00  0.00     0.064 A 
ATOM     84  C   UNL     1     -12.527   7.403   7.078  1.00  0.00     0.173 A 
ATOM     85  C   UNL     1     -11.282   7.417   5.026  1.00  0.00     0.173 A 
ATOM     86  F   UNL     1     -13.348   6.797   7.948  1.00  0.00    -0.203 F 
ATOM     87  C   UNL     1     -12.125   8.713   7.332  1.00  0.00     0.198 A 
ATOM     88  C   UNL     1     -10.858   8.717   5.294  1.00  0.00     0.198 A 
ATOM     89  F   UNL     1     -10.862   6.818   3.902  1.00  0.00    -0.203 F 
ATOM     90  F   UNL     1     -12.563   9.345   8.429  1.00  0.00    -0.200 F 
ATOM     91  C   UNL     1     -11.286   9.367   6.442  1.00  0.00     0.200 A 
ATOM     92  F   UNL     1     -10.036   9.341   4.439  1.00  0.00    -0.200 F 
ATOM     93  F   UNL     1     -10.897  10.625   6.688  1.00  0.00    -0.200 F 
ENDBRANCH  59  83
BRANCH  71  94
ATOM     94  C   UNL     1     -18.356   3.950   4.544  1.00  0.00     0.064 A 
ATOM     95  C   UNL     1     -18.735   4.747   3.454  1.00  0.00     0.173 A 
ATOM     96  C   UNL     1     -19.315   3.695   5.537  1.00  0.00     0.173 A 
ATOM     97  F   UNL     1     -17.850   5.032   2.487  1.00  0.00    -0.203 F 
ATOM     98  C   UNL     1     -20.014   5.291   3.377  1.00  0.00     0.198 A 
ATOM     99  C   UNL     1     -20.602   4.215   5.440  1.00  0.00     0.198 A 
ATOM    100  F   UNL     1     -19.006   2.932   6.596  1.00  0.00    -0.203 F 
ATOM    101  F   UNL     1     -20.338   6.093   2.353  1.00  0.00    -0.200 F 
ATOM    102  C   UNL     1     -20.948   5.020   4.366  1.00  0.00     0.200 A 
ATOM    103  F   UNL     1     -21.508   3.940   6.390  1.00  0.00    -0.200 F 
ATOM    104  F   UNL     1     -22.180   5.541   4.287  1.00  0.00    -0.200 F 
ENDBRANCH  71  94
ENDBRANCH  45  46
ENDBRANCH  37  40
ENDBRANCH  35  36
ENDBRANCH  34  35
ENDBRANCH  33  34
ENDBRANCH   1  33
TORSDOF 16
