REMARK SMILES CC1CCN(S(=O)(=O)c2ccc3c(ccn3CC(=O)NCCCCCCNC(=O)c3ccc(-c4c5nc(c(-c6c(F)c(F)c(F)c(F)c6F)c6ccc([nH]6)c(-c6c(F)c(F)c(F)c(F)c6F)c6nc(c(-c7c(F)c(F)c(F)c(F)c7F)c7ccc4[nH]7)C=C6)C=C5)cc3)c2)CC1
REMARK SMILES IDX 23 1 22 2 21 3 20 4 18 5 19 6 17 8 16 9 9 10 10 11 93 12
REMARK SMILES IDX 11 13 13 14 12 15 14 16 15 17 6 18 7 19 8 20 5 21 1 22 2 23
REMARK SMILES IDX 3 24 95 25 4 26 94 27 24 28 25 29 26 30 27 31 28 32 29 34
REMARK SMILES IDX 30 35 31 36 92 37 32 38 91 39 33 40 34 41 35 42 85 43 36 44
REMARK SMILES IDX 90 45 84 46 86 47 37 48 89 49 83 50 82 51 38 53 70 54 50 55
REMARK SMILES IDX 69 56 51 57 54 58 68 59 87 60 52 61 53 62 67 64 88 65 55 66
REMARK SMILES IDX 39 67 40 68 48 69 41 70 42 71 46 72 49 73 43 74 44 75 47 76
REMARK SMILES IDX 45 77 71 78 72 79 80 80 73 81 74 82 78 83 81 84 75 85 76 86
REMARK SMILES IDX 79 87 77 88 56 89 57 90 65 91 58 92 59 93 63 94 66 95 60 96
REMARK SMILES IDX 61 97 64 98 62 99
REMARK H PARENT 20 7 27 33 86 52 54 63
REMARK Flexibility Score: inf
ROOT
ATOM      1  C   UNL     1       1.978  -4.576  -8.265  1.00  0.00     0.002 C 
ENDROOT
BRANCH   1   2
ATOM      2  C   UNL     1       2.388  -4.326  -6.809  1.00  0.00     0.021 C 
BRANCH   2   3
ATOM      3  C   UNL     1       2.380  -5.589  -5.948  1.00  0.00     0.116 C 
BRANCH   3   4
ATOM      4  N   UNL     1       3.520  -6.438  -6.231  1.00  0.00    -0.355 N 
ATOM      5  C   UNL     1       4.655  -6.630  -5.494  1.00  0.00     0.239 C 
ATOM      6  O   UNL     1       5.531  -7.364  -5.959  1.00  0.00    -0.273 OA
ATOM      7  H   UNL     1       3.470  -6.948  -7.071  1.00  0.00     0.163 HD
BRANCH   5   8
ATOM      8  C   UNL     1       4.796  -6.024  -4.112  1.00  0.00     0.222 C 
BRANCH   8   9
ATOM      9  N   UNL     1       4.946  -4.575  -4.120  1.00  0.00    -0.338 N 
ATOM     10  C   UNL     1       2.690  -1.447  -2.632  1.00  0.00     0.083 A 
ATOM     11  C   UNL     1       2.175  -2.727  -2.428  1.00  0.00     0.024 A 
ATOM     12  C   UNL     1       3.901  -1.261  -3.311  1.00  0.00     0.032 A 
ATOM     13  C   UNL     1       2.902  -3.856  -2.798  1.00  0.00     0.028 A 
ATOM     14  C   UNL     1       4.598  -2.391  -3.786  1.00  0.00     0.001 A 
ATOM     15  C   UNL     1       4.094  -3.668  -3.515  1.00  0.00     0.049 A 
ATOM     16  C   UNL     1       5.778  -2.560  -4.559  1.00  0.00     0.028 A 
ATOM     17  C   UNL     1       5.973  -3.910  -4.740  1.00  0.00     0.087 A 
BRANCH  10  18
ATOM     18  S   UNL     1       1.699  -0.036  -2.196  1.00  0.00     0.243 S 
ATOM     19  O   UNL     1       0.377  -0.284  -2.724  1.00  0.00    -0.207 OA
ATOM     20  O   UNL     1       2.432   1.151  -2.602  1.00  0.00    -0.207 OA
BRANCH  18  21
ATOM     21  N   UNL     1       1.632  -0.013  -0.480  1.00  0.00    -0.198 NA
ATOM     22  C   UNL     1      -2.610   0.034   0.005  1.00  0.00     0.008 C 
ATOM     23  C   UNL     1      -1.151   0.058   0.466  1.00  0.00    -0.012 C 
ATOM     24  C   UNL     1      -0.439   1.307  -0.085  1.00  0.00     0.020 C 
ATOM     25  C   UNL     1      -0.451  -1.252   0.074  1.00  0.00     0.020 C 
ATOM     26  C   UNL     1       1.078   1.253   0.085  1.00  0.00     0.103 C 
ATOM     27  C   UNL     1       1.058  -1.165   0.259  1.00  0.00     0.103 C 
ENDBRANCH  18  21
ENDBRANCH  10  18
ENDBRANCH   8   9
ENDBRANCH   5   8
ENDBRANCH   3   4
ENDBRANCH   2   3
ENDBRANCH   1   2
BRANCH   1  28
ATOM     28  C   UNL     1       0.556  -5.119  -8.455  1.00  0.00     0.002 C 
BRANCH  28  29
ATOM     29  C   UNL     1      -0.569  -4.249  -7.875  1.00  0.00     0.021 C 
BRANCH  29  30
ATOM     30  C   UNL     1      -0.615  -2.824  -8.429  1.00  0.00     0.116 C 
BRANCH  30  31
ATOM     31  N   UNL     1      -0.687  -2.776  -9.875  1.00  0.00    -0.352 N 
ATOM     32  C   UNL     1      -1.684  -2.791 -10.805  1.00  0.00     0.251 C 
ATOM     33  H   UNL     1       0.204  -2.717 -10.288  1.00  0.00     0.163 HD
ATOM     34  O   UNL     1      -1.326  -2.650 -11.978  1.00  0.00    -0.269 OA
BRANCH  32  35
ATOM     35  C   UNL     1      -3.130  -3.022 -10.532  1.00  0.00     0.039 A 
ATOM     36  C   UNL     1      -3.715  -3.189  -9.277  1.00  0.00     0.014 A 
ATOM     37  C   UNL     1      -3.950  -3.133 -11.674  1.00  0.00     0.014 A 
ATOM     38  C   UNL     1      -5.056  -3.556  -9.173  1.00  0.00     0.010 A 
ATOM     39  C   UNL     1      -5.290  -3.487 -11.575  1.00  0.00     0.010 A 
ATOM     40  C   UNL     1      -5.829  -3.751 -10.324  1.00  0.00    -0.014 A 
BRANCH  40  41
ATOM     41  C   UNL     1      -7.231  -4.132 -10.164  1.00  0.00     0.031 A 
ATOM     42  C   UNL     1      -8.058  -3.143  -9.417  1.00  0.00     0.074 A 
ATOM     43  C   UNL     1      -7.780  -5.232 -10.722  1.00  0.00     0.049 A 
ATOM     44  N   UNL     1      -8.670  -3.309  -8.289  1.00  0.00    -0.248 NA
ATOM     45  C   UNL     1      -8.123  -1.768  -9.936  1.00  0.00     0.031 C 
ATOM     46  C   UNL     1      -7.181  -6.149 -11.695  1.00  0.00     0.029 A 
ATOM     47  N   UNL     1      -9.048  -5.721 -10.588  1.00  0.00    -0.354 N 
ATOM     48  C   UNL     1      -9.337  -2.113  -8.033  1.00  0.00     0.074 A 
ATOM     49  C   UNL     1      -8.861  -1.162  -9.003  1.00  0.00     0.031 C 
ATOM     50  C   UNL     1      -8.146  -6.936 -12.225  1.00  0.00     0.029 A 
ATOM     51  C   UNL     1      -9.396  -6.683 -11.530  1.00  0.00     0.049 A 
ATOM     52  H   UNL     1      -9.665  -5.418  -9.884  1.00  0.00     0.167 HD
ATOM     53  C   UNL     1     -10.391  -2.062  -7.173  1.00  0.00     0.037 A 
ATOM     54  C   UNL     1     -10.634  -7.196 -11.752  1.00  0.00     0.037 A 
ATOM     55  C   UNL     1     -10.403  -3.195  -6.288  1.00  0.00     0.049 A 
ATOM     56  C   UNL     1     -11.438  -6.954 -10.530  1.00  0.00     0.074 A 
ATOM     57  C   UNL     1      -9.544  -3.686  -5.325  1.00  0.00     0.029 A 
ATOM     58  N   UNL     1     -11.274  -4.217  -6.567  1.00  0.00    -0.354 N 
ATOM     59  N   UNL     1     -11.218  -7.535  -9.384  1.00  0.00    -0.248 NA
ATOM     60  C   UNL     1     -12.226  -5.733 -10.476  1.00  0.00     0.031 C 
ATOM     61  C   UNL     1      -9.633  -5.103  -5.442  1.00  0.00     0.029 A 
ATOM     62  C   UNL     1     -10.583  -5.390  -6.424  1.00  0.00     0.049 A 
ATOM     63  H   UNL     1     -12.220  -4.124  -6.823  1.00  0.00     0.167 HD
ATOM     64  C   UNL     1     -11.454  -6.546  -8.444  1.00  0.00     0.074 A 
ATOM     65  C   UNL     1     -12.155  -5.488  -9.166  1.00  0.00     0.031 C 
ATOM     66  C   UNL     1     -10.812  -6.556  -7.241  1.00  0.00     0.037 A 
BRANCH  53  67
ATOM     67  C   UNL     1     -11.614  -1.202  -7.380  1.00  0.00     0.064 A 
ATOM     68  C   UNL     1     -12.594  -1.142  -6.367  1.00  0.00     0.173 A 
ATOM     69  C   UNL     1     -12.011  -0.708  -8.641  1.00  0.00     0.173 A 
ATOM     70  F   UNL     1     -12.334  -1.607  -5.136  1.00  0.00    -0.203 F 
ATOM     71  C   UNL     1     -13.896  -0.703  -6.625  1.00  0.00     0.198 A 
ATOM     72  C   UNL     1     -13.294  -0.221  -8.880  1.00  0.00     0.198 A 
ATOM     73  F   UNL     1     -11.220  -0.786  -9.717  1.00  0.00    -0.203 F 
ATOM     74  F   UNL     1     -14.829  -0.792  -5.668  1.00  0.00    -0.200 F 
ATOM     75  C   UNL     1     -14.246  -0.250  -7.883  1.00  0.00     0.200 A 
ATOM     76  F   UNL     1     -13.622   0.192 -10.112  1.00  0.00    -0.200 F 
ATOM     77  F   UNL     1     -15.509   0.108  -8.151  1.00  0.00    -0.200 F 
ENDBRANCH  53  67
BRANCH  54  78
ATOM     78  C   UNL     1     -11.268  -7.567 -13.043  1.00  0.00     0.064 A 
ATOM     79  C   UNL     1     -12.460  -8.313 -13.080  1.00  0.00     0.173 A 
ATOM     80  C   UNL     1     -10.889  -6.943 -14.248  1.00  0.00     0.173 A 
ATOM     81  F   UNL     1     -12.921  -8.903 -11.967  1.00  0.00    -0.203 F 
ATOM     82  C   UNL     1     -13.239  -8.401 -14.239  1.00  0.00     0.198 A 
ATOM     83  C   UNL     1     -11.664  -7.036 -15.405  1.00  0.00     0.198 A 
ATOM     84  F   UNL     1      -9.812  -6.147 -14.300  1.00  0.00    -0.203 F 
ATOM     85  F   UNL     1     -14.405  -9.064 -14.215  1.00  0.00    -0.200 F 
ATOM     86  C   UNL     1     -12.847  -7.752 -15.398  1.00  0.00     0.200 A 
ATOM     87  F   UNL     1     -11.293  -6.371 -16.509  1.00  0.00    -0.200 F 
ATOM     88  F   UNL     1     -13.626  -7.777 -16.488  1.00  0.00    -0.200 F 
ENDBRANCH  54  78
BRANCH  66  89
ATOM     89  C   UNL     1     -10.071  -7.798  -6.838  1.00  0.00     0.064 A 
ATOM     90  C   UNL     1      -8.922  -8.274  -7.492  1.00  0.00     0.173 A 
ATOM     91  C   UNL     1     -10.423  -8.399  -5.622  1.00  0.00     0.173 A 
ATOM     92  F   UNL     1      -8.475  -7.695  -8.614  1.00  0.00    -0.203 F 
ATOM     93  C   UNL     1      -8.165  -9.312  -6.950  1.00  0.00     0.198 A 
ATOM     94  C   UNL     1      -9.646  -9.411  -5.067  1.00  0.00     0.198 A 
ATOM     95  F   UNL     1     -11.484  -7.950  -4.934  1.00  0.00    -0.203 F 
ATOM     96  F   UNL     1      -7.062  -9.742  -7.581  1.00  0.00    -0.200 F 
ATOM     97  C   UNL     1      -8.520  -9.868  -5.731  1.00  0.00     0.200 A 
ATOM     98  F   UNL     1      -9.964  -9.909  -3.865  1.00  0.00    -0.200 F 
ATOM     99  F   UNL     1      -7.755 -10.820  -5.177  1.00  0.00    -0.200 F 
ENDBRANCH  66  89
ENDBRANCH  40  41
ENDBRANCH  32  35
ENDBRANCH  30  31
ENDBRANCH  29  30
ENDBRANCH  28  29
ENDBRANCH   1  28
TORSDOF 16
