REMARK SMILES C=C1C(=O)O[C@@H]2[C@H]1[C@H](OC(=O)[C@]1(C)O[C@@H]1C)[C@H](OC(C)=O)/C(C(=O)NCCCCCCNC(=O)c1ccc(-c3c4nc(c(-c5c(F)c(F)c(F)c(F)c5F)c5ccc([nH]5)c(-c5c(F)c(F)c(F)c(F)c5F)c5nc(c(-c6c(F)c(F)c(F)c(F)c6F)c6ccc3[nH]6)C=C5)C=C4)cc1)=C\[C@H]1O[C@H]1[C@@]1(C)O[C@@H]21
REMARK SMILES IDX 27 1 26 2 25 3 23 4 24 5 22 7 98 8 99 9 101 10 100 11 102 12
REMARK SMILES IDX 105 13 104 14 103 15 6 16 1 17 2 18 3 19 7 20 4 21 5 22
REMARK SMILES IDX 17 24 8 25 9 27 10 28 11 29 12 30 14 31 15 32 13 33 16 34
REMARK SMILES IDX 18 35 19 36 20 37 21 38 28 39 29 40 30 41 31 42 32 43 33 44
REMARK SMILES IDX 34 46 35 47 36 48 97 49 37 50 96 51 38 52 39 53 40 54 90 55
REMARK SMILES IDX 41 56 95 57 89 58 91 59 42 60 94 61 88 62 87 63 43 65 75 66
REMARK SMILES IDX 55 67 74 68 56 69 59 70 73 71 92 72 57 73 58 74 72 76 93 77
REMARK SMILES IDX 60 78 44 79 45 80 53 81 46 82 47 83 51 84 54 85 48 86 49 87
REMARK SMILES IDX 52 88 50 89 76 90 77 91 85 92 78 93 79 94 83 95 86 96 80 97
REMARK SMILES IDX 81 98 84 99 82 100 61 101 62 102 70 103 63 104 64 105 68 106
REMARK SMILES IDX 71 107 65 108 66 109 69 110 67 111
REMARK H PARENT 25 6 32 45 91 64 59 75
REMARK Flexibility Score: 90.00
ROOT
ATOM      1  C   UNL     1       3.737   0.190   0.874  1.00  0.00     0.021 C 
ENDROOT
BRANCH   1   2
ATOM      2  C   UNL     1       3.981   1.694   0.853  1.00  0.00     0.116 C 
BRANCH   2   3
ATOM      3  N   UNL     1       3.002   2.455   0.095  1.00  0.00    -0.352 N 
ATOM      4  C   UNL     1       3.073   3.784  -0.237  1.00  0.00     0.250 C 
ATOM      5  O   UNL     1       2.177   4.357  -0.843  1.00  0.00    -0.270 OA
ATOM      6  H   UNL     1       2.204   1.966  -0.211  1.00  0.00     0.163 HD
BRANCH   4   7
ATOM      7  C   UNL     1       4.301   4.505   0.170  1.00  0.00     0.060 C 
ATOM      8  C   UNL     1       4.397   4.897   1.455  1.00  0.00     0.020 C 
BRANCH   8   9
ATOM      9  C   UNL     1       5.587   5.334   2.200  1.00  0.00     0.174 C 
ATOM     10  C   UNL     1       6.586   6.410   1.784  1.00  0.00     0.186 C 
ATOM     11  O   UNL     1       6.909   5.013   1.749  1.00  0.00    -0.362 OA
BRANCH  10  12
ATOM     12  C   UNL     1       7.039   7.308   0.569  1.00  0.00     0.125 C 
ATOM     13  C   UNL     1       7.388   7.315  -1.026  1.00  0.00     0.195 C 
ATOM     14  O   UNL     1       8.313   6.978   0.025  1.00  0.00    -0.359 OA
ATOM     15  C   UNL     1       7.085   8.739   1.133  1.00  0.00     0.048 C 
BRANCH  13  16
ATOM     16  C   UNL     1       7.548   6.317  -2.170  1.00  0.00     0.220 C 
ATOM     17  C   UNL     1       5.408   6.087  -5.187  1.00  0.00     0.021 C 
ATOM     18  C   UNL     1       6.316   6.266  -4.219  1.00  0.00     0.041 C 
ATOM     19  C   UNL     1       7.567   7.025  -4.409  1.00  0.00     0.334 C 
ATOM     20  C   UNL     1       6.344   5.656  -2.869  1.00  0.00     0.115 CG0
ATOM     21  O   UNL     1       7.925   7.574  -5.425  1.00  0.00    -0.247 OA
ATOM     22  O   UNL     1       8.260   6.995  -3.239  1.00  0.00    -0.455 OA
ATOM     23  G   UNL     1       5.041   5.574  -2.056  1.00  0.00     0.000 G0
ENDBRANCH  13  16
ENDBRANCH  10  12
ENDBRANCH   8   9
BRANCH   7  24
ATOM     24  C   UNL     1       5.372   4.631  -0.859  1.00  0.00     0.253 C 
BRANCH  24  25
ATOM     25  C   UNL     1       5.041   5.574  -2.056  1.00  0.00     0.233 CG0
ATOM     26  G   UNL     1       6.344   5.656  -2.869  1.00  0.00     0.000 G0
BRANCH  25  27
ATOM     27  O   UNL     1       4.718   6.926  -1.641  1.00  0.00    -0.455 OA
BRANCH  27  28
ATOM     28  C   UNL     1       3.993   7.695  -2.521  1.00  0.00     0.341 C 
ATOM     29  O   UNL     1       3.239   7.253  -3.373  1.00  0.00    -0.249 OA
BRANCH  28  30
ATOM     30  C   UNL     1       4.388   9.143  -2.434  1.00  0.00     0.188 C 
ATOM     31  O   UNL     1       3.571  10.086  -3.153  1.00  0.00    -0.354 OA
ATOM     32  C   UNL     1       4.872   9.880  -3.702  1.00  0.00     0.160 C 
ATOM     33  C   UNL     1       4.797   9.727  -1.111  1.00  0.00     0.058 C 
ATOM     34  C   UNL     1       4.791   9.442  -5.122  1.00  0.00     0.042 C 
ENDBRANCH  28  30
ENDBRANCH  27  28
ENDBRANCH  25  27
ENDBRANCH  24  25
BRANCH  24  35
ATOM     35  O   UNL     1       5.729   3.311  -1.355  1.00  0.00    -0.453 OA
BRANCH  35  36
ATOM     36  C   UNL     1       6.994   2.828  -1.438  1.00  0.00     0.303 C 
ATOM     37  C   UNL     1       7.992   3.190  -0.382  1.00  0.00     0.139 C 
ATOM     38  O   UNL     1       7.291   2.043  -2.334  1.00  0.00    -0.253 OA
ENDBRANCH  35  36
ENDBRANCH  24  35
ENDBRANCH   7  24
ENDBRANCH   4   7
ENDBRANCH   2   3
ENDBRANCH   1   2
BRANCH   1  39
ATOM     39  C   UNL     1       3.898  -0.546  -0.460  1.00  0.00     0.002 C 
BRANCH  39  40
ATOM     40  C   UNL     1       5.223  -0.379  -1.206  1.00  0.00     0.002 C 
BRANCH  40  41
ATOM     41  C   UNL     1       6.515  -0.610  -0.418  1.00  0.00     0.021 C 
BRANCH  41  42
ATOM     42  C   UNL     1       6.600  -1.904   0.380  1.00  0.00     0.116 C 
BRANCH  42  43
ATOM     43  N   UNL     1       6.393  -3.103  -0.409  1.00  0.00    -0.352 N 
ATOM     44  C   UNL     1       6.897  -4.364  -0.205  1.00  0.00     0.251 C 
ATOM     45  H   UNL     1       5.813  -2.998  -1.198  1.00  0.00     0.163 HD
ATOM     46  O   UNL     1       6.659  -5.263  -1.006  1.00  0.00    -0.269 OA
BRANCH  44  47
ATOM     47  C   UNL     1       7.769  -4.636   0.961  1.00  0.00     0.039 A 
ATOM     48  C   UNL     1       8.945  -5.362   0.755  1.00  0.00     0.014 A 
ATOM     49  C   UNL     1       7.440  -4.190   2.244  1.00  0.00     0.014 A 
ATOM     50  C   UNL     1       9.817  -5.594   1.821  1.00  0.00     0.010 A 
ATOM     51  C   UNL     1       8.340  -4.365   3.294  1.00  0.00     0.010 A 
ATOM     52  C   UNL     1       9.535  -5.072   3.093  1.00  0.00    -0.014 A 
BRANCH  52  53
ATOM     53  C   UNL     1      10.473  -5.271   4.226  1.00  0.00     0.031 A 
ATOM     54  C   UNL     1      10.066  -6.109   5.404  1.00  0.00     0.074 A 
ATOM     55  C   UNL     1      11.670  -4.655   4.214  1.00  0.00     0.049 A 
ATOM     56  N   UNL     1      10.722  -6.360   6.510  1.00  0.00    -0.248 NA
ATOM     57  C   UNL     1       8.732  -6.726   5.346  1.00  0.00     0.031 C 
ATOM     58  C   UNL     1      12.160  -3.781   3.147  1.00  0.00     0.029 A 
ATOM     59  N   UNL     1      12.691  -4.664   5.131  1.00  0.00    -0.354 N 
ATOM     60  C   UNL     1       9.878  -7.150   7.278  1.00  0.00     0.074 A 
ATOM     61  C   UNL     1       8.642  -7.293   6.539  1.00  0.00     0.031 C 
ATOM     62  C   UNL     1      13.396  -3.358   3.458  1.00  0.00     0.029 A 
ATOM     63  C   UNL     1      13.773  -3.905   4.759  1.00  0.00     0.049 A 
ATOM     64  H   UNL     1      12.651  -5.167   5.977  1.00  0.00     0.167 HD
ATOM     65  C   UNL     1      10.121  -7.725   8.481  1.00  0.00     0.037 A 
ATOM     66  C   UNL     1      14.937  -3.677   5.396  1.00  0.00     0.037 A 
ATOM     67  C   UNL     1      11.362  -7.603   9.199  1.00  0.00     0.049 A 
ATOM     68  C   UNL     1      15.184  -4.330   6.729  1.00  0.00     0.074 A 
ATOM     69  C   UNL     1      11.729  -8.191  10.397  1.00  0.00     0.029 A 
ATOM     70  N   UNL     1      12.442  -6.839   8.781  1.00  0.00    -0.354 N 
ATOM     71  N   UNL     1      14.402  -5.125   7.418  1.00  0.00    -0.248 NA
ATOM     72  C   UNL     1      16.479  -4.058   7.369  1.00  0.00     0.031 C 
ATOM     73  C   UNL     1      13.017  -7.752  10.723  1.00  0.00     0.029 A 
ATOM     74  C   UNL     1      13.470  -6.926   9.707  1.00  0.00     0.049 A 
ATOM     75  H   UNL     1      12.474  -6.313   7.949  1.00  0.00     0.167 HD
ATOM     76  C   UNL     1      15.118  -5.471   8.556  1.00  0.00     0.074 A 
ATOM     77  C   UNL     1      16.402  -4.809   8.459  1.00  0.00     0.031 C 
ATOM     78  C   UNL     1      14.745  -6.266   9.588  1.00  0.00     0.037 A 
BRANCH  65  79
ATOM     79  C   UNL     1       9.020  -8.543   9.091  1.00  0.00     0.064 A 
ATOM     80  C   UNL     1       8.639  -9.781   8.551  1.00  0.00     0.173 A 
ATOM     81  C   UNL     1       8.354  -8.097  10.242  1.00  0.00     0.173 A 
ATOM     82  F   UNL     1       9.236 -10.247   7.444  1.00  0.00    -0.203 F 
ATOM     83  C   UNL     1       7.610 -10.526   9.121  1.00  0.00     0.198 A 
ATOM     84  C   UNL     1       7.346  -8.859  10.828  1.00  0.00     0.198 A 
ATOM     85  F   UNL     1       8.682  -6.923  10.802  1.00  0.00    -0.203 F 
ATOM     86  F   UNL     1       7.228 -11.680   8.556  1.00  0.00    -0.200 F 
ATOM     87  C   UNL     1       6.969 -10.068  10.262  1.00  0.00     0.200 A 
ATOM     88  F   UNL     1       6.734  -8.420  11.936  1.00  0.00    -0.200 F 
ATOM     89  F   UNL     1       5.981 -10.787  10.812  1.00  0.00    -0.200 F 
ENDBRANCH  65  79
BRANCH  66  90
ATOM     90  C   UNL     1      15.972  -2.820   4.763  1.00  0.00     0.064 A 
ATOM     91  C   UNL     1      17.160  -3.377   4.269  1.00  0.00     0.173 A 
ATOM     92  C   UNL     1      15.798  -1.434   4.637  1.00  0.00     0.173 A 
ATOM     93  F   UNL     1      17.380  -4.694   4.385  1.00  0.00    -0.203 F 
ATOM     94  C   UNL     1      18.142  -2.578   3.687  1.00  0.00     0.198 A 
ATOM     95  C   UNL     1      16.770  -0.640   4.032  1.00  0.00     0.198 A 
ATOM     96  F   UNL     1      14.678  -0.854   5.091  1.00  0.00    -0.203 F 
ATOM     97  F   UNL     1      19.286  -3.130   3.260  1.00  0.00    -0.200 F 
ATOM     98  C   UNL     1      17.944  -1.211   3.564  1.00  0.00     0.200 A 
ATOM     99  F   UNL     1      16.570   0.679   3.905  1.00  0.00    -0.200 F 
ATOM    100  F   UNL     1      18.887  -0.443   3.002  1.00  0.00    -0.200 F 
ENDBRANCH  66  90
BRANCH  78 101
ATOM    101  C   UNL     1      15.749  -6.489  10.680  1.00  0.00     0.064 A 
ATOM    102  C   UNL     1      16.064  -5.484  11.605  1.00  0.00     0.173 A 
ATOM    103  C   UNL     1      16.373  -7.738  10.824  1.00  0.00     0.173 A 
ATOM    104  F   UNL     1      15.504  -4.270  11.499  1.00  0.00    -0.203 F 
ATOM    105  C   UNL     1      16.985  -5.714  12.624  1.00  0.00     0.198 A 
ATOM    106  C   UNL     1      17.273  -7.972  11.860  1.00  0.00     0.198 A 
ATOM    107  F   UNL     1      16.101  -8.733   9.967  1.00  0.00    -0.203 F 
ATOM    108  F   UNL     1      17.304  -4.726  13.471  1.00  0.00    -0.200 F 
ATOM    109  C   UNL     1      17.583  -6.959  12.755  1.00  0.00     0.200 A 
ATOM    110  F   UNL     1      17.841  -9.179  11.992  1.00  0.00    -0.200 F 
ATOM    111  F   UNL     1      18.464  -7.180  13.740  1.00  0.00    -0.200 F 
ENDBRANCH  78 101
ENDBRANCH  52  53
ENDBRANCH  44  47
ENDBRANCH  42  43
ENDBRANCH  41  42
ENDBRANCH  40  41
ENDBRANCH  39  40
ENDBRANCH   1  39
TORSDOF 18
