REMARK SMILES CCC[NH2+][C@]1(C(=O)NCCCCCCNC(=O)c2ccc(-c3c4nc(c(-c5c(F)c(F)c(F)c(F)c5F)c5ccc([nH]5)c(-c5c(F)c(F)c(F)c(F)c5F)c5nc(c(-c6c(F)c(F)c(F)c(F)c6F)c6ccc3[nH]6)C=C5)C=C4)cc2)CCC[C@H]([N@@H+]2CCOC(C)(C)C2)C1
REMARK SMILES IDX 11 1 10 2 9 3 8 4 6 5 7 6 5 8 81 9 93 10 82 11 84 12 83 13
REMARK SMILES IDX 4 14 3 17 2 18 1 19 85 20 86 21 92 22 87 24 89 25 88 26
REMARK SMILES IDX 90 27 91 28 12 29 13 30 14 31 15 32 16 33 17 35 18 36 19 37
REMARK SMILES IDX 80 38 20 39 79 40 21 41 22 42 23 43 73 44 24 45 78 46 72 47
REMARK SMILES IDX 74 48 25 49 77 50 71 51 70 52 26 54 58 55 38 56 57 57 39 58
REMARK SMILES IDX 42 59 56 60 75 61 40 62 41 63 55 65 76 66 43 67 27 68 28 69
REMARK SMILES IDX 36 70 29 71 30 72 34 73 37 74 31 75 32 76 35 77 33 78 59 79
REMARK SMILES IDX 60 80 68 81 61 82 62 83 66 84 69 85 63 86 64 87 67 88 65 89
REMARK SMILES IDX 44 90 45 91 53 92 46 93 47 94 51 95 54 96 48 97 49 98 52 99
REMARK SMILES IDX 50 100
REMARK H PARENT 8 7 4 15 4 16 85 23 15 34 74 53 42 64
REMARK Flexibility Score: inf
ROOT
ATOM      1  C   UNL     1       2.745   0.941   0.011  1.00  0.00     0.002 C 
ENDROOT
BRANCH   1   2
ATOM      2  C   UNL     1       2.687  -0.580   0.138  1.00  0.00     0.021 C 
BRANCH   2   3
ATOM      3  C   UNL     1       1.671  -1.105   1.155  1.00  0.00     0.116 C 
BRANCH   3   4
ATOM      4  N   UNL     1       0.493  -1.662   0.500  1.00  0.00    -0.351 N 
ATOM      5  C   UNL     1       0.217  -2.946   0.083  1.00  0.00     0.281 C 
ATOM      6  O   UNL     1      -0.817  -3.106  -0.573  1.00  0.00    -0.268 OA
ATOM      7  H   UNL     1      -0.226  -1.011   0.327  1.00  0.00     0.163 HD
BRANCH   5   8
ATOM      8  C   UNL     1       1.134  -4.163   0.520  1.00  0.00     0.181 C 
ATOM      9  C   UNL     1       0.857  -4.305   2.051  1.00  0.00     0.079 C 
ATOM     10  C   UNL     1       0.664  -5.484  -0.177  1.00  0.00     0.144 C 
ATOM     11  C   UNL     1       1.189  -5.640   2.709  1.00  0.00     0.013 C 
ATOM     12  C   UNL     1       1.069  -6.852   0.453  1.00  0.00     0.191 C 
ATOM     13  C   UNL     1       0.668  -6.843   1.936  1.00  0.00     0.065 C 
BRANCH   8  14
ATOM     14  N   UNL     1       2.525  -3.755   0.196  1.00  0.00    -0.333 N 
ATOM     15  H   UNL     1       2.602  -2.750   0.352  1.00  0.00     0.347 HD
ATOM     16  H   UNL     1       3.127  -4.314   0.801  1.00  0.00     0.347 HD
BRANCH  14  17
ATOM     17  C   UNL     1       2.964  -4.033  -1.171  1.00  0.00     0.261 C 
BRANCH  17  18
ATOM     18  C   UNL     1       4.206  -3.250  -1.623  1.00  0.00     0.058 C 
ATOM     19  C   UNL     1       5.338  -3.135  -0.615  1.00  0.00     0.010 C 
ENDBRANCH  17  18
ENDBRANCH  14  17
ENDBRANCH   8  14
BRANCH  12  20
ATOM     20  N   UNL     1       2.422  -7.384   0.118  1.00  0.00    -0.328 N 
ATOM     21  C   UNL     1       2.454  -8.873   0.195  1.00  0.00     0.291 C 
ATOM     22  C   UNL     1       3.533  -6.913   0.957  1.00  0.00     0.297 C 
ATOM     23  H   UNL     1       2.565  -7.027  -0.827  1.00  0.00     0.348 HD
ATOM     24  C   UNL     1       3.846  -9.489  -0.086  1.00  0.00     0.222 C 
ATOM     25  C   UNL     1       4.915  -7.450   0.512  1.00  0.00     0.112 C 
ATOM     26  O   UNL     1       4.905  -8.881   0.671  1.00  0.00    -0.364 OA
ATOM     27  C   UNL     1       5.302  -7.086  -0.929  1.00  0.00     0.048 C 
ATOM     28  C   UNL     1       5.974  -6.874   1.466  1.00  0.00     0.048 C 
ENDBRANCH  12  20
ENDBRANCH   5   8
ENDBRANCH   3   4
ENDBRANCH   2   3
ENDBRANCH   1   2
BRANCH   1  29
ATOM     29  C   UNL     1       3.311   1.672   1.233  1.00  0.00     0.002 C 
BRANCH  29  30
ATOM     30  C   UNL     1       4.729   1.276   1.663  1.00  0.00     0.021 C 
BRANCH  30  31
ATOM     31  C   UNL     1       5.808   1.411   0.589  1.00  0.00     0.116 C 
BRANCH  31  32
ATOM     32  N   UNL     1       5.933   2.778   0.108  1.00  0.00    -0.352 N 
ATOM     33  C   UNL     1       6.985   3.656   0.178  1.00  0.00     0.251 C 
ATOM     34  H   UNL     1       5.132   3.130  -0.343  1.00  0.00     0.163 HD
ATOM     35  O   UNL     1       6.808   4.839  -0.095  1.00  0.00    -0.269 OA
BRANCH  33  36
ATOM     36  C   UNL     1       8.334   3.199   0.581  1.00  0.00     0.039 A 
ATOM     37  C   UNL     1       9.098   4.018   1.420  1.00  0.00     0.014 A 
ATOM     38  C   UNL     1       8.884   2.018   0.076  1.00  0.00     0.014 A 
ATOM     39  C   UNL     1      10.391   3.635   1.785  1.00  0.00     0.010 A 
ATOM     40  C   UNL     1      10.152   1.607   0.486  1.00  0.00     0.010 A 
ATOM     41  C   UNL     1      10.923   2.417   1.335  1.00  0.00    -0.014 A 
BRANCH  41  42
ATOM     42  C   UNL     1      12.293   1.987   1.717  1.00  0.00     0.031 A 
ATOM     43  C   UNL     1      13.369   1.883   0.671  1.00  0.00     0.074 A 
ATOM     44  C   UNL     1      12.555   1.635   2.989  1.00  0.00     0.049 A 
ATOM     45  N   UNL     1      14.598   1.447   0.785  1.00  0.00    -0.248 NA
ATOM     46  C   UNL     1      13.006   2.304  -0.691  1.00  0.00     0.031 C 
ATOM     47  C   UNL     1      11.590   1.659   4.088  1.00  0.00     0.029 A 
ATOM     48  N   UNL     1      13.710   1.174   3.570  1.00  0.00    -0.354 N 
ATOM     49  C   UNL     1      15.146   1.520  -0.489  1.00  0.00     0.074 A 
ATOM     50  C   UNL     1      14.104   2.003  -1.369  1.00  0.00     0.031 C 
ATOM     51  C   UNL     1      12.195   1.244   5.213  1.00  0.00     0.029 A 
ATOM     52  C   UNL     1      13.580   0.894   4.908  1.00  0.00     0.049 A 
ATOM     53  H   UNL     1      14.553   1.055   3.074  1.00  0.00     0.167 HD
ATOM     54  C   UNL     1      16.409   1.230  -0.885  1.00  0.00     0.037 A 
ATOM     55  C   UNL     1      14.475   0.405   5.788  1.00  0.00     0.037 A 
ATOM     56  C   UNL     1      17.453   0.781  -0.003  1.00  0.00     0.049 A 
ATOM     57  C   UNL     1      15.874   0.101   5.325  1.00  0.00     0.074 A 
ATOM     58  C   UNL     1      18.778   0.510  -0.299  1.00  0.00     0.029 A 
ATOM     59  N   UNL     1      17.291   0.542   1.354  1.00  0.00    -0.354 N 
ATOM     60  N   UNL     1      16.394   0.223   4.128  1.00  0.00    -0.248 NA
ATOM     61  C   UNL     1      16.813  -0.400   6.338  1.00  0.00     0.031 C 
ATOM     62  C   UNL     1      19.409   0.074   0.871  1.00  0.00     0.029 A 
ATOM     63  C   UNL     1      18.488   0.115   1.906  1.00  0.00     0.049 A 
ATOM     64  H   UNL     1      16.449   0.659   1.851  1.00  0.00     0.167 HD
ATOM     65  C   UNL     1      17.724  -0.155   4.249  1.00  0.00     0.074 A 
ATOM     66  C   UNL     1      17.935  -0.502   5.639  1.00  0.00     0.031 C 
ATOM     67  C   UNL     1      18.684  -0.210   3.295  1.00  0.00     0.037 A 
BRANCH  54  68
ATOM     68  C   UNL     1      16.732   1.393  -2.342  1.00  0.00     0.064 A 
ATOM     69  C   UNL     1      16.831   2.660  -2.936  1.00  0.00     0.173 A 
ATOM     70  C   UNL     1      16.978   0.270  -3.147  1.00  0.00     0.173 A 
ATOM     71  F   UNL     1      16.594   3.765  -2.212  1.00  0.00    -0.203 F 
ATOM     72  C   UNL     1      17.135   2.797  -4.287  1.00  0.00     0.198 A 
ATOM     73  C   UNL     1      17.310   0.412  -4.492  1.00  0.00     0.198 A 
ATOM     74  F   UNL     1      16.903  -0.964  -2.628  1.00  0.00    -0.203 F 
ATOM     75  F   UNL     1      17.177   4.016  -4.843  1.00  0.00    -0.200 F 
ATOM     76  C   UNL     1      17.381   1.674  -5.063  1.00  0.00     0.200 A 
ATOM     77  F   UNL     1      17.559  -0.674  -5.238  1.00  0.00    -0.200 F 
ATOM     78  F   UNL     1      17.678   1.807  -6.363  1.00  0.00    -0.200 F 
ENDBRANCH  54  68
BRANCH  55  79
ATOM     79  C   UNL     1      14.082   0.199   7.205  1.00  0.00     0.064 A 
ATOM     80  C   UNL     1      14.587   1.029   8.217  1.00  0.00     0.173 A 
ATOM     81  C   UNL     1      13.201  -0.825   7.579  1.00  0.00     0.173 A 
ATOM     82  F   UNL     1      15.449   2.009   7.910  1.00  0.00    -0.203 F 
ATOM     83  C   UNL     1      14.239   0.830   9.551  1.00  0.00     0.198 A 
ATOM     84  C   UNL     1      12.834  -1.007   8.910  1.00  0.00     0.198 A 
ATOM     85  F   UNL     1      12.688  -1.643   6.648  1.00  0.00    -0.203 F 
ATOM     86  F   UNL     1      14.768   1.611  10.502  1.00  0.00    -0.200 F 
ATOM     87  C   UNL     1      13.358  -0.184   9.896  1.00  0.00     0.200 A 
ATOM     88  F   UNL     1      11.973  -1.980   9.239  1.00  0.00    -0.200 F 
ATOM     89  F   UNL     1      13.021  -0.373  11.179  1.00  0.00    -0.200 F 
ENDBRANCH  55  79
BRANCH  67  90
ATOM     90  C   UNL     1      20.061  -0.618   3.727  1.00  0.00     0.064 A 
ATOM     91  C   UNL     1      20.367  -1.946   4.056  1.00  0.00     0.173 A 
ATOM     92  C   UNL     1      21.097   0.328   3.774  1.00  0.00     0.173 A 
ATOM     93  F   UNL     1      19.407  -2.883   4.041  1.00  0.00    -0.203 F 
ATOM     94  C   UNL     1      21.656  -2.309   4.437  1.00  0.00     0.198 A 
ATOM     95  C   UNL     1      22.390  -0.044   4.131  1.00  0.00     0.198 A 
ATOM     96  F   UNL     1      20.857   1.610   3.464  1.00  0.00    -0.203 F 
ATOM     97  F   UNL     1      21.916  -3.576   4.788  1.00  0.00    -0.200 F 
ATOM     98  C   UNL     1      22.667  -1.360   4.468  1.00  0.00     0.200 A 
ATOM     99  F   UNL     1      23.369   0.872   4.149  1.00  0.00    -0.200 F 
ATOM    100  F   UNL     1      23.908  -1.714   4.830  1.00  0.00    -0.200 F 
ENDBRANCH  67  90
ENDBRANCH  41  42
ENDBRANCH  33  36
ENDBRANCH  31  32
ENDBRANCH  30  31
ENDBRANCH  29  30
ENDBRANCH   1  29
TORSDOF 17
