REMARK SMILES Cc1cccc(C(=O)Nc2cc(C(=O)NCCCCCCNC(=O)c3ccc(-c4c5nc(c(-c6c(F)c(F)c(F)c(F)c6F)c6ccc([nH]6)c(-c6c(F)c(F)c(F)c(F)c6F)c6nc(c(-c7c(F)c(F)c(F)c(F)c7F)c7ccc4[nH]7)C=C6)C=C5)cc3)ccc2N2CC[NH+](CC(=O)NC(C)(C)C)CC2)c1
REMARK SMILES IDX 17 1 16 2 15 3 13 4 14 5 12 7 10 8 11 9 90 10 89 11 88 12
REMARK SMILES IDX 9 13 7 14 8 15 6 17 1 18 2 19 3 20 105 21 4 22 5 23 91 24
REMARK SMILES IDX 92 25 104 26 93 27 103 28 94 29 95 31 96 32 97 33 98 34
REMARK SMILES IDX 99 36 100 37 101 38 102 39 18 40 19 41 20 42 21 43 22 44
REMARK SMILES IDX 23 45 24 47 25 48 26 49 87 50 27 51 86 52 28 53 29 54 30 55
REMARK SMILES IDX 80 56 31 57 85 58 79 59 81 60 32 61 84 62 78 63 77 64 33 66
REMARK SMILES IDX 65 67 45 68 64 69 46 70 49 71 63 72 82 73 47 74 48 75 62 77
REMARK SMILES IDX 83 78 50 79 34 80 35 81 43 82 36 83 37 84 41 85 44 86 38 87
REMARK SMILES IDX 39 88 42 89 40 90 66 91 67 92 75 93 68 94 69 95 73 96 76 97
REMARK SMILES IDX 70 98 71 99 74 100 72 101 51 102 52 103 60 104 53 105 54 106
REMARK SMILES IDX 58 107 61 108 55 109 56 110 59 111 57 112
REMARK H PARENT 15 6 9 16 94 30 98 35 22 46 81 65 49 76
REMARK Flexibility Score: inf
ROOT
ATOM      1  C   UNL     1       1.050   0.982  -4.255  1.00  0.00     0.021 C 
ENDROOT
BRANCH   1   2
ATOM      2  C   UNL     1       1.773   0.610  -2.958  1.00  0.00     0.116 C 
BRANCH   2   3
ATOM      3  N   UNL     1       3.079   1.231  -2.857  1.00  0.00    -0.352 N 
ATOM      4  C   UNL     1       3.534   2.383  -2.258  1.00  0.00     0.251 C 
ATOM      5  O   UNL     1       4.750   2.578  -2.275  1.00  0.00    -0.269 OA
ATOM      6  H   UNL     1       3.789   0.723  -3.312  1.00  0.00     0.163 HD
BRANCH   4   7
ATOM      7  C   UNL     1       2.660   3.370  -1.555  1.00  0.00     0.042 A 
ATOM      8  C   UNL     1       0.518   4.198  -0.808  1.00  0.00     0.065 A 
ATOM      9  C   UNL     1       1.277   3.393  -1.655  1.00  0.00     0.042 A 
ATOM     10  C   UNL     1       1.107   5.197   0.007  1.00  0.00     0.061 A 
ATOM     11  C   UNL     1       2.504   5.244   0.021  1.00  0.00     0.029 A 
ATOM     12  C   UNL     1       3.267   4.316  -0.712  1.00  0.00     0.016 A 
BRANCH   8  13
ATOM     13  N   UNL     1      -0.871   3.995  -0.746  1.00  0.00    -0.320 N 
ATOM     14  C   UNL     1      -1.583   2.847  -0.437  1.00  0.00     0.255 C 
ATOM     15  O   UNL     1      -2.810   2.943  -0.344  1.00  0.00    -0.269 OA
ATOM     16  H   UNL     1      -1.420   4.786  -0.954  1.00  0.00     0.170 HD
BRANCH  14  17
ATOM     17  C   UNL     1      -0.965   1.511  -0.134  1.00  0.00     0.040 A 
ATOM     18  C   UNL     1       2.317  -0.192   0.832  1.00  0.00     0.044 C 
ATOM     19  C   UNL     1       0.863   0.016   0.507  1.00  0.00    -0.050 A 
ATOM     20  C   UNL     1       0.060  -1.091   0.217  1.00  0.00     0.003 A 
ATOM     21  C   UNL     1       0.318   1.310   0.399  1.00  0.00     0.017 A 
ATOM     22  C   UNL     1      -1.259  -0.910  -0.191  1.00  0.00     0.001 A 
ATOM     23  C   UNL     1      -1.760   0.381  -0.379  1.00  0.00     0.014 A 
ENDBRANCH  14  17
ENDBRANCH   8  13
BRANCH  10  24
ATOM     24  N   UNL     1       0.325   6.014   0.815  1.00  0.00    -0.359 N 
ATOM     25  C   UNL     1       0.744   7.353   1.276  1.00  0.00     0.178 C 
ATOM     26  C   UNL     1      -0.515   5.340   1.806  1.00  0.00     0.178 C 
ATOM     27  C   UNL     1      -0.488   8.183   1.777  1.00  0.00     0.284 C 
ATOM     28  C   UNL     1      -1.806   6.157   1.977  1.00  0.00     0.284 C 
ATOM     29  N   UNL     1      -1.573   7.497   2.519  1.00  0.00    -0.324 N 
ATOM     30  H   UNL     1      -2.405   8.063   2.348  1.00  0.00     0.348 HD
BRANCH  29  31
ATOM     31  C   UNL     1      -1.501   7.539   3.991  1.00  0.00     0.363 C 
BRANCH  31  32
ATOM     32  C   UNL     1      -0.373   6.735   4.625  1.00  0.00     0.275 C 
ATOM     33  O   UNL     1       0.778   7.191   4.627  1.00  0.00    -0.268 OA
ATOM     34  N   UNL     1      -0.530   5.516   5.212  1.00  0.00    -0.347 N 
ATOM     35  H   UNL     1       0.295   5.256   5.680  1.00  0.00     0.164 HD
BRANCH  34  36
ATOM     36  C   UNL     1      -1.564   4.454   5.365  1.00  0.00     0.032 C 
ATOM     37  C   UNL     1      -1.458   3.403   4.243  1.00  0.00     0.034 C 
ATOM     38  C   UNL     1      -1.232   3.714   6.680  1.00  0.00     0.034 C 
ATOM     39  C   UNL     1      -3.006   4.957   5.471  1.00  0.00     0.034 C 
ENDBRANCH  34  36
ENDBRANCH  31  32
ENDBRANCH  29  31
ENDBRANCH  10  24
ENDBRANCH   4   7
ENDBRANCH   2   3
ENDBRANCH   1   2
BRANCH   1  40
ATOM     40  C   UNL     1       1.289   0.002  -5.409  1.00  0.00     0.002 C 
BRANCH  40  41
ATOM     41  C   UNL     1       0.973  -1.476  -5.114  1.00  0.00     0.002 C 
BRANCH  41  42
ATOM     42  C   UNL     1      -0.375  -1.745  -4.439  1.00  0.00     0.021 C 
BRANCH  42  43
ATOM     43  C   UNL     1      -1.561  -1.621  -5.384  1.00  0.00     0.116 C 
BRANCH  43  44
ATOM     44  N   UNL     1      -1.935  -2.886  -6.006  1.00  0.00    -0.352 N 
ATOM     45  C   UNL     1      -2.877  -3.150  -6.990  1.00  0.00     0.251 C 
ATOM     46  H   UNL     1      -1.444  -3.674  -5.677  1.00  0.00     0.163 HD
ATOM     47  O   UNL     1      -3.092  -4.284  -7.354  1.00  0.00    -0.269 OA
BRANCH  45  48
ATOM     48  C   UNL     1      -3.503  -2.004  -7.694  1.00  0.00     0.039 A 
ATOM     49  C   UNL     1      -3.438  -1.998  -9.092  1.00  0.00     0.014 A 
ATOM     50  C   UNL     1      -3.905  -0.869  -6.998  1.00  0.00     0.014 A 
ATOM     51  C   UNL     1      -3.508  -0.784  -9.768  1.00  0.00     0.010 A 
ATOM     52  C   UNL     1      -3.879   0.346  -7.653  1.00  0.00     0.010 A 
ATOM     53  C   UNL     1      -3.596   0.390  -9.023  1.00  0.00    -0.014 A 
BRANCH  53  54
ATOM     54  C   UNL     1      -3.270   1.703  -9.565  1.00  0.00     0.031 A 
ATOM     55  C   UNL     1      -4.333   2.683  -9.853  1.00  0.00     0.074 A 
ATOM     56  C   UNL     1      -1.971   2.054  -9.698  1.00  0.00     0.049 A 
ATOM     57  N   UNL     1      -4.179   3.723 -10.599  1.00  0.00    -0.248 NA
ATOM     58  C   UNL     1      -5.688   2.533  -9.344  1.00  0.00     0.031 C 
ATOM     59  C   UNL     1      -1.426   3.390  -9.926  1.00  0.00     0.029 A 
ATOM     60  N   UNL     1      -0.872   1.197  -9.873  1.00  0.00    -0.354 N 
ATOM     61  C   UNL     1      -5.301   4.508 -10.469  1.00  0.00     0.074 A 
ATOM     62  C   UNL     1      -6.233   3.694  -9.722  1.00  0.00     0.031 C 
ATOM     63  C   UNL     1      -0.221   3.269 -10.504  1.00  0.00     0.029 A 
ATOM     64  C   UNL     1      -0.032   1.861 -10.801  1.00  0.00     0.049 A 
ATOM     65  H   UNL     1      -0.718   0.324  -9.444  1.00  0.00     0.167 HD
ATOM     66  C   UNL     1      -5.258   5.798 -10.916  1.00  0.00     0.037 A 
ATOM     67  C   UNL     1       0.185   1.341 -12.045  1.00  0.00     0.037 A 
ATOM     68  C   UNL     1      -4.009   6.077 -11.627  1.00  0.00     0.049 A 
ATOM     69  C   UNL     1      -0.239   2.235 -13.194  1.00  0.00     0.074 A 
ATOM     70  C   UNL     1      -2.819   6.708 -11.304  1.00  0.00     0.029 A 
ATOM     71  N   UNL     1      -3.770   5.409 -12.814  1.00  0.00    -0.354 N 
ATOM     72  N   UNL     1      -0.896   3.353 -13.059  1.00  0.00    -0.248 NA
ATOM     73  C   UNL     1      -0.051   1.867 -14.599  1.00  0.00     0.031 C 
ATOM     74  C   UNL     1      -1.865   6.412 -12.321  1.00  0.00     0.029 A 
ATOM     75  C   UNL     1      -2.477   5.601 -13.258  1.00  0.00     0.049 A 
ATOM     76  H   UNL     1      -4.440   4.862 -13.286  1.00  0.00     0.167 HD
ATOM     77  C   UNL     1      -1.269   3.812 -14.294  1.00  0.00     0.074 A 
ATOM     78  C   UNL     1      -0.719   2.848 -15.228  1.00  0.00     0.031 C 
ATOM     79  C   UNL     1      -2.045   4.920 -14.465  1.00  0.00     0.037 A 
BRANCH  66  80
ATOM     80  C   UNL     1      -6.247   6.874 -10.521  1.00  0.00     0.064 A 
ATOM     81  C   UNL     1      -5.857   8.232 -10.494  1.00  0.00     0.173 A 
ATOM     82  C   UNL     1      -7.569   6.641 -10.103  1.00  0.00     0.173 A 
ATOM     83  F   UNL     1      -4.674   8.633 -10.975  1.00  0.00    -0.203 F 
ATOM     84  C   UNL     1      -6.672   9.239  -9.968  1.00  0.00     0.198 A 
ATOM     85  C   UNL     1      -8.363   7.635  -9.521  1.00  0.00     0.198 A 
ATOM     86  F   UNL     1      -8.169   5.463 -10.306  1.00  0.00    -0.203 F 
ATOM     87  F   UNL     1      -6.240  10.508  -9.964  1.00  0.00    -0.200 F 
ATOM     88  C   UNL     1      -7.908   8.934  -9.441  1.00  0.00     0.200 A 
ATOM     89  F   UNL     1      -9.577   7.322  -9.046  1.00  0.00    -0.200 F 
ATOM     90  F   UNL     1      -8.670   9.889  -8.891  1.00  0.00    -0.200 F 
ENDBRANCH  66  80
BRANCH  67  91
ATOM     91  C   UNL     1       0.120  -0.146 -12.072  1.00  0.00     0.064 A 
ATOM     92  C   UNL     1       0.997  -0.880 -11.248  1.00  0.00     0.173 A 
ATOM     93  C   UNL     1      -0.987  -0.821 -12.599  1.00  0.00     0.173 A 
ATOM     94  F   UNL     1       2.074  -0.282 -10.712  1.00  0.00    -0.203 F 
ATOM     95  C   UNL     1       0.711  -2.190 -10.871  1.00  0.00     0.198 A 
ATOM     96  C   UNL     1      -1.256  -2.142 -12.239  1.00  0.00     0.198 A 
ATOM     97  F   UNL     1      -1.873  -0.177 -13.372  1.00  0.00    -0.203 F 
ATOM     98  F   UNL     1       1.499  -2.819  -9.987  1.00  0.00    -0.200 F 
ATOM     99  C   UNL     1      -0.429  -2.811 -11.350  1.00  0.00     0.200 A 
ATOM    100  F   UNL     1      -2.375  -2.734 -12.681  1.00  0.00    -0.200 F 
ATOM    101  F   UNL     1      -0.757  -4.038 -10.921  1.00  0.00    -0.200 F 
ENDBRANCH  67  91
BRANCH  79 102
ATOM    102  C   UNL     1      -2.475   5.434 -15.808  1.00  0.00     0.064 A 
ATOM    103  C   UNL     1      -1.585   5.563 -16.885  1.00  0.00     0.173 A 
ATOM    104  C   UNL     1      -3.784   5.917 -16.023  1.00  0.00     0.173 A 
ATOM    105  F   UNL     1      -0.302   5.191 -16.763  1.00  0.00    -0.203 F 
ATOM    106  C   UNL     1      -1.991   6.095 -18.111  1.00  0.00     0.198 A 
ATOM    107  C   UNL     1      -4.172   6.497 -17.228  1.00  0.00     0.198 A 
ATOM    108  F   UNL     1      -4.731   5.814 -15.079  1.00  0.00    -0.203 F 
ATOM    109  F   UNL     1      -1.125   6.147 -19.133  1.00  0.00    -0.200 F 
ATOM    110  C   UNL     1      -3.280   6.573 -18.278  1.00  0.00     0.200 A 
ATOM    111  F   UNL     1      -5.417   6.974 -17.366  1.00  0.00    -0.200 F 
ATOM    112  F   UNL     1      -3.662   7.101 -19.449  1.00  0.00    -0.200 F 
ENDBRANCH  79 102
ENDBRANCH  53  54
ENDBRANCH  45  48
ENDBRANCH  43  44
ENDBRANCH  42  43
ENDBRANCH  41  42
ENDBRANCH  40  41
ENDBRANCH   1  40
TORSDOF 19
