REMARK SMILES O=C(C[C@@H]1CSCCN1c1ncnc2c1CCCCC2)NCCCCCCNC(=O)c1ccc(-c2c3nc(c(-c4c(F)c(F)c(F)c(F)c4F)c4ccc([nH]4)c(-c4c(F)c(F)c(F)c(F)c4F)c4nc(c(-c5c(F)c(F)c(F)c(F)c5F)c5ccc2[nH]5)C=C4)C=C3)cc1
REMARK SMILES IDX 23 1 22 2 21 3 1 4 2 5 3 7 4 8 5 9 9 10 6 11 8 12 7 13 10 14
REMARK SMILES IDX 11 15 15 16 12 17 14 18 13 19 16 20 17 21 18 22 20 24 19 25
REMARK SMILES IDX 24 27 25 28 26 29 27 30 28 31 29 32 30 34 31 35 32 36 93 37
REMARK SMILES IDX 33 38 92 39 34 40 35 41 36 42 86 43 37 44 91 45 85 46 87 47
REMARK SMILES IDX 38 48 90 49 84 50 83 51 39 53 71 54 51 55 70 56 52 57 55 58
REMARK SMILES IDX 69 59 88 60 53 61 54 62 68 64 89 65 56 66 40 67 41 68 49 69
REMARK SMILES IDX 42 70 43 71 47 72 50 73 44 74 45 75 48 76 46 77 72 78 73 79
REMARK SMILES IDX 81 80 74 81 75 82 79 83 82 84 76 85 77 86 80 87 78 88 57 89
REMARK SMILES IDX 58 90 66 91 59 92 60 93 64 94 67 95 61 96 62 97 65 98 63 99
REMARK H PARENT 21 6 28 33 87 52 55 63
REMARK Flexibility Score: 90.00
ROOT
ATOM      1  C   UNL     1       2.878  -1.758   2.551  1.00  0.00     0.021 C 
ENDROOT
BRANCH   1   2
ATOM      2  C   UNL     1       1.584  -1.428   1.725  1.00  0.00     0.116 C 
BRANCH   2   3
ATOM      3  N   UNL     1       1.971  -0.920   0.419  1.00  0.00    -0.356 N 
ATOM      4  O   UNL     1       0.503   0.822   0.060  1.00  0.00    -0.275 OA
ATOM      5  C   UNL     1       1.460   0.141  -0.288  1.00  0.00     0.222 C 
ATOM      6  H   UNL     1       2.705  -1.405  -0.022  1.00  0.00     0.163 HD
BRANCH   5   7
ATOM      7  C   UNL     1       2.207   0.381  -1.593  1.00  0.00     0.125 C 
BRANCH   7   8
ATOM      8  C   UNL     1       3.627   0.983  -1.398  1.00  0.00     0.103 C 
ATOM      9  C   UNL     1       4.245   1.420  -2.743  1.00  0.00     0.095 C 
ATOM     10  N   UNL     1       4.544   0.041  -0.710  1.00  0.00    -0.351 N 
ATOM     11  S   UNL     1       4.429   0.050  -3.933  1.00  0.00    -0.158 SA
ATOM     12  C   UNL     1       4.826  -1.237  -1.449  1.00  0.00     0.129 C 
ATOM     13  C   UNL     1       5.396  -1.069  -2.864  1.00  0.00     0.091 C 
BRANCH  10  14
ATOM     14  C   UNL     1       5.633   0.520   0.065  1.00  0.00     0.135 A 
ATOM     15  N   UNL     1       6.838   0.116  -0.397  1.00  0.00    -0.219 NA
ATOM     16  C   UNL     1       5.483   0.917   1.432  1.00  0.00     0.016 A 
ATOM     17  C   UNL     1       7.816  -0.134   0.481  1.00  0.00     0.224 A 
ATOM     18  C   UNL     1       6.513   0.268   2.308  1.00  0.00     0.049 A 
ATOM     19  N   UNL     1       7.700  -0.136   1.807  1.00  0.00    -0.241 NA
BRANCH  16  20
ATOM     20  C   UNL     1       3.985   1.673   1.941  1.00  0.00     0.041 C 
BRANCH  20  21
ATOM     21  C   UNL     1       2.636   1.007   3.111  1.00  0.00     0.005 C 
BRANCH  21  22
ATOM     22  C   UNL     1       2.986  -0.262   4.535  1.00  0.00     0.001 CG0
ATOM     23  G   UNL     1       4.769  -1.091   4.691  1.00  0.00     0.000 G0
ENDBRANCH  21  22
ENDBRANCH  20  21
ENDBRANCH  16  20
BRANCH  18  24
ATOM     24  C   UNL     1       6.347  -0.441   3.850  1.00  0.00     0.057 C 
BRANCH  24  25
ATOM     25  C   UNL     1       4.769  -1.091   4.691  1.00  0.00     0.006 CG0
ATOM     26  G   UNL     1       2.986  -0.262   4.535  1.00  0.00     0.000 G0
ENDBRANCH  24  25
ENDBRANCH  18  24
ENDBRANCH  10  14
ENDBRANCH   7   8
ENDBRANCH   5   7
ENDBRANCH   2   3
ENDBRANCH   1   2
BRANCH   1  27
ATOM     27  C   UNL     1       4.137  -0.562   2.784  1.00  0.00     0.002 C 
BRANCH  27  28
ATOM     28  C   UNL     1       4.625   0.974   4.106  1.00  0.00     0.002 C 
BRANCH  28  29
ATOM     29  C   UNL     1       4.588   1.181   5.947  1.00  0.00     0.021 C 
BRANCH  29  30
ATOM     30  C   UNL     1       4.418   0.125   7.176  1.00  0.00     0.116 C 
BRANCH  30  31
ATOM     31  N   UNL     1       5.691  -0.546   7.569  1.00  0.00    -0.352 N 
ATOM     32  C   UNL     1       6.188  -0.938   8.774  1.00  0.00     0.251 C 
ATOM     33  H   UNL     1       6.286  -0.743   6.811  1.00  0.00     0.163 HD
ATOM     34  O   UNL     1       7.314  -1.364   8.896  1.00  0.00    -0.269 OA
BRANCH  32  35
ATOM     35  C   UNL     1       5.274  -0.888   9.895  1.00  0.00     0.039 A 
ATOM     36  C   UNL     1       5.540   0.010  10.919  1.00  0.00     0.014 A 
ATOM     37  C   UNL     1       4.134  -1.693   9.843  1.00  0.00     0.014 A 
ATOM     38  C   UNL     1       4.607   0.124  11.928  1.00  0.00     0.010 A 
ATOM     39  C   UNL     1       3.170  -1.517  10.808  1.00  0.00     0.010 A 
ATOM     40  C   UNL     1       3.417  -0.623  11.858  1.00  0.00    -0.014 A 
BRANCH  40  41
ATOM     41  C   UNL     1       2.422  -0.498  12.925  1.00  0.00     0.031 A 
ATOM     42  C   UNL     1       2.164  -1.675  13.808  1.00  0.00     0.074 A 
ATOM     43  C   UNL     1       1.773   0.670  13.059  1.00  0.00     0.049 A 
ATOM     44  N   UNL     1       1.330  -1.778  14.805  1.00  0.00    -0.248 NA
ATOM     45  C   UNL     1       2.918  -2.910  13.521  1.00  0.00     0.031 C 
ATOM     46  C   UNL     1       1.955   1.841  12.195  1.00  0.00     0.029 A 
ATOM     47  N   UNL     1       0.844   1.070  13.975  1.00  0.00    -0.354 N 
ATOM     48  C   UNL     1       1.461  -3.080  15.259  1.00  0.00     0.074 A 
ATOM     49  C   UNL     1       2.392  -3.758  14.390  1.00  0.00     0.031 C 
ATOM     50  C   UNL     1       1.194   2.845  12.655  1.00  0.00     0.029 A 
ATOM     51  C   UNL     1       0.440   2.370  13.810  1.00  0.00     0.049 A 
ATOM     52  H   UNL     1       0.498   0.483  14.686  1.00  0.00     0.167 HD
ATOM     53  C   UNL     1       0.876  -3.638  16.340  1.00  0.00     0.037 A 
ATOM     54  C   UNL     1      -0.447   3.086  14.522  1.00  0.00     0.037 A 
ATOM     55  C   UNL     1      -0.020  -2.922  17.204  1.00  0.00     0.049 A 
ATOM     56  C   UNL     1      -1.099   2.425  15.705  1.00  0.00     0.074 A 
ATOM     57  C   UNL     1      -0.637  -3.367  18.355  1.00  0.00     0.029 A 
ATOM     58  N   UNL     1      -0.423  -1.608  17.006  1.00  0.00    -0.354 N 
ATOM     59  N   UNL     1      -0.920   1.214  16.178  1.00  0.00    -0.248 NA
ATOM     60  C   UNL     1      -2.071   3.226  16.458  1.00  0.00     0.031 C 
ATOM     61  C   UNL     1      -1.468  -2.346  18.818  1.00  0.00     0.029 A 
ATOM     62  C   UNL     1      -1.312  -1.238  17.998  1.00  0.00     0.049 A 
ATOM     63  H   UNL     1      -0.121  -1.028  16.270  1.00  0.00     0.167 HD
ATOM     64  C   UNL     1      -1.736   1.113  17.294  1.00  0.00     0.074 A 
ATOM     65  C   UNL     1      -2.392   2.397  17.442  1.00  0.00     0.031 C 
ATOM     66  C   UNL     1      -1.936   0.056  18.119  1.00  0.00     0.037 A 
BRANCH  53  67
ATOM     67  C   UNL     1       1.194  -5.065  16.659  1.00  0.00     0.064 A 
ATOM     68  C   UNL     1       2.459  -5.450  17.128  1.00  0.00     0.173 A 
ATOM     69  C   UNL     1       0.194  -6.045  16.580  1.00  0.00     0.173 A 
ATOM     70  F   UNL     1       3.455  -4.554  17.199  1.00  0.00    -0.203 F 
ATOM     71  C   UNL     1       2.710  -6.764  17.510  1.00  0.00     0.198 A 
ATOM     72  C   UNL     1       0.440  -7.351  16.994  1.00  0.00     0.198 A 
ATOM     73  F   UNL     1      -1.029  -5.730  16.128  1.00  0.00    -0.203 F 
ATOM     74  F   UNL     1       3.932  -7.116  17.932  1.00  0.00    -0.200 F 
ATOM     75  C   UNL     1       1.696  -7.709  17.459  1.00  0.00     0.200 A 
ATOM     76  F   UNL     1      -0.545  -8.259  16.956  1.00  0.00    -0.200 F 
ATOM     77  F   UNL     1       1.929  -8.966  17.860  1.00  0.00    -0.200 F 
ENDBRANCH  53  67
BRANCH  54  78
ATOM     78  C   UNL     1      -0.740   4.492  14.145  1.00  0.00     0.064 A 
ATOM     79  C   UNL     1      -0.392   5.556  14.988  1.00  0.00     0.173 A 
ATOM     80  C   UNL     1      -1.359   4.805  12.924  1.00  0.00     0.173 A 
ATOM     81  F   UNL     1       0.196   5.310  16.168  1.00  0.00    -0.203 F 
ATOM     82  C   UNL     1      -0.675   6.874  14.638  1.00  0.00     0.198 A 
ATOM     83  C   UNL     1      -1.609   6.125  12.559  1.00  0.00     0.198 A 
ATOM     84  F   UNL     1      -1.701   3.826  12.073  1.00  0.00    -0.203 F 
ATOM     85  F   UNL     1      -0.375   7.868  15.485  1.00  0.00    -0.200 F 
ATOM     86  C   UNL     1      -1.277   7.159  13.421  1.00  0.00     0.200 A 
ATOM     87  F   UNL     1      -2.168   6.396  11.372  1.00  0.00    -0.200 F 
ATOM     88  F   UNL     1      -1.541   8.428  13.082  1.00  0.00    -0.200 F 
ENDBRANCH  54  78
BRANCH  66  89
ATOM     89  C   UNL     1      -2.886   0.242  19.264  1.00  0.00     0.064 A 
ATOM     90  C   UNL     1      -4.268   0.354  19.056  1.00  0.00     0.173 A 
ATOM     91  C   UNL     1      -2.417   0.209  20.586  1.00  0.00     0.173 A 
ATOM     92  F   UNL     1      -4.763   0.398  17.810  1.00  0.00    -0.203 F 
ATOM     93  C   UNL     1      -5.145   0.443  20.132  1.00  0.00     0.198 A 
ATOM     94  C   UNL     1      -3.301   0.258  21.659  1.00  0.00     0.198 A 
ATOM     95  F   UNL     1      -1.105   0.088  20.837  1.00  0.00    -0.203 F 
ATOM     96  F   UNL     1      -6.458   0.591  19.910  1.00  0.00    -0.200 F 
ATOM     97  C   UNL     1      -4.663   0.381  21.431  1.00  0.00     0.200 A 
ATOM     98  F   UNL     1      -2.835   0.169  22.912  1.00  0.00    -0.200 F 
ATOM     99  F   UNL     1      -5.513   0.439  22.465  1.00  0.00    -0.200 F 
ENDBRANCH  66  89
ENDBRANCH  40  41
ENDBRANCH  32  35
ENDBRANCH  30  31
ENDBRANCH  29  30
ENDBRANCH  28  29
ENDBRANCH  27  28
ENDBRANCH   1  27
TORSDOF 15
