REMARK SMILES C[C@@H]1[C@H](C(=O)NCCCCCCNC(=O)c2ccc(-c3c4nc(c(-c5c(F)c(F)c(F)c(F)c5F)c5ccc([nH]5)c(-c5c(F)c(F)c(F)c(F)c5F)c5nc(c(-c6c(F)c(F)c(F)c(F)c6F)c6ccc3[nH]6)C=C5)C=C4)cc2)CCN1C(=O)N1CCc2ccccc21
REMARK SMILES IDX 9 1 8 2 7 3 6 4 4 5 5 6 3 8 1 9 2 10 81 11 79 12 80 13 82 14
REMARK SMILES IDX 83 15 84 16 85 17 92 18 86 19 87 20 91 21 88 22 90 23 89 24
REMARK SMILES IDX 10 25 11 26 12 27 13 28 14 29 15 31 16 32 17 33 78 34 18 35
REMARK SMILES IDX 77 36 19 37 20 38 21 39 71 40 22 41 76 42 70 43 72 44 23 45
REMARK SMILES IDX 75 46 69 47 68 48 24 50 56 51 36 52 55 53 37 54 40 55 54 56
REMARK SMILES IDX 73 57 38 58 39 59 53 61 74 62 41 63 25 64 26 65 34 66 27 67
REMARK SMILES IDX 28 68 32 69 35 70 29 71 30 72 33 73 31 74 57 75 58 76 66 77
REMARK SMILES IDX 59 78 60 79 64 80 67 81 61 82 62 83 65 84 63 85 42 86 43 87
REMARK SMILES IDX 51 88 44 89 45 90 49 91 52 92 46 93 47 94 50 95 48 96
REMARK H PARENT 6 7 13 30 72 49 40 60
REMARK Flexibility Score: inf
ROOT
ATOM      1  C   UNL     1       3.496   2.622   2.989  1.00  0.00     0.002 C 
ENDROOT
BRANCH   1   2
ATOM      2  C   UNL     1       2.797   1.397   2.393  1.00  0.00     0.021 C 
BRANCH   2   3
ATOM      3  C   UNL     1       1.344   1.631   1.969  1.00  0.00     0.116 C 
BRANCH   3   4
ATOM      4  N   UNL     1       1.274   2.302   0.684  1.00  0.00    -0.356 N 
ATOM      5  C   UNL     1       0.747   1.962  -0.518  1.00  0.00     0.225 C 
ATOM      6  O   UNL     1       1.016   2.720  -1.458  1.00  0.00    -0.275 OA
ATOM      7  H   UNL     1       1.698   3.191   0.685  1.00  0.00     0.163 HD
BRANCH   5   8
ATOM      8  C   UNL     1      -0.112   0.736  -0.784  1.00  0.00     0.102 C 
ATOM      9  C   UNL     1       1.807  -0.870  -0.118  1.00  0.00     0.032 C 
ATOM     10  C   UNL     1       0.588  -0.615  -0.995  1.00  0.00     0.096 C 
ATOM     11  N   UNL     1      -0.467  -1.606  -0.737  1.00  0.00    -0.321 N 
ATOM     12  C   UNL     1      -1.260   0.446   0.170  1.00  0.00     0.037 C 
ATOM     13  C   UNL     1      -1.668  -0.962  -0.226  1.00  0.00     0.122 C 
BRANCH  11  14
ATOM     14  C   UNL     1      -0.629  -2.715  -1.578  1.00  0.00     0.324 C 
ATOM     15  O   UNL     1      -1.295  -2.680  -2.608  1.00  0.00    -0.248 OA
BRANCH  14  16
ATOM     16  N   UNL     1      -0.119  -3.891  -1.036  1.00  0.00    -0.294 N 
ATOM     17  C   UNL     1       1.314  -4.202  -1.079  1.00  0.00     0.132 C 
ATOM     18  C   UNL     1      -0.593  -4.284   0.228  1.00  0.00     0.049 A 
ATOM     19  C   UNL     1       1.770  -4.440   0.378  1.00  0.00     0.060 C 
ATOM     20  C   UNL     1       0.465  -4.474   1.108  1.00  0.00    -0.022 A 
ATOM     21  C   UNL     1      -1.916  -4.284   0.636  1.00  0.00     0.027 A 
ATOM     22  C   UNL     1       0.221  -4.523   2.469  1.00  0.00     0.006 A 
ATOM     23  C   UNL     1      -2.172  -4.382   1.999  1.00  0.00     0.002 A 
ATOM     24  C   UNL     1      -1.107  -4.458   2.912  1.00  0.00     0.000 A 
ENDBRANCH  14  16
ENDBRANCH  11  14
ENDBRANCH   5   8
ENDBRANCH   3   4
ENDBRANCH   2   3
ENDBRANCH   1   2
BRANCH   1  25
ATOM     25  C   UNL     1       2.942   3.103   4.334  1.00  0.00     0.002 C 
BRANCH  25  26
ATOM     26  C   UNL     1       2.826   2.034   5.425  1.00  0.00     0.021 C 
BRANCH  26  27
ATOM     27  C   UNL     1       4.106   1.256   5.721  1.00  0.00     0.116 C 
BRANCH  27  28
ATOM     28  N   UNL     1       5.174   2.109   6.209  1.00  0.00    -0.352 N 
ATOM     29  C   UNL     1       5.929   2.007   7.351  1.00  0.00     0.251 C 
ATOM     30  H   UNL     1       5.390   2.878   5.634  1.00  0.00     0.163 HD
ATOM     31  O   UNL     1       6.673   2.927   7.675  1.00  0.00    -0.269 OA
BRANCH  29  32
ATOM     32  C   UNL     1       5.841   0.803   8.207  1.00  0.00     0.039 A 
ATOM     33  C   UNL     1       5.807   0.972   9.594  1.00  0.00     0.014 A 
ATOM     34  C   UNL     1       5.840  -0.484   7.661  1.00  0.00     0.014 A 
ATOM     35  C   UNL     1       5.729  -0.144  10.430  1.00  0.00     0.010 A 
ATOM     36  C   UNL     1       5.696  -1.594   8.492  1.00  0.00     0.010 A 
ATOM     37  C   UNL     1       5.650  -1.436   9.886  1.00  0.00    -0.014 A 
BRANCH  37  38
ATOM     38  C   UNL     1       5.539  -2.626  10.768  1.00  0.00     0.031 A 
ATOM     39  C   UNL     1       6.655  -3.632  10.832  1.00  0.00     0.074 A 
ATOM     40  C   UNL     1       4.417  -2.820  11.487  1.00  0.00     0.049 A 
ATOM     41  N   UNL     1       6.733  -4.741  11.524  1.00  0.00    -0.248 NA
ATOM     42  C   UNL     1       7.830  -3.370   9.987  1.00  0.00     0.031 C 
ATOM     43  C   UNL     1       3.246  -1.942  11.477  1.00  0.00     0.029 A 
ATOM     44  N   UNL     1       4.075  -3.819  12.364  1.00  0.00    -0.354 N 
ATOM     45  C   UNL     1       7.956  -5.310  11.193  1.00  0.00     0.074 A 
ATOM     46  C   UNL     1       8.563  -4.455  10.196  1.00  0.00     0.031 C 
ATOM     47  C   UNL     1       2.326  -2.426  12.327  1.00  0.00     0.029 A 
ATOM     48  C   UNL     1       2.828  -3.664  12.918  1.00  0.00     0.049 A 
ATOM     49  H   UNL     1       4.668  -4.576  12.576  1.00  0.00     0.167 HD
ATOM     50  C   UNL     1       8.531  -6.429  11.692  1.00  0.00     0.037 A 
ATOM     51  C   UNL     1       2.165  -4.432  13.803  1.00  0.00     0.037 A 
ATOM     52  C   UNL     1       7.938  -7.265  12.704  1.00  0.00     0.049 A 
ATOM     53  C   UNL     1       2.828  -5.671  14.342  1.00  0.00     0.074 A 
ATOM     54  C   UNL     1       8.468  -8.385  13.319  1.00  0.00     0.029 A 
ATOM     55  N   UNL     1       6.677  -7.069  13.248  1.00  0.00    -0.354 N 
ATOM     56  N   UNL     1       4.014  -6.159  14.074  1.00  0.00    -0.248 NA
ATOM     57  C   UNL     1       2.060  -6.462  15.315  1.00  0.00     0.031 C 
ATOM     58  C   UNL     1       7.511  -8.893  14.204  1.00  0.00     0.029 A 
ATOM     59  C   UNL     1       6.403  -8.062  14.175  1.00  0.00     0.049 A 
ATOM     60  H   UNL     1       6.067  -6.334  13.011  1.00  0.00     0.167 HD
ATOM     61  C   UNL     1       4.146  -7.296  14.860  1.00  0.00     0.074 A 
ATOM     62  C   UNL     1       2.925  -7.415  15.629  1.00  0.00     0.031 C 
ATOM     63  C   UNL     1       5.184  -8.165  14.935  1.00  0.00     0.037 A 
BRANCH  50  64
ATOM     64  C   UNL     1       9.880  -6.815  11.156  1.00  0.00     0.064 A 
ATOM     65  C   UNL     1      11.031  -6.069  11.456  1.00  0.00     0.173 A 
ATOM     66  C   UNL     1      10.031  -7.964  10.366  1.00  0.00     0.173 A 
ATOM     67  F   UNL     1      10.939  -4.956  12.198  1.00  0.00    -0.203 F 
ATOM     68  C   UNL     1      12.277  -6.443  10.959  1.00  0.00     0.198 A 
ATOM     69  C   UNL     1      11.284  -8.352   9.896  1.00  0.00     0.198 A 
ATOM     70  F   UNL     1       8.965  -8.717  10.054  1.00  0.00    -0.203 F 
ATOM     71  F   UNL     1      13.353  -5.688  11.218  1.00  0.00    -0.200 F 
ATOM     72  C   UNL     1      12.404  -7.587  10.186  1.00  0.00     0.200 A 
ATOM     73  F   UNL     1      11.407  -9.464   9.159  1.00  0.00    -0.200 F 
ATOM     74  F   UNL     1      13.605  -7.949   9.715  1.00  0.00    -0.200 F 
ENDBRANCH  50  64
BRANCH  51  75
ATOM     75  C   UNL     1       0.807  -4.037  14.259  1.00  0.00     0.064 A 
ATOM     76  C   UNL     1       0.589  -3.596  15.572  1.00  0.00     0.173 A 
ATOM     77  C   UNL     1      -0.298  -4.096  13.398  1.00  0.00     0.173 A 
ATOM     78  F   UNL     1       1.611  -3.542  16.438  1.00  0.00    -0.203 F 
ATOM     79  C   UNL     1      -0.686  -3.250  16.012  1.00  0.00     0.198 A 
ATOM     80  C   UNL     1      -1.568  -3.723  13.831  1.00  0.00     0.198 A 
ATOM     81  F   UNL     1      -0.141  -4.506  12.130  1.00  0.00    -0.203 F 
ATOM     82  F   UNL     1      -0.874  -2.875  17.285  1.00  0.00    -0.200 F 
ATOM     83  C   UNL     1      -1.763  -3.308  15.140  1.00  0.00     0.200 A 
ATOM     84  F   UNL     1      -2.604  -3.767  12.982  1.00  0.00    -0.200 F 
ATOM     85  F   UNL     1      -2.989  -2.971  15.563  1.00  0.00    -0.200 F 
ENDBRANCH  51  75
BRANCH  63  86
ATOM     86  C   UNL     1       5.054  -9.306  15.901  1.00  0.00     0.064 A 
ATOM     87  C   UNL     1       4.186 -10.380  15.657  1.00  0.00     0.173 A 
ATOM     88  C   UNL     1       5.832  -9.341  17.069  1.00  0.00     0.173 A 
ATOM     89  F   UNL     1       3.410 -10.385  14.562  1.00  0.00    -0.203 F 
ATOM     90  C   UNL     1       4.082 -11.435  16.559  1.00  0.00     0.198 A 
ATOM     91  C   UNL     1       5.747 -10.413  17.953  1.00  0.00     0.198 A 
ATOM     92  F   UNL     1       6.682  -8.341  17.346  1.00  0.00    -0.203 F 
ATOM     93  F   UNL     1       3.211 -12.427  16.329  1.00  0.00    -0.200 F 
ATOM     94  C   UNL     1       4.867 -11.454  17.702  1.00  0.00     0.200 A 
ATOM     95  F   UNL     1       6.516 -10.435  19.051  1.00  0.00    -0.200 F 
ATOM     96  F   UNL     1       4.770 -12.474  18.566  1.00  0.00    -0.200 F 
ENDBRANCH  63  86
ENDBRANCH  37  38
ENDBRANCH  29  32
ENDBRANCH  27  28
ENDBRANCH  26  27
ENDBRANCH  25  26
ENDBRANCH   1  25
TORSDOF 15
