REMARK SMILES O=C(C[C@]1(C(=O)NC2CCCCC2)CC(c2ccc([N+](=O)[O-])cc2)=NO1)NCCCCCCNC(=O)c1ccc(-c2c3nc(c(-c4c(F)c(F)c(F)c(F)c4F)c4ccc([nH]4)c(-c4c(F)c(F)c(F)c(F)c4F)c4nc(c(-c5c(F)c(F)c(F)c(F)c5F)c5ccc2[nH]5)C=C4)C=C3)cc1
REMARK SMILES IDX 30 1 29 2 28 3 27 4 1 5 2 6 3 8 4 9 14 10 26 11 15 12 25 13
REMARK SMILES IDX 5 14 6 15 7 16 8 18 9 19 13 20 10 21 12 22 11 23 16 24 17 25
REMARK SMILES IDX 24 26 18 27 23 28 19 29 20 30 21 31 22 32 31 33 32 34 33 35
REMARK SMILES IDX 34 36 35 37 36 39 37 40 38 41 99 42 39 43 98 44 40 45 41 46
REMARK SMILES IDX 42 47 92 48 43 49 97 50 91 51 93 52 44 53 96 54 90 55 89 56
REMARK SMILES IDX 45 58 77 59 57 60 76 61 58 62 61 63 75 64 94 65 59 66 60 67
REMARK SMILES IDX 74 69 95 70 62 71 46 72 47 73 55 74 48 75 49 76 53 77 56 78
REMARK SMILES IDX 50 79 51 80 54 81 52 82 78 83 79 84 87 85 80 86 81 87 85 88
REMARK SMILES IDX 88 89 82 90 83 91 86 92 84 93 63 94 64 95 72 96 65 97 66 98
REMARK SMILES IDX 70 99 73 100 67 101 68 102 71 103 69 104
REMARK H PARENT 27 7 7 17 34 38 93 57 61 68
REMARK Flexibility Score: inf
ROOT
ATOM      1  C   UNL     1       9.625   2.468  -2.176  1.00  0.00     0.002 C 
ENDROOT
BRANCH   1   2
ATOM      2  C   UNL     1       9.417   1.177  -2.984  1.00  0.00     0.021 C 
BRANCH   2   3
ATOM      3  C   UNL     1       8.300   0.288  -2.444  1.00  0.00     0.116 C 
BRANCH   3   4
ATOM      4  N   UNL     1       7.067   1.032  -2.396  1.00  0.00    -0.356 N 
ATOM      5  O   UNL     1       5.790  -0.624  -1.467  1.00  0.00    -0.275 OA
ATOM      6  C   UNL     1       5.888   0.504  -1.935  1.00  0.00     0.224 C 
ATOM      7  H   UNL     1       7.071   1.966  -2.709  1.00  0.00     0.163 HD
BRANCH   6   8
ATOM      8  C   UNL     1       4.727   1.435  -2.228  1.00  0.00     0.162 C 
BRANCH   8   9
ATOM      9  C   UNL     1       3.562   1.245  -1.284  1.00  0.00     0.229 C 
ATOM     10  C   UNL     1       2.868   2.609  -1.085  1.00  0.00     0.123 C 
ATOM     11  O   UNL     1       4.078   1.030   0.058  1.00  0.00    -0.378 OA
ATOM     12  C   UNL     1       3.827   3.175  -0.082  1.00  0.00     0.092 C 
ATOM     13  N   UNL     1       4.512   2.286   0.560  1.00  0.00    -0.089 NA
BRANCH   9  14
ATOM     14  C   UNL     1       2.511   0.142  -1.574  1.00  0.00     0.268 C 
ATOM     15  O   UNL     1       1.513   0.093  -0.828  1.00  0.00    -0.270 OA
ATOM     16  N   UNL     1       2.483  -0.843  -2.503  1.00  0.00    -0.350 N 
ATOM     17  H   UNL     1       1.857  -1.530  -2.178  1.00  0.00     0.163 HD
BRANCH  16  18
ATOM     18  C   UNL     1       3.009  -1.314  -3.813  1.00  0.00     0.082 C 
ATOM     19  C   UNL     1       2.202  -0.705  -4.970  1.00  0.00     0.025 C 
ATOM     20  C   UNL     1       4.516  -1.316  -4.053  1.00  0.00     0.025 C 
ATOM     21  C   UNL     1       2.692  -1.176  -6.341  1.00  0.00     0.002 C 
ATOM     22  C   UNL     1       4.965  -1.677  -5.467  1.00  0.00     0.002 C 
ATOM     23  C   UNL     1       4.177  -0.896  -6.508  1.00  0.00     0.000 C 
ENDBRANCH  16  18
ENDBRANCH   9  14
BRANCH  12  24
ATOM     24  C   UNL     1       4.046   4.623   0.083  1.00  0.00    -0.000 A 
ATOM     25  C   UNL     1       5.360   5.093   0.231  1.00  0.00     0.017 A 
ATOM     26  C   UNL     1       2.970   5.512   0.107  1.00  0.00     0.017 A 
ATOM     27  C   UNL     1       5.603   6.459   0.408  1.00  0.00     0.086 A 
ATOM     28  C   UNL     1       3.206   6.878   0.307  1.00  0.00     0.086 A 
ATOM     29  C   UNL     1       4.521   7.347   0.459  1.00  0.00     0.269 A 
BRANCH  29  30
ATOM     30  N   UNL     1       4.763   8.778   0.688  1.00  0.00     0.062 N 
ATOM     31  O   UNL     1       5.940   9.162   0.739  1.00  0.00    -0.258 OA
ATOM     32  O   UNL     1       3.776   9.516   0.810  1.00  0.00    -0.258 OA
ENDBRANCH  29  30
ENDBRANCH  12  24
ENDBRANCH   8   9
ENDBRANCH   6   8
ENDBRANCH   3   4
ENDBRANCH   2   3
ENDBRANCH   1   2
BRANCH   1  33
ATOM     33  C   UNL     1       9.824   2.251  -0.674  1.00  0.00     0.002 C 
BRANCH  33  34
ATOM     34  C   UNL     1      11.030   1.380  -0.325  1.00  0.00     0.021 C 
BRANCH  34  35
ATOM     35  C   UNL     1      12.337   1.867  -0.932  1.00  0.00     0.116 C 
BRANCH  35  36
ATOM     36  N   UNL     1      12.663   3.226  -0.524  1.00  0.00    -0.352 N 
ATOM     37  C   UNL     1      13.887   3.735  -0.184  1.00  0.00     0.251 C 
ATOM     38  H   UNL     1      11.909   3.858  -0.489  1.00  0.00     0.163 HD
ATOM     39  O   UNL     1      13.994   4.863   0.294  1.00  0.00    -0.269 OA
BRANCH  37  40
ATOM     40  C   UNL     1      15.079   2.894  -0.380  1.00  0.00     0.039 A 
ATOM     41  C   UNL     1      15.963   2.713   0.683  1.00  0.00     0.014 A 
ATOM     42  C   UNL     1      15.285   2.248  -1.603  1.00  0.00     0.014 A 
ATOM     43  C   UNL     1      17.039   1.840   0.534  1.00  0.00     0.010 A 
ATOM     44  C   UNL     1      16.312   1.322  -1.724  1.00  0.00     0.010 A 
ATOM     45  C   UNL     1      17.204   1.119  -0.661  1.00  0.00    -0.014 A 
BRANCH  45  46
ATOM     46  C   UNL     1      18.321   0.161  -0.827  1.00  0.00     0.031 A 
ATOM     47  C   UNL     1      19.389   0.430  -1.847  1.00  0.00     0.074 A 
ATOM     48  C   UNL     1      18.338  -0.974  -0.102  1.00  0.00     0.049 A 
ATOM     49  N   UNL     1      20.417  -0.305  -2.185  1.00  0.00    -0.248 NA
ATOM     50  C   UNL     1      19.269   1.682  -2.613  1.00  0.00     0.031 C 
ATOM     51  C   UNL     1      17.328  -1.363   0.883  1.00  0.00     0.029 A 
ATOM     52  N   UNL     1      19.235  -2.011  -0.089  1.00  0.00    -0.354 N 
ATOM     53  C   UNL     1      21.053   0.385  -3.208  1.00  0.00     0.074 A 
ATOM     54  C   UNL     1      20.265   1.567  -3.478  1.00  0.00     0.031 C 
ATOM     55  C   UNL     1      17.677  -2.541   1.426  1.00  0.00     0.029 A 
ATOM     56  C   UNL     1      18.912  -3.005   0.802  1.00  0.00     0.049 A 
ATOM     57  H   UNL     1      20.034  -2.041  -0.663  1.00  0.00     0.167 HD
ATOM     58  C   UNL     1      22.207   0.074  -3.844  1.00  0.00     0.037 A 
ATOM     59  C   UNL     1      19.545  -4.160   1.080  1.00  0.00     0.037 A 
ATOM     60  C   UNL     1      22.999  -1.091  -3.550  1.00  0.00     0.049 A 
ATOM     61  C   UNL     1      20.820  -4.487   0.351  1.00  0.00     0.074 A 
ATOM     62  C   UNL     1      24.215  -1.467  -4.090  1.00  0.00     0.029 A 
ATOM     63  N   UNL     1      22.647  -2.071  -2.633  1.00  0.00    -0.354 N 
ATOM     64  N   UNL     1      21.455  -3.791  -0.561  1.00  0.00    -0.248 NA
ATOM     65  C   UNL     1      21.470  -5.759   0.695  1.00  0.00     0.031 C 
ATOM     66  C   UNL     1      24.576  -2.700  -3.536  1.00  0.00     0.029 A 
ATOM     67  C   UNL     1      23.611  -3.066  -2.611  1.00  0.00     0.049 A 
ATOM     68  H   UNL     1      21.832  -2.061  -2.080  1.00  0.00     0.167 HD
ATOM     69  C   UNL     1      22.592  -4.522  -0.876  1.00  0.00     0.074 A 
ATOM     70  C   UNL     1      22.566  -5.710  -0.048  1.00  0.00     0.031 C 
ATOM     71  C   UNL     1      23.570  -4.236  -1.771  1.00  0.00     0.037 A 
BRANCH  58  72
ATOM     72  C   UNL     1      22.678   1.010  -4.920  1.00  0.00     0.064 A 
ATOM     73  C   UNL     1      23.139   2.302  -4.623  1.00  0.00     0.173 A 
ATOM     74  C   UNL     1      22.687   0.604  -6.263  1.00  0.00     0.173 A 
ATOM     75  F   UNL     1      23.139   2.745  -3.357  1.00  0.00    -0.203 F 
ATOM     76  C   UNL     1      23.557   3.165  -5.633  1.00  0.00     0.198 A 
ATOM     77  C   UNL     1      23.137   1.458  -7.267  1.00  0.00     0.198 A 
ATOM     78  F   UNL     1      22.260  -0.621  -6.603  1.00  0.00    -0.203 F 
ATOM     79  F   UNL     1      23.938   4.413  -5.331  1.00  0.00    -0.200 F 
ATOM     80  C   UNL     1      23.562   2.740  -6.953  1.00  0.00     0.200 A 
ATOM     81  F   UNL     1      23.152   1.041  -8.541  1.00  0.00    -0.200 F 
ATOM     82  F   UNL     1      23.968   3.569  -7.924  1.00  0.00    -0.200 F 
ENDBRANCH  58  72
BRANCH  59  83
ATOM     83  C   UNL     1      19.002  -5.075   2.117  1.00  0.00     0.064 A 
ATOM     84  C   UNL     1      19.674  -5.258   3.334  1.00  0.00     0.173 A 
ATOM     85  C   UNL     1      17.810  -5.786   1.917  1.00  0.00     0.173 A 
ATOM     86  F   UNL     1      20.828  -4.615   3.564  1.00  0.00    -0.203 F 
ATOM     87  C   UNL     1      19.187  -6.134   4.301  1.00  0.00     0.198 A 
ATOM     88  C   UNL     1      17.308  -6.640   2.897  1.00  0.00     0.198 A 
ATOM     89  F   UNL     1      17.126  -5.642   0.772  1.00  0.00    -0.203 F 
ATOM     90  F   UNL     1      19.874  -6.325   5.436  1.00  0.00    -0.200 F 
ATOM     91  C   UNL     1      18.002  -6.820   4.085  1.00  0.00     0.200 A 
ATOM     92  F   UNL     1      16.156  -7.291   2.689  1.00  0.00    -0.200 F 
ATOM     93  F   UNL     1      17.532  -7.661   5.016  1.00  0.00    -0.200 F 
ENDBRANCH  59  83
BRANCH  71  94
ATOM     94  C   UNL     1      24.713  -5.204  -1.871  1.00  0.00     0.064 A 
ATOM     95  C   UNL     1      24.557  -6.469  -2.458  1.00  0.00     0.173 A 
ATOM     96  C   UNL     1      25.988  -4.845  -1.410  1.00  0.00     0.173 A 
ATOM     97  F   UNL     1      23.354  -6.865  -2.900  1.00  0.00    -0.203 F 
ATOM     98  C   UNL     1      25.632  -7.349  -2.554  1.00  0.00     0.198 A 
ATOM     99  C   UNL     1      27.067  -5.715  -1.538  1.00  0.00     0.198 A 
ATOM    100  F   UNL     1      26.191  -3.644  -0.848  1.00  0.00    -0.203 F 
ATOM    101  F   UNL     1      25.450  -8.571  -3.073  1.00  0.00    -0.200 F 
ATOM    102  C   UNL     1      26.887  -6.968  -2.102  1.00  0.00     0.200 A 
ATOM    103  F   UNL     1      28.282  -5.340  -1.114  1.00  0.00    -0.200 F 
ATOM    104  F   UNL     1      27.922  -7.814  -2.204  1.00  0.00    -0.200 F 
ENDBRANCH  71  94
ENDBRANCH  45  46
ENDBRANCH  37  40
ENDBRANCH  35  36
ENDBRANCH  34  35
ENDBRANCH  33  34
ENDBRANCH   1  33
TORSDOF 18
