REMARK SMILES C[C@H]([C@@H]1CCCO1)n1c(SCC(=O)NCCCCCCNC(=O)c2ccc(-c3c4nc(c(-c5c(F)c(F)c(F)c(F)c5F)c5ccc([nH]5)c(-c5c(F)c(F)c(F)c(F)c5F)c5nc(c(-c6c(F)c(F)c(F)c(F)c6F)c6ccc3[nH]6)C=C5)C=C4)cc2)nc2cnccc21
REMARK SMILES IDX 16 1 15 2 14 3 12 4 13 5 11 7 10 8 9 9 8 10 93 11 87 12
REMARK SMILES IDX 88 13 92 14 89 15 91 16 90 17 2 18 1 19 3 20 4 21 7 22 5 23
REMARK SMILES IDX 6 24 17 25 18 26 19 27 20 28 21 29 22 30 23 32 24 33 25 34
REMARK SMILES IDX 86 35 26 36 85 37 27 38 28 39 29 40 79 41 30 42 84 43 78 44
REMARK SMILES IDX 80 45 31 46 83 47 77 48 76 49 32 51 64 52 44 53 63 54 45 55
REMARK SMILES IDX 48 56 62 57 81 58 46 59 47 60 61 62 82 63 49 64 33 65 34 66
REMARK SMILES IDX 42 67 35 68 36 69 40 70 43 71 37 72 38 73 41 74 39 75 65 76
REMARK SMILES IDX 66 77 74 78 67 79 68 80 72 81 75 82 69 83 70 84 73 85 71 86
REMARK SMILES IDX 50 87 51 88 59 89 52 90 53 91 57 92 60 93 54 94 55 95 58 96
REMARK SMILES IDX 56 97
REMARK H PARENT 14 6 21 31 80 50 48 61
REMARK Flexibility Score: inf
ROOT
ATOM      1  C   UNL     1      -1.501   4.260  -3.408  1.00  0.00     0.021 C 
ENDROOT
BRANCH   1   2
ATOM      2  C   UNL     1      -0.531   3.297  -4.062  1.00  0.00     0.116 C 
BRANCH   2   3
ATOM      3  N   UNL     1       0.602   3.038  -3.218  1.00  0.00    -0.355 N 
ATOM      4  C   UNL     1       1.043   1.823  -2.811  1.00  0.00     0.230 C 
ATOM      5  O   UNL     1       2.182   1.758  -2.342  1.00  0.00    -0.274 OA
ATOM      6  H   UNL     1       1.109   3.821  -2.903  1.00  0.00     0.163 HD
BRANCH   4   7
ATOM      7  C   UNL     1       0.208   0.596  -3.055  1.00  0.00     0.178 C 
BRANCH   7   8
ATOM      8  S   UNL     1      -1.240   0.237  -2.084  1.00  0.00    -0.078 SA
BRANCH   8   9
ATOM      9  C   UNL     1      -1.579   0.931  -0.536  1.00  0.00     0.169 A 
ATOM     10  N   UNL     1      -0.890   0.986   0.669  1.00  0.00    -0.313 N 
ATOM     11  C   UNL     1      -1.822   1.359   1.655  1.00  0.00     0.072 A 
ATOM     12  N   UNL     1      -2.866   1.170  -0.330  1.00  0.00    -0.221 NA
ATOM     13  C   UNL     1      -3.044   1.388   1.006  1.00  0.00     0.108 A 
ATOM     14  C   UNL     1      -1.725   1.646   3.026  1.00  0.00     0.049 A 
ATOM     15  C   UNL     1      -4.208   1.624   1.749  1.00  0.00     0.141 A 
ATOM     16  C   UNL     1      -2.925   1.902   3.674  1.00  0.00     0.113 A 
ATOM     17  N   UNL     1      -4.138   1.882   3.083  1.00  0.00    -0.262 NA
BRANCH  10  18
ATOM     18  C   UNL     1       0.517   0.852   1.046  1.00  0.00     0.116 C 
ATOM     19  C   UNL     1       1.295   2.118   0.704  1.00  0.00     0.034 C 
BRANCH  18  20
ATOM     20  C   UNL     1       1.235  -0.508   0.879  1.00  0.00     0.141 C 
ATOM     21  C   UNL     1       1.739  -0.888  -0.482  1.00  0.00     0.036 C 
ATOM     22  O   UNL     1       0.418  -1.580   1.365  1.00  0.00    -0.376 OA
ATOM     23  C   UNL     1       1.047  -2.173  -0.853  1.00  0.00     0.031 C 
ATOM     24  C   UNL     1       0.114  -2.473   0.294  1.00  0.00     0.160 C 
ENDBRANCH  18  20
ENDBRANCH  10  18
ENDBRANCH   8   9
ENDBRANCH   7   8
ENDBRANCH   4   7
ENDBRANCH   2   3
ENDBRANCH   1   2
BRANCH   1  25
ATOM     25  C   UNL     1      -0.977   5.692  -3.280  1.00  0.00     0.002 C 
BRANCH  25  26
ATOM     26  C   UNL     1      -0.349   6.283  -4.546  1.00  0.00     0.002 C 
BRANCH  26  27
ATOM     27  C   UNL     1      -1.153   6.102  -5.840  1.00  0.00     0.021 C 
BRANCH  27  28
ATOM     28  C   UNL     1      -2.609   6.554  -5.752  1.00  0.00     0.116 C 
BRANCH  28  29
ATOM     29  N   UNL     1      -2.734   7.948  -5.404  1.00  0.00    -0.352 N 
ATOM     30  C   UNL     1      -2.650   9.107  -6.110  1.00  0.00     0.251 C 
ATOM     31  H   UNL     1      -2.922   8.091  -4.448  1.00  0.00     0.163 HD
ATOM     32  O   UNL     1      -2.840  10.150  -5.464  1.00  0.00    -0.269 OA
BRANCH  30  33
ATOM     33  C   UNL     1      -2.307   9.215  -7.553  1.00  0.00     0.039 A 
ATOM     34  C   UNL     1      -2.060   8.151  -8.422  1.00  0.00     0.014 A 
ATOM     35  C   UNL     1      -2.182  10.525  -8.053  1.00  0.00     0.014 A 
ATOM     36  C   UNL     1      -1.607   8.385  -9.714  1.00  0.00     0.010 A 
ATOM     37  C   UNL     1      -1.760  10.766  -9.355  1.00  0.00     0.010 A 
ATOM     38  C   UNL     1      -1.426   9.693 -10.171  1.00  0.00    -0.014 A 
BRANCH  38  39
ATOM     39  C   UNL     1      -0.950   9.866 -11.539  1.00  0.00     0.031 A 
ATOM     40  C   UNL     1      -1.779   9.213 -12.592  1.00  0.00     0.074 A 
ATOM     41  C   UNL     1       0.130  10.598 -11.874  1.00  0.00     0.049 A 
ATOM     42  N   UNL     1      -1.430   8.265 -13.402  1.00  0.00    -0.248 NA
ATOM     43  C   UNL     1      -3.194   9.595 -12.692  1.00  0.00     0.031 C 
ATOM     44  C   UNL     1       0.920  11.505 -11.040  1.00  0.00     0.029 A 
ATOM     45  N   UNL     1       0.706  10.729 -13.102  1.00  0.00    -0.354 N 
ATOM     46  C   UNL     1      -2.535   8.018 -14.215  1.00  0.00     0.074 A 
ATOM     47  C   UNL     1      -3.620   8.792 -13.669  1.00  0.00     0.031 C 
ATOM     48  C   UNL     1       1.726  12.249 -11.831  1.00  0.00     0.029 A 
ATOM     49  C   UNL     1       1.616  11.770 -13.198  1.00  0.00     0.049 A 
ATOM     50  H   UNL     1       0.494  10.134 -13.857  1.00  0.00     0.167 HD
ATOM     51  C   UNL     1      -2.424   7.316 -15.377  1.00  0.00     0.037 A 
ATOM     52  C   UNL     1       2.191  12.235 -14.334  1.00  0.00     0.037 A 
ATOM     53  C   UNL     1      -1.225   6.521 -15.399  1.00  0.00     0.049 A 
ATOM     54  C   UNL     1       2.130  11.148 -15.343  1.00  0.00     0.074 A 
ATOM     55  C   UNL     1      -0.742   5.479 -14.630  1.00  0.00     0.029 A 
ATOM     56  N   UNL     1      -0.150   6.968 -16.125  1.00  0.00    -0.354 N 
ATOM     57  N   UNL     1       2.813  10.041 -15.262  1.00  0.00    -0.248 NA
ATOM     58  C   UNL     1       0.976  11.109 -16.229  1.00  0.00     0.031 C 
ATOM     59  C   UNL     1       0.665   5.699 -14.556  1.00  0.00     0.029 A 
ATOM     60  C   UNL     1       0.951   6.829 -15.322  1.00  0.00     0.049 A 
ATOM     61  H   UNL     1      -0.167   7.319 -17.044  1.00  0.00     0.167 HD
ATOM     62  C   UNL     1       1.950   9.062 -15.729  1.00  0.00     0.074 A 
ATOM     63  C   UNL     1       0.872   9.788 -16.394  1.00  0.00     0.031 C 
ATOM     64  C   UNL     1       2.042   7.772 -15.294  1.00  0.00     0.037 A 
BRANCH  51  65
ATOM     65  C   UNL     1      -3.224   7.588 -16.628  1.00  0.00     0.064 A 
ATOM     66  C   UNL     1      -3.083   6.728 -17.738  1.00  0.00     0.173 A 
ATOM     67  C   UNL     1      -3.868   8.815 -16.889  1.00  0.00     0.173 A 
ATOM     68  F   UNL     1      -2.482   5.535 -17.610  1.00  0.00    -0.203 F 
ATOM     69  C   UNL     1      -3.466   7.113 -19.026  1.00  0.00     0.198 A 
ATOM     70  C   UNL     1      -4.295   9.175 -18.167  1.00  0.00     0.198 A 
ATOM     71  F   UNL     1      -4.010   9.758 -15.951  1.00  0.00    -0.203 F 
ATOM     72  F   UNL     1      -3.188   6.319 -20.068  1.00  0.00    -0.200 F 
ATOM     73  C   UNL     1      -4.061   8.342 -19.241  1.00  0.00     0.200 A 
ATOM     74  F   UNL     1      -4.858  10.376 -18.358  1.00  0.00    -0.200 F 
ATOM     75  F   UNL     1      -4.364   8.744 -20.482  1.00  0.00    -0.200 F 
ENDBRANCH  51  65
BRANCH  52  76
ATOM     76  C   UNL     1       2.484  13.643 -14.691  1.00  0.00     0.064 A 
ATOM     77  C   UNL     1       3.313  13.957 -15.781  1.00  0.00     0.173 A 
ATOM     78  C   UNL     1       1.733  14.705 -14.150  1.00  0.00     0.173 A 
ATOM     79  F   UNL     1       4.026  12.996 -16.386  1.00  0.00    -0.203 F 
ATOM     80  C   UNL     1       3.364  15.251 -16.313  1.00  0.00     0.198 A 
ATOM     81  C   UNL     1       1.792  15.995 -14.676  1.00  0.00     0.198 A 
ATOM     82  F   UNL     1       0.852  14.492 -13.162  1.00  0.00    -0.203 F 
ATOM     83  F   UNL     1       4.116  15.499 -17.395  1.00  0.00    -0.200 F 
ATOM     84  C   UNL     1       2.595  16.265 -15.767  1.00  0.00     0.200 A 
ATOM     85  F   UNL     1       1.014  16.958 -14.161  1.00  0.00    -0.200 F 
ATOM     86  F   UNL     1       2.596  17.488 -16.316  1.00  0.00    -0.200 F 
ENDBRANCH  52  76
BRANCH  64  87
ATOM     87  C   UNL     1       3.249   7.376 -14.493  1.00  0.00     0.064 A 
ATOM     88  C   UNL     1       3.558   7.912 -13.231  1.00  0.00     0.173 A 
ATOM     89  C   UNL     1       4.013   6.287 -14.936  1.00  0.00     0.173 A 
ATOM     90  F   UNL     1       2.812   8.886 -12.693  1.00  0.00    -0.203 F 
ATOM     91  C   UNL     1       4.604   7.400 -12.465  1.00  0.00     0.198 A 
ATOM     92  C   UNL     1       5.032   5.755 -14.153  1.00  0.00     0.198 A 
ATOM     93  F   UNL     1       3.725   5.698 -16.108  1.00  0.00    -0.203 F 
ATOM     94  F   UNL     1       4.877   7.927 -11.262  1.00  0.00    -0.200 F 
ATOM     95  C   UNL     1       5.332   6.315 -12.922  1.00  0.00     0.200 A 
ATOM     96  F   UNL     1       5.699   4.671 -14.575  1.00  0.00    -0.200 F 
ATOM     97  F   UNL     1       6.301   5.786 -12.161  1.00  0.00    -0.200 F 
ENDBRANCH  64  87
ENDBRANCH  38  39
ENDBRANCH  30  33
ENDBRANCH  28  29
ENDBRANCH  27  28
ENDBRANCH  26  27
ENDBRANCH  25  26
ENDBRANCH   1  25
TORSDOF 17
