REMARK SMILES CN1C=C/C(=C\C=C/C=N\c2ccc(C(=O)NCCCCCCNC(=O)c3ccc(-c4c5nc(c(-c6c(F)c(F)c(F)c(F)c6F)c6ccc([nH]6)c(-c6c(F)c(F)c(F)c(F)c6F)c6nc(c(-c7c(F)c(F)c(F)c(F)c7F)c7ccc4[nH]7)C=C6)C=C5)cc3)cc2)c2ccccc21
REMARK SMILES IDX 20 1 19 2 18 3 17 4 15 5 16 6 14 8 11 9 12 10 91 11 13 12
REMARK SMILES IDX 90 13 10 14 9 15 8 16 7 17 6 18 1 19 2 20 3 21 97 22 4 23
REMARK SMILES IDX 92 24 96 25 5 26 93 27 95 28 94 29 21 30 22 31 23 32 24 33
REMARK SMILES IDX 25 34 26 36 27 37 28 38 89 39 29 40 88 41 30 42 31 43 32 44
REMARK SMILES IDX 82 45 33 46 87 47 81 48 83 49 34 50 86 51 80 52 79 53 35 55
REMARK SMILES IDX 67 56 47 57 66 58 48 59 51 60 65 61 84 62 49 63 50 64 64 66
REMARK SMILES IDX 85 67 52 68 36 69 37 70 45 71 38 72 39 73 43 74 46 75 40 76
REMARK SMILES IDX 41 77 44 78 42 79 68 80 69 81 77 82 70 83 71 84 75 85 78 86
REMARK SMILES IDX 72 87 73 88 76 89 74 90 53 91 54 92 62 93 55 94 56 95 60 96
REMARK SMILES IDX 63 97 57 98 58 99 61 100 59 101
REMARK H PARENT 17 7 24 35 83 54 51 65
REMARK Flexibility Score: inf
ROOT
ATOM      1  C   UNL     1      -8.282  -3.615 -12.629  1.00  0.00     0.002 C 
ENDROOT
BRANCH   1   2
ATOM      2  C   UNL     1      -7.441  -4.110 -11.450  1.00  0.00     0.021 C 
BRANCH   2   3
ATOM      3  C   UNL     1      -5.981  -4.459 -11.726  1.00  0.00     0.116 C 
BRANCH   3   4
ATOM      4  N   UNL     1      -5.215  -3.390 -12.332  1.00  0.00    -0.352 N 
ATOM      5  C   UNL     1      -3.889  -3.047 -12.207  1.00  0.00     0.251 C 
ATOM      6  O   UNL     1      -3.478  -2.084 -12.853  1.00  0.00    -0.269 OA
ATOM      7  H   UNL     1      -5.731  -2.810 -12.937  1.00  0.00     0.163 HD
BRANCH   5   8
ATOM      8  C   UNL     1      -2.965  -3.739 -11.268  1.00  0.00     0.039 A 
ATOM      9  C   UNL     1      -1.342  -4.807  -9.231  1.00  0.00     0.063 A 
ATOM     10  C   UNL     1      -1.119  -3.511  -9.705  1.00  0.00     0.029 A 
ATOM     11  C   UNL     1      -2.265  -5.613  -9.898  1.00  0.00     0.029 A 
ATOM     12  C   UNL     1      -1.947  -2.968 -10.690  1.00  0.00     0.016 A 
ATOM     13  C   UNL     1      -3.049  -5.093 -10.935  1.00  0.00     0.016 A 
BRANCH   9  14
ATOM     14  N   UNL     1      -0.654  -5.330  -8.129  1.00  0.00    -0.257 NA
ATOM     15  C   UNL     1      -0.699  -4.739  -6.974  1.00  0.00     0.111 C 
BRANCH  15  16
ATOM     16  C   UNL     1      -1.415  -3.492  -6.577  1.00  0.00     0.020 C 
ATOM     17  C   UNL     1      -1.266  -2.828  -5.421  1.00  0.00     0.002 C 
BRANCH  17  18
ATOM     18  C   UNL     1      -0.489  -3.232  -4.265  1.00  0.00     0.009 C 
ATOM     19  C   UNL     1       0.988   0.015   0.149  1.00  0.00     0.149 C 
ATOM     20  N   UNL     1       0.609  -0.839  -0.976  1.00  0.00    -0.351 N 
ATOM     21  C   UNL     1       0.007  -0.320  -2.107  1.00  0.00     0.086 C 
ATOM     22  C   UNL     1       0.894  -2.233  -0.905  1.00  0.00     0.048 A 
ATOM     23  C   UNL     1      -0.359  -1.030  -3.180  1.00  0.00     0.026 C 
ATOM     24  C   UNL     1       0.568  -3.087  -2.005  1.00  0.00     0.005 A 
ATOM     25  C   UNL     1       1.490  -2.813   0.235  1.00  0.00     0.027 A 
ATOM     26  C   UNL     1      -0.118  -2.472  -3.209  1.00  0.00    -0.015 C 
ATOM     27  C   UNL     1       0.867  -4.462  -1.909  1.00  0.00     0.011 A 
ATOM     28  C   UNL     1       1.764  -4.180   0.305  1.00  0.00     0.002 A 
ATOM     29  C   UNL     1       1.457  -5.002  -0.767  1.00  0.00     0.001 A 
ENDBRANCH  17  18
ENDBRANCH  15  16
ENDBRANCH   9  14
ENDBRANCH   5   8
ENDBRANCH   3   4
ENDBRANCH   2   3
ENDBRANCH   1   2
BRANCH   1  30
ATOM     30  C   UNL     1      -8.264  -4.457 -13.905  1.00  0.00     0.002 C 
BRANCH  30  31
ATOM     31  C   UNL     1      -8.559  -5.947 -13.750  1.00  0.00     0.021 C 
BRANCH  31  32
ATOM     32  C   UNL     1      -9.828  -6.307 -12.991  1.00  0.00     0.116 C 
BRANCH  32  33
ATOM     33  N   UNL     1     -11.052  -5.880 -13.647  1.00  0.00    -0.352 N 
ATOM     34  C   UNL     1     -12.217  -6.587 -13.859  1.00  0.00     0.251 C 
ATOM     35  H   UNL     1     -11.049  -4.957 -13.989  1.00  0.00     0.163 HD
ATOM     36  O   UNL     1     -13.132  -6.097 -14.506  1.00  0.00    -0.269 OA
BRANCH  34  37
ATOM     37  C   UNL     1     -12.339  -7.971 -13.340  1.00  0.00     0.039 A 
ATOM     38  C   UNL     1     -11.942  -8.286 -12.040  1.00  0.00     0.014 A 
ATOM     39  C   UNL     1     -12.821  -8.974 -14.186  1.00  0.00     0.014 A 
ATOM     40  C   UNL     1     -11.847  -9.619 -11.655  1.00  0.00     0.010 A 
ATOM     41  C   UNL     1     -12.812 -10.308 -13.762  1.00  0.00     0.010 A 
ATOM     42  C   UNL     1     -12.270 -10.648 -12.514  1.00  0.00    -0.014 A 
BRANCH  42  43
ATOM     43  C   UNL     1     -12.119 -12.062 -12.078  1.00  0.00     0.031 A 
ATOM     44  C   UNL     1     -11.183 -13.000 -12.794  1.00  0.00     0.074 A 
ATOM     45  C   UNL     1     -12.770 -12.480 -10.974  1.00  0.00     0.049 A 
ATOM     46  N   UNL     1     -10.864 -14.235 -12.494  1.00  0.00    -0.248 NA
ATOM     47  C   UNL     1     -10.519 -12.492 -14.005  1.00  0.00     0.031 C 
ATOM     48  C   UNL     1     -13.703 -11.665 -10.195  1.00  0.00     0.029 A 
ATOM     49  N   UNL     1     -12.719 -13.671 -10.294  1.00  0.00    -0.354 N 
ATOM     50  C   UNL     1      -9.979 -14.652 -13.480  1.00  0.00     0.074 A 
ATOM     51  C   UNL     1      -9.834 -13.553 -14.409  1.00  0.00     0.031 C 
ATOM     52  C   UNL     1     -14.081 -12.351  -9.107  1.00  0.00     0.029 A 
ATOM     53  C   UNL     1     -13.465 -13.674  -9.141  1.00  0.00     0.049 A 
ATOM     54  H   UNL     1     -12.199 -14.447 -10.603  1.00  0.00     0.167 HD
ATOM     55  C   UNL     1      -9.334 -15.838 -13.590  1.00  0.00     0.037 A 
ATOM     56  C   UNL     1     -13.636 -14.633  -8.211  1.00  0.00     0.037 A 
ATOM     57  C   UNL     1      -9.457 -16.922 -12.651  1.00  0.00     0.049 A 
ATOM     58  C   UNL     1     -12.933 -15.950  -8.374  1.00  0.00     0.074 A 
ATOM     59  C   UNL     1      -8.817 -18.149 -12.663  1.00  0.00     0.029 A 
ATOM     60  N   UNL     1     -10.275 -16.909 -11.531  1.00  0.00    -0.354 N 
ATOM     61  N   UNL     1     -12.082 -16.320  -9.299  1.00  0.00    -0.248 NA
ATOM     62  C   UNL     1     -13.222 -16.986  -7.373  1.00  0.00     0.031 C 
ATOM     63  C   UNL     1      -9.278 -18.895 -11.575  1.00  0.00     0.029 A 
ATOM     64  C   UNL     1     -10.172 -18.116 -10.858  1.00  0.00     0.049 A 
ATOM     65  H   UNL     1     -10.843 -16.154 -11.254  1.00  0.00     0.167 HD
ATOM     66  C   UNL     1     -11.725 -17.624  -8.989  1.00  0.00     0.074 A 
ATOM     67  C   UNL     1     -12.438 -17.977  -7.778  1.00  0.00     0.031 C 
ATOM     68  C   UNL     1     -10.886 -18.454  -9.653  1.00  0.00     0.037 A 
BRANCH  55  69
ATOM     69  C   UNL     1      -8.426 -16.039 -14.769  1.00  0.00     0.064 A 
ATOM     70  C   UNL     1      -7.181 -15.398 -14.854  1.00  0.00     0.173 A 
ATOM     71  C   UNL     1      -8.770 -16.942 -15.787  1.00  0.00     0.173 A 
ATOM     72  F   UNL     1      -6.809 -14.519 -13.912  1.00  0.00    -0.203 F 
ATOM     73  C   UNL     1      -6.321 -15.644 -15.921  1.00  0.00     0.198 A 
ATOM     74  C   UNL     1      -7.896 -17.205 -16.839  1.00  0.00     0.198 A 
ATOM     75  F   UNL     1      -9.945 -17.589 -15.748  1.00  0.00    -0.203 F 
ATOM     76  F   UNL     1      -5.149 -14.998 -15.997  1.00  0.00    -0.200 F 
ATOM     77  C   UNL     1      -6.675 -16.553 -16.907  1.00  0.00     0.200 A 
ATOM     78  F   UNL     1      -8.234 -18.095 -17.782  1.00  0.00    -0.200 F 
ATOM     79  F   UNL     1      -5.838 -16.800 -17.924  1.00  0.00    -0.200 F 
ENDBRANCH  55  69
BRANCH  56  80
ATOM     80  C   UNL     1     -14.499 -14.360  -7.033  1.00  0.00     0.064 A 
ATOM     81  C   UNL     1     -13.943 -14.201  -5.757  1.00  0.00     0.173 A 
ATOM     82  C   UNL     1     -15.886 -14.202  -7.167  1.00  0.00     0.173 A 
ATOM     83  F   UNL     1     -12.624 -14.361  -5.577  1.00  0.00    -0.203 F 
ATOM     84  C   UNL     1     -14.743 -13.892  -4.659  1.00  0.00     0.198 A 
ATOM     85  C   UNL     1     -16.681 -13.866  -6.074  1.00  0.00     0.198 A 
ATOM     86  F   UNL     1     -16.465 -14.340  -8.369  1.00  0.00    -0.203 F 
ATOM     87  F   UNL     1     -14.190 -13.766  -3.445  1.00  0.00    -0.200 F 
ATOM     88  C   UNL     1     -16.109 -13.714  -4.820  1.00  0.00     0.200 A 
ATOM     89  F   UNL     1     -17.997 -13.677  -6.238  1.00  0.00    -0.200 F 
ATOM     90  F   UNL     1     -16.874 -13.396  -3.767  1.00  0.00    -0.200 F 
ENDBRANCH  56  80
BRANCH  68  91
ATOM     91  C   UNL     1     -10.677 -19.829  -9.094  1.00  0.00     0.064 A 
ATOM     92  C   UNL     1     -11.652 -20.826  -9.231  1.00  0.00     0.173 A 
ATOM     93  C   UNL     1      -9.455 -20.177  -8.500  1.00  0.00     0.173 A 
ATOM     94  F   UNL     1     -12.841 -20.537  -9.781  1.00  0.00    -0.203 F 
ATOM     95  C   UNL     1     -11.412 -22.125  -8.791  1.00  0.00     0.198 A 
ATOM     96  C   UNL     1      -9.209 -21.482  -8.082  1.00  0.00     0.198 A 
ATOM     97  F   UNL     1      -8.488 -19.259  -8.352  1.00  0.00    -0.203 F 
ATOM     98  F   UNL     1     -12.365 -23.059  -8.913  1.00  0.00    -0.200 F 
ATOM     99  C   UNL     1     -10.188 -22.454  -8.228  1.00  0.00     0.200 A 
ATOM    100  F   UNL     1      -8.021 -21.802  -7.551  1.00  0.00    -0.200 F 
ATOM    101  F   UNL     1      -9.950 -23.710  -7.824  1.00  0.00    -0.200 F 
ENDBRANCH  68  91
ENDBRANCH  42  43
ENDBRANCH  34  37
ENDBRANCH  32  33
ENDBRANCH  31  32
ENDBRANCH  30  31
ENDBRANCH   1  30
TORSDOF 16
