REMARK SMILES COc1ccc(OC)c([C@H](C(=O)NCCCCCCNC(=O)c2ccc(-c3c4nc(c(-c5c(F)c(F)c(F)c(F)c5F)c5ccc([nH]5)c(-c5c(F)c(F)c(F)c(F)c5F)c5nc(c(-c6c(F)c(F)c(F)c(F)c6F)c6ccc3[nH]6)C=C5)C=C4)cc2)[NH+]2CC[NH+](Cc3nccn3C)CC2)c1
REMARK SMILES IDX 16 1 15 2 14 3 13 4 11 5 12 6 10 8 9 9 3 10 4 11 99 12 5 13
REMARK SMILES IDX 6 14 2 15 1 16 7 17 8 18 86 19 87 20 98 21 88 23 97 24 89 25
REMARK SMILES IDX 90 27 91 28 92 29 95 30 93 31 94 32 96 33 17 34 18 35 19 36
REMARK SMILES IDX 20 37 21 38 22 40 23 41 24 42 85 43 25 44 84 45 26 46 27 47
REMARK SMILES IDX 28 48 78 49 29 50 83 51 77 52 79 53 30 54 82 55 76 56 75 57
REMARK SMILES IDX 31 59 63 60 43 61 62 62 44 63 47 64 61 65 80 66 45 67 46 68
REMARK SMILES IDX 60 70 81 71 48 72 32 73 33 74 41 75 34 76 35 77 39 78 42 79
REMARK SMILES IDX 36 80 37 81 40 82 38 83 64 84 65 85 73 86 66 87 67 88 71 89
REMARK SMILES IDX 74 90 68 91 69 92 72 93 70 94 49 95 50 96 58 97 51 98 52 99
REMARK SMILES IDX 56 100 59 101 53 102 54 103 57 104 55 105
REMARK H PARENT 13 7 86 22 89 26 20 39 79 58 47 69
REMARK Flexibility Score: inf
ROOT
ATOM      1  C   UNL     1       0.748  -1.802   0.564  1.00  0.00     0.002 C 
ENDROOT
BRANCH   1   2
ATOM      2  C   UNL     1       2.216  -1.967   0.964  1.00  0.00     0.021 C 
BRANCH   2   3
ATOM      3  C   UNL     1       2.928  -0.666   1.357  1.00  0.00     0.116 C 
BRANCH   3   4
ATOM      4  N   UNL     1       2.212   0.061   2.390  1.00  0.00    -0.351 N 
ATOM      5  C   UNL     1       2.489   0.293   3.711  1.00  0.00     0.283 C 
ATOM      6  O   UNL     1       1.586   0.837   4.354  1.00  0.00    -0.268 OA
ATOM      7  H   UNL     1       1.368   0.464   2.083  1.00  0.00     0.163 HD
BRANCH   5   8
ATOM      8  C   UNL     1       3.835  -0.174   4.334  1.00  0.00     0.309 C 
BRANCH   8   9
ATOM      9  C   UNL     1       4.639   0.866   5.129  1.00  0.00     0.065 A 
ATOM     10  C   UNL     1       4.666   2.885   6.544  1.00  0.00     0.119 A 
ATOM     11  C   UNL     1       6.037   2.744   6.720  1.00  0.00     0.050 A 
ATOM     12  C   UNL     1       3.983   1.947   5.767  1.00  0.00     0.060 A 
ATOM     13  C   UNL     1       6.718   1.698   6.098  1.00  0.00     0.051 A 
ATOM     14  C   UNL     1       6.038   0.768   5.299  1.00  0.00     0.128 A 
BRANCH  10  15
ATOM     15  O   UNL     1       4.109   3.977   7.152  1.00  0.00    -0.497 OA
ATOM     16  C   UNL     1       2.687   4.021   7.218  1.00  0.00     0.278 C 
ENDBRANCH  10  15
BRANCH  14  17
ATOM     17  O   UNL     1       6.875  -0.067   4.602  1.00  0.00    -0.496 OA
ATOM     18  C   UNL     1       6.665  -1.465   4.761  1.00  0.00     0.278 C 
ENDBRANCH  14  17
ENDBRANCH   8   9
BRANCH   8  19
ATOM     19  N   UNL     1       3.655  -1.420   5.107  1.00  0.00    -0.311 N 
ATOM     20  C   UNL     1       2.993  -1.350   6.414  1.00  0.00     0.325 C 
ATOM     21  C   UNL     1       3.283  -2.598   4.340  1.00  0.00     0.325 C 
ATOM     22  H   UNL     1       4.630  -1.554   5.372  1.00  0.00     0.349 HD
ATOM     23  C   UNL     1       1.533  -1.857   6.495  1.00  0.00     0.324 C 
ATOM     24  C   UNL     1       1.785  -2.978   4.383  1.00  0.00     0.324 C 
ATOM     25  N   UNL     1       1.193  -3.059   5.716  1.00  0.00    -0.319 N 
ATOM     26  H   UNL     1       0.181  -3.069   5.584  1.00  0.00     0.348 HD
BRANCH  25  27
ATOM     27  C   UNL     1       1.387  -4.332   6.430  1.00  0.00     0.339 C 
BRANCH  27  28
ATOM     28  C   UNL     1       2.800  -4.804   6.614  1.00  0.00     0.164 A 
ATOM     29  N   UNL     1       3.623  -4.380   7.558  1.00  0.00    -0.236 NA
ATOM     30  N   UNL     1       3.447  -5.714   5.803  1.00  0.00    -0.333 N 
ATOM     31  C   UNL     1       4.845  -4.926   7.277  1.00  0.00     0.131 A 
ATOM     32  C   UNL     1       4.764  -5.753   6.187  1.00  0.00     0.107 A 
ATOM     33  C   UNL     1       2.931  -6.446   4.672  1.00  0.00     0.151 C 
ENDBRANCH  27  28
ENDBRANCH  25  27
ENDBRANCH   8  19
ENDBRANCH   5   8
ENDBRANCH   3   4
ENDBRANCH   2   3
ENDBRANCH   1   2
BRANCH   1  34
ATOM     34  C   UNL     1       0.529  -0.890  -0.642  1.00  0.00     0.002 C 
BRANCH  34  35
ATOM     35  C   UNL     1       1.346  -1.275  -1.876  1.00  0.00     0.021 C 
BRANCH  35  36
ATOM     36  C   UNL     1       1.141  -2.713  -2.338  1.00  0.00     0.116 C 
BRANCH  36  37
ATOM     37  N   UNL     1      -0.215  -2.941  -2.808  1.00  0.00    -0.352 N 
ATOM     38  C   UNL     1      -0.627  -3.397  -4.032  1.00  0.00     0.251 C 
ATOM     39  H   UNL     1      -0.931  -2.741  -2.163  1.00  0.00     0.163 HD
ATOM     40  O   UNL     1      -1.809  -3.324  -4.364  1.00  0.00    -0.269 OA
BRANCH  38  41
ATOM     41  C   UNL     1       0.367  -3.966  -4.962  1.00  0.00     0.039 A 
ATOM     42  C   UNL     1       0.369  -3.549  -6.294  1.00  0.00     0.014 A 
ATOM     43  C   UNL     1       1.307  -4.898  -4.509  1.00  0.00     0.014 A 
ATOM     44  C   UNL     1       1.349  -4.029  -7.163  1.00  0.00     0.010 A 
ATOM     45  C   UNL     1       2.328  -5.315  -5.356  1.00  0.00     0.010 A 
ATOM     46  C   UNL     1       2.355  -4.892  -6.694  1.00  0.00    -0.014 A 
BRANCH  46  47
ATOM     47  C   UNL     1       3.437  -5.367  -7.591  1.00  0.00     0.031 A 
ATOM     48  C   UNL     1       3.564  -6.831  -7.908  1.00  0.00     0.074 A 
ATOM     49  C   UNL     1       4.336  -4.489  -8.075  1.00  0.00     0.049 A 
ATOM     50  N   UNL     1       4.471  -7.449  -8.623  1.00  0.00    -0.248 NA
ATOM     51  C   UNL     1       2.554  -7.725  -7.321  1.00  0.00     0.031 C 
ATOM     52  C   UNL     1       4.343  -3.051  -7.803  1.00  0.00     0.029 A 
ATOM     53  N   UNL     1       5.423  -4.678  -8.892  1.00  0.00    -0.354 N 
ATOM     54  C   UNL     1       4.144  -8.797  -8.563  1.00  0.00     0.074 A 
ATOM     55  C   UNL     1       2.996  -8.916  -7.692  1.00  0.00     0.031 C 
ATOM     56  C   UNL     1       5.365  -2.484  -8.463  1.00  0.00     0.029 A 
ATOM     57  C   UNL     1       6.110  -3.522  -9.169  1.00  0.00     0.049 A 
ATOM     58  H   UNL     1       5.684  -5.559  -9.245  1.00  0.00     0.167 HD
ATOM     59  C   UNL     1       4.733  -9.838  -9.199  1.00  0.00     0.037 A 
ATOM     60  C   UNL     1       7.221  -3.325  -9.905  1.00  0.00     0.037 A 
ATOM     61  C   UNL     1       5.866  -9.711 -10.079  1.00  0.00     0.049 A 
ATOM     62  C   UNL     1       7.870  -4.502 -10.582  1.00  0.00     0.074 A 
ATOM     63  C   UNL     1       6.504 -10.695 -10.812  1.00  0.00     0.029 A 
ATOM     64  N   UNL     1       6.534  -8.522 -10.339  1.00  0.00    -0.354 N 
ATOM     65  N   UNL     1       7.513  -5.763 -10.573  1.00  0.00    -0.248 NA
ATOM     66  C   UNL     1       9.076  -4.226 -11.375  1.00  0.00     0.031 C 
ATOM     67  C   UNL     1       7.592 -10.114 -11.470  1.00  0.00     0.029 A 
ATOM     68  C   UNL     1       7.595  -8.755 -11.200  1.00  0.00     0.049 A 
ATOM     69  H   UNL     1       6.290  -7.644  -9.967  1.00  0.00     0.167 HD
ATOM     70  C   UNL     1       8.427  -6.425 -11.383  1.00  0.00     0.074 A 
ATOM     71  C   UNL     1       9.347  -5.422 -11.878  1.00  0.00     0.031 C 
ATOM     72  C   UNL     1       8.498  -7.744 -11.690  1.00  0.00     0.037 A 
BRANCH  59  73
ATOM     73  C   UNL     1       4.161 -11.208  -8.965  1.00  0.00     0.064 A 
ATOM     74  C   UNL     1       2.891 -11.569  -9.442  1.00  0.00     0.173 A 
ATOM     75  C   UNL     1       4.904 -12.182  -8.281  1.00  0.00     0.173 A 
ATOM     76  F   UNL     1       2.134 -10.672 -10.092  1.00  0.00    -0.203 F 
ATOM     77  C   UNL     1       2.372 -12.840  -9.211  1.00  0.00     0.198 A 
ATOM     78  C   UNL     1       4.396 -13.464  -8.084  1.00  0.00     0.198 A 
ATOM     79  F   UNL     1       6.125 -11.895  -7.808  1.00  0.00    -0.203 F 
ATOM     80  F   UNL     1       1.134 -13.142  -9.625  1.00  0.00    -0.200 F 
ATOM     81  C   UNL     1       3.128 -13.789  -8.540  1.00  0.00     0.200 A 
ATOM     82  F   UNL     1       5.134 -14.384  -7.446  1.00  0.00    -0.200 F 
ATOM     83  F   UNL     1       2.630 -15.014  -8.324  1.00  0.00    -0.200 F 
ENDBRANCH  59  73
BRANCH  60  84
ATOM     84  C   UNL     1       7.776  -1.954 -10.060  1.00  0.00     0.064 A 
ATOM     85  C   UNL     1       7.742  -1.300 -11.300  1.00  0.00     0.173 A 
ATOM     86  C   UNL     1       8.355  -1.273  -8.980  1.00  0.00     0.173 A 
ATOM     87  F   UNL     1       7.216  -1.917 -12.368  1.00  0.00    -0.203 F 
ATOM     88  C   UNL     1       8.288  -0.028 -11.458  1.00  0.00     0.198 A 
ATOM     89  C   UNL     1       8.872   0.012  -9.132  1.00  0.00     0.198 A 
ATOM     90  F   UNL     1       8.407  -1.851  -7.771  1.00  0.00    -0.203 F 
ATOM     91  F   UNL     1       8.287   0.553 -12.666  1.00  0.00    -0.200 F 
ATOM     92  C   UNL     1       8.847   0.630 -10.373  1.00  0.00     0.200 A 
ATOM     93  F   UNL     1       9.396   0.650  -8.076  1.00  0.00    -0.200 F 
ATOM     94  F   UNL     1       9.368   1.855 -10.524  1.00  0.00    -0.200 F 
ENDBRANCH  60  84
BRANCH  72  95
ATOM     95  C   UNL     1       9.582  -8.175 -12.636  1.00  0.00     0.064 A 
ATOM     96  C   UNL     1      10.934  -8.180 -12.259  1.00  0.00     0.173 A 
ATOM     97  C   UNL     1       9.259  -8.627 -13.925  1.00  0.00     0.173 A 
ATOM     98  F   UNL     1      11.297  -7.744 -11.043  1.00  0.00    -0.203 F 
ATOM     99  C   UNL     1      11.923  -8.594 -13.148  1.00  0.00     0.198 A 
ATOM    100  C   UNL     1      10.247  -9.073 -14.798  1.00  0.00     0.198 A 
ATOM    101  F   UNL     1       7.981  -8.650 -14.333  1.00  0.00    -0.203 F 
ATOM    102  F   UNL     1      13.211  -8.540 -12.784  1.00  0.00    -0.200 F 
ATOM    103  C   UNL     1      11.578  -9.048 -14.412  1.00  0.00     0.200 A 
ATOM    104  F   UNL     1       9.910  -9.527 -16.013  1.00  0.00    -0.200 F 
ATOM    105  F   UNL     1      12.531  -9.455 -15.262  1.00  0.00    -0.200 F 
ENDBRANCH  72  95
ENDBRANCH  46  47
ENDBRANCH  38  41
ENDBRANCH  36  37
ENDBRANCH  35  36
ENDBRANCH  34  35
ENDBRANCH   1  34
TORSDOF 19
