REMARK SMILES O=Cc1cccc(-c2cc(F)ccc2C(=O)NCCCCCCNC(=O)c2ccc(-c3c4nc(c(-c5c(F)c(F)c(F)c(F)c5F)c5ccc([nH]5)c(-c5c(F)c(F)c(F)c(F)c5F)c5nc(c(-c6c(F)c(F)c(F)c(F)c6F)c6ccc3[nH]6)C=C5)C=C4)cc2)c1
REMARK SMILES IDX 20 1 19 2 18 3 17 4 15 5 16 6 14 8 8 9 9 10 10 11 13 12
REMARK SMILES IDX 11 13 12 14 7 15 3 16 4 17 90 18 5 19 6 20 2 21 1 22 21 23
REMARK SMILES IDX 22 24 23 25 24 26 25 27 26 29 27 30 28 31 89 32 29 33 88 34
REMARK SMILES IDX 30 35 31 36 32 37 82 38 33 39 87 40 81 41 83 42 34 43 86 44
REMARK SMILES IDX 80 45 79 46 35 48 67 49 47 50 66 51 48 52 51 53 65 54 84 55
REMARK SMILES IDX 49 56 50 57 64 59 85 60 52 61 36 62 37 63 45 64 38 65 39 66
REMARK SMILES IDX 43 67 46 68 40 69 41 70 44 71 42 72 68 73 69 74 77 75 70 76
REMARK SMILES IDX 71 77 75 78 78 79 72 80 73 81 76 82 74 83 53 84 54 85 62 86
REMARK SMILES IDX 55 87 56 88 60 89 63 90 57 91 58 92 61 93 59 94
REMARK H PARENT 17 7 24 28 83 47 51 58
REMARK Flexibility Score: inf
ROOT
ATOM      1  C   UNL     1       6.016   0.257  -1.259  1.00  0.00     0.002 C 
ENDROOT
BRANCH   1   2
ATOM      2  C   UNL     1       6.149  -1.271  -1.213  1.00  0.00     0.021 C 
BRANCH   2   3
ATOM      3  C   UNL     1       4.877  -2.100  -1.363  1.00  0.00     0.116 C 
BRANCH   3   4
ATOM      4  N   UNL     1       4.190  -1.974  -2.624  1.00  0.00    -0.352 N 
ATOM      5  C   UNL     1       3.333  -2.824  -3.282  1.00  0.00     0.251 C 
ATOM      6  O   UNL     1       2.830  -2.403  -4.328  1.00  0.00    -0.269 OA
ATOM      7  H   UNL     1       4.365  -1.129  -3.098  1.00  0.00     0.163 HD
BRANCH   5   8
ATOM      8  C   UNL     1       3.025  -4.238  -2.888  1.00  0.00     0.047 A 
ATOM      9  C   UNL     1       2.673  -4.732  -1.608  1.00  0.00    -0.003 A 
ATOM     10  C   UNL     1       2.332  -6.103  -1.491  1.00  0.00     0.048 A 
ATOM     11  C   UNL     1       2.314  -6.949  -2.593  1.00  0.00     0.123 A 
ATOM     12  C   UNL     1       2.986  -5.128  -3.992  1.00  0.00     0.017 A 
ATOM     13  F   UNL     1       1.968  -8.233  -2.435  1.00  0.00    -0.207 F 
ATOM     14  C   UNL     1       2.635  -6.472  -3.848  1.00  0.00     0.040 A 
BRANCH   9  15
ATOM     15  C   UNL     1       2.599  -3.935  -0.375  1.00  0.00    -0.017 A 
ATOM     16  C   UNL     1       1.759  -2.052   0.905  1.00  0.00     0.015 A 
ATOM     17  C   UNL     1       2.591  -2.384   1.980  1.00  0.00     0.011 A 
ATOM     18  C   UNL     1       1.744  -2.831  -0.259  1.00  0.00     0.020 A 
ATOM     19  C   UNL     1       3.417  -3.502   1.891  1.00  0.00     0.001 A 
ATOM     20  C   UNL     1       3.415  -4.271   0.728  1.00  0.00     0.009 A 
BRANCH  16  21
ATOM     21  C   UNL     1       0.944  -0.825   0.984  1.00  0.00     0.260 C 
ATOM     22  O   UNL     1       0.193  -0.483   0.081  1.00  0.00    -0.298 OA
ENDBRANCH  16  21
ENDBRANCH   9  15
ENDBRANCH   5   8
ENDBRANCH   3   4
ENDBRANCH   2   3
ENDBRANCH   1   2
BRANCH   1  23
ATOM     23  C   UNL     1       4.983   0.946  -0.359  1.00  0.00     0.002 C 
BRANCH  23  24
ATOM     24  C   UNL     1       4.928   0.559   1.121  1.00  0.00     0.021 C 
BRANCH  24  25
ATOM     25  C   UNL     1       6.231   0.575   1.913  1.00  0.00     0.116 C 
BRANCH  25  26
ATOM     26  N   UNL     1       6.768   1.906   2.125  1.00  0.00    -0.352 N 
ATOM     27  C   UNL     1       7.082   2.581   3.280  1.00  0.00     0.251 C 
ATOM     28  H   UNL     1       6.937   2.413   1.298  1.00  0.00     0.163 HD
ATOM     29  O   UNL     1       7.452   3.750   3.201  1.00  0.00    -0.269 OA
BRANCH  27  30
ATOM     30  C   UNL     1       6.968   1.958   4.626  1.00  0.00     0.039 A 
ATOM     31  C   UNL     1       6.514   2.759   5.684  1.00  0.00     0.014 A 
ATOM     32  C   UNL     1       7.375   0.648   4.895  1.00  0.00     0.014 A 
ATOM     33  C   UNL     1       6.430   2.244   6.983  1.00  0.00     0.010 A 
ATOM     34  C   UNL     1       7.234   0.114   6.183  1.00  0.00     0.010 A 
ATOM     35  C   UNL     1       6.771   0.909   7.244  1.00  0.00    -0.014 A 
BRANCH  35  36
ATOM     36  C   UNL     1       6.682   0.351   8.622  1.00  0.00     0.031 A 
ATOM     37  C   UNL     1       7.928  -0.052   9.366  1.00  0.00     0.074 A 
ATOM     38  C   UNL     1       5.479   0.172   9.204  1.00  0.00     0.049 A 
ATOM     39  N   UNL     1       8.048  -0.601  10.550  1.00  0.00    -0.248 NA
ATOM     40  C   UNL     1       9.208   0.174   8.679  1.00  0.00     0.031 C 
ATOM     41  C   UNL     1       4.189   0.490   8.593  1.00  0.00     0.029 A 
ATOM     42  N   UNL     1       5.147  -0.330  10.440  1.00  0.00    -0.354 N 
ATOM     43  C   UNL     1       9.409  -0.802  10.740  1.00  0.00     0.074 A 
ATOM     44  C   UNL     1      10.073  -0.353   9.534  1.00  0.00     0.031 C 
ATOM     45  C   UNL     1       3.207   0.191   9.459  1.00  0.00     0.029 A 
ATOM     46  C   UNL     1       3.794  -0.365  10.676  1.00  0.00     0.049 A 
ATOM     47  H   UNL     1       5.816  -0.636  11.094  1.00  0.00     0.167 HD
ATOM     48  C   UNL     1      10.052  -1.297  11.826  1.00  0.00     0.037 A 
ATOM     49  C   UNL     1       3.103  -0.798  11.748  1.00  0.00     0.037 A 
ATOM     50  C   UNL     1       9.405  -1.709  13.045  1.00  0.00     0.049 A 
ATOM     51  C   UNL     1       3.841  -1.335  12.945  1.00  0.00     0.074 A 
ATOM     52  C   UNL     1       9.983  -2.162  14.219  1.00  0.00     0.029 A 
ATOM     53  N   UNL     1       8.034  -1.713  13.248  1.00  0.00    -0.354 N 
ATOM     54  N   UNL     1       5.130  -1.470  13.129  1.00  0.00    -0.248 NA
ATOM     55  C   UNL     1       3.023  -1.774  14.086  1.00  0.00     0.031 C 
ATOM     56  C   UNL     1       8.960  -2.474  15.121  1.00  0.00     0.029 A 
ATOM     57  C   UNL     1       7.747  -2.179  14.522  1.00  0.00     0.049 A 
ATOM     58  H   UNL     1       7.364  -1.428  12.586  1.00  0.00     0.167 HD
ATOM     59  C   UNL     1       5.281  -1.984  14.410  1.00  0.00     0.074 A 
ATOM     60  C   UNL     1       3.951  -2.126  14.965  1.00  0.00     0.031 C 
ATOM     61  C   UNL     1       6.420  -2.311  15.066  1.00  0.00     0.037 A 
BRANCH  48  62
ATOM     62  C   UNL     1      11.546  -1.419  11.750  1.00  0.00     0.064 A 
ATOM     63  C   UNL     1      12.379  -0.291  11.796  1.00  0.00     0.173 A 
ATOM     64  C   UNL     1      12.154  -2.681  11.674  1.00  0.00     0.173 A 
ATOM     65  F   UNL     1      11.845   0.939  11.859  1.00  0.00    -0.203 F 
ATOM     66  C   UNL     1      13.764  -0.420  11.739  1.00  0.00     0.198 A 
ATOM     67  C   UNL     1      13.540  -2.808  11.645  1.00  0.00     0.198 A 
ATOM     68  F   UNL     1      11.403  -3.792  11.635  1.00  0.00    -0.203 F 
ATOM     69  F   UNL     1      14.538   0.674  11.740  1.00  0.00    -0.200 F 
ATOM     70  C   UNL     1      14.343  -1.678  11.670  1.00  0.00     0.200 A 
ATOM     71  F   UNL     1      14.099  -4.025  11.589  1.00  0.00    -0.200 F 
ATOM     72  F   UNL     1      15.677  -1.801  11.621  1.00  0.00    -0.200 F 
ENDBRANCH  48  62
BRANCH  49  73
ATOM     73  C   UNL     1       1.619  -0.721  11.751  1.00  0.00     0.064 A 
ATOM     74  C   UNL     1       0.950   0.210  12.557  1.00  0.00     0.173 A 
ATOM     75  C   UNL     1       0.844  -1.577  10.957  1.00  0.00     0.173 A 
ATOM     76  F   UNL     1       1.651   1.032  13.352  1.00  0.00    -0.203 F 
ATOM     77  C   UNL     1      -0.441   0.272  12.580  1.00  0.00     0.198 A 
ATOM     78  C   UNL     1      -0.547  -1.498  10.963  1.00  0.00     0.198 A 
ATOM     79  F   UNL     1       1.438  -2.484  10.167  1.00  0.00    -0.203 F 
ATOM     80  F   UNL     1      -1.057   1.144  13.390  1.00  0.00    -0.200 F 
ATOM     81  C   UNL     1      -1.189  -0.579  11.779  1.00  0.00     0.200 A 
ATOM     82  F   UNL     1      -1.266  -2.314  10.179  1.00  0.00    -0.200 F 
ATOM     83  F   UNL     1      -2.527  -0.517  11.799  1.00  0.00    -0.200 F 
ENDBRANCH  49  73
BRANCH  61  84
ATOM     84  C   UNL     1       6.284  -2.831  16.467  1.00  0.00     0.064 A 
ATOM     85  C   UNL     1       5.817  -4.128  16.725  1.00  0.00     0.173 A 
ATOM     86  C   UNL     1       6.658  -2.036  17.561  1.00  0.00     0.173 A 
ATOM     87  F   UNL     1       5.433  -4.920  15.713  1.00  0.00    -0.203 F 
ATOM     88  C   UNL     1       5.710  -4.603  18.030  1.00  0.00     0.198 A 
ATOM     89  C   UNL     1       6.572  -2.522  18.862  1.00  0.00     0.198 A 
ATOM     90  F   UNL     1       7.115  -0.790  17.366  1.00  0.00    -0.203 F 
ATOM     91  F   UNL     1       5.223  -5.831  18.256  1.00  0.00    -0.200 F 
ATOM     92  C   UNL     1       6.093  -3.803  19.096  1.00  0.00     0.200 A 
ATOM     93  F   UNL     1       6.952  -1.752  19.891  1.00  0.00    -0.200 F 
ATOM     94  F   UNL     1       5.993  -4.263  20.351  1.00  0.00    -0.200 F 
ENDBRANCH  61  84
ENDBRANCH  35  36
ENDBRANCH  27  30
ENDBRANCH  25  26
ENDBRANCH  24  25
ENDBRANCH  23  24
ENDBRANCH   1  23
TORSDOF 15
