REMARK SMILES CC/C=C/C/C=C/C/C=C/C/C=C/CC/C=C/COCC(=O)NCCCCCCNC(=O)c1ccc(-c2c3nc(c(-c4c(F)c(F)c(F)c(F)c4F)c4ccc([nH]4)c(-c4c(F)c(F)c(F)c(F)c4F)c4nc(c(-c5c(F)c(F)c(F)c(F)c5F)c5ccc2[nH]5)C=C4)C=C3)cc1
REMARK SMILES IDX 19 1 18 2 17 3 16 4 15 5 14 6 13 7 12 8 11 9 10 10 9 11 8 12
REMARK SMILES IDX 7 13 6 14 5 15 4 16 3 17 2 18 1 19 20 20 21 21 22 22 23 23
REMARK SMILES IDX 24 25 25 26 26 27 27 28 28 29 29 30 30 31 31 32 32 34 33 35
REMARK SMILES IDX 34 36 95 37 35 38 94 39 36 40 37 41 38 42 88 43 39 44 93 45
REMARK SMILES IDX 87 46 89 47 40 48 92 49 86 50 85 51 41 53 73 54 53 55 72 56
REMARK SMILES IDX 54 57 57 58 71 59 90 60 55 61 56 62 70 64 91 65 58 66 42 67
REMARK SMILES IDX 43 68 51 69 44 70 45 71 49 72 52 73 46 74 47 75 50 76 48 77
REMARK SMILES IDX 74 78 75 79 83 80 76 81 77 82 81 83 84 84 78 85 79 86 82 87
REMARK SMILES IDX 80 88 59 89 60 90 68 91 61 92 62 93 66 94 69 95 63 96 64 97
REMARK SMILES IDX 67 98 65 99
REMARK H PARENT 23 24 30 33 89 52 57 63
REMARK Flexibility Score: inf
ROOT
ATOM      1  O   UNL     1      -9.450   3.360 -14.407  1.00  0.00    -0.368 OA
ENDROOT
BRANCH   1   2
ATOM      2  C   UNL     1      -8.025   3.337 -14.506  1.00  0.00     0.188 C 
BRANCH   2   3
ATOM      3  C   UNL     1      -7.425   4.265 -13.498  1.00  0.00    -0.003 C 
ATOM      4  C   UNL     1      -6.626   3.842 -12.507  1.00  0.00    -0.029 C 
BRANCH   4   5
ATOM      5  C   UNL     1      -6.144   4.706 -11.375  1.00  0.00     0.031 C 
BRANCH   5   6
ATOM      6  C   UNL     1      -6.730   4.273 -10.020  1.00  0.00     0.031 C 
BRANCH   6   7
ATOM      7  C   UNL     1      -6.282   2.899  -9.598  1.00  0.00    -0.031 C 
ATOM      8  C   UNL     1      -5.471   2.653  -8.559  1.00  0.00    -0.027 C 
BRANCH   8   9
ATOM      9  C   UNL     1      -4.988   1.281  -8.185  1.00  0.00     0.054 C 
BRANCH   9  10
ATOM     10  C   UNL     1      -3.487   1.235  -8.197  1.00  0.00    -0.027 C 
ATOM     11  C   UNL     1      -2.735   0.920  -7.129  1.00  0.00    -0.027 C 
BRANCH  11  12
ATOM     12  C   UNL     1      -1.234   0.921  -7.125  1.00  0.00     0.054 C 
BRANCH  12  13
ATOM     13  C   UNL     1      -0.711   1.887  -6.101  1.00  0.00    -0.027 C 
ATOM     14  C   UNL     1       0.061   1.536  -5.059  1.00  0.00    -0.027 C 
BRANCH  14  15
ATOM     15  C   UNL     1       0.559   2.497  -4.018  1.00  0.00     0.054 C 
BRANCH  15  16
ATOM     16  C   UNL     1       0.086   2.094  -2.651  1.00  0.00    -0.027 C 
ATOM     17  C   UNL     1       0.903   1.775  -1.634  1.00  0.00    -0.031 C 
BRANCH  17  18
ATOM     18  C   UNL     1       0.424   1.362  -0.273  1.00  0.00     0.023 C 
ATOM     19  C   UNL     1       0.909  -0.036   0.080  1.00  0.00     0.008 C 
ENDBRANCH  17  18
ENDBRANCH  15  16
ENDBRANCH  14  15
ENDBRANCH  12  13
ENDBRANCH  11  12
ENDBRANCH   9  10
ENDBRANCH   8   9
ENDBRANCH   6   7
ENDBRANCH   5   6
ENDBRANCH   4   5
ENDBRANCH   2   3
ENDBRANCH   1   2
BRANCH   1  20
ATOM     20  C   UNL     1      -9.953   2.865 -13.171  1.00  0.00     0.260 C 
BRANCH  20  21
ATOM     21  C   UNL     1      -9.599   1.422 -12.789  1.00  0.00     0.246 C 
ATOM     22  O   UNL     1      -8.971   1.148 -11.767  1.00  0.00    -0.272 OA
ATOM     23  N   UNL     1     -10.023   0.407 -13.598  1.00  0.00    -0.354 N 
ATOM     24  H   UNL     1      -9.846  -0.505 -13.274  1.00  0.00     0.163 HD
BRANCH  23  25
ATOM     25  C   UNL     1     -10.700   0.507 -14.875  1.00  0.00     0.116 C 
BRANCH  25  26
ATOM     26  C   UNL     1      -9.815  -0.004 -16.011  1.00  0.00     0.021 C 
BRANCH  26  27
ATOM     27  C   UNL     1      -9.458  -1.494 -15.909  1.00  0.00     0.002 C 
BRANCH  27  28
ATOM     28  C   UNL     1     -10.654  -2.446 -15.816  1.00  0.00     0.002 C 
BRANCH  28  29
ATOM     29  C   UNL     1     -11.667  -2.324 -16.956  1.00  0.00     0.021 C 
BRANCH  29  30
ATOM     30  C   UNL     1     -11.090  -2.571 -18.346  1.00  0.00     0.116 C 
BRANCH  30  31
ATOM     31  N   UNL     1     -10.609  -3.935 -18.509  1.00  0.00    -0.352 N 
ATOM     32  C   UNL     1     -10.943  -4.868 -19.459  1.00  0.00     0.251 C 
ATOM     33  H   UNL     1      -9.949  -4.231 -17.842  1.00  0.00     0.163 HD
ATOM     34  O   UNL     1     -10.579  -6.035 -19.337  1.00  0.00    -0.269 OA
BRANCH  32  35
ATOM     35  C   UNL     1     -11.768  -4.473 -20.619  1.00  0.00     0.039 A 
ATOM     36  C   UNL     1     -12.844  -5.282 -20.991  1.00  0.00     0.014 A 
ATOM     37  C   UNL     1     -11.489  -3.302 -21.329  1.00  0.00     0.014 A 
ATOM     38  C   UNL     1     -13.688  -4.876 -22.027  1.00  0.00     0.010 A 
ATOM     39  C   UNL     1     -12.372  -2.862 -22.311  1.00  0.00     0.010 A 
ATOM     40  C   UNL     1     -13.485  -3.640 -22.664  1.00  0.00    -0.014 A 
BRANCH  40  41
ATOM     41  C   UNL     1     -14.441  -3.132 -23.681  1.00  0.00     0.031 A 
ATOM     42  C   UNL     1     -13.993  -2.904 -25.097  1.00  0.00     0.074 A 
ATOM     43  C   UNL     1     -15.694  -2.804 -23.308  1.00  0.00     0.049 A 
ATOM     44  N   UNL     1     -14.655  -2.387 -26.102  1.00  0.00    -0.248 NA
ATOM     45  C   UNL     1     -12.610  -3.284 -25.422  1.00  0.00     0.031 C 
ATOM     46  C   UNL     1     -16.234  -2.939 -21.955  1.00  0.00     0.029 A 
ATOM     47  N   UNL     1     -16.735  -2.275 -24.029  1.00  0.00    -0.354 N 
ATOM     48  C   UNL     1     -13.769  -2.371 -27.171  1.00  0.00     0.074 A 
ATOM     49  C   UNL     1     -12.506  -2.879 -26.680  1.00  0.00     0.031 C 
ATOM     50  C   UNL     1     -17.511  -2.525 -21.947  1.00  0.00     0.029 A 
ATOM     51  C   UNL     1     -17.865  -2.049 -23.281  1.00  0.00     0.049 A 
ATOM     52  H   UNL     1     -16.678  -2.077 -24.992  1.00  0.00     0.167 HD
ATOM     53  C   UNL     1     -13.996  -1.988 -28.450  1.00  0.00     0.037 A 
ATOM     54  C   UNL     1     -19.047  -1.504 -23.625  1.00  0.00     0.037 A 
ATOM     55  C   UNL     1     -15.259  -1.496 -28.936  1.00  0.00     0.049 A 
ATOM     56  C   UNL     1     -19.261  -1.053 -25.046  1.00  0.00     0.074 A 
ATOM     57  C   UNL     1     -15.606  -1.140 -30.227  1.00  0.00     0.029 A 
ATOM     58  N   UNL     1     -16.381  -1.282 -28.148  1.00  0.00    -0.354 N 
ATOM     59  N   UNL     1     -18.439  -1.112 -26.065  1.00  0.00    -0.248 NA
ATOM     60  C   UNL     1     -20.568  -0.460 -25.363  1.00  0.00     0.031 C 
ATOM     61  C   UNL     1     -16.917  -0.652 -30.210  1.00  0.00     0.029 A 
ATOM     62  C   UNL     1     -17.410  -0.764 -28.919  1.00  0.00     0.049 A 
ATOM     63  H   UNL     1     -16.438  -1.469 -27.183  1.00  0.00     0.167 HD
ATOM     64  C   UNL     1     -19.136  -0.591 -27.148  1.00  0.00     0.074 A 
ATOM     65  C   UNL     1     -20.454  -0.237 -26.665  1.00  0.00     0.031 C 
ATOM     66  C   UNL     1     -18.719  -0.419 -28.426  1.00  0.00     0.037 A 
BRANCH  53  67
ATOM     67  C   UNL     1     -12.852  -2.080 -29.419  1.00  0.00     0.064 A 
ATOM     68  C   UNL     1     -12.341  -3.317 -29.841  1.00  0.00     0.173 A 
ATOM     69  C   UNL     1     -12.288  -0.917 -29.967  1.00  0.00     0.173 A 
ATOM     70  F   UNL     1     -12.838  -4.459 -29.343  1.00  0.00    -0.203 F 
ATOM     71  C   UNL     1     -11.289  -3.385 -30.752  1.00  0.00     0.198 A 
ATOM     72  C   UNL     1     -11.259  -0.991 -30.903  1.00  0.00     0.198 A 
ATOM     73  F   UNL     1     -12.742   0.292 -29.604  1.00  0.00    -0.203 F 
ATOM     74  F   UNL     1     -10.785  -4.577 -31.101  1.00  0.00    -0.200 F 
ATOM     75  C   UNL     1     -10.755  -2.224 -31.288  1.00  0.00     0.200 A 
ATOM     76  F   UNL     1     -10.755   0.133 -31.432  1.00  0.00    -0.200 F 
ATOM     77  F   UNL     1      -9.750  -2.292 -32.172  1.00  0.00    -0.200 F 
ENDBRANCH  53  67
BRANCH  54  78
ATOM     78  C   UNL     1     -20.124  -1.359 -22.610  1.00  0.00     0.064 A 
ATOM     79  C   UNL     1     -21.307  -2.107 -22.701  1.00  0.00     0.173 A 
ATOM     80  C   UNL     1     -20.001  -0.465 -21.536  1.00  0.00     0.173 A 
ATOM     81  F   UNL     1     -21.482  -2.959 -23.721  1.00  0.00    -0.203 F 
ATOM     82  C   UNL     1     -22.332  -1.950 -21.771  1.00  0.00     0.198 A 
ATOM     83  C   UNL     1     -21.014  -0.332 -20.589  1.00  0.00     0.198 A 
ATOM     84  F   UNL     1     -18.889   0.272 -21.399  1.00  0.00    -0.203 F 
ATOM     85  F   UNL     1     -23.472  -2.639 -21.912  1.00  0.00    -0.200 F 
ATOM     86  C   UNL     1     -22.183  -1.067 -20.712  1.00  0.00     0.200 A 
ATOM     87  F   UNL     1     -20.858   0.509 -19.558  1.00  0.00    -0.200 F 
ATOM     88  F   UNL     1     -23.168  -0.919 -19.816  1.00  0.00    -0.200 F 
ENDBRANCH  54  78
BRANCH  66  89
ATOM     89  C   UNL     1     -19.706   0.151 -29.405  1.00  0.00     0.064 A 
ATOM     90  C   UNL     1     -20.104   1.495 -29.352  1.00  0.00     0.173 A 
ATOM     91  C   UNL     1     -20.222  -0.645 -30.439  1.00  0.00     0.173 A 
ATOM     92  F   UNL     1     -19.652   2.295 -28.373  1.00  0.00    -0.203 F 
ATOM     93  C   UNL     1     -20.998   2.014 -30.284  1.00  0.00     0.198 A 
ATOM     94  C   UNL     1     -21.089  -0.114 -31.389  1.00  0.00     0.198 A 
ATOM     95  F   UNL     1     -19.869  -1.936 -30.539  1.00  0.00    -0.203 F 
ATOM     96  F   UNL     1     -21.400   3.289 -30.186  1.00  0.00    -0.200 F 
ATOM     97  C   UNL     1     -21.482   1.213 -31.307  1.00  0.00     0.200 A 
ATOM     98  F   UNL     1     -21.543  -0.886 -32.386  1.00  0.00    -0.200 F 
ATOM     99  F   UNL     1     -22.332   1.718 -32.211  1.00  0.00    -0.200 F 
ENDBRANCH  66  89
ENDBRANCH  40  41
ENDBRANCH  32  35
ENDBRANCH  30  31
ENDBRANCH  29  30
ENDBRANCH  28  29
ENDBRANCH  27  28
ENDBRANCH  26  27
ENDBRANCH  25  26
ENDBRANCH  23  25
ENDBRANCH  20  21
ENDBRANCH   1  20
TORSDOF 26
