REMARK SMILES CCC(CC)(NC(=O)NC1CCC(C)(C)CC1)C(=O)NCCCCCCNC(=O)c1ccc(-c2c3nc(c(-c4c(F)c(F)c(F)c(F)c4F)c4ccc([nH]4)c(-c4c(F)c(F)c(F)c(F)c4F)c4nc(c(-c5c(F)c(F)c(F)c(F)c5F)c5ccc2[nH]5)C=C4)C=C3)cc1
REMARK SMILES IDX 23 1 22 2 21 3 20 4 18 5 19 6 3 8 2 9 1 10 4 11 5 12 6 13
REMARK SMILES IDX 7 14 8 16 9 17 10 19 11 20 17 21 12 22 16 23 13 24 14 25
REMARK SMILES IDX 15 26 24 27 25 28 26 29 27 30 28 31 29 33 30 34 31 35 92 36
REMARK SMILES IDX 32 37 91 38 33 39 34 40 35 41 85 42 36 43 90 44 84 45 86 46
REMARK SMILES IDX 37 47 89 48 83 49 82 50 38 52 70 53 50 54 69 55 51 56 54 57
REMARK SMILES IDX 68 58 87 59 52 60 53 61 67 63 88 64 55 65 39 66 40 67 48 68
REMARK SMILES IDX 41 69 42 70 46 71 49 72 43 73 44 74 47 75 45 76 71 77 72 78
REMARK SMILES IDX 80 79 73 80 74 81 78 82 81 83 75 84 76 85 79 86 77 87 56 88
REMARK SMILES IDX 57 89 65 90 58 91 59 92 63 93 66 94 60 95 61 96 64 97 62 98
REMARK H PARENT 20 7 6 15 9 18 27 32 86 51 54 62
REMARK Flexibility Score: inf
ROOT
ATOM      1  C   UNL     1       3.423   5.313  -4.611  1.00  0.00     0.002 C 
ENDROOT
BRANCH   1   2
ATOM      2  C   UNL     1       1.958   4.972  -4.324  1.00  0.00     0.021 C 
BRANCH   2   3
ATOM      3  C   UNL     1       1.421   3.535  -4.444  1.00  0.00     0.116 C 
BRANCH   3   4
ATOM      4  N   UNL     1       2.045   2.429  -3.715  1.00  0.00    -0.354 N 
ATOM      5  C   UNL     1       1.549   1.556  -2.766  1.00  0.00     0.245 C 
ATOM      6  O   UNL     1       1.809   0.356  -2.893  1.00  0.00    -0.272 OA
ATOM      7  H   UNL     1       2.991   2.281  -3.942  1.00  0.00     0.163 HD
BRANCH   5   8
ATOM      8  C   UNL     1       0.502   2.007  -1.748  1.00  0.00     0.120 C 
BRANCH   8   9
ATOM      9  C   UNL     1       0.434   1.357  -0.343  1.00  0.00     0.035 C 
ATOM     10  C   UNL     1       0.481  -0.154  -0.228  1.00  0.00     0.007 C 
ENDBRANCH   8   9
BRANCH   8  11
ATOM     11  C   UNL     1      -0.804   1.697  -2.574  1.00  0.00     0.035 C 
ATOM     12  C   UNL     1      -2.181   1.774  -1.947  1.00  0.00     0.007 C 
ENDBRANCH   8  11
BRANCH   8  13
ATOM     13  N   UNL     1       0.851   3.407  -1.515  1.00  0.00    -0.324 N 
ATOM     14  C   UNL     1       1.967   3.980  -1.046  1.00  0.00     0.315 C 
ATOM     15  H   UNL     1       0.136   4.044  -1.745  1.00  0.00     0.166 HD
ATOM     16  O   UNL     1       1.820   5.146  -0.649  1.00  0.00    -0.249 OA
ATOM     17  N   UNL     1       3.215   3.527  -0.953  1.00  0.00    -0.335 N 
ATOM     18  H   UNL     1       3.665   4.288  -0.519  1.00  0.00     0.165 HD
BRANCH  17  19
ATOM     19  C   UNL     1       4.368   2.547  -1.111  1.00  0.00     0.083 C 
ATOM     20  C   UNL     1       4.285   1.034  -1.347  1.00  0.00     0.025 C 
ATOM     21  C   UNL     1       5.535   3.131  -1.930  1.00  0.00     0.025 C 
ATOM     22  C   UNL     1       4.751   0.411  -2.700  1.00  0.00     0.008 C 
ATOM     23  C   UNL     1       5.437   2.759  -3.398  1.00  0.00     0.008 C 
ATOM     24  C   UNL     1       5.518   1.266  -3.738  1.00  0.00    -0.035 C 
ATOM     25  C   UNL     1       4.976   0.990  -5.176  1.00  0.00     0.011 C 
ATOM     26  C   UNL     1       6.993   0.828  -3.822  1.00  0.00     0.011 C 
ENDBRANCH  17  19
ENDBRANCH   8  13
ENDBRANCH   5   8
ENDBRANCH   3   4
ENDBRANCH   2   3
ENDBRANCH   1   2
BRANCH   1  27
ATOM     27  C   UNL     1       4.130   4.519  -5.707  1.00  0.00     0.002 C 
BRANCH  27  28
ATOM     28  C   UNL     1       3.753   4.822  -7.138  1.00  0.00     0.021 C 
BRANCH  28  29
ATOM     29  C   UNL     1       4.248   6.163  -7.632  1.00  0.00     0.116 C 
BRANCH  29  30
ATOM     30  N   UNL     1       5.701   6.275  -7.731  1.00  0.00    -0.352 N 
ATOM     31  C   UNL     1       6.444   6.844  -8.755  1.00  0.00     0.251 C 
ATOM     32  H   UNL     1       6.216   5.902  -6.980  1.00  0.00     0.163 HD
ATOM     33  O   UNL     1       7.652   6.828  -8.760  1.00  0.00    -0.269 OA
BRANCH  31  34
ATOM     34  C   UNL     1       5.686   7.427  -9.886  1.00  0.00     0.039 A 
ATOM     35  C   UNL     1       5.919   6.952 -11.177  1.00  0.00     0.014 A 
ATOM     36  C   UNL     1       4.622   8.288  -9.618  1.00  0.00     0.014 A 
ATOM     37  C   UNL     1       5.006   7.260 -12.188  1.00  0.00     0.010 A 
ATOM     38  C   UNL     1       3.649   8.472 -10.585  1.00  0.00     0.010 A 
ATOM     39  C   UNL     1       3.834   7.971 -11.884  1.00  0.00    -0.014 A 
BRANCH  39  40
ATOM     40  C   UNL     1       2.790   8.243 -12.904  1.00  0.00     0.031 A 
ATOM     41  C   UNL     1       2.413   9.669 -13.196  1.00  0.00     0.074 A 
ATOM     42  C   UNL     1       2.120   7.227 -13.482  1.00  0.00     0.049 A 
ATOM     43  N   UNL     1       1.443  10.137 -13.939  1.00  0.00    -0.248 NA
ATOM     44  C   UNL     1       3.196  10.712 -12.511  1.00  0.00     0.031 C 
ATOM     45  C   UNL     1       2.338   5.803 -13.220  1.00  0.00     0.029 A 
ATOM     46  N   UNL     1       1.104   7.239 -14.405  1.00  0.00    -0.354 N 
ATOM     47  C   UNL     1       1.482  11.515 -13.776  1.00  0.00     0.074 A 
ATOM     48  C   UNL     1       2.510  11.803 -12.804  1.00  0.00     0.031 C 
ATOM     49  C   UNL     1       1.506   5.079 -13.987  1.00  0.00     0.029 A 
ATOM     50  C   UNL     1       0.670   5.986 -14.768  1.00  0.00     0.049 A 
ATOM     51  H   UNL     1       0.722   8.068 -14.774  1.00  0.00     0.167 HD
ATOM     52  C   UNL     1       0.754  12.462 -14.412  1.00  0.00     0.037 A 
ATOM     53  C   UNL     1      -0.294   5.617 -15.633  1.00  0.00     0.037 A 
ATOM     54  C   UNL     1      -0.220  12.169 -15.426  1.00  0.00     0.049 A 
ATOM     55  C   UNL     1      -1.058   6.687 -16.368  1.00  0.00     0.074 A 
ATOM     56  C   UNL     1      -0.951  13.049 -16.202  1.00  0.00     0.029 A 
ATOM     57  N   UNL     1      -0.589  10.888 -15.811  1.00  0.00    -0.354 N 
ATOM     58  N   UNL     1      -0.957   7.991 -16.268  1.00  0.00    -0.248 NA
ATOM     59  C   UNL     1      -2.062   6.237 -17.341  1.00  0.00     0.031 C 
ATOM     60  C   UNL     1      -1.791  12.300 -17.032  1.00  0.00     0.029 A 
ATOM     61  C   UNL     1      -1.550  10.953 -16.805  1.00  0.00     0.049 A 
ATOM     62  H   UNL     1      -0.221  10.056 -15.434  1.00  0.00     0.167 HD
ATOM     63  C   UNL     1      -1.864   8.516 -17.178  1.00  0.00     0.074 A 
ATOM     64  C   UNL     1      -2.494   7.389 -17.835  1.00  0.00     0.031 C 
ATOM     65  C   UNL     1      -2.153   9.813 -17.446  1.00  0.00     0.037 A 
BRANCH  52  66
ATOM     66  C   UNL     1       1.007  13.894 -14.038  1.00  0.00     0.064 A 
ATOM     67  C   UNL     1       2.223  14.531 -14.335  1.00  0.00     0.173 A 
ATOM     68  C   UNL     1       0.024  14.640 -13.371  1.00  0.00     0.173 A 
ATOM     69  F   UNL     1       3.203  13.857 -14.957  1.00  0.00    -0.203 F 
ATOM     70  C   UNL     1       2.461  15.844 -13.940  1.00  0.00     0.198 A 
ATOM     71  C   UNL     1       0.253  15.966 -13.010  1.00  0.00     0.198 A 
ATOM     72  F   UNL     1      -1.157  14.083 -13.065  1.00  0.00    -0.203 F 
ATOM     73  F   UNL     1       3.656  16.405 -14.173  1.00  0.00    -0.200 F 
ATOM     74  C   UNL     1       1.474  16.562 -13.284  1.00  0.00     0.200 A 
ATOM     75  F   UNL     1      -0.707  16.663 -12.385  1.00  0.00    -0.200 F 
ATOM     76  F   UNL     1       1.705  17.826 -12.904  1.00  0.00    -0.200 F 
ENDBRANCH  52  66
BRANCH  53  77
ATOM     77  C   UNL     1      -0.564   4.176 -15.879  1.00  0.00     0.064 A 
ATOM     78  C   UNL     1      -0.226   3.579 -17.103  1.00  0.00     0.173 A 
ATOM     79  C   UNL     1      -1.160   3.364 -14.904  1.00  0.00     0.173 A 
ATOM     80  F   UNL     1       0.329   4.318 -18.076  1.00  0.00    -0.203 F 
ATOM     81  C   UNL     1      -0.490   2.233 -17.348  1.00  0.00     0.198 A 
ATOM     82  C   UNL     1      -1.399   2.010 -15.140  1.00  0.00     0.198 A 
ATOM     83  F   UNL     1      -1.498   3.881 -13.714  1.00  0.00    -0.203 F 
ATOM     84  F   UNL     1      -0.194   1.701 -18.541  1.00  0.00    -0.200 F 
ATOM     85  C   UNL     1      -1.071   1.448 -16.364  1.00  0.00     0.200 A 
ATOM     86  F   UNL     1      -1.948   1.252 -14.181  1.00  0.00    -0.200 F 
ATOM     87  F   UNL     1      -1.320   0.152 -16.597  1.00  0.00    -0.200 F 
ENDBRANCH  53  77
BRANCH  65  88
ATOM     88  C   UNL     1      -3.175  10.084 -18.510  1.00  0.00     0.064 A 
ATOM     89  C   UNL     1      -4.540   9.857 -18.289  1.00  0.00     0.173 A 
ATOM     90  C   UNL     1      -2.787  10.634 -19.741  1.00  0.00     0.173 A 
ATOM     91  F   UNL     1      -4.957   9.320 -17.132  1.00  0.00    -0.203 F 
ATOM     92  C   UNL     1      -5.481  10.153 -19.271  1.00  0.00     0.198 A 
ATOM     93  C   UNL     1      -3.733  10.956 -20.709  1.00  0.00     0.198 A 
ATOM     94  F   UNL     1      -1.493  10.877 -19.996  1.00  0.00    -0.203 F 
ATOM     95  F   UNL     1      -6.777   9.891 -19.055  1.00  0.00    -0.200 F 
ATOM     96  C   UNL     1      -5.078  10.710 -20.476  1.00  0.00     0.200 A 
ATOM     97  F   UNL     1      -3.344  11.508 -21.866  1.00  0.00    -0.200 F 
ATOM     98  F   UNL     1      -5.986  11.006 -21.415  1.00  0.00    -0.200 F 
ENDBRANCH  65  88
ENDBRANCH  39  40
ENDBRANCH  31  34
ENDBRANCH  29  30
ENDBRANCH  28  29
ENDBRANCH  27  28
ENDBRANCH   1  27
TORSDOF 17
