REMARK SMILES C[NH2+][C@]1(C(=O)NCCCCCCNC(=O)c2ccc(-c3c4nc(c(-c5c(F)c(F)c(F)c(F)c5F)c5ccc([nH]5)c(-c5c(F)c(F)c(F)c(F)c5F)c5nc(c(-c6c(F)c(F)c(F)c(F)c6F)c6ccc3[nH]6)C=C5)C=C4)cc2)CCC[C@H]1CCOC1C[C@@H](C)C[C@H](C)C1
REMARK SMILES IDX 8 1 7 2 6 3 4 4 5 5 3 7 79 8 82 9 80 10 81 11 2 12 1 13
REMARK SMILES IDX 83 16 84 17 85 18 86 19 87 20 93 21 88 22 91 23 89 24 90 25
REMARK SMILES IDX 92 26 9 27 10 28 11 29 12 30 13 31 14 32 15 34 16 35 17 36
REMARK SMILES IDX 78 37 18 38 77 39 19 40 20 41 21 42 71 43 22 44 76 45 70 46
REMARK SMILES IDX 72 47 23 48 75 49 69 50 68 51 24 53 56 54 36 55 55 56 37 57
REMARK SMILES IDX 40 58 54 59 73 60 38 61 39 62 53 64 74 65 41 66 25 67 26 68
REMARK SMILES IDX 34 69 27 70 28 71 32 72 35 73 29 74 30 75 33 76 31 77 57 78
REMARK SMILES IDX 58 79 66 80 59 81 60 82 64 83 67 84 61 85 62 86 65 87 63 88
REMARK SMILES IDX 42 89 43 90 51 91 44 92 45 93 49 94 52 95 46 96 47 97 50 98
REMARK SMILES IDX 48 99
REMARK H PARENT 6 6 2 14 2 15 13 33 72 52 40 63
REMARK Flexibility Score: inf
ROOT
ATOM      1  C   UNL     1       1.413   1.666  -4.602  1.00  0.00     0.021 C 
ENDROOT
BRANCH   1   2
ATOM      2  C   UNL     1       0.532   0.638  -3.901  1.00  0.00     0.116 C 
BRANCH   2   3
ATOM      3  N   UNL     1       0.752   0.685  -2.482  1.00  0.00    -0.351 N 
ATOM      4  C   UNL     1      -0.075   0.505  -1.427  1.00  0.00     0.281 C 
ATOM      5  O   UNL     1       0.427   0.883  -0.361  1.00  0.00    -0.268 OA
ATOM      6  H   UNL     1       1.681   0.888  -2.230  1.00  0.00     0.163 HD
BRANCH   4   7
ATOM      7  C   UNL     1      -1.538  -0.048  -1.553  1.00  0.00     0.178 C 
ATOM      8  C   UNL     1      -2.360   1.146  -2.141  1.00  0.00     0.079 C 
ATOM      9  C   UNL     1      -1.963  -1.333  -2.476  1.00  0.00     0.063 C 
ATOM     10  C   UNL     1      -3.593   0.524  -2.756  1.00  0.00     0.008 C 
ATOM     11  C   UNL     1      -3.034  -0.704  -3.437  1.00  0.00     0.011 C 
BRANCH   7  12
ATOM     12  N   UNL     1      -2.245  -0.150  -0.224  1.00  0.00    -0.336 N 
ATOM     13  C   UNL     1      -1.553  -0.272   1.043  1.00  0.00     0.331 C 
ATOM     14  H   UNL     1      -2.818   0.691  -0.148  1.00  0.00     0.346 HD
ATOM     15  H   UNL     1      -2.682  -1.068  -0.301  1.00  0.00     0.346 HD
ENDBRANCH   7  12
BRANCH   9  16
ATOM     16  C   UNL     1      -1.153  -2.353  -3.421  1.00  0.00     0.039 C 
BRANCH  16  17
ATOM     17  C   UNL     1      -0.039  -3.463  -3.200  1.00  0.00     0.161 C 
BRANCH  17  18
ATOM     18  O   UNL     1      -0.420  -4.757  -2.742  1.00  0.00    -0.378 OA
BRANCH  18  19
ATOM     19  C   UNL     1      -0.033  -5.401  -1.514  1.00  0.00     0.118 C 
ATOM     20  C   UNL     1       0.869  -4.745  -0.469  1.00  0.00     0.035 C 
ATOM     21  C   UNL     1      -1.351  -5.741  -0.810  1.00  0.00     0.035 C 
ATOM     22  C   UNL     1       0.319  -3.451   0.106  1.00  0.00    -0.011 C 
ATOM     23  C   UNL     1      -2.078  -4.420  -0.629  1.00  0.00    -0.011 C 
ATOM     24  C   UNL     1       0.982  -2.280  -0.617  1.00  0.00     0.008 C 
ATOM     25  C   UNL     1      -1.237  -3.460   0.242  1.00  0.00     0.006 C 
ATOM     26  C   UNL     1      -3.531  -4.580  -0.190  1.00  0.00     0.008 C 
ENDBRANCH  18  19
ENDBRANCH  17  18
ENDBRANCH  16  17
ENDBRANCH   9  16
ENDBRANCH   4   7
ENDBRANCH   2   3
ENDBRANCH   1   2
BRANCH   1  27
ATOM     27  C   UNL     1       2.894   1.273  -4.670  1.00  0.00     0.002 C 
BRANCH  27  28
ATOM     28  C   UNL     1       3.190  -0.100  -5.285  1.00  0.00     0.002 C 
BRANCH  28  29
ATOM     29  C   UNL     1       2.499  -0.396  -6.617  1.00  0.00     0.021 C 
BRANCH  29  30
ATOM     30  C   UNL     1       2.649   0.677  -7.686  1.00  0.00     0.116 C 
BRANCH  30  31
ATOM     31  N   UNL     1       4.024   0.974  -8.024  1.00  0.00    -0.352 N 
ATOM     32  C   UNL     1       4.532   1.386  -9.237  1.00  0.00     0.251 C 
ATOM     33  H   UNL     1       4.679   0.868  -7.297  1.00  0.00     0.163 HD
ATOM     34  O   UNL     1       5.725   1.540  -9.394  1.00  0.00    -0.269 OA
BRANCH  32  35
ATOM     35  C   UNL     1       3.596   1.590 -10.368  1.00  0.00     0.039 A 
ATOM     36  C   UNL     1       3.890   0.972 -11.585  1.00  0.00     0.014 A 
ATOM     37  C   UNL     1       2.432   2.351 -10.224  1.00  0.00     0.014 A 
ATOM     38  C   UNL     1       2.986   1.071 -12.645  1.00  0.00     0.010 A 
ATOM     39  C   UNL     1       1.500   2.389 -11.257  1.00  0.00     0.010 A 
ATOM     40  C   UNL     1       1.770   1.753 -12.479  1.00  0.00    -0.014 A 
BRANCH  40  41
ATOM     41  C   UNL     1       0.777   1.817 -13.579  1.00  0.00     0.031 A 
ATOM     42  C   UNL     1       0.445   3.135 -14.219  1.00  0.00     0.074 A 
ATOM     43  C   UNL     1       0.138   0.696 -13.966  1.00  0.00     0.049 A 
ATOM     44  N   UNL     1      -0.426   3.403 -15.159  1.00  0.00    -0.248 NA
ATOM     45  C   UNL     1       1.167   4.313 -13.716  1.00  0.00     0.031 C 
ATOM     46  C   UNL     1       0.338  -0.633 -13.386  1.00  0.00     0.029 A 
ATOM     47  N   UNL     1      -0.816   0.497 -14.932  1.00  0.00    -0.354 N 
ATOM     48  C   UNL     1      -0.364   4.777 -15.349  1.00  0.00     0.074 A 
ATOM     49  C   UNL     1       0.588   5.295 -14.391  1.00  0.00     0.031 C 
ATOM     50  C   UNL     1      -0.452  -1.514 -14.023  1.00  0.00     0.029 A 
ATOM     51  C   UNL     1      -1.237  -0.807 -15.031  1.00  0.00     0.049 A 
ATOM     52  H   UNL     1      -1.165   1.220 -15.501  1.00  0.00     0.167 HD
ATOM     53  C   UNL     1      -1.024   5.535 -16.257  1.00  0.00     0.037 A 
ATOM     54  C   UNL     1      -2.155  -1.367 -15.841  1.00  0.00     0.037 A 
ATOM     55  C   UNL     1      -1.948   5.011 -17.227  1.00  0.00     0.049 A 
ATOM     56  C   UNL     1      -2.869  -0.504 -16.846  1.00  0.00     0.074 A 
ATOM     57  C   UNL     1      -2.619   5.685 -18.233  1.00  0.00     0.029 A 
ATOM     58  N   UNL     1      -2.334   3.681 -17.311  1.00  0.00    -0.354 N 
ATOM     59  N   UNL     1      -2.749   0.782 -17.066  1.00  0.00    -0.248 NA
ATOM     60  C   UNL     1      -3.842  -1.174 -17.721  1.00  0.00     0.031 C 
ATOM     61  C   UNL     1      -3.444   4.771 -18.897  1.00  0.00     0.029 A 
ATOM     62  C   UNL     1      -3.250   3.518 -18.338  1.00  0.00     0.049 A 
ATOM     63  H   UNL     1      -2.005   2.959 -16.728  1.00  0.00     0.167 HD
ATOM     64  C   UNL     1      -3.607   1.072 -18.118  1.00  0.00     0.074 A 
ATOM     65  C   UNL     1      -4.231  -0.177 -18.503  1.00  0.00     0.031 C 
ATOM     66  C   UNL     1      -3.856   2.265 -18.712  1.00  0.00     0.037 A 
BRANCH  53  67
ATOM     67  C   UNL     1      -0.765   7.013 -16.245  1.00  0.00     0.064 A 
ATOM     68  C   UNL     1       0.465   7.549 -16.656  1.00  0.00     0.173 A 
ATOM     69  C   UNL     1      -1.769   7.909 -15.847  1.00  0.00     0.173 A 
ATOM     70  F   UNL     1       1.462   6.735 -17.035  1.00  0.00    -0.203 F 
ATOM     71  C   UNL     1       0.691   8.923 -16.639  1.00  0.00     0.198 A 
ATOM     72  C   UNL     1      -1.550   9.284 -15.860  1.00  0.00     0.198 A 
ATOM     73  F   UNL     1      -2.966   7.451 -15.449  1.00  0.00    -0.203 F 
ATOM     74  F   UNL     1       1.892   9.407 -16.987  1.00  0.00    -0.200 F 
ATOM     75  C   UNL     1      -0.318   9.789 -16.248  1.00  0.00     0.200 A 
ATOM     76  F   UNL     1      -2.530  10.121 -15.493  1.00  0.00    -0.200 F 
ATOM     77  F   UNL     1      -0.101  11.111 -16.237  1.00  0.00    -0.200 F 
ENDBRANCH  53  67
BRANCH  54  78
ATOM     78  C   UNL     1      -2.431  -2.824 -15.753  1.00  0.00     0.064 A 
ATOM     79  C   UNL     1      -2.042  -3.694 -16.782  1.00  0.00     0.173 A 
ATOM     80  C   UNL     1      -3.089  -3.377 -14.645  1.00  0.00     0.173 A 
ATOM     81  F   UNL     1      -1.428  -3.209 -17.871  1.00  0.00    -0.203 F 
ATOM     82  C   UNL     1      -2.317  -5.058 -16.714  1.00  0.00     0.198 A 
ATOM     83  C   UNL     1      -3.339  -4.745 -14.566  1.00  0.00     0.198 A 
ATOM     84  F   UNL     1      -3.477  -2.589 -13.632  1.00  0.00    -0.203 F 
ATOM     85  F   UNL     1      -1.973  -5.860 -17.731  1.00  0.00    -0.200 F 
ATOM     86  C   UNL     1      -2.961  -5.584 -15.604  1.00  0.00     0.200 A 
ATOM     87  F   UNL     1      -3.949  -5.251 -13.485  1.00  0.00    -0.200 F 
ATOM     88  F   UNL     1      -3.222  -6.896 -15.537  1.00  0.00    -0.200 F 
ENDBRANCH  54  78
BRANCH  66  89
ATOM     89  C   UNL     1      -4.821   2.273 -19.861  1.00  0.00     0.064 A 
ATOM     90  C   UNL     1      -6.199   2.104 -19.665  1.00  0.00     0.173 A 
ATOM     91  C   UNL     1      -4.364   2.493 -21.169  1.00  0.00     0.173 A 
ATOM     92  F   UNL     1      -6.683   1.874 -18.435  1.00  0.00    -0.203 F 
ATOM     93  C   UNL     1      -7.082   2.132 -20.741  1.00  0.00     0.198 A 
ATOM     94  C   UNL     1      -5.253   2.550 -22.238  1.00  0.00     0.198 A 
ATOM     95  F   UNL     1      -3.055   2.667 -21.408  1.00  0.00    -0.203 F 
ATOM     96  F   UNL     1      -8.390   1.922 -20.536  1.00  0.00    -0.200 F 
ATOM     97  C   UNL     1      -6.610   2.362 -22.024  1.00  0.00     0.200 A 
ATOM     98  F   UNL     1      -4.796   2.786 -23.476  1.00  0.00    -0.200 F 
ATOM     99  F   UNL     1      -7.463   2.397 -23.057  1.00  0.00    -0.200 F 
ENDBRANCH  66  89
ENDBRANCH  40  41
ENDBRANCH  32  35
ENDBRANCH  30  31
ENDBRANCH  29  30
ENDBRANCH  28  29
ENDBRANCH  27  28
ENDBRANCH   1  27
TORSDOF 18
