REMARK SMILES CC(C)(C[NH2+]CCc1cccnc1)C(=O)NCCCCCCNC(=O)c1ccc(-c2c3nc(c(-c4c(F)c(F)c(F)c(F)c4F)c4ccc([nH]4)c(-c4c(F)c(F)c(F)c(F)c4F)c4nc(c(-c5c(F)c(F)c(F)c(F)c5F)c5ccc2[nH]5)C=C4)C=C3)cc1
REMARK SMILES IDX 18 1 17 2 16 3 14 4 15 5 2 7 1 8 3 9 4 10 5 11 6 14 7 15
REMARK SMILES IDX 8 16 9 17 13 18 10 19 12 20 11 21 19 22 20 23 21 24 22 25
REMARK SMILES IDX 23 26 24 27 25 29 26 30 27 31 88 32 28 33 87 34 29 35 30 36
REMARK SMILES IDX 31 37 81 38 32 39 86 40 80 41 82 42 33 43 85 44 79 45 78 46
REMARK SMILES IDX 34 48 66 49 46 50 65 51 47 52 50 53 64 54 83 55 48 56 49 57
REMARK SMILES IDX 63 59 84 60 51 61 35 62 36 63 44 64 37 65 38 66 42 67 45 68
REMARK SMILES IDX 39 69 40 70 43 71 41 72 67 73 68 74 76 75 69 76 70 77 74 78
REMARK SMILES IDX 77 79 71 80 72 81 75 82 73 83 52 84 53 85 61 86 54 87 55 88
REMARK SMILES IDX 59 89 62 90 56 91 57 92 60 93 58 94
REMARK H PARENT 16 6 5 12 5 13 23 28 82 47 50 58
REMARK Flexibility Score: inf
ROOT
ATOM      1  C   UNL     1      -1.196   2.120   4.563  1.00  0.00     0.021 C 
ENDROOT
BRANCH   1   2
ATOM      2  C   UNL     1      -0.015   2.507   3.674  1.00  0.00     0.116 C 
BRANCH   2   3
ATOM      3  N   UNL     1       0.886   1.394   3.473  1.00  0.00    -0.355 N 
ATOM      4  C   UNL     1       1.199   0.645   2.383  1.00  0.00     0.231 C 
ATOM      5  O   UNL     1       2.012  -0.267   2.583  1.00  0.00    -0.274 OA
ATOM      6  H   UNL     1       1.369   1.125   4.288  1.00  0.00     0.163 HD
BRANCH   4   7
ATOM      7  C   UNL     1       0.664   0.944   0.968  1.00  0.00     0.092 C 
ATOM      8  C   UNL     1       1.241  -0.118  -0.004  1.00  0.00     0.027 C 
ATOM      9  C   UNL     1       1.213   2.306   0.496  1.00  0.00     0.027 C 
BRANCH   7  10
ATOM     10  C   UNL     1      -0.883   0.925   0.865  1.00  0.00     0.276 C 
BRANCH  10  11
ATOM     11  N   UNL     1      -1.499  -0.327   1.309  1.00  0.00    -0.345 N 
ATOM     12  H   UNL     1      -1.184  -0.521   2.259  1.00  0.00     0.346 HD
ATOM     13  H   UNL     1      -1.213  -1.050   0.648  1.00  0.00     0.346 HD
BRANCH  11  14
ATOM     14  C   UNL     1      -2.965  -0.299   1.303  1.00  0.00     0.265 C 
BRANCH  14  15
ATOM     15  C   UNL     1      -3.643  -0.068  -0.060  1.00  0.00     0.098 C 
BRANCH  15  16
ATOM     16  C   UNL     1      -3.187  -1.006  -1.146  1.00  0.00    -0.024 A 
ATOM     17  C   UNL     1      -2.502  -0.535  -2.270  1.00  0.00     0.007 A 
ATOM     18  C   UNL     1      -3.417  -2.375  -1.066  1.00  0.00     0.114 A 
ATOM     19  C   UNL     1      -2.067  -1.431  -3.241  1.00  0.00     0.020 A 
ATOM     20  N   UNL     1      -3.010  -3.268  -1.996  1.00  0.00    -0.264 NA
ATOM     21  C   UNL     1      -2.341  -2.776  -3.060  1.00  0.00     0.111 A 
ENDBRANCH  15  16
ENDBRANCH  14  15
ENDBRANCH  11  14
ENDBRANCH  10  11
ENDBRANCH   7  10
ENDBRANCH   4   7
ENDBRANCH   2   3
ENDBRANCH   1   2
BRANCH   1  22
ATOM     22  C   UNL     1      -0.826   1.862   6.029  1.00  0.00     0.002 C 
BRANCH  22  23
ATOM     23  C   UNL     1      -0.100   3.013   6.736  1.00  0.00     0.002 C 
BRANCH  23  24
ATOM     24  C   UNL     1      -0.796   4.374   6.659  1.00  0.00     0.021 C 
BRANCH  24  25
ATOM     25  C   UNL     1      -2.209   4.406   7.233  1.00  0.00     0.116 C 
BRANCH  25  26
ATOM     26  N   UNL     1      -2.232   4.124   8.659  1.00  0.00    -0.352 N 
ATOM     27  C   UNL     1      -2.780   4.849   9.685  1.00  0.00     0.251 C 
ATOM     28  H   UNL     1      -1.788   3.287   8.927  1.00  0.00     0.163 HD
ATOM     29  O   UNL     1      -2.544   4.543  10.852  1.00  0.00    -0.269 OA
BRANCH  27  30
ATOM     30  C   UNL     1      -3.638   6.017   9.395  1.00  0.00     0.039 A 
ATOM     31  C   UNL     1      -3.442   7.193  10.124  1.00  0.00     0.014 A 
ATOM     32  C   UNL     1      -4.641   5.953   8.423  1.00  0.00     0.014 A 
ATOM     33  C   UNL     1      -4.206   8.325   9.834  1.00  0.00     0.010 A 
ATOM     34  C   UNL     1      -5.359   7.100   8.091  1.00  0.00     0.010 A 
ATOM     35  C   UNL     1      -5.146   8.297   8.791  1.00  0.00    -0.014 A 
BRANCH  35  36
ATOM     36  C   UNL     1      -5.898   9.518   8.405  1.00  0.00     0.031 A 
ATOM     37  C   UNL     1      -7.388   9.581   8.578  1.00  0.00     0.074 A 
ATOM     38  C   UNL     1      -5.241  10.545   7.832  1.00  0.00     0.049 A 
ATOM     39  N   UNL     1      -8.222  10.533   8.238  1.00  0.00    -0.248 NA
ATOM     40  C   UNL     1      -8.033   8.410   9.191  1.00  0.00     0.031 C 
ATOM     41  C   UNL     1      -3.802  10.582   7.564  1.00  0.00     0.029 A 
ATOM     42  N   UNL     1      -5.698  11.750   7.359  1.00  0.00    -0.354 N 
ATOM     43  C   UNL     1      -9.485  10.071   8.583  1.00  0.00     0.074 A 
ATOM     44  C   UNL     1      -9.315   8.735   9.115  1.00  0.00     0.031 C 
ATOM     45  C   UNL     1      -3.492  11.755   6.990  1.00  0.00     0.029 A 
ATOM     46  C   UNL     1      -4.713  12.537   6.817  1.00  0.00     0.049 A 
ATOM     47  H   UNL     1      -6.643  12.023   7.404  1.00  0.00     0.167 HD
ATOM     48  C   UNL     1     -10.674  10.711   8.482  1.00  0.00     0.037 A 
ATOM     49  C   UNL     1      -4.785  13.750   6.237  1.00  0.00     0.037 A 
ATOM     50  C   UNL     1     -10.835  12.050   7.977  1.00  0.00     0.049 A 
ATOM     51  C   UNL     1      -6.119  14.439   6.137  1.00  0.00     0.074 A 
ATOM     52  C   UNL     1     -11.988  12.813   7.907  1.00  0.00     0.029 A 
ATOM     53  N   UNL     1      -9.811  12.823   7.450  1.00  0.00    -0.354 N 
ATOM     54  N   UNL     1      -7.296  14.022   6.535  1.00  0.00    -0.248 NA
ATOM     55  C   UNL     1      -6.132  15.768   5.511  1.00  0.00     0.031 C 
ATOM     56  C   UNL     1     -11.671  14.030   7.294  1.00  0.00     0.029 A 
ATOM     57  C   UNL     1     -10.311  14.044   7.025  1.00  0.00     0.049 A 
ATOM     58  H   UNL     1      -8.869  12.546   7.386  1.00  0.00     0.167 HD
ATOM     59  C   UNL     1      -8.186  15.042   6.228  1.00  0.00     0.074 A 
ATOM     60  C   UNL     1      -7.409  16.107   5.626  1.00  0.00     0.031 C 
ATOM     61  C   UNL     1      -9.526  15.092   6.424  1.00  0.00     0.037 A 
BRANCH  48  62
ATOM     62  C   UNL     1     -11.901   9.971   8.931  1.00  0.00     0.064 A 
ATOM     63  C   UNL     1     -12.146   9.705  10.287  1.00  0.00     0.173 A 
ATOM     64  C   UNL     1     -12.864   9.559   7.998  1.00  0.00     0.173 A 
ATOM     65  F   UNL     1     -11.251  10.070  11.218  1.00  0.00    -0.203 F 
ATOM     66  C   UNL     1     -13.294   9.029  10.689  1.00  0.00     0.198 A 
ATOM     67  C   UNL     1     -14.026   8.908   8.406  1.00  0.00     0.198 A 
ATOM     68  F   UNL     1     -12.683   9.793   6.689  1.00  0.00    -0.203 F 
ATOM     69  F   UNL     1     -13.484   8.745  11.985  1.00  0.00    -0.200 F 
ATOM     70  C   UNL     1     -14.236   8.637   9.750  1.00  0.00     0.200 A 
ATOM     71  F   UNL     1     -14.941   8.542   7.498  1.00  0.00    -0.200 F 
ATOM     72  F   UNL     1     -15.345   7.993  10.139  1.00  0.00    -0.200 F 
ENDBRANCH  48  62
BRANCH  49  73
ATOM     73  C   UNL     1      -3.552  14.398   5.721  1.00  0.00     0.064 A 
ATOM     74  C   UNL     1      -3.008  15.521   6.361  1.00  0.00     0.173 A 
ATOM     75  C   UNL     1      -2.890  13.908   4.586  1.00  0.00     0.173 A 
ATOM     76  F   UNL     1      -3.618  16.038   7.437  1.00  0.00    -0.203 F 
ATOM     77  C   UNL     1      -1.858  16.139   5.874  1.00  0.00     0.198 A 
ATOM     78  C   UNL     1      -1.725  14.510   4.117  1.00  0.00     0.198 A 
ATOM     79  F   UNL     1      -3.368  12.833   3.942  1.00  0.00    -0.203 F 
ATOM     80  F   UNL     1      -1.382  17.235   6.480  1.00  0.00    -0.200 F 
ATOM     81  C   UNL     1      -1.214  15.629   4.757  1.00  0.00     0.200 A 
ATOM     82  F   UNL     1      -1.098  14.006   3.045  1.00  0.00    -0.200 F 
ATOM     83  F   UNL     1      -0.105  16.220   4.293  1.00  0.00    -0.200 F 
ENDBRANCH  49  73
BRANCH  61  84
ATOM     84  C   UNL     1     -10.235  16.344   5.998  1.00  0.00     0.064 A 
ATOM     85  C   UNL     1     -10.438  16.646   4.644  1.00  0.00     0.173 A 
ATOM     86  C   UNL     1     -10.748  17.232   6.955  1.00  0.00     0.173 A 
ATOM     87  F   UNL     1      -9.952  15.836   3.691  1.00  0.00    -0.203 F 
ATOM     88  C   UNL     1     -11.109  17.805   4.263  1.00  0.00     0.198 A 
ATOM     89  C   UNL     1     -11.443  18.375   6.571  1.00  0.00     0.198 A 
ATOM     90  F   UNL     1     -10.585  16.986   8.263  1.00  0.00    -0.203 F 
ATOM     91  F   UNL     1     -11.251  18.098   2.962  1.00  0.00    -0.200 F 
ATOM     92  C   UNL     1     -11.617  18.665   5.225  1.00  0.00     0.200 A 
ATOM     93  F   UNL     1     -11.944  19.198   7.502  1.00  0.00    -0.200 F 
ATOM     94  F   UNL     1     -12.268  19.776   4.856  1.00  0.00    -0.200 F 
ENDBRANCH  61  84
ENDBRANCH  35  36
ENDBRANCH  27  30
ENDBRANCH  25  26
ENDBRANCH  24  25
ENDBRANCH  23  24
ENDBRANCH  22  23
ENDBRANCH   1  22
TORSDOF 18
