REMARK SMILES O=C(NCCCCCCNC(=O)c1cccc(CN2C(=O)S/C(=C/c3ccc(Cl)cc3)C2=O)c1)c1ccc(-c2c3nc(c(-c4c(F)c(F)c(F)c(F)c4F)c4ccc([nH]4)c(-c4c(F)c(F)c(F)c(F)c4F)c4nc(c(-c5c(F)c(F)c(F)c(F)c5F)c5ccc2[nH]5)C=C4)C=C3)cc1
REMARK SMILES IDX 7 1 6 2 5 3 4 4 3 5 1 6 2 7 35 9 36 10 97 11 37 12 96 13
REMARK SMILES IDX 38 14 39 15 40 16 90 17 41 18 95 19 89 20 91 21 42 22 94 23
REMARK SMILES IDX 88 24 87 25 43 27 75 28 55 29 74 30 56 31 59 32 73 33 92 34
REMARK SMILES IDX 57 35 58 36 72 38 93 39 60 40 44 41 45 42 53 43 46 44 47 45
REMARK SMILES IDX 51 46 54 47 48 48 49 49 52 50 50 51 76 52 77 53 85 54 78 55
REMARK SMILES IDX 79 56 83 57 86 58 80 59 81 60 84 61 82 62 61 63 62 64 70 65
REMARK SMILES IDX 63 66 64 67 68 68 71 69 65 70 66 71 69 72 67 73 8 74 9 75
REMARK SMILES IDX 10 76 11 77 12 79 13 80 14 81 34 82 15 83 17 84 16 85 18 86
REMARK SMILES IDX 19 87 20 88 32 89 21 90 22 91 23 92 33 93 24 94 25 95 26 96
REMARK SMILES IDX 31 97 27 98 30 99 28 100 29 101
REMARK H PARENT 3 8 91 26 59 37 10 78
REMARK Flexibility Score: inf
ROOT
ATOM      1  C   UNL     1       4.714  -3.269  -2.840  1.00  0.00     0.002 C 
ENDROOT
BRANCH   1   2
ATOM      2  C   UNL     1       4.147  -3.528  -1.442  1.00  0.00     0.002 C 
BRANCH   2   3
ATOM      3  C   UNL     1       4.607  -2.551  -0.362  1.00  0.00     0.021 C 
BRANCH   3   4
ATOM      4  C   UNL     1       4.351  -1.084  -0.681  1.00  0.00     0.116 C 
BRANCH   4   5
ATOM      5  N   UNL     1       2.935  -0.762  -0.769  1.00  0.00    -0.352 N 
ATOM      6  O   UNL     1       0.983   0.206  -0.166  1.00  0.00    -0.269 OA
ATOM      7  C   UNL     1       2.205   0.170  -0.068  1.00  0.00     0.251 C 
ATOM      8  H   UNL     1       2.425  -1.287  -1.427  1.00  0.00     0.163 HD
BRANCH   7   9
ATOM      9  C   UNL     1       2.902   1.108   0.838  1.00  0.00     0.039 A 
ATOM     10  C   UNL     1       4.082   1.733   0.436  1.00  0.00     0.014 A 
ATOM     11  C   UNL     1       2.389   1.335   2.117  1.00  0.00     0.014 A 
ATOM     12  C   UNL     1       4.848   2.418   1.370  1.00  0.00     0.010 A 
ATOM     13  C   UNL     1       3.107   2.122   3.022  1.00  0.00     0.010 A 
ATOM     14  C   UNL     1       4.369   2.628   2.673  1.00  0.00    -0.014 A 
BRANCH  14  15
ATOM     15  C   UNL     1       5.202   3.400   3.633  1.00  0.00     0.031 A 
ATOM     16  C   UNL     1       5.714   2.775   4.903  1.00  0.00     0.074 A 
ATOM     17  C   UNL     1       5.536   4.669   3.325  1.00  0.00     0.049 A 
ATOM     18  N   UNL     1       6.490   3.293   5.824  1.00  0.00    -0.248 NA
ATOM     19  C   UNL     1       5.297   1.393   5.185  1.00  0.00     0.031 C 
ATOM     20  C   UNL     1       5.094   5.387   2.128  1.00  0.00     0.029 A 
ATOM     21  N   UNL     1       6.340   5.571   3.974  1.00  0.00    -0.354 N 
ATOM     22  C   UNL     1       6.633   2.314   6.801  1.00  0.00     0.074 A 
ATOM     23  C   UNL     1       5.838   1.181   6.377  1.00  0.00     0.031 C 
ATOM     24  C   UNL     1       5.678   6.593   2.097  1.00  0.00     0.029 A 
ATOM     25  C   UNL     1       6.474   6.763   3.306  1.00  0.00     0.049 A 
ATOM     26  H   UNL     1       6.778   5.382   4.835  1.00  0.00     0.167 HD
ATOM     27  C   UNL     1       7.366   2.356   7.940  1.00  0.00     0.037 A 
ATOM     28  C   UNL     1       7.151   7.878   3.635  1.00  0.00     0.037 A 
ATOM     29  C   UNL     1       8.166   3.485   8.349  1.00  0.00     0.049 A 
ATOM     30  C   UNL     1       7.929   7.904   4.920  1.00  0.00     0.074 A 
ATOM     31  C   UNL     1       8.977   3.609   9.465  1.00  0.00     0.029 A 
ATOM     32  N   UNL     1       8.247   4.689   7.664  1.00  0.00    -0.354 N 
ATOM     33  N   UNL     1       8.094   6.956   5.810  1.00  0.00    -0.248 NA
ATOM     34  C   UNL     1       8.620   9.159   5.244  1.00  0.00     0.031 C 
ATOM     35  C   UNL     1       9.494   4.908   9.489  1.00  0.00     0.029 A 
ATOM     36  C   UNL     1       9.071   5.570   8.349  1.00  0.00     0.049 A 
ATOM     37  H   UNL     1       7.788   4.888   6.816  1.00  0.00     0.167 HD
ATOM     38  C   UNL     1       8.934   7.486   6.780  1.00  0.00     0.074 A 
ATOM     39  C   UNL     1       9.257   8.833   6.358  1.00  0.00     0.031 C 
ATOM     40  C   UNL     1       9.396   6.906   7.915  1.00  0.00     0.037 A 
BRANCH  27  41
ATOM     41  C   UNL     1       7.318   1.158   8.849  1.00  0.00     0.064 A 
ATOM     42  C   UNL     1       7.892  -0.072   8.492  1.00  0.00     0.173 A 
ATOM     43  C   UNL     1       6.726   1.256  10.119  1.00  0.00     0.173 A 
ATOM     44  F   UNL     1       8.466  -0.226   7.289  1.00  0.00    -0.203 F 
ATOM     45  C   UNL     1       7.846  -1.164   9.356  1.00  0.00     0.198 A 
ATOM     46  C   UNL     1       6.713   0.172  10.994  1.00  0.00     0.198 A 
ATOM     47  F   UNL     1       6.170   2.410  10.519  1.00  0.00    -0.203 F 
ATOM     48  F   UNL     1       8.356  -2.343   8.971  1.00  0.00    -0.200 F 
ATOM     49  C   UNL     1       7.264  -1.039  10.608  1.00  0.00     0.200 A 
ATOM     50  F   UNL     1       6.166   0.302  12.211  1.00  0.00    -0.200 F 
ATOM     51  F   UNL     1       7.229  -2.088  11.441  1.00  0.00    -0.200 F 
ENDBRANCH  27  41
BRANCH  28  52
ATOM     52  C   UNL     1       7.125   9.057   2.730  1.00  0.00     0.064 A 
ATOM     53  C   UNL     1       8.285   9.488   2.073  1.00  0.00     0.173 A 
ATOM     54  C   UNL     1       5.943   9.780   2.509  1.00  0.00     0.173 A 
ATOM     55  F   UNL     1       9.444   8.840   2.264  1.00  0.00    -0.203 F 
ATOM     56  C   UNL     1       8.270  10.613   1.251  1.00  0.00     0.198 A 
ATOM     57  C   UNL     1       5.921  10.882   1.658  1.00  0.00     0.198 A 
ATOM     58  F   UNL     1       4.803   9.404   3.108  1.00  0.00    -0.203 F 
ATOM     59  F   UNL     1       9.405  11.036   0.678  1.00  0.00    -0.200 F 
ATOM     60  C   UNL     1       7.087  11.305   1.039  1.00  0.00     0.200 A 
ATOM     61  F   UNL     1       4.771  11.534   1.440  1.00  0.00    -0.200 F 
ATOM     62  F   UNL     1       7.072  12.384   0.245  1.00  0.00    -0.200 F 
ENDBRANCH  28  52
BRANCH  40  63
ATOM     63  C   UNL     1      10.355   7.707   8.751  1.00  0.00     0.064 A 
ATOM     64  C   UNL     1       9.957   8.856   9.450  1.00  0.00     0.173 A 
ATOM     65  C   UNL     1      11.697   7.306   8.860  1.00  0.00     0.173 A 
ATOM     66  F   UNL     1       8.691   9.292   9.368  1.00  0.00    -0.203 F 
ATOM     67  C   UNL     1      10.874   9.598  10.191  1.00  0.00     0.198 A 
ATOM     68  C   UNL     1      12.601   8.027   9.634  1.00  0.00     0.198 A 
ATOM     69  F   UNL     1      12.131   6.211   8.219  1.00  0.00    -0.203 F 
ATOM     70  F   UNL     1      10.486  10.731  10.792  1.00  0.00    -0.200 F 
ATOM     71  C   UNL     1      12.193   9.179  10.288  1.00  0.00     0.200 A 
ATOM     72  F   UNL     1      13.870   7.611   9.741  1.00  0.00    -0.200 F 
ATOM     73  F   UNL     1      13.073   9.893  11.004  1.00  0.00    -0.200 F 
ENDBRANCH  40  63
ENDBRANCH  14  15
ENDBRANCH   7   9
ENDBRANCH   4   5
ENDBRANCH   3   4
ENDBRANCH   2   3
ENDBRANCH   1   2
BRANCH   1  74
ATOM     74  C   UNL     1       6.241  -3.190  -2.929  1.00  0.00     0.021 C 
BRANCH  74  75
ATOM     75  C   UNL     1       6.983  -4.407  -2.381  1.00  0.00     0.116 C 
BRANCH  75  76
ATOM     76  N   UNL     1       6.649  -5.622  -3.104  1.00  0.00    -0.352 N 
ATOM     77  C   UNL     1       7.473  -6.485  -3.781  1.00  0.00     0.251 C 
ATOM     78  H   UNL     1       5.694  -5.861  -3.107  1.00  0.00     0.163 HD
ATOM     79  O   UNL     1       6.997  -7.366  -4.490  1.00  0.00    -0.269 OA
BRANCH  77  80
ATOM     80  C   UNL     1       8.938  -6.328  -3.684  1.00  0.00     0.040 A 
ATOM     81  C   UNL     1       9.675  -6.260  -4.868  1.00  0.00     0.014 A 
ATOM     82  C   UNL     1       9.579  -6.240  -2.439  1.00  0.00     0.019 A 
ATOM     83  C   UNL     1      11.048  -6.039  -4.811  1.00  0.00     0.001 A 
ATOM     84  C   UNL     1      10.954  -5.974  -2.375  1.00  0.00    -0.027 A 
ATOM     85  C   UNL     1      11.678  -5.880  -3.575  1.00  0.00     0.005 A 
BRANCH  84  86
ATOM     86  C   UNL     1      11.642  -5.765  -1.044  1.00  0.00     0.165 C 
BRANCH  86  87
ATOM     87  N   UNL     1      12.331  -6.948  -0.578  1.00  0.00    -0.264 N 
ATOM     88  C   UNL     1      13.583  -7.264  -1.028  1.00  0.00     0.293 C 
ATOM     89  C   UNL     1      11.811  -7.727   0.428  1.00  0.00     0.268 C 
ATOM     90  O   UNL     1      14.282  -6.617  -1.789  1.00  0.00    -0.261 OA
ATOM     91  S   UNL     1      14.122  -8.762  -0.298  1.00  0.00    -0.022 SA
ATOM     92  C   UNL     1      12.746  -8.850   0.744  1.00  0.00     0.083 C 
ATOM     93  O   UNL     1      10.753  -7.509   1.000  1.00  0.00    -0.268 OA
ATOM     94  C   UNL     1      12.638  -9.782   1.702  1.00  0.00     0.029 C 
BRANCH  94  95
ATOM     95  C   UNL     1      11.550  -9.879   2.677  1.00  0.00    -0.024 A 
ATOM     96  C   UNL     1      11.831  -9.678   4.034  1.00  0.00     0.009 A 
ATOM     97  C   UNL     1      10.238 -10.159   2.279  1.00  0.00     0.009 A 
ATOM     98  C   UNL     1      10.801  -9.712   4.978  1.00  0.00     0.021 A 
ATOM     99  C   UNL     1       9.207 -10.184   3.221  1.00  0.00     0.021 A 
ATOM    100  C   UNL     1       9.492  -9.953   4.565  1.00  0.00     0.041 A 
ATOM    101  Cl  UNL     1       8.218  -9.955   5.721  1.00  0.00    -0.084 Cl
ENDBRANCH  94  95
ENDBRANCH  86  87
ENDBRANCH  84  86
ENDBRANCH  77  80
ENDBRANCH  75  76
ENDBRANCH  74  75
ENDBRANCH   1  74
TORSDOF 16
