REMARK SMILES CC(C)[C@@H](NC(=O)c1ccc(NS(C)(=O)=O)cc1)C(=O)NCCCCCCNC(=O)c1ccc(-c2c3nc(c(-c4c(F)c(F)c(F)c(F)c4F)c4ccc([nH]4)c(-c4c(F)c(F)c(F)c(F)c4F)c4nc(c(-c5c(F)c(F)c(F)c(F)c5F)c5ccc2[nH]5)C=C4)C=C3)cc1
REMARK SMILES IDX 23 1 22 2 21 3 19 4 20 5 4 7 2 8 1 9 3 10 5 11 6 12 7 14
REMARK SMILES IDX 8 15 9 16 18 17 10 18 17 19 11 20 12 21 13 23 14 24 15 25
REMARK SMILES IDX 16 26 24 27 25 28 26 29 27 30 28 31 29 32 30 34 31 35 32 36
REMARK SMILES IDX 93 37 33 38 92 39 34 40 35 41 36 42 86 43 37 44 91 45 85 46
REMARK SMILES IDX 87 47 38 48 90 49 84 50 83 51 39 53 71 54 51 55 70 56 52 57
REMARK SMILES IDX 55 58 69 59 88 60 53 61 54 62 68 64 89 65 56 66 40 67 41 68
REMARK SMILES IDX 49 69 42 70 43 71 47 72 50 73 44 74 45 75 48 76 46 77 72 78
REMARK SMILES IDX 73 79 81 80 74 81 75 82 79 83 82 84 76 85 77 86 80 87 78 88
REMARK SMILES IDX 57 89 58 90 66 91 59 92 60 93 64 94 67 95 61 96 62 97 65 98
REMARK SMILES IDX 63 99
REMARK H PARENT 21 6 5 13 12 22 28 33 87 52 55 63
REMARK Flexibility Score: inf
ROOT
ATOM      1  C   UNL     1       1.281   3.832  -3.189  1.00  0.00     0.021 C 
ENDROOT
BRANCH   1   2
ATOM      2  C   UNL     1       0.110   3.251  -2.410  1.00  0.00     0.116 C 
BRANCH   2   3
ATOM      3  N   UNL     1      -0.558   2.253  -3.218  1.00  0.00    -0.354 N 
ATOM      4  C   UNL     1      -1.015   1.021  -2.881  1.00  0.00     0.242 C 
ATOM      5  O   UNL     1      -1.421   0.285  -3.786  1.00  0.00    -0.273 OA
ATOM      6  H   UNL     1      -0.704   2.508  -4.158  1.00  0.00     0.163 HD
BRANCH   4   7
ATOM      7  C   UNL     1      -0.936   0.515  -1.433  1.00  0.00     0.174 C 
BRANCH   7   8
ATOM      8  C   UNL     1       0.561   0.153  -1.131  1.00  0.00     0.015 C 
ATOM      9  C   UNL     1       0.776  -0.481   0.244  1.00  0.00     0.010 C 
ATOM     10  C   UNL     1       1.171  -0.768  -2.202  1.00  0.00     0.010 C 
ENDBRANCH   7   8
BRANCH   7  11
ATOM     11  N   UNL     1      -1.508   1.454  -0.433  1.00  0.00    -0.340 N 
ATOM     12  C   UNL     1      -2.691   2.172  -0.404  1.00  0.00     0.251 C 
ATOM     13  H   UNL     1      -0.939   1.591   0.359  1.00  0.00     0.164 HD
ATOM     14  O   UNL     1      -3.122   2.565   0.678  1.00  0.00    -0.269 OA
BRANCH  12  15
ATOM     15  C   UNL     1      -3.320   2.684  -1.645  1.00  0.00     0.039 A 
ATOM     16  C   UNL     1      -3.286   4.068  -1.850  1.00  0.00     0.016 A 
ATOM     17  C   UNL     1      -3.807   1.861  -2.652  1.00  0.00     0.016 A 
ATOM     18  C   UNL     1      -3.534   4.604  -3.123  1.00  0.00     0.027 A 
ATOM     19  C   UNL     1      -4.032   2.403  -3.929  1.00  0.00     0.027 A 
ATOM     20  C   UNL     1      -3.842   3.770  -4.195  1.00  0.00     0.048 A 
BRANCH  20  21
ATOM     21  N   UNL     1      -3.720   4.128  -5.583  1.00  0.00    -0.284 N 
ATOM     22  H   UNL     1      -3.618   3.394  -6.230  1.00  0.00     0.180 HD
BRANCH  21  23
ATOM     23  S   UNL     1      -3.737   5.698  -6.194  1.00  0.00     0.229 S 
ATOM     24  C   UNL     1      -2.451   5.577  -7.423  1.00  0.00     0.183 C 
ATOM     25  O   UNL     1      -4.994   5.845  -6.891  1.00  0.00    -0.207 OA
ATOM     26  O   UNL     1      -3.284   6.666  -5.221  1.00  0.00    -0.207 OA
ENDBRANCH  21  23
ENDBRANCH  20  21
ENDBRANCH  12  15
ENDBRANCH   7  11
ENDBRANCH   4   7
ENDBRANCH   2   3
ENDBRANCH   1   2
BRANCH   1  27
ATOM     27  C   UNL     1       0.829   4.683  -4.381  1.00  0.00     0.002 C 
BRANCH  27  28
ATOM     28  C   UNL     1      -0.086   5.852  -4.006  1.00  0.00     0.002 C 
BRANCH  28  29
ATOM     29  C   UNL     1       0.478   6.788  -2.939  1.00  0.00     0.021 C 
BRANCH  29  30
ATOM     30  C   UNL     1       1.841   7.355  -3.298  1.00  0.00     0.116 C 
BRANCH  30  31
ATOM     31  N   UNL     1       1.806   8.090  -4.551  1.00  0.00    -0.352 N 
ATOM     32  C   UNL     1       2.361   9.305  -4.846  1.00  0.00     0.251 C 
ATOM     33  H   UNL     1       1.318   7.654  -5.287  1.00  0.00     0.163 HD
ATOM     34  O   UNL     1       2.086   9.882  -5.892  1.00  0.00    -0.269 OA
BRANCH  32  35
ATOM     35  C   UNL     1       3.284   9.919  -3.876  1.00  0.00     0.039 A 
ATOM     36  C   UNL     1       3.137  11.271  -3.568  1.00  0.00     0.014 A 
ATOM     37  C   UNL     1       4.282   9.153  -3.266  1.00  0.00     0.014 A 
ATOM     38  C   UNL     1       3.978  11.852  -2.622  1.00  0.00     0.010 A 
ATOM     39  C   UNL     1       5.057   9.709  -2.258  1.00  0.00     0.010 A 
ATOM     40  C   UNL     1       4.931  11.070  -1.946  1.00  0.00    -0.014 A 
BRANCH  40  41
ATOM     41  C   UNL     1       5.839  11.674  -0.943  1.00  0.00     0.031 A 
ATOM     42  C   UNL     1       7.321  11.695  -1.197  1.00  0.00     0.074 A 
ATOM     43  C   UNL     1       5.334  12.163   0.204  1.00  0.00     0.049 A 
ATOM     44  N   UNL     1       8.286  12.141  -0.433  1.00  0.00    -0.248 NA
ATOM     45  C   UNL     1       7.785  11.109  -2.465  1.00  0.00     0.031 C 
ATOM     46  C   UNL     1       3.919  12.152   0.580  1.00  0.00     0.029 A 
ATOM     47  N   UNL     1       5.956  12.764   1.269  1.00  0.00    -0.354 N 
ATOM     48  C   UNL     1       9.463  11.878  -1.122  1.00  0.00     0.074 A 
ATOM     49  C   UNL     1       9.101  11.173  -2.330  1.00  0.00     0.031 C 
ATOM     50  C   UNL     1       3.777  12.748   1.774  1.00  0.00     0.029 A 
ATOM     51  C   UNL     1       5.092  13.148   2.264  1.00  0.00     0.049 A 
ATOM     52  H   UNL     1       6.929  12.906   1.314  1.00  0.00     0.167 HD
ATOM     53  C   UNL     1      10.729  12.223  -0.790  1.00  0.00     0.037 A 
ATOM     54  C   UNL     1       5.339  13.754   3.441  1.00  0.00     0.037 A 
ATOM     55  C   UNL     1      11.078  12.947   0.403  1.00  0.00     0.049 A 
ATOM     56  C   UNL     1       6.758  14.123   3.786  1.00  0.00     0.074 A 
ATOM     57  C   UNL     1      12.323  13.388   0.812  1.00  0.00     0.029 A 
ATOM     58  N   UNL     1      10.174  13.337   1.381  1.00  0.00    -0.354 N 
ATOM     59  N   UNL     1       7.856  13.930   3.097  1.00  0.00    -0.248 NA
ATOM     60  C   UNL     1       6.967  14.807   5.069  1.00  0.00     0.031 C 
ATOM     61  C   UNL     1      12.181  13.999   2.062  1.00  0.00     0.029 A 
ATOM     62  C   UNL     1      10.837  13.997   2.402  1.00  0.00     0.049 A 
ATOM     63  H   UNL     1       9.204  13.169   1.353  1.00  0.00     0.167 HD
ATOM     64  C   UNL     1       8.880  14.502   3.842  1.00  0.00     0.074 A 
ATOM     65  C   UNL     1       8.267  15.060   5.029  1.00  0.00     0.031 C 
ATOM     66  C   UNL     1      10.207  14.561   3.568  1.00  0.00     0.037 A 
BRANCH  53  67
ATOM     67  C   UNL     1      11.828  11.825  -1.734  1.00  0.00     0.064 A 
ATOM     68  C   UNL     1      11.950  12.400  -3.009  1.00  0.00     0.173 A 
ATOM     69  C   UNL     1      12.789  10.878  -1.350  1.00  0.00     0.173 A 
ATOM     70  F   UNL     1      11.050  13.300  -3.434  1.00  0.00    -0.203 F 
ATOM     71  C   UNL     1      12.974  12.020  -3.873  1.00  0.00     0.198 A 
ATOM     72  C   UNL     1      13.832  10.526  -2.203  1.00  0.00     0.198 A 
ATOM     73  F   UNL     1      12.723  10.298  -0.142  1.00  0.00    -0.203 F 
ATOM     74  F   UNL     1      13.036  12.543  -5.106  1.00  0.00    -0.200 F 
ATOM     75  C   UNL     1      13.918  11.091  -3.467  1.00  0.00     0.200 A 
ATOM     76  F   UNL     1      14.752   9.638  -1.803  1.00  0.00    -0.200 F 
ATOM     77  F   UNL     1      14.908  10.732  -4.296  1.00  0.00    -0.200 F 
ENDBRANCH  53  67
BRANCH  54  78
ATOM     78  C   UNL     1       4.219  14.080   4.363  1.00  0.00     0.064 A 
ATOM     79  C   UNL     1       3.856  15.411   4.615  1.00  0.00     0.173 A 
ATOM     80  C   UNL     1       3.500  13.073   5.022  1.00  0.00     0.173 A 
ATOM     81  F   UNL     1       4.525  16.411   4.022  1.00  0.00    -0.203 F 
ATOM     82  C   UNL     1       2.840  15.722   5.515  1.00  0.00     0.198 A 
ATOM     83  C   UNL     1       2.462  13.384   5.897  1.00  0.00     0.198 A 
ATOM     84  F   UNL     1       3.801  11.783   4.810  1.00  0.00    -0.203 F 
ATOM     85  F   UNL     1       2.554  17.004   5.781  1.00  0.00    -0.200 F 
ATOM     86  C   UNL     1       2.140  14.709   6.152  1.00  0.00     0.200 A 
ATOM     87  F   UNL     1       1.777  12.402   6.498  1.00  0.00    -0.200 F 
ATOM     88  F   UNL     1       1.163  15.009   7.019  1.00  0.00    -0.200 F 
ENDBRANCH  54  78
BRANCH  66  89
ATOM     89  C   UNL     1      11.077  15.303   4.541  1.00  0.00     0.064 A 
ATOM     90  C   UNL     1      11.344  14.809   5.827  1.00  0.00     0.173 A 
ATOM     91  C   UNL     1      11.677  16.517   4.167  1.00  0.00     0.173 A 
ATOM     92  F   UNL     1      10.785  13.661   6.238  1.00  0.00    -0.203 F 
ATOM     93  C   UNL     1      12.147  15.520   6.714  1.00  0.00     0.198 A 
ATOM     94  C   UNL     1      12.509  17.206   5.043  1.00  0.00     0.198 A 
ATOM     95  F   UNL     1      11.463  17.029   2.946  1.00  0.00    -0.203 F 
ATOM     96  F   UNL     1      12.339  15.059   7.957  1.00  0.00    -0.200 F 
ATOM     97  C   UNL     1      12.735  16.713   6.319  1.00  0.00     0.200 A 
ATOM     98  F   UNL     1      13.091  18.348   4.654  1.00  0.00    -0.200 F 
ATOM     99  F   UNL     1      13.513  17.393   7.173  1.00  0.00    -0.200 F 
ENDBRANCH  66  89
ENDBRANCH  40  41
ENDBRANCH  32  35
ENDBRANCH  30  31
ENDBRANCH  29  30
ENDBRANCH  28  29
ENDBRANCH  27  28
ENDBRANCH   1  27
TORSDOF 18
