REMARK SMILES Cc1ncn(CC[C@@H]2CCC[C@@]2([NH3+])C(=O)NCCCCCCNC(=O)c2ccc(-c3c4nc(c(-c5c(F)c(F)c(F)c(F)c5F)c5ccc([nH]5)c(-c5c(F)c(F)c(F)c(F)c5F)c5nc(c(-c6c(F)c(F)c(F)c(F)c6F)c6ccc3[nH]6)C=C5)C=C4)cc2)c1C
REMARK SMILES IDX 19 1 18 2 17 3 16 4 14 5 15 6 12 8 8 9 9 10 10 11 11 12 7 13
REMARK SMILES IDX 6 14 5 15 1 16 2 17 3 18 89 19 4 20 90 21 13 22 20 26 21 27
REMARK SMILES IDX 22 28 23 29 24 30 25 32 26 33 27 34 88 35 28 36 87 37 29 38
REMARK SMILES IDX 30 39 31 40 81 41 32 42 86 43 80 44 82 45 33 46 85 47 79 48
REMARK SMILES IDX 78 49 34 51 66 52 46 53 65 54 47 55 50 56 64 57 83 58 48 59
REMARK SMILES IDX 49 60 63 62 84 63 51 64 35 65 36 66 44 67 37 68 38 69 42 70
REMARK SMILES IDX 45 71 39 72 40 73 43 74 41 75 67 76 68 77 76 78 69 79 70 80
REMARK SMILES IDX 74 81 77 82 71 83 72 84 75 85 73 86 52 87 53 88 61 89 54 90
REMARK SMILES IDX 55 91 59 92 62 93 56 94 57 95 60 96 58 97
REMARK H PARENT 16 7 13 23 13 24 13 25 23 31 82 50 50 61
REMARK Flexibility Score: inf
ROOT
ATOM      1  C   UNL     1      -5.898   1.730   2.114  1.00  0.00     0.002 C 
ENDROOT
BRANCH   1   2
ATOM      2  C   UNL     1      -5.191   1.914   0.769  1.00  0.00     0.021 C 
BRANCH   2   3
ATOM      3  C   UNL     1      -3.805   1.281   0.763  1.00  0.00     0.116 C 
BRANCH   3   4
ATOM      4  N   UNL     1      -3.939  -0.153   0.658  1.00  0.00    -0.351 N 
ATOM      5  C   UNL     1      -3.874  -0.947  -0.449  1.00  0.00     0.281 C 
ATOM      6  O   UNL     1      -4.382  -2.067  -0.365  1.00  0.00    -0.268 OA
ATOM      7  H   UNL     1      -4.099  -0.625   1.507  1.00  0.00     0.163 HD
BRANCH   5   8
ATOM      8  C   UNL     1      -3.045  -0.488  -1.688  1.00  0.00     0.176 C 
ATOM      9  C   UNL     1      -3.133  -1.545  -2.831  1.00  0.00     0.062 C 
ATOM     10  C   UNL     1      -2.940  -0.797  -4.156  1.00  0.00     0.011 C 
ATOM     11  C   UNL     1      -3.045   0.685  -3.833  1.00  0.00     0.008 C 
ATOM     12  C   UNL     1      -3.554   0.777  -2.401  1.00  0.00     0.079 C 
BRANCH   9  13
ATOM     13  C   UNL     1      -2.378  -2.894  -2.701  1.00  0.00     0.032 C 
BRANCH  13  14
ATOM     14  C   UNL     1      -0.896  -3.038  -3.112  1.00  0.00     0.124 C 
BRANCH  14  15
ATOM     15  N   UNL     1       0.074  -2.640  -2.112  1.00  0.00    -0.335 N 
ATOM     16  C   UNL     1       1.715  -0.270   0.068  1.00  0.00     0.069 C 
ATOM     17  C   UNL     1       1.223  -1.422  -0.723  1.00  0.00     0.058 A 
ATOM     18  N   UNL     1       1.014  -2.635  -0.109  1.00  0.00    -0.242 NA
ATOM     19  C   UNL     1       0.779  -1.459  -2.038  1.00  0.00     0.037 A 
ATOM     20  C   UNL     1       0.365  -3.362  -0.987  1.00  0.00     0.199 A 
ATOM     21  C   UNL     1       0.779  -0.418  -3.096  1.00  0.00     0.066 C 
ENDBRANCH  14  15
ENDBRANCH  13  14
ENDBRANCH   9  13
BRANCH   8  22
ATOM     22  N   UNL     1      -1.684  -0.237  -1.221  1.00  0.00    -0.345 N 
ATOM     23  H   UNL     1      -1.107   0.067  -2.005  1.00  0.00     0.345 HD
ATOM     24  H   UNL     1      -1.297  -1.094  -0.826  1.00  0.00     0.345 HD
ATOM     25  H   UNL     1      -1.699   0.491  -0.507  1.00  0.00     0.345 HD
ENDBRANCH   8  22
ENDBRANCH   5   8
ENDBRANCH   3   4
ENDBRANCH   2   3
ENDBRANCH   1   2
BRANCH   1  26
ATOM     26  C   UNL     1      -5.108   2.248   3.326  1.00  0.00     0.002 C 
BRANCH  26  27
ATOM     27  C   UNL     1      -4.563   3.680   3.204  1.00  0.00     0.021 C 
BRANCH  27  28
ATOM     28  C   UNL     1      -5.662   4.723   3.118  1.00  0.00     0.116 C 
BRANCH  28  29
ATOM     29  N   UNL     1      -6.464   4.759   4.342  1.00  0.00    -0.352 N 
ATOM     30  C   UNL     1      -7.608   5.484   4.609  1.00  0.00     0.251 C 
ATOM     31  H   UNL     1      -6.144   4.186   5.076  1.00  0.00     0.163 HD
ATOM     32  O   UNL     1      -7.972   5.702   5.751  1.00  0.00    -0.269 OA
BRANCH  30  33
ATOM     33  C   UNL     1      -8.394   5.974   3.468  1.00  0.00     0.039 A 
ATOM     34  C   UNL     1      -8.985   7.239   3.465  1.00  0.00     0.014 A 
ATOM     35  C   UNL     1      -8.498   5.129   2.369  1.00  0.00     0.014 A 
ATOM     36  C   UNL     1      -9.643   7.657   2.313  1.00  0.00     0.010 A 
ATOM     37  C   UNL     1      -8.932   5.626   1.178  1.00  0.00     0.010 A 
ATOM     38  C   UNL     1      -9.602   6.839   1.175  1.00  0.00    -0.014 A 
BRANCH  38  39
ATOM     39  C   UNL     1     -10.189   7.246  -0.087  1.00  0.00     0.031 A 
ATOM     40  C   UNL     1      -9.636   8.508  -0.634  1.00  0.00     0.074 A 
ATOM     41  C   UNL     1     -10.976   6.413  -0.802  1.00  0.00     0.049 A 
ATOM     42  N   UNL     1     -10.255   9.629  -0.786  1.00  0.00    -0.248 NA
ATOM     43  C   UNL     1      -8.189   8.585  -0.897  1.00  0.00     0.031 C 
ATOM     44  C   UNL     1     -11.337   5.017  -0.521  1.00  0.00     0.029 A 
ATOM     45  N   UNL     1     -11.535   6.621  -2.022  1.00  0.00    -0.354 N 
ATOM     46  C   UNL     1      -9.335  10.499  -1.361  1.00  0.00     0.074 A 
ATOM     47  C   UNL     1      -8.047   9.872  -1.220  1.00  0.00     0.031 C 
ATOM     48  C   UNL     1     -11.835   4.442  -1.638  1.00  0.00     0.029 A 
ATOM     49  C   UNL     1     -11.983   5.464  -2.654  1.00  0.00     0.049 A 
ATOM     50  H   UNL     1     -11.617   7.515  -2.426  1.00  0.00     0.167 HD
ATOM     51  C   UNL     1      -9.757  11.536  -2.137  1.00  0.00     0.037 A 
ATOM     52  C   UNL     1     -12.376   5.377  -3.950  1.00  0.00     0.037 A 
ATOM     53  C   UNL     1     -11.161  11.798  -1.924  1.00  0.00     0.049 A 
ATOM     54  C   UNL     1     -12.729   6.760  -4.383  1.00  0.00     0.074 A 
ATOM     55  C   UNL     1     -11.921  12.112  -0.812  1.00  0.00     0.029 A 
ATOM     56  N   UNL     1     -12.057  11.335  -2.859  1.00  0.00    -0.354 N 
ATOM     57  N   UNL     1     -13.737   7.429  -3.887  1.00  0.00    -0.248 NA
ATOM     58  C   UNL     1     -11.660   7.572  -4.951  1.00  0.00     0.031 C 
ATOM     59  C   UNL     1     -13.108  11.331  -0.949  1.00  0.00     0.029 A 
ATOM     60  C   UNL     1     -13.046  10.671  -2.176  1.00  0.00     0.049 A 
ATOM     61  H   UNL     1     -12.000  11.457  -3.834  1.00  0.00     0.167 HD
ATOM     62  C   UNL     1     -13.249   8.713  -3.688  1.00  0.00     0.074 A 
ATOM     63  C   UNL     1     -11.976   8.752  -4.409  1.00  0.00     0.031 C 
ATOM     64  C   UNL     1     -13.748   9.527  -2.710  1.00  0.00     0.037 A 
BRANCH  51  65
ATOM     65  C   UNL     1      -9.024  12.043  -3.356  1.00  0.00     0.064 A 
ATOM     66  C   UNL     1      -9.523  13.183  -4.019  1.00  0.00     0.173 A 
ATOM     67  C   UNL     1      -8.062  11.299  -4.072  1.00  0.00     0.173 A 
ATOM     68  F   UNL     1     -10.446  13.963  -3.436  1.00  0.00    -0.203 F 
ATOM     69  C   UNL     1      -9.163  13.490  -5.333  1.00  0.00     0.198 A 
ATOM     70  C   UNL     1      -7.664  11.640  -5.363  1.00  0.00     0.198 A 
ATOM     71  F   UNL     1      -7.550  10.152  -3.611  1.00  0.00    -0.203 F 
ATOM     72  F   UNL     1      -9.770  14.501  -5.969  1.00  0.00    -0.200 F 
ATOM     73  C   UNL     1      -8.241  12.712  -6.007  1.00  0.00     0.200 A 
ATOM     74  F   UNL     1      -6.780  10.862  -6.004  1.00  0.00    -0.200 F 
ATOM     75  F   UNL     1      -7.946  12.961  -7.289  1.00  0.00    -0.200 F 
ENDBRANCH  51  65
BRANCH  52  76
ATOM     76  C   UNL     1     -12.091   4.269  -4.897  1.00  0.00     0.064 A 
ATOM     77  C   UNL     1     -12.754   4.170  -6.131  1.00  0.00     0.173 A 
ATOM     78  C   UNL     1     -10.974   3.424  -4.724  1.00  0.00     0.173 A 
ATOM     79  F   UNL     1     -13.792   4.974  -6.403  1.00  0.00    -0.203 F 
ATOM     80  C   UNL     1     -12.321   3.289  -7.131  1.00  0.00     0.198 A 
ATOM     81  C   UNL     1     -10.547   2.542  -5.719  1.00  0.00     0.198 A 
ATOM     82  F   UNL     1     -10.214   3.501  -3.623  1.00  0.00    -0.203 F 
ATOM     83  F   UNL     1     -12.947   3.262  -8.316  1.00  0.00    -0.200 F 
ATOM     84  C   UNL     1     -11.214   2.482  -6.927  1.00  0.00     0.200 A 
ATOM     85  F   UNL     1      -9.449   1.798  -5.520  1.00  0.00    -0.200 F 
ATOM     86  F   UNL     1     -10.765   1.680  -7.903  1.00  0.00    -0.200 F 
ENDBRANCH  52  76
BRANCH  64  87
ATOM     87  C   UNL     1     -14.987   9.095  -1.970  1.00  0.00     0.064 A 
ATOM     88  C   UNL     1     -15.073   7.933  -1.183  1.00  0.00     0.173 A 
ATOM     89  C   UNL     1     -16.064   9.990  -1.907  1.00  0.00     0.173 A 
ATOM     90  F   UNL     1     -14.049   7.077  -1.102  1.00  0.00    -0.203 F 
ATOM     91  C   UNL     1     -16.197   7.665  -0.401  1.00  0.00     0.198 A 
ATOM     92  C   UNL     1     -17.169   9.739  -1.098  1.00  0.00     0.198 A 
ATOM     93  F   UNL     1     -16.017  11.145  -2.589  1.00  0.00    -0.203 F 
ATOM     94  F   UNL     1     -16.251   6.547   0.338  1.00  0.00    -0.200 F 
ATOM     95  C   UNL     1     -17.240   8.574  -0.353  1.00  0.00     0.200 A 
ATOM     96  F   UNL     1     -18.151  10.647  -1.014  1.00  0.00    -0.200 F 
ATOM     97  F   UNL     1     -18.300   8.341   0.434  1.00  0.00    -0.200 F 
ENDBRANCH  64  87
ENDBRANCH  38  39
ENDBRANCH  30  33
ENDBRANCH  28  29
ENDBRANCH  27  28
ENDBRANCH  26  27
ENDBRANCH   1  26
TORSDOF 17
