REMARK SMILES O=C(Cc1c(C(=O)c2cc3c(cn2)CCCC3)[nH]c2cc(Cl)ccc12)NCCCCCCNC(=O)c1ccc(-c2c3nc(c(-c4c(F)c(F)c(F)c(F)c4F)c4ccc([nH]4)c(-c4c(F)c(F)c(F)c(F)c4F)c4nc(c(-c5c(F)c(F)c(F)c(F)c5F)c5ccc2[nH]5)C=C4)C=C3)cc1
REMARK SMILES IDX 29 1 28 2 27 3 26 4 1 5 2 6 3 8 4 9 5 10 25 11 18 12 19 13
REMARK SMILES IDX 24 14 20 16 23 17 21 18 22 19 6 20 7 21 8 22 9 23 13 24
REMARK SMILES IDX 10 25 12 26 11 27 17 28 14 29 16 30 15 31 30 32 31 33 32 34
REMARK SMILES IDX 33 35 34 36 35 38 36 39 37 40 98 41 38 42 97 43 39 44 40 45
REMARK SMILES IDX 41 46 91 47 42 48 96 49 90 50 92 51 43 52 95 53 89 54 88 55
REMARK SMILES IDX 44 57 76 58 56 59 75 60 57 61 60 62 74 63 93 64 58 65 59 66
REMARK SMILES IDX 73 68 94 69 61 70 45 71 46 72 54 73 47 74 48 75 52 76 55 77
REMARK SMILES IDX 49 78 50 79 53 80 51 81 77 82 78 83 86 84 79 85 80 86 84 87
REMARK SMILES IDX 87 88 81 89 82 90 85 91 83 92 62 93 63 94 71 95 64 96 65 97
REMARK SMILES IDX 69 98 72 99 66 100 67 101 70 102 68 103
REMARK H PARENT 26 7 18 15 33 37 92 56 60 67
REMARK Flexibility Score: inf
ROOT
ATOM      1  C   UNL     1       4.119  -3.760   0.309  1.00  0.00     0.002 C 
ENDROOT
BRANCH   1   2
ATOM      2  C   UNL     1       2.605  -3.584   0.117  1.00  0.00     0.021 C 
BRANCH   2   3
ATOM      3  C   UNL     1       2.051  -2.238   0.577  1.00  0.00     0.116 C 
BRANCH   3   4
ATOM      4  N   UNL     1       2.647  -1.132  -0.138  1.00  0.00    -0.356 N 
ATOM      5  O   UNL     1       1.278   0.447   0.798  1.00  0.00    -0.275 OA
ATOM      6  C   UNL     1       2.240   0.168   0.087  1.00  0.00     0.224 C 
ATOM      7  H   UNL     1       3.357  -1.309  -0.797  1.00  0.00     0.163 HD
BRANCH   6   8
ATOM      8  C   UNL     1       3.133   1.215  -0.572  1.00  0.00     0.138 C 
BRANCH   8   9
ATOM      9  C   UNL     1       3.892   1.989   0.469  1.00  0.00    -0.002 A 
ATOM     10  C   UNL     1       3.836   3.361   0.713  1.00  0.00     0.093 A 
ATOM     11  C   UNL     1       4.834   1.428   1.399  1.00  0.00     0.004 A 
ATOM     12  N   UNL     1       4.554   3.578   1.873  1.00  0.00    -0.351 N 
ATOM     13  C   UNL     1       5.211   2.442   2.272  1.00  0.00     0.048 A 
ATOM     14  C   UNL     1       5.385   0.143   1.591  1.00  0.00     0.012 A 
ATOM     15  H   UNL     1       4.589   4.438   2.352  1.00  0.00     0.167 HD
ATOM     16  C   UNL     1       6.090   2.236   3.345  1.00  0.00     0.047 A 
ATOM     17  C   UNL     1       6.271  -0.086   2.649  1.00  0.00     0.021 A 
ATOM     18  C   UNL     1       6.610   0.949   3.513  1.00  0.00     0.043 A 
ATOM     19  Cl  UNL     1       7.694   0.642   4.816  1.00  0.00    -0.084 Cl
BRANCH  10  20
ATOM     20  C   UNL     1       3.136   4.400  -0.041  1.00  0.00     0.227 C 
ATOM     21  O   UNL     1       2.415   4.173  -1.009  1.00  0.00    -0.285 OA
BRANCH  20  22
ATOM     22  C   UNL     1       3.371   5.825   0.324  1.00  0.00     0.113 A 
ATOM     23  C   UNL     1       4.659   6.351   0.273  1.00  0.00     0.036 A 
ATOM     24  N   UNL     1       2.280   6.538   0.689  1.00  0.00    -0.252 NA
ATOM     25  C   UNL     1       4.846   7.693   0.615  1.00  0.00    -0.041 A 
ATOM     26  C   UNL     1       2.483   7.835   0.998  1.00  0.00     0.115 A 
ATOM     27  C   UNL     1       3.730   8.455   0.994  1.00  0.00    -0.026 A 
ATOM     28  C   UNL     1       6.237   8.275   0.624  1.00  0.00     0.036 C 
ATOM     29  C   UNL     1       3.838   9.921   1.312  1.00  0.00     0.037 C 
ATOM     30  C   UNL     1       6.247   9.803   0.617  1.00  0.00     0.005 C 
ATOM     31  C   UNL     1       5.265  10.353   1.647  1.00  0.00     0.005 C 
ENDBRANCH  20  22
ENDBRANCH  10  20
ENDBRANCH   8   9
ENDBRANCH   6   8
ENDBRANCH   3   4
ENDBRANCH   2   3
ENDBRANCH   1   2
BRANCH   1  32
ATOM     32  C   UNL     1       4.615  -3.720   1.757  1.00  0.00     0.002 C 
BRANCH  32  33
ATOM     33  C   UNL     1       4.011  -4.764   2.695  1.00  0.00     0.021 C 
BRANCH  33  34
ATOM     34  C   UNL     1       4.109  -6.207   2.216  1.00  0.00     0.116 C 
BRANCH  34  35
ATOM     35  N   UNL     1       5.474  -6.698   2.105  1.00  0.00    -0.352 N 
ATOM     36  C   UNL     1       5.955  -7.957   2.395  1.00  0.00     0.251 C 
ATOM     37  H   UNL     1       6.139  -6.049   1.780  1.00  0.00     0.163 HD
ATOM     38  O   UNL     1       7.152  -8.201   2.337  1.00  0.00    -0.269 OA
BRANCH  36  39
ATOM     39  C   UNL     1       5.004  -9.004   2.832  1.00  0.00     0.039 A 
ATOM     40  C   UNL     1       3.819  -9.224   2.127  1.00  0.00     0.014 A 
ATOM     41  C   UNL     1       5.269  -9.718   4.004  1.00  0.00     0.014 A 
ATOM     42  C   UNL     1       2.824 -10.014   2.690  1.00  0.00     0.010 A 
ATOM     43  C   UNL     1       4.297 -10.577   4.527  1.00  0.00     0.010 A 
ATOM     44  C   UNL     1       3.042 -10.682   3.906  1.00  0.00    -0.014 A 
BRANCH  44  45
ATOM     45  C   UNL     1       1.927 -11.446   4.526  1.00  0.00     0.031 A 
ATOM     46  C   UNL     1       1.316 -10.992   5.826  1.00  0.00     0.074 A 
ATOM     47  C   UNL     1       1.408 -12.504   3.875  1.00  0.00     0.049 A 
ATOM     48  N   UNL     1       0.310 -11.506   6.490  1.00  0.00    -0.248 NA
ATOM     49  C   UNL     1       1.909  -9.808   6.468  1.00  0.00     0.031 C 
ATOM     50  C   UNL     1       1.900 -13.030   2.601  1.00  0.00     0.029 A 
ATOM     51  N   UNL     1       0.335 -13.306   4.175  1.00  0.00    -0.354 N 
ATOM     52  C   UNL     1       0.162 -10.723   7.627  1.00  0.00     0.074 A 
ATOM     53  C   UNL     1       1.199  -9.715   7.583  1.00  0.00     0.031 C 
ATOM     54  C   UNL     1       1.097 -14.026   2.199  1.00  0.00     0.029 A 
ATOM     55  C   UNL     1       0.068 -14.247   3.211  1.00  0.00     0.049 A 
ATOM     56  H   UNL     1      -0.192 -13.214   5.001  1.00  0.00     0.167 HD
ATOM     57  C   UNL     1      -0.765 -10.824   8.610  1.00  0.00     0.037 A 
ATOM     58  C   UNL     1      -0.893 -15.187   3.151  1.00  0.00     0.037 A 
ATOM     59  C   UNL     1      -1.818 -11.805   8.639  1.00  0.00     0.049 A 
ATOM     60  C   UNL     1      -1.881 -15.304   4.277  1.00  0.00     0.074 A 
ATOM     61  C   UNL     1      -2.821 -11.965   9.579  1.00  0.00     0.029 A 
ATOM     62  N   UNL     1      -2.008 -12.788   7.680  1.00  0.00    -0.354 N 
ATOM     63  N   UNL     1      -2.009 -14.556   5.344  1.00  0.00    -0.248 NA
ATOM     64  C   UNL     1      -2.848 -16.408   4.196  1.00  0.00     0.031 C 
ATOM     65  C   UNL     1      -3.596 -13.069   9.210  1.00  0.00     0.029 A 
ATOM     66  C   UNL     1      -3.099 -13.572   8.019  1.00  0.00     0.049 A 
ATOM     67  H   UNL     1      -1.451 -12.910   6.877  1.00  0.00     0.167 HD
ATOM     68  C   UNL     1      -3.069 -15.091   6.060  1.00  0.00     0.074 A 
ATOM     69  C   UNL     1      -3.567 -16.215   5.294  1.00  0.00     0.031 C 
ATOM     70  C   UNL     1      -3.578 -14.692   7.250  1.00  0.00     0.037 A 
BRANCH  57  71
ATOM     71  C   UNL     1      -0.690  -9.848   9.748  1.00  0.00     0.064 A 
ATOM     72  C   UNL     1      -1.085  -8.512   9.594  1.00  0.00     0.173 A 
ATOM     73  C   UNL     1      -0.290 -10.274  11.023  1.00  0.00     0.173 A 
ATOM     74  F   UNL     1      -1.466  -8.055   8.392  1.00  0.00    -0.203 F 
ATOM     75  C   UNL     1      -1.070  -7.633  10.674  1.00  0.00     0.198 A 
ATOM     76  C   UNL     1      -0.298  -9.398  12.106  1.00  0.00     0.198 A 
ATOM     77  F   UNL     1       0.090 -11.544  11.224  1.00  0.00    -0.203 F 
ATOM     78  F   UNL     1      -1.425  -6.352  10.499  1.00  0.00    -0.200 F 
ATOM     79  C   UNL     1      -0.685  -8.078  11.930  1.00  0.00     0.200 A 
ATOM     80  F   UNL     1       0.062  -9.833  13.321  1.00  0.00    -0.200 F 
ATOM     81  F   UNL     1      -0.685  -7.234  12.971  1.00  0.00    -0.200 F 
ENDBRANCH  57  71
BRANCH  58  82
ATOM     82  C   UNL     1      -0.965 -16.087   1.973  1.00  0.00     0.064 A 
ATOM     83  C   UNL     1      -2.008 -15.974   1.045  1.00  0.00     0.173 A 
ATOM     84  C   UNL     1       0.020 -17.058   1.736  1.00  0.00     0.173 A 
ATOM     85  F   UNL     1      -2.984 -15.075   1.241  1.00  0.00    -0.203 F 
ATOM     86  C   UNL     1      -2.066 -16.801  -0.075  1.00  0.00     0.198 A 
ATOM     87  C   UNL     1      -0.024 -17.865   0.603  1.00  0.00     0.198 A 
ATOM     88  F   UNL     1       1.040 -17.203   2.596  1.00  0.00    -0.203 F 
ATOM     89  F   UNL     1      -3.089 -16.692  -0.933  1.00  0.00    -0.200 F 
ATOM     90  C   UNL     1      -1.069 -17.739  -0.300  1.00  0.00     0.200 A 
ATOM     91  F   UNL     1       0.948 -18.760   0.382  1.00  0.00    -0.200 F 
ATOM     92  F   UNL     1      -1.117 -18.524  -1.385  1.00  0.00    -0.200 F 
ENDBRANCH  58  82
BRANCH  70  93
ATOM     93  C   UNL     1      -4.729 -15.474   7.806  1.00  0.00     0.064 A 
ATOM     94  C   UNL     1      -4.538 -16.738   8.380  1.00  0.00     0.173 A 
ATOM     95  C   UNL     1      -6.021 -14.928   7.827  1.00  0.00     0.173 A 
ATOM     96  F   UNL     1      -3.322 -17.307   8.371  1.00  0.00    -0.203 F 
ATOM     97  C   UNL     1      -5.602 -17.434   8.947  1.00  0.00     0.198 A 
ATOM     98  C   UNL     1      -7.078 -15.616   8.415  1.00  0.00     0.198 A 
ATOM     99  F   UNL     1      -6.253 -13.718   7.295  1.00  0.00    -0.203 F 
ATOM    100  F   UNL     1      -5.403 -18.654   9.464  1.00  0.00    -0.200 F 
ATOM    101  C   UNL     1      -6.869 -16.869   8.971  1.00  0.00     0.200 A 
ATOM    102  F   UNL     1      -8.299 -15.065   8.448  1.00  0.00    -0.200 F 
ATOM    103  F   UNL     1      -7.889 -17.535   9.529  1.00  0.00    -0.200 F 
ENDBRANCH  70  93
ENDBRANCH  44  45
ENDBRANCH  36  39
ENDBRANCH  34  35
ENDBRANCH  33  34
ENDBRANCH  32  33
ENDBRANCH   1  32
TORSDOF 16
