REMARK SMILES O=CN[C@@H](CCS[C@@H]1CCO[C@]2(CCOC2)C1)C(=O)NCCCCCCNC(=O)c1ccc(-c2c3nc(c(-c4c(F)c(F)c(F)c(F)c4F)c4ccc([nH]4)c(-c4c(F)c(F)c(F)c(F)c4F)c4nc(c(-c5c(F)c(F)c(F)c(F)c5F)c5ccc2[nH]5)C=C4)C=C3)cc1
REMARK SMILES IDX 22 1 21 2 20 3 18 4 19 5 4 7 3 8 1 9 2 10 5 12 6 13 7 14
REMARK SMILES IDX 8 15 9 16 17 17 10 18 12 19 11 20 13 21 16 22 14 23 15 24
REMARK SMILES IDX 23 25 24 26 25 27 26 28 27 29 28 30 29 32 30 33 31 34 92 35
REMARK SMILES IDX 32 36 91 37 33 38 34 39 35 40 85 41 36 42 90 43 84 44 86 45
REMARK SMILES IDX 37 46 89 47 83 48 82 49 38 51 70 52 50 53 69 54 51 55 54 56
REMARK SMILES IDX 68 57 87 58 52 59 53 60 67 62 88 63 55 64 39 65 40 66 48 67
REMARK SMILES IDX 41 68 42 69 46 70 49 71 43 72 44 73 47 74 45 75 71 76 72 77
REMARK SMILES IDX 80 78 73 79 74 80 78 81 81 82 75 83 76 84 79 85 77 86 56 87
REMARK SMILES IDX 57 88 65 89 58 90 59 91 63 92 66 93 60 94 61 95 64 96 62 97
REMARK H PARENT 20 6 3 11 27 31 86 50 54 61
REMARK Flexibility Score: inf
ROOT
ATOM      1  C   UNL     1       3.075  -5.440   1.438  1.00  0.00     0.021 C 
ENDROOT
BRANCH   1   2
ATOM      2  C   UNL     1       3.860  -4.227   1.971  1.00  0.00     0.116 C 
BRANCH   2   3
ATOM      3  N   UNL     1       4.057  -3.239   0.921  1.00  0.00    -0.354 N 
ATOM      4  C   UNL     1       4.467  -1.938   0.775  1.00  0.00     0.242 C 
ATOM      5  O   UNL     1       4.428  -1.335  -0.288  1.00  0.00    -0.273 OA
ATOM      6  H   UNL     1       3.824  -3.623   0.044  1.00  0.00     0.163 HD
BRANCH   4   7
ATOM      7  C   UNL     1       5.196  -1.226   1.825  1.00  0.00     0.171 C 
BRANCH   7   8
ATOM      8  N   UNL     1       4.122  -0.738   2.654  1.00  0.00    -0.347 N 
ATOM      9  O   UNL     1       2.209   0.532   2.480  1.00  0.00    -0.279 OA
ATOM     10  C   UNL     1       3.365   0.314   2.147  1.00  0.00     0.337 C 
ATOM     11  H   UNL     1       3.933  -1.130   3.537  1.00  0.00     0.164 HD
ENDBRANCH   7   8
BRANCH   7  12
ATOM     12  C   UNL     1       6.240  -2.274   2.125  1.00  0.00     0.046 C 
BRANCH  12  13
ATOM     13  C   UNL     1       6.745  -3.126   0.818  1.00  0.00     0.072 C 
BRANCH  13  14
ATOM     14  S   UNL     1       6.100  -3.738  -1.080  1.00  0.00    -0.158 SA
BRANCH  14  15
ATOM     15  C   UNL     1       4.250  -3.241  -1.967  1.00  0.00     0.052 C 
ATOM     16  C   UNL     1       4.207  -1.971  -2.823  1.00  0.00     0.043 C 
ATOM     17  C   UNL     1       2.765  -3.682  -1.619  1.00  0.00     0.052 C 
ATOM     18  C   UNL     1       3.094  -0.969  -2.458  1.00  0.00     0.162 C 
ATOM     19  C   UNL     1       1.682  -2.604  -1.283  1.00  0.00     0.095 C 
ATOM     20  O   UNL     1       1.805  -1.511  -2.195  1.00  0.00    -0.372 OA
ATOM     21  C   UNL     1       1.346  -2.207   0.180  1.00  0.00     0.066 C 
ATOM     22  C   UNL     1       0.273  -3.193  -1.570  1.00  0.00     0.195 C 
ATOM     23  C   UNL     1       0.304  -3.201   0.698  1.00  0.00     0.163 C 
ATOM     24  O   UNL     1      -0.098  -3.977  -0.429  1.00  0.00    -0.378 OA
ENDBRANCH  14  15
ENDBRANCH  13  14
ENDBRANCH  12  13
ENDBRANCH   7  12
ENDBRANCH   4   7
ENDBRANCH   2   3
ENDBRANCH   1   2
BRANCH   1  25
ATOM     25  C   UNL     1       3.747  -6.314   0.348  1.00  0.00     0.002 C 
BRANCH  25  26
ATOM     26  C   UNL     1       4.291  -7.668   0.779  1.00  0.00     0.002 C 
BRANCH  26  27
ATOM     27  C   UNL     1       3.320  -8.497   1.608  1.00  0.00     0.021 C 
BRANCH  27  28
ATOM     28  C   UNL     1       1.915  -8.603   1.021  1.00  0.00     0.116 C 
BRANCH  28  29
ATOM     29  N   UNL     1       1.846  -9.577  -0.056  1.00  0.00    -0.352 N 
ATOM     30  C   UNL     1       1.194 -10.785  -0.045  1.00  0.00     0.251 C 
ATOM     31  H   UNL     1       2.320  -9.344  -0.887  1.00  0.00     0.163 HD
ATOM     32  O   UNL     1       1.385 -11.625  -0.922  1.00  0.00    -0.269 OA
BRANCH  30  33
ATOM     33  C   UNL     1       0.267 -11.068   1.067  1.00  0.00     0.039 A 
ATOM     34  C   UNL     1       0.461 -12.209   1.846  1.00  0.00     0.014 A 
ATOM     35  C   UNL     1      -0.741 -10.150   1.380  1.00  0.00     0.014 A 
ATOM     36  C   UNL     1      -0.328 -12.403   2.980  1.00  0.00     0.010 A 
ATOM     37  C   UNL     1      -1.467 -10.304   2.555  1.00  0.00     0.010 A 
ATOM     38  C   UNL     1      -1.276 -11.437   3.361  1.00  0.00    -0.014 A 
BRANCH  38  39
ATOM     39  C   UNL     1      -2.092 -11.607   4.590  1.00  0.00     0.031 A 
ATOM     40  C   UNL     1      -3.586 -11.750   4.482  1.00  0.00     0.074 A 
ATOM     41  C   UNL     1      -1.500 -11.582   5.800  1.00  0.00     0.049 A 
ATOM     42  N   UNL     1      -4.478 -11.867   5.433  1.00  0.00    -0.248 NA
ATOM     43  C   UNL     1      -4.155 -11.730   3.125  1.00  0.00     0.031 C 
ATOM     44  C   UNL     1      -0.068 -11.399   6.037  1.00  0.00     0.029 A 
ATOM     45  N   UNL     1      -2.032 -11.706   7.060  1.00  0.00    -0.354 N 
ATOM     46  C   UNL     1      -5.708 -11.923   4.790  1.00  0.00     0.074 A 
ATOM     47  C   UNL     1      -5.455 -11.763   3.375  1.00  0.00     0.031 C 
ATOM     48  C   UNL     1       0.169 -11.450   7.358  1.00  0.00     0.029 A 
ATOM     49  C   UNL     1      -1.097 -11.631   8.063  1.00  0.00     0.049 A 
ATOM     50  H   UNL     1      -2.993 -11.835   7.228  1.00  0.00     0.167 HD
ATOM     51  C   UNL     1      -6.935 -12.120   5.327  1.00  0.00     0.037 A 
ATOM     52  C   UNL     1      -1.246 -11.697   9.400  1.00  0.00     0.037 A 
ATOM     53  C   UNL     1      -7.179 -12.299   6.734  1.00  0.00     0.049 A 
ATOM     54  C   UNL     1      -2.623 -11.905   9.974  1.00  0.00     0.074 A 
ATOM     55  C   UNL     1      -8.377 -12.561   7.375  1.00  0.00     0.029 A 
ATOM     56  N   UNL     1      -6.205 -12.229   7.719  1.00  0.00    -0.354 N 
ATOM     57  N   UNL     1      -3.769 -12.034   9.351  1.00  0.00    -0.248 NA
ATOM     58  C   UNL     1      -2.724 -11.986  11.438  1.00  0.00     0.031 C 
ATOM     59  C   UNL     1      -8.136 -12.596   8.752  1.00  0.00     0.029 A 
ATOM     60  C   UNL     1      -6.779 -12.418   8.966  1.00  0.00     0.049 A 
ATOM     61  H   UNL     1      -5.247 -12.070   7.556  1.00  0.00     0.167 HD
ATOM     62  C   UNL     1      -4.721 -12.242  10.340  1.00  0.00     0.074 A 
ATOM     63  C   UNL     1      -4.014 -12.239  11.604  1.00  0.00     0.031 C 
ATOM     64  C   UNL     1      -6.059 -12.420  10.214  1.00  0.00     0.037 A 
BRANCH  51  65
ATOM     65  C   UNL     1      -8.107 -12.153   4.388  1.00  0.00     0.064 A 
ATOM     66  C   UNL     1      -8.289 -13.201   3.472  1.00  0.00     0.173 A 
ATOM     67  C   UNL     1      -9.079 -11.142   4.425  1.00  0.00     0.173 A 
ATOM     68  F   UNL     1      -7.384 -14.188   3.387  1.00  0.00    -0.203 F 
ATOM     69  C   UNL     1      -9.380 -13.218   2.607  1.00  0.00     0.198 A 
ATOM     70  C   UNL     1     -10.187 -11.180   3.583  1.00  0.00     0.198 A 
ATOM     71  F   UNL     1      -8.958 -10.119   5.285  1.00  0.00    -0.203 F 
ATOM     72  F   UNL     1      -9.502 -14.202   1.705  1.00  0.00    -0.200 F 
ATOM     73  C   UNL     1     -10.332 -12.213   2.669  1.00  0.00     0.200 A 
ATOM     74  F   UNL     1     -11.114 -10.215   3.654  1.00  0.00    -0.200 F 
ATOM     75  F   UNL     1     -11.387 -12.235   1.843  1.00  0.00    -0.200 F 
ENDBRANCH  51  65
BRANCH  52  76
ATOM     76  C   UNL     1      -0.058 -11.591  10.290  1.00  0.00     0.064 A 
ATOM     77  C   UNL     1       0.383 -12.691  11.039  1.00  0.00     0.173 A 
ATOM     78  C   UNL     1       0.652 -10.389  10.419  1.00  0.00     0.173 A 
ATOM     79  F   UNL     1      -0.274 -13.858  10.966  1.00  0.00    -0.203 F 
ATOM     80  C   UNL     1       1.472 -12.586  11.902  1.00  0.00     0.198 A 
ATOM     81  C   UNL     1       1.761 -10.293  11.258  1.00  0.00     0.198 A 
ATOM     82  F   UNL     1       0.277  -9.307   9.721  1.00  0.00    -0.203 F 
ATOM     83  F   UNL     1       1.840 -13.639  12.644  1.00  0.00    -0.200 F 
ATOM     84  C   UNL     1       2.164 -11.389  12.006  1.00  0.00     0.200 A 
ATOM     85  F   UNL     1       2.437  -9.140  11.343  1.00  0.00    -0.200 F 
ATOM     86  F   UNL     1       3.214 -11.289  12.833  1.00  0.00    -0.200 F 
ENDBRANCH  52  76
BRANCH  64  87
ATOM     87  C   UNL     1      -6.843 -12.668  11.471  1.00  0.00     0.064 A 
ATOM     88  C   UNL     1      -7.057 -11.658  12.421  1.00  0.00     0.173 A 
ATOM     89  C   UNL     1      -7.422 -13.925  11.709  1.00  0.00     0.173 A 
ATOM     90  F   UNL     1      -6.515 -10.443  12.248  1.00  0.00    -0.203 F 
ATOM     91  C   UNL     1      -7.795 -11.905  13.575  1.00  0.00     0.198 A 
ATOM     92  C   UNL     1      -8.188 -14.159  12.847  1.00  0.00     0.198 A 
ATOM     93  F   UNL     1      -7.255 -14.923  10.829  1.00  0.00    -0.203 F 
ATOM     94  F   UNL     1      -7.941 -10.941  14.494  1.00  0.00    -0.200 F 
ATOM     95  C   UNL     1      -8.366 -13.152  13.783  1.00  0.00     0.200 A 
ATOM     96  F   UNL     1      -8.752 -15.359  13.038  1.00  0.00    -0.200 F 
ATOM     97  F   UNL     1      -9.083 -13.386  14.891  1.00  0.00    -0.200 F 
ENDBRANCH  64  87
ENDBRANCH  38  39
ENDBRANCH  30  33
ENDBRANCH  28  29
ENDBRANCH  27  28
ENDBRANCH  26  27
ENDBRANCH  25  26
ENDBRANCH   1  25
TORSDOF 18
