REMARK SMILES CC(=O)Nc1cc(NC(C)=O)cc(C(=O)Nc2ccc(Br)cc2C(=O)NCCCCCCNC(=O)c2ccc(-c3c4nc(c(-c5c(F)c(F)c(F)c(F)c5F)c5ccc([nH]5)c(-c5c(F)c(F)c(F)c(F)c5F)c5nc(c(-c6c(F)c(F)c(F)c(F)c6F)c6ccc3[nH]6)C=C5)C=C4)cc2)c1
REMARK SMILES IDX 29 1 28 2 27 3 26 4 24 5 25 6 23 8 17 9 18 10 19 11 22 12
REMARK SMILES IDX 20 13 21 14 16 15 14 16 15 17 13 19 5 20 6 21 99 22 7 23
REMARK SMILES IDX 12 24 4 25 1 26 2 27 3 28 8 30 9 31 10 33 11 34 30 35 31 36
REMARK SMILES IDX 32 37 33 38 34 39 35 41 36 42 37 43 98 44 38 45 97 46 39 47
REMARK SMILES IDX 40 48 41 49 91 50 42 51 96 52 90 53 92 54 43 55 95 56 89 57
REMARK SMILES IDX 88 58 44 60 76 61 56 62 75 63 57 64 60 65 74 66 93 67 58 68
REMARK SMILES IDX 59 69 73 71 94 72 61 73 45 74 46 75 54 76 47 77 48 78 52 79
REMARK SMILES IDX 55 80 49 81 50 82 53 83 51 84 77 85 78 86 86 87 79 88 80 89
REMARK SMILES IDX 84 90 87 91 81 92 82 93 85 94 83 95 62 96 63 97 71 98 64 99
REMARK SMILES IDX 65 100 69 101 72 102 66 103 67 104 70 105 68 106
REMARK H PARENT 26 7 16 18 4 29 8 32 33 40 92 59 60 70
REMARK Flexibility Score: inf
ROOT
ATOM      1  C   UNL     1       7.231  -4.989   1.069  1.00  0.00     0.002 C 
ENDROOT
BRANCH   1   2
ATOM      2  C   UNL     1       7.526  -3.489   0.940  1.00  0.00     0.021 C 
BRANCH   2   3
ATOM      3  C   UNL     1       6.338  -2.586   0.629  1.00  0.00     0.116 C 
BRANCH   3   4
ATOM      4  N   UNL     1       5.288  -2.633   1.620  1.00  0.00    -0.352 N 
ATOM      5  C   UNL     1       4.269  -1.749   1.862  1.00  0.00     0.253 C 
ATOM      6  O   UNL     1       3.512  -1.986   2.803  1.00  0.00    -0.269 OA
ATOM      7  H   UNL     1       5.308  -3.419   2.212  1.00  0.00     0.163 HD
BRANCH   5   8
ATOM      8  C   UNL     1       4.097  -0.481   1.096  1.00  0.00     0.064 A 
ATOM      9  C   UNL     1       4.218  -0.293  -0.297  1.00  0.00     0.054 A 
ATOM     10  C   UNL     1       4.217   1.022  -0.802  1.00  0.00     0.028 A 
ATOM     11  C   UNL     1       3.928   2.113   0.020  1.00  0.00     0.018 A 
ATOM     12  C   UNL     1       3.775   0.628   1.908  1.00  0.00     0.031 A 
ATOM     13  C   UNL     1       3.667   1.905   1.366  1.00  0.00     0.018 A 
ATOM     14  Br  UNL     1       3.152   3.357   2.458  1.00  0.00    -0.051 Br
BRANCH   9  15
ATOM     15  N   UNL     1       4.248  -1.284  -1.307  1.00  0.00    -0.321 N 
ATOM     16  C   UNL     1       3.644  -2.523  -1.405  1.00  0.00     0.255 C 
ATOM     17  O   UNL     1       3.997  -3.295  -2.296  1.00  0.00    -0.269 OA
ATOM     18  H   UNL     1       4.802  -1.046  -2.085  1.00  0.00     0.170 HD
BRANCH  16  19
ATOM     19  C   UNL     1       2.540  -2.924  -0.506  1.00  0.00     0.044 A 
ATOM     20  C   UNL     1       0.722  -2.309   0.954  1.00  0.00     0.044 A 
ATOM     21  C   UNL     1       0.686  -3.635   1.418  1.00  0.00     0.052 A 
ATOM     22  C   UNL     1       1.610  -1.984  -0.060  1.00  0.00     0.040 A 
ATOM     23  C   UNL     1       1.511  -4.625   0.869  1.00  0.00     0.044 A 
ATOM     24  C   UNL     1       2.452  -4.255  -0.092  1.00  0.00     0.040 A 
BRANCH  20  25
ATOM     25  N   UNL     1      -0.062  -1.363   1.641  1.00  0.00    -0.326 N 
ATOM     26  C   UNL     1      -0.133   0.579   0.066  1.00  0.00     0.114 C 
ATOM     27  C   UNL     1      -0.358  -0.052   1.412  1.00  0.00     0.221 C 
ATOM     28  O   UNL     1      -0.860   0.611   2.324  1.00  0.00    -0.275 OA
ATOM     29  H   UNL     1      -0.483  -1.722   2.455  1.00  0.00     0.169 HD
ENDBRANCH  20  25
BRANCH  23  30
ATOM     30  N   UNL     1       1.472  -5.986   1.243  1.00  0.00    -0.326 N 
ATOM     31  C   UNL     1       0.594  -6.585   2.128  1.00  0.00     0.221 C 
ATOM     32  H   UNL     1       2.143  -6.573   0.827  1.00  0.00     0.169 HD
ATOM     33  C   UNL     1       0.822  -8.070   2.276  1.00  0.00     0.114 C 
ATOM     34  O   UNL     1      -0.315  -6.037   2.743  1.00  0.00    -0.275 OA
ENDBRANCH  23  30
ENDBRANCH  16  19
ENDBRANCH   9  15
ENDBRANCH   5   8
ENDBRANCH   3   4
ENDBRANCH   2   3
ENDBRANCH   1   2
BRANCH   1  35
ATOM     35  C   UNL     1       6.368  -5.642  -0.015  1.00  0.00     0.002 C 
BRANCH  35  36
ATOM     36  C   UNL     1       6.779  -5.423  -1.470  1.00  0.00     0.021 C 
BRANCH  36  37
ATOM     37  C   UNL     1       8.231  -5.724  -1.812  1.00  0.00     0.116 C 
BRANCH  37  38
ATOM     38  N   UNL     1       8.621  -7.094  -1.533  1.00  0.00    -0.352 N 
ATOM     39  C   UNL     1       9.347  -7.965  -2.309  1.00  0.00     0.251 C 
ATOM     40  H   UNL     1       8.323  -7.450  -0.665  1.00  0.00     0.163 HD
ATOM     41  O   UNL     1       9.504  -9.129  -1.948  1.00  0.00    -0.269 OA
BRANCH  39  42
ATOM     42  C   UNL     1       9.911  -7.515  -3.601  1.00  0.00     0.039 A 
ATOM     43  C   UNL     1       9.757  -8.333  -4.724  1.00  0.00     0.014 A 
ATOM     44  C   UNL     1      10.581  -6.294  -3.711  1.00  0.00     0.014 A 
ATOM     45  C   UNL     1      10.209  -7.895  -5.972  1.00  0.00     0.010 A 
ATOM     46  C   UNL     1      10.967  -5.828  -4.964  1.00  0.00     0.010 A 
ATOM     47  C   UNL     1      10.783  -6.622  -6.108  1.00  0.00    -0.014 A 
BRANCH  47  48
ATOM     48  C   UNL     1      11.211  -6.093  -7.427  1.00  0.00     0.031 A 
ATOM     49  C   UNL     1      12.663  -5.793  -7.674  1.00  0.00     0.074 A 
ATOM     50  C   UNL     1      10.290  -5.794  -8.363  1.00  0.00     0.049 A 
ATOM     51  N   UNL     1      13.224  -5.183  -8.687  1.00  0.00    -0.248 NA
ATOM     52  C   UNL     1      13.607  -6.209  -6.625  1.00  0.00     0.031 C 
ATOM     53  C   UNL     1       8.849  -6.011  -8.232  1.00  0.00     0.029 A 
ATOM     54  N   UNL     1      10.427  -5.219  -9.603  1.00  0.00    -0.354 N 
ATOM     55  C   UNL     1      14.578  -5.117  -8.384  1.00  0.00     0.074 A 
ATOM     56  C   UNL     1      14.749  -5.712  -7.076  1.00  0.00     0.031 C 
ATOM     57  C   UNL     1       8.236  -5.583  -9.347  1.00  0.00     0.029 A 
ATOM     58  C   UNL     1       9.233  -5.020 -10.253  1.00  0.00     0.049 A 
ATOM     59  H   UNL     1      11.299  -4.973  -9.989  1.00  0.00     0.167 HD
ATOM     60  C   UNL     1      15.588  -4.622  -9.137  1.00  0.00     0.037 A 
ATOM     61  C   UNL     1       8.972  -4.430 -11.435  1.00  0.00     0.037 A 
ATOM     62  C   UNL     1      15.416  -4.064 -10.452  1.00  0.00     0.049 A 
ATOM     63  C   UNL     1      10.111  -3.878 -12.250  1.00  0.00     0.074 A 
ATOM     64  C   UNL     1      16.383  -3.589 -11.321  1.00  0.00     0.029 A 
ATOM     65  N   UNL     1      14.193  -3.909 -11.089  1.00  0.00    -0.354 N 
ATOM     66  N   UNL     1      11.392  -3.865 -11.976  1.00  0.00    -0.248 NA
ATOM     67  C   UNL     1       9.768  -3.258 -13.538  1.00  0.00     0.031 C 
ATOM     68  C   UNL     1      15.742  -3.108 -12.467  1.00  0.00     0.029 A 
ATOM     69  C   UNL     1      14.380  -3.328 -12.332  1.00  0.00     0.049 A 
ATOM     70  H   UNL     1      13.322  -4.173 -10.713  1.00  0.00     0.167 HD
ATOM     71  C   UNL     1      12.011  -3.271 -13.067  1.00  0.00     0.074 A 
ATOM     72  C   UNL     1      10.965  -2.937 -14.011  1.00  0.00     0.031 C 
ATOM     73  C   UNL     1      13.328  -3.026 -13.269  1.00  0.00     0.037 A 
BRANCH  60  74
ATOM     74  C   UNL     1      16.971  -4.659  -8.557  1.00  0.00     0.064 A 
ATOM     75  C   UNL     1      17.668  -5.865  -8.391  1.00  0.00     0.173 A 
ATOM     76  C   UNL     1      17.624  -3.469  -8.198  1.00  0.00     0.173 A 
ATOM     77  F   UNL     1      17.085  -7.030  -8.709  1.00  0.00    -0.203 F 
ATOM     78  C   UNL     1      18.955  -5.882  -7.859  1.00  0.00     0.198 A 
ATOM     79  C   UNL     1      18.922  -3.487  -7.695  1.00  0.00     0.198 A 
ATOM     80  F   UNL     1      17.005  -2.288  -8.342  1.00  0.00    -0.203 F 
ATOM     81  F   UNL     1      19.581  -7.050  -7.662  1.00  0.00    -0.200 F 
ATOM     82  C   UNL     1      19.583  -4.693  -7.518  1.00  0.00     0.200 A 
ATOM     83  F   UNL     1      19.532  -2.337  -7.378  1.00  0.00    -0.200 F 
ATOM     84  F   UNL     1      20.824  -4.711  -7.012  1.00  0.00    -0.200 F 
ENDBRANCH  60  74
BRANCH  61  85
ATOM     85  C   UNL     1       7.572  -4.342 -11.927  1.00  0.00     0.064 A 
ATOM     86  C   UNL     1       7.148  -5.103 -13.026  1.00  0.00     0.173 A 
ATOM     87  C   UNL     1       6.631  -3.502 -11.314  1.00  0.00     0.173 A 
ATOM     88  F   UNL     1       8.018  -5.904 -13.659  1.00  0.00    -0.203 F 
ATOM     89  C   UNL     1       5.843  -5.013 -13.504  1.00  0.00     0.198 A 
ATOM     90  C   UNL     1       5.318  -3.433 -11.776  1.00  0.00     0.198 A 
ATOM     91  F   UNL     1       6.985  -2.756 -10.257  1.00  0.00    -0.203 F 
ATOM     92  F   UNL     1       5.477  -5.718 -14.583  1.00  0.00    -0.200 F 
ATOM     93  C   UNL     1       4.927  -4.183 -12.875  1.00  0.00     0.200 A 
ATOM     94  F   UNL     1       4.433  -2.639 -11.158  1.00  0.00    -0.200 F 
ATOM     95  F   UNL     1       3.671  -4.099 -13.333  1.00  0.00    -0.200 F 
ENDBRANCH  61  85
BRANCH  73  96
ATOM     96  C   UNL     1      13.729  -2.414 -14.578  1.00  0.00     0.064 A 
ATOM     97  C   UNL     1      13.504  -1.059 -14.857  1.00  0.00     0.173 A 
ATOM     98  C   UNL     1      14.418  -3.179 -15.533  1.00  0.00     0.173 A 
ATOM     99  F   UNL     1      12.837  -0.291 -13.982  1.00  0.00    -0.203 F 
ATOM    100  C   UNL     1      13.948  -0.492 -16.049  1.00  0.00     0.198 A 
ATOM    101  C   UNL     1      14.882  -2.603 -16.711  1.00  0.00     0.198 A 
ATOM    102  F   UNL     1      14.662  -4.479 -15.309  1.00  0.00    -0.203 F 
ATOM    103  F   UNL     1      13.698   0.798 -16.309  1.00  0.00    -0.200 F 
ATOM    104  C   UNL     1      14.645  -1.262 -16.970  1.00  0.00     0.200 A 
ATOM    105  F   UNL     1      15.567  -3.344 -17.593  1.00  0.00    -0.200 F 
ATOM    106  F   UNL     1      15.087  -0.710 -18.108  1.00  0.00    -0.200 F 
ENDBRANCH  73  96
ENDBRANCH  47  48
ENDBRANCH  39  42
ENDBRANCH  37  38
ENDBRANCH  36  37
ENDBRANCH  35  36
ENDBRANCH   1  35
TORSDOF 17
