REMARK SMILES O=C(COCc1ccccc1)NC[C@H]1CC[C@@H](C(=O)NCCCCCCNC(=O)c2ccc(-c3c4nc(c(-c5c(F)c(F)c(F)c(F)c5F)c5ccc([nH]5)c(-c5c(F)c(F)c(F)c(F)c5F)c5nc(c(-c6c(F)c(F)c(F)c(F)c6F)c6ccc3[nH]6)C=C5)C=C4)cc2)O1
REMARK SMILES IDX 21 1 20 2 18 3 19 4 17 6 14 7 15 8 93 9 16 10 13 11 12 12
REMARK SMILES IDX 1 13 2 14 3 16 4 17 5 18 6 19 7 20 11 21 8 22 10 23 9 24
REMARK SMILES IDX 22 25 23 26 24 27 25 28 26 29 27 30 28 31 29 33 30 34 31 35
REMARK SMILES IDX 92 36 32 37 91 38 33 39 34 40 35 41 85 42 36 43 90 44 84 45
REMARK SMILES IDX 86 46 37 47 89 48 83 49 82 50 38 52 70 53 50 54 69 55 51 56
REMARK SMILES IDX 54 57 68 58 87 59 52 60 53 61 67 63 88 64 55 65 39 66 40 67
REMARK SMILES IDX 48 68 41 69 42 70 46 71 49 72 43 73 44 74 47 75 45 76 71 77
REMARK SMILES IDX 72 78 80 79 73 80 74 81 78 82 81 83 75 84 76 85 79 86 77 87
REMARK SMILES IDX 56 88 57 89 65 90 58 91 59 92 63 93 66 94 60 95 61 96 64 97
REMARK SMILES IDX 62 98
REMARK H PARENT 20 5 12 15 27 32 86 51 54 62
REMARK Flexibility Score: inf
ROOT
ATOM      1  C   UNL     1       4.647   7.828  -2.544  1.00  0.00     0.116 C 
ENDROOT
BRANCH   1   2
ATOM      2  N   UNL     1       5.395   6.707  -2.017  1.00  0.00    -0.354 N 
ATOM      3  C   UNL     1       5.040   5.412  -1.782  1.00  0.00     0.249 C 
ATOM      4  O   UNL     1       5.924   4.680  -1.329  1.00  0.00    -0.272 OA
ATOM      5  H   UNL     1       6.329   6.918  -1.787  1.00  0.00     0.163 HD
BRANCH   3   6
ATOM      6  C   UNL     1       3.642   4.882  -2.166  1.00  0.00     0.207 C 
ATOM      7  C   UNL     1       2.267   3.310  -1.065  1.00  0.00     0.138 C 
ATOM      8  C   UNL     1       1.419   4.507  -1.443  1.00  0.00     0.037 C 
ATOM      9  O   UNL     1       3.496   3.493  -1.787  1.00  0.00    -0.363 OA
ATOM     10  C   UNL     1       2.450   5.606  -1.554  1.00  0.00     0.045 C 
BRANCH   7  11
ATOM     11  C   UNL     1       2.493   3.261   0.456  1.00  0.00     0.147 C 
BRANCH  11  12
ATOM     12  N   UNL     1       3.259   2.114   0.895  1.00  0.00    -0.351 N 
ATOM     13  O   UNL     1       4.940   3.347   1.870  1.00  0.00    -0.272 OA
ATOM     14  C   UNL     1       4.434   2.261   1.602  1.00  0.00     0.246 C 
ATOM     15  H   UNL     1       2.934   1.209   0.685  1.00  0.00     0.163 HD
BRANCH  14  16
ATOM     16  C   UNL     1       4.994   0.941   2.143  1.00  0.00     0.260 C 
BRANCH  16  17
ATOM     17  O   UNL     1       4.169   0.310   3.119  1.00  0.00    -0.367 OA
BRANCH  17  18
ATOM     18  C   UNL     1       3.848   1.135   4.244  1.00  0.00     0.196 C 
BRANCH  18  19
ATOM     19  C   UNL     1       4.993   1.322   5.208  1.00  0.00    -0.022 A 
ATOM     20  C   UNL     1       5.910   2.370   5.039  1.00  0.00     0.006 A 
ATOM     21  C   UNL     1       5.156   0.456   6.298  1.00  0.00     0.006 A 
ATOM     22  C   UNL     1       6.973   2.540   5.927  1.00  0.00     0.000 A 
ATOM     23  C   UNL     1       6.208   0.639   7.199  1.00  0.00     0.000 A 
ATOM     24  C   UNL     1       7.119   1.677   7.009  1.00  0.00     0.000 A 
ENDBRANCH  18  19
ENDBRANCH  17  18
ENDBRANCH  16  17
ENDBRANCH  14  16
ENDBRANCH  11  12
ENDBRANCH   7  11
ENDBRANCH   3   6
ENDBRANCH   1   2
BRANCH   1  25
ATOM     25  C   UNL     1       4.577   8.964  -1.522  1.00  0.00     0.021 C 
BRANCH  25  26
ATOM     26  C   UNL     1       5.920   9.667  -1.272  1.00  0.00     0.002 C 
BRANCH  26  27
ATOM     27  C   UNL     1       6.561  10.312  -2.507  1.00  0.00     0.002 C 
BRANCH  27  28
ATOM     28  C   UNL     1       5.685  11.334  -3.237  1.00  0.00     0.021 C 
BRANCH  28  29
ATOM     29  C   UNL     1       5.262  12.533  -2.394  1.00  0.00     0.116 C 
BRANCH  29  30
ATOM     30  N   UNL     1       6.394  13.351  -1.988  1.00  0.00    -0.352 N 
ATOM     31  C   UNL     1       6.562  14.709  -2.067  1.00  0.00     0.251 C 
ATOM     32  H   UNL     1       7.151  12.856  -1.598  1.00  0.00     0.163 HD
ATOM     33  O   UNL     1       7.661  15.208  -1.828  1.00  0.00    -0.269 OA
BRANCH  31  34
ATOM     34  C   UNL     1       5.434  15.581  -2.458  1.00  0.00     0.039 A 
ATOM     35  C   UNL     1       5.673  16.629  -3.353  1.00  0.00     0.014 A 
ATOM     36  C   UNL     1       4.155  15.395  -1.926  1.00  0.00     0.014 A 
ATOM     37  C   UNL     1       4.621  17.457  -3.752  1.00  0.00     0.010 A 
ATOM     38  C   UNL     1       3.094  16.178  -2.375  1.00  0.00     0.010 A 
ATOM     39  C   UNL     1       3.318  17.223  -3.285  1.00  0.00    -0.014 A 
BRANCH  39  40
ATOM     40  C   UNL     1       2.182  18.073  -3.724  1.00  0.00     0.031 A 
ATOM     41  C   UNL     1       1.463  18.944  -2.732  1.00  0.00     0.074 A 
ATOM     42  C   UNL     1       1.764  18.021  -5.003  1.00  0.00     0.049 A 
ATOM     43  N   UNL     1       0.415  19.709  -2.906  1.00  0.00    -0.248 NA
ATOM     44  C   UNL     1       1.974  18.933  -1.352  1.00  0.00     0.031 C 
ATOM     45  C   UNL     1       2.350  17.184  -6.051  1.00  0.00     0.029 A 
ATOM     46  N   UNL     1       0.742  18.681  -5.638  1.00  0.00    -0.354 N 
ATOM     47  C   UNL     1       0.134  20.256  -1.661  1.00  0.00     0.074 A 
ATOM     48  C   UNL     1       1.088  19.696  -0.729  1.00  0.00     0.031 C 
ATOM     49  C   UNL     1       1.692  17.397  -7.202  1.00  0.00     0.029 A 
ATOM     50  C   UNL     1       0.619  18.358  -6.967  1.00  0.00     0.049 A 
ATOM     51  H   UNL     1       0.152  19.325  -5.183  1.00  0.00     0.167 HD
ATOM     52  C   UNL     1      -0.818  21.160  -1.329  1.00  0.00     0.037 A 
ATOM     53  C   UNL     1      -0.262  18.788  -7.890  1.00  0.00     0.037 A 
ATOM     54  C   UNL     1      -1.748  21.738  -2.264  1.00  0.00     0.049 A 
ATOM     55  C   UNL     1      -1.304  19.799  -7.498  1.00  0.00     0.074 A 
ATOM     56  C   UNL     1      -2.716  22.701  -2.037  1.00  0.00     0.029 A 
ATOM     57  N   UNL     1      -1.823  21.406  -3.609  1.00  0.00    -0.354 N 
ATOM     58  N   UNL     1      -1.522  20.354  -6.330  1.00  0.00    -0.248 NA
ATOM     59  C   UNL     1      -2.219  20.252  -8.556  1.00  0.00     0.031 C 
ATOM     60  C   UNL     1      -3.402  22.924  -3.235  1.00  0.00     0.029 A 
ATOM     61  C   UNL     1      -2.831  22.135  -4.220  1.00  0.00     0.049 A 
ATOM     62  H   UNL     1      -1.246  20.750  -4.062  1.00  0.00     0.167 HD
ATOM     63  C   UNL     1      -2.572  21.242  -6.519  1.00  0.00     0.074 A 
ATOM     64  C   UNL     1      -2.942  21.160  -7.917  1.00  0.00     0.031 C 
ATOM     65  C   UNL     1      -3.177  22.052  -5.616  1.00  0.00     0.037 A 
BRANCH  52  66
ATOM     66  C   UNL     1      -0.898  21.587   0.108  1.00  0.00     0.064 A 
ATOM     67  C   UNL     1       0.095  22.389   0.692  1.00  0.00     0.173 A 
ATOM     68  C   UNL     1      -1.994  21.218   0.902  1.00  0.00     0.173 A 
ATOM     69  F   UNL     1       1.169  22.759  -0.021  1.00  0.00    -0.203 F 
ATOM     70  C   UNL     1       0.008  22.780   2.026  1.00  0.00     0.198 A 
ATOM     71  C   UNL     1      -2.092  21.636   2.227  1.00  0.00     0.198 A 
ATOM     72  F   UNL     1      -2.974  20.457   0.392  1.00  0.00    -0.203 F 
ATOM     73  F   UNL     1       0.993  23.503   2.575  1.00  0.00    -0.200 F 
ATOM     74  C   UNL     1      -1.088  22.410   2.789  1.00  0.00     0.200 A 
ATOM     75  F   UNL     1      -3.159  21.288   2.960  1.00  0.00    -0.200 F 
ATOM     76  F   UNL     1      -1.173  22.792   4.071  1.00  0.00    -0.200 F 
ENDBRANCH  52  66
BRANCH  53  77
ATOM     77  C   UNL     1      -0.175  18.289  -9.287  1.00  0.00     0.064 A 
ATOM     78  C   UNL     1       0.243  19.133 -10.326  1.00  0.00     0.173 A 
ATOM     79  C   UNL     1      -0.512  16.968  -9.614  1.00  0.00     0.173 A 
ATOM     80  F   UNL     1       0.556  20.411 -10.065  1.00  0.00    -0.203 F 
ATOM     81  C   UNL     1       0.301  18.680 -11.642  1.00  0.00     0.198 A 
ATOM     82  C   UNL     1      -0.428  16.509 -10.927  1.00  0.00     0.198 A 
ATOM     83  F   UNL     1      -0.913  16.120  -8.655  1.00  0.00    -0.203 F 
ATOM     84  F   UNL     1       0.659  19.520 -12.622  1.00  0.00    -0.200 F 
ATOM     85  C   UNL     1      -0.030  17.367 -11.941  1.00  0.00     0.200 A 
ATOM     86  F   UNL     1      -0.735  15.235 -11.209  1.00  0.00    -0.200 F 
ATOM     87  F   UNL     1       0.028  16.930 -13.206  1.00  0.00    -0.200 F 
ENDBRANCH  53  77
BRANCH  65  88
ATOM     88  C   UNL     1      -4.272  22.946  -6.120  1.00  0.00     0.064 A 
ATOM     89  C   UNL     1      -5.529  22.441  -6.481  1.00  0.00     0.173 A 
ATOM     90  C   UNL     1      -4.068  24.332  -6.209  1.00  0.00     0.173 A 
ATOM     91  F   UNL     1      -5.768  21.122  -6.427  1.00  0.00    -0.203 F 
ATOM     92  C   UNL     1      -6.535  23.288  -6.939  1.00  0.00     0.198 A 
ATOM     93  C   UNL     1      -5.085  25.179  -6.640  1.00  0.00     0.198 A 
ATOM     94  F   UNL     1      -2.885  24.865  -5.870  1.00  0.00    -0.203 F 
ATOM     95  F   UNL     1      -7.713  22.779  -7.324  1.00  0.00    -0.200 F 
ATOM     96  C   UNL     1      -6.315  24.656  -7.012  1.00  0.00     0.200 A 
ATOM     97  F   UNL     1      -4.875  26.501  -6.698  1.00  0.00    -0.200 F 
ATOM     98  F   UNL     1      -7.286  25.470  -7.448  1.00  0.00    -0.200 F 
ENDBRANCH  65  88
ENDBRANCH  39  40
ENDBRANCH  31  34
ENDBRANCH  29  30
ENDBRANCH  28  29
ENDBRANCH  27  28
ENDBRANCH  26  27
ENDBRANCH  25  26
ENDBRANCH   1  25
TORSDOF 19
