REMARK SMILES O=C(NCCCCCCNC(=O)c1cccn1CC(=O)N1CCc2ccccc2C1)c1ccc(-c2c3nc(c(-c4c(F)c(F)c(F)c(F)c4F)c4ccc([nH]4)c(-c4c(F)c(F)c(F)c(F)c4F)c4nc(c(-c5c(F)c(F)c(F)c(F)c5F)c5ccc2[nH]5)C=C4)C=C3)cc1
REMARK SMILES IDX 7 1 6 2 5 3 4 4 3 5 1 6 2 7 31 9 32 10 93 11 33 12 92 13
REMARK SMILES IDX 34 14 35 15 36 16 86 17 37 18 91 19 85 20 87 21 38 22 90 23
REMARK SMILES IDX 84 24 83 25 39 27 71 28 51 29 70 30 52 31 55 32 69 33 88 34
REMARK SMILES IDX 53 35 54 36 68 38 89 39 56 40 40 41 41 42 49 43 42 44 43 45
REMARK SMILES IDX 47 46 50 47 44 48 45 49 48 50 46 51 72 52 73 53 81 54 74 55
REMARK SMILES IDX 75 56 79 57 82 58 76 59 77 60 80 61 78 62 57 63 58 64 66 65
REMARK SMILES IDX 59 66 60 67 64 68 67 69 61 70 62 71 65 72 63 73 8 74 9 75
REMARK SMILES IDX 10 76 11 77 12 79 13 80 14 81 17 82 15 83 16 84 18 85 19 86
REMARK SMILES IDX 20 87 21 88 22 89 30 90 23 91 29 92 24 93 28 94 25 95 27 96
REMARK SMILES IDX 26 97
REMARK H PARENT 3 8 87 26 55 37 10 78
REMARK Flexibility Score: inf
ROOT
ATOM      1  C   UNL     1       4.777  -2.812  -3.425  1.00  0.00     0.002 C 
ENDROOT
BRANCH   1   2
ATOM      2  C   UNL     1       4.234  -3.061  -2.021  1.00  0.00     0.002 C 
BRANCH   2   3
ATOM      3  C   UNL     1       4.791  -2.141  -0.936  1.00  0.00     0.021 C 
BRANCH   3   4
ATOM      4  C   UNL     1       4.637  -0.641  -1.208  1.00  0.00     0.116 C 
BRANCH   4   5
ATOM      5  N   UNL     1       3.281  -0.124  -1.190  1.00  0.00    -0.352 N 
ATOM      6  O   UNL     1       1.328   0.671  -0.439  1.00  0.00    -0.269 OA
ATOM      7  C   UNL     1       2.365   0.059  -0.186  1.00  0.00     0.251 C 
ATOM      8  H   UNL     1       2.952   0.151  -2.077  1.00  0.00     0.163 HD
BRANCH   7   9
ATOM      9  C   UNL     1       2.535  -0.541   1.157  1.00  0.00     0.039 A 
ATOM     10  C   UNL     1       3.775  -0.700   1.774  1.00  0.00     0.014 A 
ATOM     11  C   UNL     1       1.374  -0.990   1.810  1.00  0.00     0.014 A 
ATOM     12  C   UNL     1       3.882  -1.440   2.939  1.00  0.00     0.010 A 
ATOM     13  C   UNL     1       1.465  -1.678   3.017  1.00  0.00     0.010 A 
ATOM     14  C   UNL     1       2.727  -1.922   3.564  1.00  0.00    -0.014 A 
BRANCH  14  15
ATOM     15  C   UNL     1       2.905  -2.453   4.930  1.00  0.00     0.031 A 
ATOM     16  C   UNL     1       3.141  -1.298   5.926  1.00  0.00     0.074 A 
ATOM     17  C   UNL     1       2.936  -3.813   5.067  1.00  0.00     0.049 A 
ATOM     18  N   UNL     1       3.826  -1.272   7.028  1.00  0.00    -0.248 NA
ATOM     19  C   UNL     1       2.607   0.057   5.603  1.00  0.00     0.031 C 
ATOM     20  C   UNL     1       2.664  -4.776   3.978  1.00  0.00     0.029 A 
ATOM     21  N   UNL     1       3.214  -4.669   6.118  1.00  0.00    -0.354 N 
ATOM     22  C   UNL     1       3.626  -0.004   7.623  1.00  0.00     0.074 A 
ATOM     23  C   UNL     1       2.988   0.809   6.637  1.00  0.00     0.031 C 
ATOM     24  C   UNL     1       2.866  -6.046   4.390  1.00  0.00     0.029 A 
ATOM     25  C   UNL     1       3.272  -6.052   5.782  1.00  0.00     0.049 A 
ATOM     26  H   UNL     1       3.361  -4.344   7.036  1.00  0.00     0.167 HD
ATOM     27  C   UNL     1       3.857   0.238   8.948  1.00  0.00     0.037 A 
ATOM     28  C   UNL     1       3.661  -7.115   6.559  1.00  0.00     0.037 A 
ATOM     29  C   UNL     1       4.389  -0.931   9.559  1.00  0.00     0.049 A 
ATOM     30  C   UNL     1       3.828  -6.555   7.906  1.00  0.00     0.074 A 
ATOM     31  C   UNL     1       5.611  -1.541   9.475  1.00  0.00     0.029 A 
ATOM     32  N   UNL     1       3.482  -1.803  10.107  1.00  0.00    -0.354 N 
ATOM     33  N   UNL     1       2.847  -6.199   8.680  1.00  0.00    -0.248 NA
ATOM     34  C   UNL     1       5.186  -6.309   8.407  1.00  0.00     0.031 C 
ATOM     35  C   UNL     1       5.292  -2.911   9.535  1.00  0.00     0.029 A 
ATOM     36  C   UNL     1       3.941  -3.071   9.866  1.00  0.00     0.049 A 
ATOM     37  H   UNL     1       2.655  -1.562  10.585  1.00  0.00     0.167 HD
ATOM     38  C   UNL     1       3.482  -5.386   9.586  1.00  0.00     0.074 A 
ATOM     39  C   UNL     1       4.878  -5.760   9.579  1.00  0.00     0.031 C 
ATOM     40  C   UNL     1       2.979  -4.146   9.817  1.00  0.00     0.037 A 
BRANCH  27  41
ATOM     41  C   UNL     1       3.413   1.335   9.880  1.00  0.00     0.064 A 
ATOM     42  C   UNL     1       4.032   1.407  11.156  1.00  0.00     0.173 A 
ATOM     43  C   UNL     1       2.199   2.019   9.747  1.00  0.00     0.173 A 
ATOM     44  F   UNL     1       5.231   0.842  11.372  1.00  0.00    -0.203 F 
ATOM     45  C   UNL     1       3.390   1.962  12.260  1.00  0.00     0.198 A 
ATOM     46  C   UNL     1       1.584   2.626  10.847  1.00  0.00     0.198 A 
ATOM     47  F   UNL     1       1.529   2.029   8.589  1.00  0.00    -0.203 F 
ATOM     48  F   UNL     1       3.938   1.850  13.478  1.00  0.00    -0.200 F 
ATOM     49  C   UNL     1       2.152   2.551  12.109  1.00  0.00     0.200 A 
ATOM     50  F   UNL     1       0.390   3.214  10.695  1.00  0.00    -0.200 F 
ATOM     51  F   UNL     1       1.490   3.013  13.178  1.00  0.00    -0.200 F 
ENDBRANCH  27  41
BRANCH  28  52
ATOM     52  C   UNL     1       4.005  -8.588   6.417  1.00  0.00     0.064 A 
ATOM     53  C   UNL     1       3.868  -9.366   5.261  1.00  0.00     0.173 A 
ATOM     54  C   UNL     1       4.619  -9.284   7.504  1.00  0.00     0.173 A 
ATOM     55  F   UNL     1       3.202  -8.909   4.196  1.00  0.00    -0.203 F 
ATOM     56  C   UNL     1       4.408 -10.665   5.163  1.00  0.00     0.198 A 
ATOM     57  C   UNL     1       5.207 -10.544   7.391  1.00  0.00     0.198 A 
ATOM     58  F   UNL     1       4.681  -8.760   8.735  1.00  0.00    -0.203 F 
ATOM     59  F   UNL     1       4.255 -11.364   4.030  1.00  0.00    -0.200 F 
ATOM     60  C   UNL     1       5.117 -11.232   6.209  1.00  0.00     0.200 A 
ATOM     61  F   UNL     1       5.874 -11.062   8.433  1.00  0.00    -0.200 F 
ATOM     62  F   UNL     1       5.696 -12.434   6.083  1.00  0.00    -0.200 F 
ENDBRANCH  28  52
BRANCH  40  63
ATOM     63  C   UNL     1       1.487  -4.027   9.555  1.00  0.00     0.064 A 
ATOM     64  C   UNL     1       0.583  -4.828  10.271  1.00  0.00     0.173 A 
ATOM     65  C   UNL     1       0.926  -3.241   8.535  1.00  0.00     0.173 A 
ATOM     66  F   UNL     1       1.025  -5.591  11.283  1.00  0.00    -0.203 F 
ATOM     67  C   UNL     1      -0.781  -4.860   9.963  1.00  0.00     0.198 A 
ATOM     68  C   UNL     1      -0.436  -3.267   8.223  1.00  0.00     0.198 A 
ATOM     69  F   UNL     1       1.686  -2.421   7.818  1.00  0.00    -0.203 F 
ATOM     70  F   UNL     1      -1.606  -5.643  10.671  1.00  0.00    -0.200 F 
ATOM     71  C   UNL     1      -1.290  -4.084   8.935  1.00  0.00     0.200 A 
ATOM     72  F   UNL     1      -0.913  -2.493   7.236  1.00  0.00    -0.200 F 
ATOM     73  F   UNL     1      -2.599  -4.108   8.646  1.00  0.00    -0.200 F 
ENDBRANCH  40  63
ENDBRANCH  14  15
ENDBRANCH   7   9
ENDBRANCH   4   5
ENDBRANCH   3   4
ENDBRANCH   2   3
ENDBRANCH   1   2
BRANCH   1  74
ATOM     74  C   UNL     1       6.303  -2.770  -3.540  1.00  0.00     0.021 C 
BRANCH  74  75
ATOM     75  C   UNL     1       7.033  -4.064  -3.179  1.00  0.00     0.116 C 
BRANCH  75  76
ATOM     76  N   UNL     1       6.818  -5.084  -4.192  1.00  0.00    -0.351 N 
ATOM     77  C   UNL     1       7.705  -5.633  -5.070  1.00  0.00     0.267 C 
ATOM     78  H   UNL     1       5.897  -5.428  -4.254  1.00  0.00     0.163 HD
ATOM     79  O   UNL     1       7.241  -6.298  -6.018  1.00  0.00    -0.268 OA
BRANCH  77  80
ATOM     80  C   UNL     1       9.121  -5.405  -4.907  1.00  0.00     0.107 A 
ATOM     81  C   UNL     1       9.895  -5.593  -3.767  1.00  0.00     0.033 A 
ATOM     82  N   UNL     1       9.993  -4.993  -5.907  1.00  0.00    -0.334 N 
ATOM     83  C   UNL     1      11.239  -5.295  -4.086  1.00  0.00     0.020 A 
ATOM     84  C   UNL     1      11.274  -4.944  -5.415  1.00  0.00     0.087 A 
BRANCH  82  85
ATOM     85  C   UNL     1       9.624  -4.711  -7.290  1.00  0.00     0.222 C 
BRANCH  85  86
ATOM     86  C   UNL     1       9.978  -3.345  -7.867  1.00  0.00     0.242 C 
ATOM     87  O   UNL     1      10.511  -3.307  -8.984  1.00  0.00    -0.273 OA
BRANCH  86  88
ATOM     88  N   UNL     1       9.545  -2.173  -7.250  1.00  0.00    -0.336 N 
ATOM     89  C   UNL     1       9.215  -2.075  -5.831  1.00  0.00     0.124 C 
ATOM     90  C   UNL     1       9.516  -0.948  -8.059  1.00  0.00     0.155 C 
ATOM     91  C   UNL     1       8.495  -0.802  -5.397  1.00  0.00     0.057 C 
ATOM     92  C   UNL     1       9.632   0.341  -7.283  1.00  0.00    -0.025 A 
ATOM     93  C   UNL     1       9.143   0.416  -5.971  1.00  0.00    -0.041 A 
ATOM     94  C   UNL     1      10.131   1.499  -7.889  1.00  0.00     0.006 A 
ATOM     95  C   UNL     1       9.185   1.623  -5.265  1.00  0.00     0.004 A 
ATOM     96  C   UNL     1      10.173   2.702  -7.183  1.00  0.00     0.000 A 
ATOM     97  C   UNL     1       9.708   2.762  -5.870  1.00  0.00     0.000 A 
ENDBRANCH  86  88
ENDBRANCH  85  86
ENDBRANCH  82  85
ENDBRANCH  77  80
ENDBRANCH  75  76
ENDBRANCH  74  75
ENDBRANCH   1  74
TORSDOF 16
