REMARK SMILES C[C@@]12CCCC[C@@H]1[C@@H]2C(=O)N/N=C/c1ccc(OCC(=O)NCCCCCCNC(=O)c2ccc(-c3c4nc(c(-c5c(F)c(F)c(F)c(F)c5F)c5ccc([nH]5)c(-c5c(F)c(F)c(F)c(F)c5F)c5nc(c(-c6c(F)c(F)c(F)c(F)c6F)c6ccc3[nH]6)C=C5)C=C4)cc2)cc1
REMARK SMILES IDX 24 1 23 2 22 3 20 4 21 5 19 7 18 8 17 9 14 10 15 11 96 12
REMARK SMILES IDX 16 13 95 14 13 15 12 16 11 17 9 18 10 19 8 21 1 22 2 23 3 24
REMARK SMILES IDX 7 25 4 26 6 27 5 28 25 29 26 30 27 31 28 32 29 33 30 34
REMARK SMILES IDX 31 36 32 37 33 38 94 39 34 40 93 41 35 42 36 43 37 44 87 45
REMARK SMILES IDX 38 46 92 47 86 48 88 49 39 50 91 51 85 52 84 53 40 55 72 56
REMARK SMILES IDX 52 57 71 58 53 59 56 60 70 61 89 62 54 63 55 64 69 66 90 67
REMARK SMILES IDX 57 68 41 69 42 70 50 71 43 72 44 73 48 74 51 75 45 76 46 77
REMARK SMILES IDX 49 78 47 79 73 80 74 81 82 82 75 83 76 84 80 85 83 86 77 87
REMARK SMILES IDX 78 88 81 89 79 90 58 91 59 92 67 93 60 94 61 95 65 96 68 97
REMARK SMILES IDX 62 98 63 99 66 100 64 101
REMARK H PARENT 22 6 11 20 29 35 88 54 56 65
REMARK Flexibility Score: inf
ROOT
ATOM      1  C   UNL     1       1.278  -5.009  10.246  1.00  0.00     0.021 C 
ENDROOT
BRANCH   1   2
ATOM      2  C   UNL     1       0.111  -4.537  11.114  1.00  0.00     0.116 C 
BRANCH   2   3
ATOM      3  N   UNL     1       0.072  -3.093  11.229  1.00  0.00    -0.353 N 
ATOM      4  C   UNL     1      -0.897  -2.226  10.820  1.00  0.00     0.257 C 
ATOM      5  O   UNL     1      -0.739  -1.022  11.035  1.00  0.00    -0.271 OA
ATOM      6  H   UNL     1       0.854  -2.682  11.663  1.00  0.00     0.163 HD
BRANCH   4   7
ATOM      7  C   UNL     1      -2.175  -2.755  10.146  1.00  0.00     0.329 C 
BRANCH   7   8
ATOM      8  O   UNL     1      -2.057  -3.630   9.034  1.00  0.00    -0.484 OA
BRANCH   8   9
ATOM      9  C   UNL     1      -1.284  -3.210   7.989  1.00  0.00     0.120 A 
ATOM     10  C   UNL     1       0.433  -2.640   5.872  1.00  0.00    -0.005 A 
ATOM     11  C   UNL     1       0.012  -3.951   6.074  1.00  0.00     0.013 A 
ATOM     12  C   UNL     1      -0.026  -1.611   6.701  1.00  0.00     0.013 A 
ATOM     13  C   UNL     1      -0.856  -4.229   7.130  1.00  0.00     0.047 A 
ATOM     14  C   UNL     1      -0.896  -1.894   7.750  1.00  0.00     0.047 A 
BRANCH  10  15
ATOM     15  C   UNL     1       1.330  -2.329   4.744  1.00  0.00     0.141 C 
ATOM     16  N   UNL     1       1.642  -1.100   4.509  1.00  0.00    -0.181 NA
BRANCH  16  17
ATOM     17  N   UNL     1       2.467  -0.848   3.482  1.00  0.00    -0.247 N 
ATOM     18  C   UNL     1       2.395  -1.193   2.159  1.00  0.00     0.244 C 
ATOM     19  O   UNL     1       3.296  -0.778   1.425  1.00  0.00    -0.273 OA
ATOM     20  H   UNL     1       3.265  -0.324   3.722  1.00  0.00     0.193 HD
BRANCH  18  21
ATOM     21  C   UNL     1       1.345  -2.018   1.512  1.00  0.00     0.090 C 
ATOM     22  C   UNL     1       0.367  -0.786  -0.543  1.00  0.00     0.012 C 
ATOM     23  C   UNL     1       0.219  -1.074   0.929  1.00  0.00    -0.017 C 
ATOM     24  C   UNL     1      -0.403   0.054   1.745  1.00  0.00     0.008 C 
ATOM     25  C   UNL     1      -0.088  -2.449   1.432  1.00  0.00     0.009 C 
ATOM     26  C   UNL     1      -1.803  -0.330   2.227  1.00  0.00     0.001 C 
ATOM     27  C   UNL     1      -1.068  -2.726   2.522  1.00  0.00     0.005 C 
ATOM     28  C   UNL     1      -1.705  -1.511   3.178  1.00  0.00     0.000 C 
ENDBRANCH  18  21
ENDBRANCH  16  17
ENDBRANCH  10  15
ENDBRANCH   8   9
ENDBRANCH   7   8
ENDBRANCH   4   7
ENDBRANCH   2   3
ENDBRANCH   1   2
BRANCH   1  29
ATOM     29  C   UNL     1       2.669  -4.626  10.770  1.00  0.00     0.002 C 
BRANCH  29  30
ATOM     30  C   UNL     1       2.977  -5.067  12.203  1.00  0.00     0.002 C 
BRANCH  30  31
ATOM     31  C   UNL     1       2.822  -6.565  12.471  1.00  0.00     0.021 C 
BRANCH  31  32
ATOM     32  C   UNL     1       3.697  -7.464  11.604  1.00  0.00     0.116 C 
BRANCH  32  33
ATOM     33  N   UNL     1       5.116  -7.263  11.851  1.00  0.00    -0.352 N 
ATOM     34  C   UNL     1       6.087  -8.181  12.169  1.00  0.00     0.251 C 
ATOM     35  H   UNL     1       5.426  -6.331  11.778  1.00  0.00     0.163 HD
ATOM     36  O   UNL     1       7.200  -7.807  12.517  1.00  0.00    -0.269 OA
BRANCH  34  37
ATOM     37  C   UNL     1       5.780  -9.628  12.117  1.00  0.00     0.039 A 
ATOM     38  C   UNL     1       6.215 -10.447  13.163  1.00  0.00     0.014 A 
ATOM     39  C   UNL     1       5.074 -10.177  11.044  1.00  0.00     0.014 A 
ATOM     40  C   UNL     1       5.884 -11.803  13.164  1.00  0.00     0.010 A 
ATOM     41  C   UNL     1       4.678 -11.511  11.085  1.00  0.00     0.010 A 
ATOM     42  C   UNL     1       5.080 -12.339  12.144  1.00  0.00    -0.014 A 
BRANCH  42  43
ATOM     43  C   UNL     1       4.643 -13.759  12.175  1.00  0.00     0.031 A 
ATOM     44  C   UNL     1       5.074 -14.710  11.093  1.00  0.00     0.074 A 
ATOM     45  C   UNL     1       3.808 -14.178  13.147  1.00  0.00     0.049 A 
ATOM     46  N   UNL     1       4.746 -15.966  10.914  1.00  0.00    -0.248 NA
ATOM     47  C   UNL     1       5.970 -14.172  10.058  1.00  0.00     0.031 C 
ATOM     48  C   UNL     1       3.284 -13.342  14.227  1.00  0.00     0.029 A 
ATOM     49  N   UNL     1       3.245 -15.409  13.377  1.00  0.00    -0.354 N 
ATOM     50  C   UNL     1       5.386 -16.361   9.747  1.00  0.00     0.074 A 
ATOM     51  C   UNL     1       6.072 -15.198   9.227  1.00  0.00     0.031 C 
ATOM     52  C   UNL     1       2.497 -14.088  15.019  1.00  0.00     0.029 A 
ATOM     53  C   UNL     1       2.425 -15.442  14.478  1.00  0.00     0.049 A 
ATOM     54  H   UNL     1       3.414 -16.194  12.807  1.00  0.00     0.167 HD
ATOM     55  C   UNL     1       5.418 -17.588   9.174  1.00  0.00     0.037 A 
ATOM     56  C   UNL     1       1.689 -16.448  14.989  1.00  0.00     0.037 A 
ATOM     57  C   UNL     1       4.745 -18.747   9.704  1.00  0.00     0.049 A 
ATOM     58  C   UNL     1       1.724 -17.796  14.320  1.00  0.00     0.074 A 
ATOM     59  C   UNL     1       4.762 -20.046   9.228  1.00  0.00     0.029 A 
ATOM     60  N   UNL     1       3.929 -18.743  10.826  1.00  0.00    -0.354 N 
ATOM     61  N   UNL     1       2.389 -18.176  13.256  1.00  0.00    -0.248 NA
ATOM     62  C   UNL     1       0.909 -18.857  14.928  1.00  0.00     0.031 C 
ATOM     63  C   UNL     1       3.909 -20.815  10.026  1.00  0.00     0.029 A 
ATOM     64  C   UNL     1       3.413 -20.012  11.039  1.00  0.00     0.049 A 
ATOM     65  H   UNL     1       3.744 -17.956  11.387  1.00  0.00     0.167 HD
ATOM     66  C   UNL     1       2.100 -19.524  13.086  1.00  0.00     0.074 A 
ATOM     67  C   UNL     1       1.211 -19.899  14.166  1.00  0.00     0.031 C 
ATOM     68  C   UNL     1       2.533 -20.374  12.123  1.00  0.00     0.037 A 
BRANCH  55  69
ATOM     69  C   UNL     1       6.204 -17.743   7.902  1.00  0.00     0.064 A 
ATOM     70  C   UNL     1       7.604 -17.647   7.884  1.00  0.00     0.173 A 
ATOM     71  C   UNL     1       5.553 -18.027   6.692  1.00  0.00     0.173 A 
ATOM     72  F   UNL     1       8.277 -17.367   9.010  1.00  0.00    -0.203 F 
ATOM     73  C   UNL     1       8.319 -17.797   6.698  1.00  0.00     0.198 A 
ATOM     74  C   UNL     1       6.273 -18.212   5.515  1.00  0.00     0.198 A 
ATOM     75  F   UNL     1       4.216 -18.137   6.652  1.00  0.00    -0.203 F 
ATOM     76  F   UNL     1       9.650 -17.646   6.696  1.00  0.00    -0.200 F 
ATOM     77  C   UNL     1       7.654 -18.087   5.516  1.00  0.00     0.200 A 
ATOM     78  F   UNL     1       5.629 -18.508   4.377  1.00  0.00    -0.200 F 
ATOM     79  F   UNL     1       8.343 -18.240   4.377  1.00  0.00    -0.200 F 
ENDBRANCH  55  69
BRANCH  56  80
ATOM     80  C   UNL     1       0.869 -16.224  16.209  1.00  0.00     0.064 A 
ATOM     81  C   UNL     1       1.193 -16.852  17.421  1.00  0.00     0.173 A 
ATOM     82  C   UNL     1      -0.257 -15.388  16.190  1.00  0.00     0.173 A 
ATOM     83  F   UNL     1       2.248 -17.677  17.486  1.00  0.00    -0.203 F 
ATOM     84  C   UNL     1       0.409 -16.671  18.559  1.00  0.00     0.198 A 
ATOM     85  C   UNL     1      -1.021 -15.182  17.337  1.00  0.00     0.198 A 
ATOM     86  F   UNL     1      -0.608 -14.759  15.059  1.00  0.00    -0.203 F 
ATOM     87  F   UNL     1       0.712 -17.323  19.689  1.00  0.00    -0.200 F 
ATOM     88  C   UNL     1      -0.694 -15.831  18.517  1.00  0.00     0.200 A 
ATOM     89  F   UNL     1      -2.076 -14.356  17.297  1.00  0.00    -0.200 F 
ATOM     90  F   UNL     1      -1.445 -15.654  19.613  1.00  0.00    -0.200 F 
ENDBRANCH  56  80
BRANCH  68  91
ATOM     91  C   UNL     1       2.085 -21.805  12.212  1.00  0.00     0.064 A 
ATOM     92  C   UNL     1       0.757 -22.183  11.967  1.00  0.00     0.173 A 
ATOM     93  C   UNL     1       3.010 -22.819  12.510  1.00  0.00     0.173 A 
ATOM     94  F   UNL     1      -0.170 -21.252  11.692  1.00  0.00    -0.203 F 
ATOM     95  C   UNL     1       0.365 -23.517  12.046  1.00  0.00     0.198 A 
ATOM     96  C   UNL     1       2.622 -24.155  12.553  1.00  0.00     0.198 A 
ATOM     97  F   UNL     1       4.295 -22.515  12.746  1.00  0.00    -0.203 F 
ATOM     98  F   UNL     1      -0.921 -23.847  11.861  1.00  0.00    -0.200 F 
ATOM     99  C   UNL     1       1.298 -24.502  12.330  1.00  0.00     0.200 A 
ATOM    100  F   UNL     1       3.530 -25.107  12.811  1.00  0.00    -0.200 F 
ATOM    101  F   UNL     1       0.921 -25.786  12.396  1.00  0.00    -0.200 F 
ENDBRANCH  68  91
ENDBRANCH  42  43
ENDBRANCH  34  37
ENDBRANCH  32  33
ENDBRANCH  31  32
ENDBRANCH  30  31
ENDBRANCH  29  30
ENDBRANCH   1  29
TORSDOF 18
