REMARK SMILES CCc1ccc(NC(=O)c2cnn3c2N=C(C(=O)NCCCCCCNC(=O)c2ccc(-c4c5nc(c(-c6c(F)c(F)c(F)c(F)c6F)c6ccc([nH]6)c(-c6c(F)c(F)c(F)c(F)c6F)c6nc(c(-c7c(F)c(F)c(F)c(F)c7F)c7ccc4[nH]7)C=C6)C=C5)cc2)C[C@H]3c2ccccc2Cl)cc1
REMARK SMILES IDX 22 1 21 2 20 3 19 4 17 5 18 6 16 8 10 9 11 10 14 11 12 12
REMARK SMILES IDX 13 13 15 14 93 15 92 16 8 17 7 18 9 20 6 21 3 22 4 23 102 24
REMARK SMILES IDX 5 25 101 26 2 27 1 28 94 29 95 30 99 31 96 32 98 33 100 34
REMARK SMILES IDX 97 35 23 36 24 37 25 38 26 39 27 40 28 42 29 43 30 44 91 45
REMARK SMILES IDX 31 46 90 47 32 48 33 49 34 50 84 51 35 52 89 53 83 54 85 55
REMARK SMILES IDX 36 56 88 57 82 58 81 59 37 61 69 62 49 63 68 64 50 65 53 66
REMARK SMILES IDX 67 67 86 68 51 69 52 70 66 72 87 73 54 74 38 75 39 76 47 77
REMARK SMILES IDX 40 78 41 79 45 80 48 81 42 82 43 83 46 84 44 85 70 86 71 87
REMARK SMILES IDX 79 88 72 89 73 90 77 91 80 92 74 93 75 94 78 95 76 96 55 97
REMARK SMILES IDX 56 98 64 99 57 100 58 101 62 102 65 103 59 104 60 105 63 106
REMARK SMILES IDX 61 107
REMARK H PARENT 19 7 7 19 26 41 85 60 53 71
REMARK Flexibility Score: inf
ROOT
ATOM      1  C   UNL     1       2.804   0.196  -5.869  1.00  0.00     0.002 C 
ENDROOT
BRANCH   1   2
ATOM      2  C   UNL     1       1.690  -0.767  -5.469  1.00  0.00     0.021 C 
BRANCH   2   3
ATOM      3  C   UNL     1       2.038  -2.245  -5.588  1.00  0.00     0.116 C 
BRANCH   3   4
ATOM      4  N   UNL     1       2.918  -2.705  -4.530  1.00  0.00    -0.351 N 
ATOM      5  C   UNL     1       2.951  -3.791  -3.688  1.00  0.00     0.265 C 
ATOM      6  O   UNL     1       3.942  -3.898  -2.966  1.00  0.00    -0.268 OA
ATOM      7  H   UNL     1       3.673  -2.091  -4.379  1.00  0.00     0.163 HD
BRANCH   5   8
ATOM      8  C   UNL     1       1.843  -4.860  -3.583  1.00  0.00     0.110 C 
ATOM      9  C   UNL     1       0.752  -7.486  -1.400  1.00  0.00     0.104 A 
ATOM     10  C   UNL     1      -0.411  -8.202  -1.753  1.00  0.00     0.151 A 
ATOM     11  C   UNL     1       1.051  -6.721  -2.516  1.00  0.00     0.164 A 
ATOM     12  N   UNL     1      -0.923  -7.799  -2.920  1.00  0.00    -0.178 NA
ATOM     13  N   UNL     1      -0.036  -6.872  -3.336  1.00  0.00    -0.239 N 
ATOM     14  N   UNL     1       2.058  -5.849  -2.766  1.00  0.00    -0.227 NA
ATOM     15  C   UNL     1      -0.407  -5.871  -4.322  1.00  0.00     0.147 C 
ATOM     16  C   UNL     1       0.570  -4.694  -4.359  1.00  0.00     0.094 C 
BRANCH   9  17
ATOM     17  C   UNL     1       1.454  -7.510  -0.136  1.00  0.00     0.261 C 
ATOM     18  N   UNL     1       1.802  -6.320   0.480  1.00  0.00    -0.322 N 
ATOM     19  H   UNL     1       2.456  -6.416   1.210  1.00  0.00     0.170 HD
ATOM     20  O   UNL     1       1.760  -8.575   0.400  1.00  0.00    -0.269 OA
BRANCH  18  21
ATOM     21  C   UNL     1       1.384  -4.993   0.243  1.00  0.00     0.041 A 
ATOM     22  C   UNL     1       0.805  -2.296  -0.399  1.00  0.00    -0.048 A 
ATOM     23  C   UNL     1      -0.088  -3.321  -0.728  1.00  0.00     0.006 A 
ATOM     24  C   UNL     1       1.958  -2.633   0.319  1.00  0.00     0.006 A 
ATOM     25  C   UNL     1       0.183  -4.649  -0.380  1.00  0.00     0.026 A 
ATOM     26  C   UNL     1       2.236  -3.966   0.651  1.00  0.00     0.026 A 
BRANCH  22  27
ATOM     27  C   UNL     1       0.532  -0.897  -0.897  1.00  0.00     0.032 C 
ATOM     28  C   UNL     1       0.975   0.228   0.027  1.00  0.00     0.009 C 
ENDBRANCH  22  27
ENDBRANCH  18  21
ENDBRANCH   9  17
BRANCH  15  29
ATOM     29  C   UNL     1      -0.550  -6.430  -5.730  1.00  0.00    -0.004 A 
ATOM     30  C   UNL     1       0.508  -7.170  -6.295  1.00  0.00     0.007 A 
ATOM     31  C   UNL     1      -1.636  -6.085  -6.556  1.00  0.00     0.046 A 
ATOM     32  C   UNL     1       0.485  -7.542  -7.639  1.00  0.00     0.000 A 
ATOM     33  C   UNL     1      -1.661  -6.476  -7.898  1.00  0.00     0.021 A 
ATOM     34  Cl  UNL     1      -2.946  -5.099  -6.005  1.00  0.00    -0.084 Cl
ATOM     35  C   UNL     1      -0.599  -7.197  -8.440  1.00  0.00     0.002 A 
ENDBRANCH  15  29
ENDBRANCH   5   8
ENDBRANCH   3   4
ENDBRANCH   2   3
ENDBRANCH   1   2
BRANCH   1  36
ATOM     36  C   UNL     1       3.425  -0.035  -7.253  1.00  0.00     0.002 C 
BRANCH  36  37
ATOM     37  C   UNL     1       2.452  -0.202  -8.431  1.00  0.00     0.021 C 
BRANCH  37  38
ATOM     38  C   UNL     1       1.553   1.000  -8.681  1.00  0.00     0.116 C 
BRANCH  38  39
ATOM     39  N   UNL     1       2.311   2.182  -9.064  1.00  0.00    -0.352 N 
ATOM     40  C   UNL     1       1.857   3.463  -9.291  1.00  0.00     0.251 C 
ATOM     41  H   UNL     1       3.280   2.048  -9.177  1.00  0.00     0.163 HD
ATOM     42  O   UNL     1       2.517   4.245  -9.957  1.00  0.00    -0.269 OA
BRANCH  40  43
ATOM     43  C   UNL     1       0.558   3.883  -8.731  1.00  0.00     0.039 A 
ATOM     44  C   UNL     1      -0.292   4.695  -9.486  1.00  0.00     0.014 A 
ATOM     45  C   UNL     1       0.194   3.476  -7.447  1.00  0.00     0.014 A 
ATOM     46  C   UNL     1      -1.543   5.022  -8.974  1.00  0.00     0.010 A 
ATOM     47  C   UNL     1      -1.083   3.710  -6.983  1.00  0.00     0.010 A 
ATOM     48  C   UNL     1      -1.949   4.499  -7.733  1.00  0.00    -0.014 A 
BRANCH  48  49
ATOM     49  C   UNL     1      -3.348   4.626  -7.324  1.00  0.00     0.031 A 
ATOM     50  C   UNL     1      -4.299   4.099  -8.340  1.00  0.00     0.074 A 
ATOM     51  C   UNL     1      -3.761   4.987  -6.089  1.00  0.00     0.049 A 
ATOM     52  N   UNL     1      -5.137   4.776  -9.050  1.00  0.00    -0.248 NA
ATOM     53  C   UNL     1      -4.206   2.681  -8.728  1.00  0.00     0.031 C 
ATOM     54  C   UNL     1      -2.921   5.210  -4.908  1.00  0.00     0.029 A 
ATOM     55  N   UNL     1      -5.028   5.138  -5.592  1.00  0.00    -0.354 N 
ATOM     56  C   UNL     1      -5.846   3.839  -9.799  1.00  0.00     0.074 A 
ATOM     57  C   UNL     1      -5.098   2.615  -9.719  1.00  0.00     0.031 C 
ATOM     58  C   UNL     1      -3.693   5.241  -3.800  1.00  0.00     0.029 A 
ATOM     59  C   UNL     1      -5.088   5.217  -4.203  1.00  0.00     0.049 A 
ATOM     60  H   UNL     1      -5.826   5.187  -6.166  1.00  0.00     0.167 HD
ATOM     61  C   UNL     1      -7.142   4.089 -10.136  1.00  0.00     0.037 A 
ATOM     62  C   UNL     1      -6.196   5.271  -3.423  1.00  0.00     0.037 A 
ATOM     63  C   UNL     1      -7.446   5.483  -9.932  1.00  0.00     0.049 A 
ATOM     64  C   UNL     1      -7.318   5.742  -4.261  1.00  0.00     0.074 A 
ATOM     65  C   UNL     1      -7.210   6.675 -10.580  1.00  0.00     0.029 A 
ATOM     66  N   UNL     1      -7.790   5.780  -8.642  1.00  0.00    -0.354 N 
ATOM     67  N   UNL     1      -7.402   6.957  -4.723  1.00  0.00    -0.248 NA
ATOM     68  C   UNL     1      -8.218   4.771  -4.873  1.00  0.00     0.031 C 
ATOM     69  C   UNL     1      -7.317   7.698  -9.590  1.00  0.00     0.029 A 
ATOM     70  C   UNL     1      -7.656   7.113  -8.373  1.00  0.00     0.049 A 
ATOM     71  H   UNL     1      -8.098   5.114  -7.986  1.00  0.00     0.167 HD
ATOM     72  C   UNL     1      -8.013   6.802  -5.949  1.00  0.00     0.074 A 
ATOM     73  C   UNL     1      -8.660   5.498  -5.902  1.00  0.00     0.031 C 
ATOM     74  C   UNL     1      -7.638   7.574  -7.006  1.00  0.00     0.037 A 
BRANCH  61  75
ATOM     75  C   UNL     1      -8.267   3.063 -10.120  1.00  0.00     0.064 A 
ATOM     76  C   UNL     1      -9.573   3.497 -10.446  1.00  0.00     0.173 A 
ATOM     77  C   UNL     1      -8.197   1.802  -9.492  1.00  0.00     0.173 A 
ATOM     78  F   UNL     1      -9.773   4.679 -11.048  1.00  0.00    -0.203 F 
ATOM     79  C   UNL     1     -10.713   2.775 -10.076  1.00  0.00     0.198 A 
ATOM     80  C   UNL     1      -9.336   1.063  -9.166  1.00  0.00     0.198 A 
ATOM     81  F   UNL     1      -7.047   1.271  -9.068  1.00  0.00    -0.203 F 
ATOM     82  F   UNL     1     -11.930   3.294 -10.291  1.00  0.00    -0.200 F 
ATOM     83  C   UNL     1     -10.593   1.563  -9.425  1.00  0.00     0.200 A 
ATOM     84  F   UNL     1      -9.198  -0.103  -8.518  1.00  0.00    -0.200 F 
ATOM     85  F   UNL     1     -11.680   0.900  -9.010  1.00  0.00    -0.200 F 
ENDBRANCH  61  75
BRANCH  62  86
ATOM     86  C   UNL     1      -6.407   4.837  -2.023  1.00  0.00     0.064 A 
ATOM     87  C   UNL     1      -7.457   5.357  -1.247  1.00  0.00     0.173 A 
ATOM     88  C   UNL     1      -5.762   3.692  -1.522  1.00  0.00     0.173 A 
ATOM     89  F   UNL     1      -8.144   6.428  -1.669  1.00  0.00    -0.203 F 
ATOM     90  C   UNL     1      -7.865   4.743  -0.059  1.00  0.00     0.198 A 
ATOM     91  C   UNL     1      -6.169   3.081  -0.334  1.00  0.00     0.198 A 
ATOM     92  F   UNL     1      -4.792   3.092  -2.227  1.00  0.00    -0.203 F 
ATOM     93  F   UNL     1      -8.915   5.228   0.619  1.00  0.00    -0.200 F 
ATOM     94  C   UNL     1      -7.231   3.596   0.388  1.00  0.00     0.200 A 
ATOM     95  F   UNL     1      -5.570   1.952   0.070  1.00  0.00    -0.200 F 
ATOM     96  F   UNL     1      -7.667   2.965   1.487  1.00  0.00    -0.200 F 
ENDBRANCH  62  86
BRANCH  74  97
ATOM     97  C   UNL     1      -7.030   8.905  -6.707  1.00  0.00     0.064 A 
ATOM     98  C   UNL     1      -5.787   9.096  -6.084  1.00  0.00     0.173 A 
ATOM     99  C   UNL     1      -7.728  10.043  -7.133  1.00  0.00     0.173 A 
ATOM    100  F   UNL     1      -5.033   8.053  -5.712  1.00  0.00    -0.203 F 
ATOM    101  C   UNL     1      -5.284  10.379  -5.870  1.00  0.00     0.198 A 
ATOM    102  C   UNL     1      -7.207  11.318  -6.951  1.00  0.00     0.198 A 
ATOM    103  F   UNL     1      -8.907   9.912  -7.760  1.00  0.00    -0.203 F 
ATOM    104  F   UNL     1      -4.104  10.543  -5.254  1.00  0.00    -0.200 F 
ATOM    105  C   UNL     1      -5.991  11.487  -6.310  1.00  0.00     0.200 A 
ATOM    106  F   UNL     1      -7.877  12.382  -7.415  1.00  0.00    -0.200 F 
ATOM    107  F   UNL     1      -5.491  12.718  -6.135  1.00  0.00    -0.200 F 
ENDBRANCH  74  97
ENDBRANCH  48  49
ENDBRANCH  40  43
ENDBRANCH  38  39
ENDBRANCH  37  38
ENDBRANCH  36  37
ENDBRANCH   1  36
TORSDOF 17
