REMARK SMILES C[NH2+]C[C@@H](C)C(=O)Nc1ccc(Cl)cc1C(=O)NCCCCCCNC(=O)c1ccc(-c2c3nc(c(-c4c(F)c(F)c(F)c(F)c4F)c4ccc([nH]4)c(-c4c(F)c(F)c(F)c(F)c4F)c4nc(c(-c5c(F)c(F)c(F)c(F)c5F)c5ccc2[nH]5)C=C4)C=C3)cc1
REMARK SMILES IDX 20 1 19 2 18 3 16 4 17 5 15 7 9 8 10 9 11 10 14 11 12 12
REMARK SMILES IDX 13 13 8 14 6 15 7 16 4 18 5 19 3 20 2 21 1 22 21 25 22 26
REMARK SMILES IDX 23 27 24 28 25 29 26 30 27 32 28 33 29 34 90 35 30 36 89 37
REMARK SMILES IDX 31 38 32 39 33 40 83 41 34 42 88 43 82 44 84 45 35 46 87 47
REMARK SMILES IDX 81 48 80 49 36 51 68 52 48 53 67 54 49 55 52 56 66 57 85 58
REMARK SMILES IDX 50 59 51 60 65 62 86 63 53 64 37 65 38 66 46 67 39 68 40 69
REMARK SMILES IDX 44 70 47 71 41 72 42 73 45 74 43 75 69 76 70 77 78 78 71 79
REMARK SMILES IDX 72 80 76 81 79 82 73 83 74 84 77 85 75 86 54 87 55 88 63 89
REMARK SMILES IDX 56 90 57 91 61 92 64 93 58 94 59 95 62 96 60 97
REMARK H PARENT 18 6 8 17 2 23 2 24 25 31 84 50 52 61
REMARK Flexibility Score: inf
ROOT
ATOM      1  C   UNL     1      -4.880   3.958   0.394  1.00  0.00     0.021 C 
ENDROOT
BRANCH   1   2
ATOM      2  C   UNL     1      -4.623   3.071  -0.816  1.00  0.00     0.116 C 
BRANCH   2   3
ATOM      3  N   UNL     1      -5.142   3.545  -2.069  1.00  0.00    -0.352 N 
ATOM      4  C   UNL     1      -4.723   3.343  -3.359  1.00  0.00     0.253 C 
ATOM      5  O   UNL     1      -5.402   3.884  -4.237  1.00  0.00    -0.269 OA
ATOM      6  H   UNL     1      -5.940   4.116  -1.986  1.00  0.00     0.163 HD
BRANCH   4   7
ATOM      7  C   UNL     1      -3.514   2.569  -3.801  1.00  0.00     0.064 A 
ATOM      8  C   UNL     1      -2.963   1.387  -3.265  1.00  0.00     0.054 A 
ATOM      9  C   UNL     1      -1.979   0.693  -3.988  1.00  0.00     0.028 A 
ATOM     10  C   UNL     1      -1.416   1.218  -5.147  1.00  0.00     0.023 A 
ATOM     11  C   UNL     1      -2.913   3.095  -4.971  1.00  0.00     0.036 A 
ATOM     12  C   UNL     1      -1.866   2.439  -5.618  1.00  0.00     0.041 A 
ATOM     13  Cl  UNL     1      -1.159   3.118  -7.029  1.00  0.00    -0.084 Cl
BRANCH   8  14
ATOM     14  N   UNL     1      -3.422   0.763  -2.103  1.00  0.00    -0.325 N 
ATOM     15  C   UNL     1      -2.734   0.416  -0.968  1.00  0.00     0.232 C 
ATOM     16  O   UNL     1      -3.378  -0.191  -0.101  1.00  0.00    -0.274 OA
ATOM     17  H   UNL     1      -4.381   0.537  -2.099  1.00  0.00     0.169 HD
BRANCH  15  18
ATOM     18  C   UNL     1      -1.277   0.835  -0.655  1.00  0.00     0.130 C 
ATOM     19  C   UNL     1      -0.959   2.317  -0.865  1.00  0.00     0.024 C 
BRANCH  18  20
ATOM     20  C   UNL     1      -0.231  -0.106  -1.268  1.00  0.00     0.273 C 
BRANCH  20  21
ATOM     21  N   UNL     1       1.156   0.064  -0.819  1.00  0.00    -0.348 N 
ATOM     22  C   UNL     1       1.355  -0.234   0.589  1.00  0.00     0.330 C 
ATOM     23  H   UNL     1       1.750  -0.557  -1.367  1.00  0.00     0.346 HD
ATOM     24  H   UNL     1       1.393   1.048  -0.952  1.00  0.00     0.346 HD
ENDBRANCH  20  21
ENDBRANCH  18  20
ENDBRANCH  15  18
ENDBRANCH   8  14
ENDBRANCH   4   7
ENDBRANCH   2   3
ENDBRANCH   1   2
BRANCH   1  25
ATOM     25  C   UNL     1      -6.337   4.136   0.820  1.00  0.00     0.002 C 
BRANCH  25  26
ATOM     26  C   UNL     1      -7.206   2.879   0.922  1.00  0.00     0.002 C 
BRANCH  26  27
ATOM     27  C   UNL     1      -6.680   1.706   1.753  1.00  0.00     0.021 C 
BRANCH  27  28
ATOM     28  C   UNL     1      -6.184   2.013   3.163  1.00  0.00     0.116 C 
BRANCH  28  29
ATOM     29  N   UNL     1      -7.159   2.710   3.981  1.00  0.00    -0.352 N 
ATOM     30  C   UNL     1      -7.576   2.488   5.269  1.00  0.00     0.251 C 
ATOM     31  H   UNL     1      -7.594   3.472   3.536  1.00  0.00     0.163 HD
ATOM     32  O   UNL     1      -8.482   3.179   5.727  1.00  0.00    -0.269 OA
BRANCH  30  33
ATOM     33  C   UNL     1      -6.991   1.415   6.111  1.00  0.00     0.039 A 
ATOM     34  C   UNL     1      -7.855   0.707   6.954  1.00  0.00     0.014 A 
ATOM     35  C   UNL     1      -5.623   1.126   6.131  1.00  0.00     0.014 A 
ATOM     36  C   UNL     1      -7.363  -0.316   7.769  1.00  0.00     0.010 A 
ATOM     37  C   UNL     1      -5.141   0.060   6.898  1.00  0.00     0.010 A 
ATOM     38  C   UNL     1      -6.005  -0.670   7.727  1.00  0.00    -0.014 A 
BRANCH  38  39
ATOM     39  C   UNL     1      -5.510  -1.821   8.526  1.00  0.00     0.031 A 
ATOM     40  C   UNL     1      -4.558  -1.624   9.671  1.00  0.00     0.074 A 
ATOM     41  C   UNL     1      -5.904  -3.066   8.194  1.00  0.00     0.049 A 
ATOM     42  N   UNL     1      -4.074  -2.511  10.506  1.00  0.00    -0.248 NA
ATOM     43  C   UNL     1      -4.064  -0.258   9.894  1.00  0.00     0.031 C 
ATOM     44  C   UNL     1      -6.759  -3.402   7.055  1.00  0.00     0.029 A 
ATOM     45  N   UNL     1      -5.636  -4.278   8.780  1.00  0.00    -0.354 N 
ATOM     46  C   UNL     1      -3.213  -1.815  11.343  1.00  0.00     0.074 A 
ATOM     47  C   UNL     1      -3.204  -0.441  10.886  1.00  0.00     0.031 C 
ATOM     48  C   UNL     1      -6.968  -4.728   7.040  1.00  0.00     0.029 A 
ATOM     49  C   UNL     1      -6.250  -5.336   8.156  1.00  0.00     0.049 A 
ATOM     50  H   UNL     1      -5.060  -4.379   9.571  1.00  0.00     0.167 HD
ATOM     51  C   UNL     1      -2.509  -2.275  12.407  1.00  0.00     0.037 A 
ATOM     52  C   UNL     1      -6.247  -6.649   8.456  1.00  0.00     0.037 A 
ATOM     53  C   UNL     1      -2.537  -3.638  12.874  1.00  0.00     0.049 A 
ATOM     54  C   UNL     1      -5.512  -7.125   9.676  1.00  0.00     0.074 A 
ATOM     55  C   UNL     1      -1.928  -4.181  13.993  1.00  0.00     0.029 A 
ATOM     56  N   UNL     1      -3.204  -4.676  12.242  1.00  0.00    -0.354 N 
ATOM     57  N   UNL     1      -4.785  -6.439  10.524  1.00  0.00    -0.248 NA
ATOM     58  C   UNL     1      -5.615  -8.556   9.993  1.00  0.00     0.031 C 
ATOM     59  C   UNL     1      -2.191  -5.556  14.013  1.00  0.00     0.029 A 
ATOM     60  C   UNL     1      -3.003  -5.862  12.933  1.00  0.00     0.049 A 
ATOM     61  H   UNL     1      -3.742  -4.585  11.422  1.00  0.00     0.167 HD
ATOM     62  C   UNL     1      -4.357  -7.347  11.482  1.00  0.00     0.074 A 
ATOM     63  C   UNL     1      -4.926  -8.630  11.123  1.00  0.00     0.031 C 
ATOM     64  C   UNL     1      -3.562  -7.136  12.560  1.00  0.00     0.037 A 
BRANCH  51  65
ATOM     65  C   UNL     1      -1.644  -1.291  13.141  1.00  0.00     0.064 A 
ATOM     66  C   UNL     1      -2.195  -0.264  13.923  1.00  0.00     0.173 A 
ATOM     67  C   UNL     1      -0.245  -1.391  13.084  1.00  0.00     0.173 A 
ATOM     68  F   UNL     1      -3.526  -0.117  14.005  1.00  0.00    -0.203 F 
ATOM     69  C   UNL     1      -1.378   0.645  14.592  1.00  0.00     0.198 A 
ATOM     70  C   UNL     1       0.568  -0.498  13.777  1.00  0.00     0.198 A 
ATOM     71  F   UNL     1       0.334  -2.359  12.357  1.00  0.00    -0.203 F 
ATOM     72  F   UNL     1      -1.928   1.649  15.289  1.00  0.00    -0.200 F 
ATOM     73  C   UNL     1       0.001   0.525  14.523  1.00  0.00     0.200 A 
ATOM     74  F   UNL     1       1.901  -0.623  13.719  1.00  0.00    -0.200 F 
ATOM     75  F   UNL     1       0.785   1.400  15.168  1.00  0.00    -0.200 F 
ENDBRANCH  51  65
BRANCH  52  76
ATOM     76  C   UNL     1      -7.014  -7.592   7.604  1.00  0.00     0.064 A 
ATOM     77  C   UNL     1      -8.213  -8.160   8.056  1.00  0.00     0.173 A 
ATOM     78  C   UNL     1      -6.581  -7.919   6.311  1.00  0.00     0.173 A 
ATOM     79  F   UNL     1      -8.656  -7.891   9.293  1.00  0.00    -0.203 F 
ATOM     80  C   UNL     1      -8.944  -9.030   7.251  1.00  0.00     0.198 A 
ATOM     81  C   UNL     1      -7.326  -8.769   5.498  1.00  0.00     0.198 A 
ATOM     82  F   UNL     1      -5.443  -7.394   5.832  1.00  0.00    -0.203 F 
ATOM     83  F   UNL     1     -10.070  -9.585   7.719  1.00  0.00    -0.200 F 
ATOM     84  C   UNL     1      -8.505  -9.327   5.970  1.00  0.00     0.200 A 
ATOM     85  F   UNL     1      -6.906  -9.043   4.255  1.00  0.00    -0.200 F 
ATOM     86  F   UNL     1      -9.215 -10.154   5.191  1.00  0.00    -0.200 F 
ENDBRANCH  52  76
BRANCH  64  87
ATOM     87  C   UNL     1      -3.271  -8.322  13.433  1.00  0.00     0.064 A 
ATOM     88  C   UNL     1      -2.430  -9.361  13.005  1.00  0.00     0.173 A 
ATOM     89  C   UNL     1      -3.833  -8.419  14.715  1.00  0.00     0.173 A 
ATOM     90  F   UNL     1      -1.881  -9.324  11.781  1.00  0.00    -0.203 F 
ATOM     91  C   UNL     1      -2.192 -10.469  13.814  1.00  0.00     0.198 A 
ATOM     92  C   UNL     1      -3.568  -9.515  15.533  1.00  0.00     0.198 A 
ATOM     93  F   UNL     1      -4.638  -7.450  15.175  1.00  0.00    -0.203 F 
ATOM     94  F   UNL     1      -1.431 -11.476  13.361  1.00  0.00    -0.200 F 
ATOM     95  C   UNL     1      -2.757 -10.543  15.078  1.00  0.00     0.200 A 
ATOM     96  F   UNL     1      -4.107  -9.580  16.758  1.00  0.00    -0.200 F 
ATOM     97  F   UNL     1      -2.529 -11.612  15.854  1.00  0.00    -0.200 F 
ENDBRANCH  64  87
ENDBRANCH  38  39
ENDBRANCH  30  33
ENDBRANCH  28  29
ENDBRANCH  27  28
ENDBRANCH  26  27
ENDBRANCH  25  26
ENDBRANCH   1  25
TORSDOF 17
