REMARK SMILES CC(C)(O)CCOc1ccc(C(=O)NCCCCCCNC(=O)c2ccc(-c3c4nc(c(-c5c(F)c(F)c(F)c(F)c5F)c5ccc([nH]5)c(-c5c(F)c(F)c(F)c(F)c5F)c5nc(c(-c6c(F)c(F)c(F)c(F)c6F)c6ccc3[nH]6)C=C5)C=C4)cc2)cc1
REMARK SMILES IDX 16 1 15 2 14 3 12 4 13 5 11 7 8 8 9 9 88 10 10 11 87 12 7 13
REMARK SMILES IDX 6 14 5 15 2 16 1 17 3 18 4 19 17 21 18 22 19 23 20 24 21 25
REMARK SMILES IDX 22 26 23 28 24 29 25 30 86 31 26 32 85 33 27 34 28 35 29 36
REMARK SMILES IDX 79 37 30 38 84 39 78 40 80 41 31 42 83 43 77 44 76 45 32 47
REMARK SMILES IDX 64 48 44 49 63 50 45 51 48 52 62 53 81 54 46 55 47 56 61 58
REMARK SMILES IDX 82 59 49 60 33 61 34 62 42 63 35 64 36 65 40 66 43 67 37 68
REMARK SMILES IDX 38 69 41 70 39 71 65 72 66 73 74 74 67 75 68 76 72 77 75 78
REMARK SMILES IDX 69 79 70 80 73 81 71 82 50 83 51 84 59 85 52 86 53 87 57 88
REMARK SMILES IDX 60 89 54 90 55 91 58 92 56 93
REMARK H PARENT 14 6 4 20 21 27 80 46 48 57
REMARK Flexibility Score: inf
ROOT
ATOM      1  C   UNL     1       1.091  -2.022  -4.080  1.00  0.00     0.021 C 
ENDROOT
BRANCH   1   2
ATOM      2  C   UNL     1      -0.031  -1.915  -3.042  1.00  0.00     0.116 C 
BRANCH   2   3
ATOM      3  N   UNL     1      -0.471  -3.213  -2.553  1.00  0.00    -0.352 N 
ATOM      4  C   UNL     1      -0.685  -3.640  -1.260  1.00  0.00     0.251 C 
ATOM      5  O   UNL     1      -0.917  -4.823  -1.032  1.00  0.00    -0.269 OA
ATOM      6  H   UNL     1      -0.641  -3.887  -3.250  1.00  0.00     0.163 HD
BRANCH   4   7
ATOM      7  C   UNL     1      -0.591  -2.681  -0.139  1.00  0.00     0.040 A 
ATOM      8  C   UNL     1      -0.040  -0.704   1.749  1.00  0.00     0.119 A 
ATOM      9  C   UNL     1       0.535  -1.973   1.874  1.00  0.00     0.047 A 
ATOM     10  C   UNL     1      -1.053  -0.513   0.812  1.00  0.00     0.047 A 
ATOM     11  C   UNL     1       0.258  -2.968   0.933  1.00  0.00     0.017 A 
ATOM     12  C   UNL     1      -1.311  -1.488  -0.153  1.00  0.00     0.017 A 
BRANCH   8  13
ATOM     13  O   UNL     1       0.545   0.273   2.505  1.00  0.00    -0.493 OA
BRANCH  13  14
ATOM     14  C   UNL     1       0.283   1.645   2.193  1.00  0.00     0.232 C 
BRANCH  14  15
ATOM     15  C   UNL     1       1.254   2.320   1.197  1.00  0.00     0.076 C 
BRANCH  15  16
ATOM     16  C   UNL     1       1.205   1.922  -0.297  1.00  0.00     0.062 C 
ATOM     17  C   UNL     1       2.050   0.679  -0.595  1.00  0.00     0.042 C 
ATOM     18  C   UNL     1       1.731   3.062  -1.183  1.00  0.00     0.042 C 
BRANCH  16  19
ATOM     19  O   UNL     1      -0.149   1.731  -0.700  1.00  0.00    -0.390 OA
ATOM     20  H   UNL     1      -0.175   1.482  -1.637  1.00  0.00     0.211 HD
ENDBRANCH  16  19
ENDBRANCH  15  16
ENDBRANCH  14  15
ENDBRANCH  13  14
ENDBRANCH   8  13
ENDBRANCH   4   7
ENDBRANCH   2   3
ENDBRANCH   1   2
BRANCH   1  21
ATOM     21  C   UNL     1       0.685  -2.629  -5.428  1.00  0.00     0.002 C 
BRANCH  21  22
ATOM     22  C   UNL     1      -0.347  -1.832  -6.233  1.00  0.00     0.002 C 
BRANCH  22  23
ATOM     23  C   UNL     1       0.057  -0.403  -6.608  1.00  0.00     0.021 C 
BRANCH  23  24
ATOM     24  C   UNL     1       1.331  -0.276  -7.441  1.00  0.00     0.116 C 
BRANCH  24  25
ATOM     25  N   UNL     1       1.216  -0.910  -8.745  1.00  0.00    -0.352 N 
ATOM     26  C   UNL     1       1.439  -0.398 -10.000  1.00  0.00     0.251 C 
ATOM     27  H   UNL     1       0.935  -1.854  -8.725  1.00  0.00     0.163 HD
ATOM     28  O   UNL     1       1.128  -1.048 -10.992  1.00  0.00    -0.269 OA
BRANCH  26  29
ATOM     29  C   UNL     1       2.034   0.948 -10.168  1.00  0.00     0.039 A 
ATOM     30  C   UNL     1       1.499   1.805 -11.134  1.00  0.00     0.014 A 
ATOM     31  C   UNL     1       3.130   1.358  -9.404  1.00  0.00     0.014 A 
ATOM     32  C   UNL     1       2.017   3.094 -11.288  1.00  0.00     0.010 A 
ATOM     33  C   UNL     1       3.600   2.666  -9.508  1.00  0.00     0.010 A 
ATOM     34  C   UNL     1       3.050   3.548 -10.451  1.00  0.00    -0.014 A 
BRANCH  34  35
ATOM     35  C   UNL     1       3.560   4.941 -10.544  1.00  0.00     0.031 A 
ATOM     36  C   UNL     1       4.983   5.204 -10.953  1.00  0.00     0.074 A 
ATOM     37  C   UNL     1       2.758   5.968 -10.200  1.00  0.00     0.049 A 
ATOM     38  N   UNL     1       5.629   6.341 -11.023  1.00  0.00    -0.248 NA
ATOM     39  C   UNL     1       5.796   4.030 -11.306  1.00  0.00     0.031 C 
ATOM     40  C   UNL     1       1.372   5.844  -9.749  1.00  0.00     0.029 A 
ATOM     41  N   UNL     1       2.997   7.321 -10.167  1.00  0.00    -0.354 N 
ATOM     42  C   UNL     1       6.922   6.019 -11.416  1.00  0.00     0.074 A 
ATOM     43  C   UNL     1       6.985   4.577 -11.516  1.00  0.00     0.031 C 
ATOM     44  C   UNL     1       0.877   7.067  -9.504  1.00  0.00     0.029 A 
ATOM     45  C   UNL     1       1.921   8.060  -9.741  1.00  0.00     0.049 A 
ATOM     46  H   UNL     1       3.859   7.722 -10.423  1.00  0.00     0.167 HD
ATOM     47  C   UNL     1       7.955   6.851 -11.692  1.00  0.00     0.037 A 
ATOM     48  C   UNL     1       1.792   9.387  -9.553  1.00  0.00     0.037 A 
ATOM     49  C   UNL     1       7.883   8.287 -11.611  1.00  0.00     0.049 A 
ATOM     50  C   UNL     1       2.962  10.288  -9.847  1.00  0.00     0.074 A 
ATOM     51  C   UNL     1       8.859   9.219 -11.921  1.00  0.00     0.029 A 
ATOM     52  N   UNL     1       6.772   9.000 -11.184  1.00  0.00    -0.354 N 
ATOM     53  N   UNL     1       4.159   9.976 -10.281  1.00  0.00    -0.248 NA
ATOM     54  C   UNL     1       2.761  11.727  -9.629  1.00  0.00     0.031 C 
ATOM     55  C   UNL     1       8.356  10.492 -11.633  1.00  0.00     0.029 A 
ATOM     56  C   UNL     1       7.048  10.359 -11.198  1.00  0.00     0.049 A 
ATOM     57  H   UNL     1       5.915   8.600 -10.911  1.00  0.00     0.167 HD
ATOM     58  C   UNL     1       4.841  11.178 -10.417  1.00  0.00     0.074 A 
ATOM     59  C   UNL     1       3.919  12.226 -10.035  1.00  0.00     0.031 C 
ATOM     60  C   UNL     1       6.117  11.393 -10.822  1.00  0.00     0.037 A 
BRANCH  47  61
ATOM     61  C   UNL     1       9.257   6.229 -12.111  1.00  0.00     0.064 A 
ATOM     62  C   UNL     1       9.400   5.587 -13.350  1.00  0.00     0.173 A 
ATOM     63  C   UNL     1      10.386   6.311 -11.282  1.00  0.00     0.173 A 
ATOM     64  F   UNL     1       8.350   5.472 -14.177  1.00  0.00    -0.203 F 
ATOM     65  C   UNL     1      10.616   5.023 -13.730  1.00  0.00     0.198 A 
ATOM     66  C   UNL     1      11.608   5.775 -11.679  1.00  0.00     0.198 A 
ATOM     67  F   UNL     1      10.307   6.920 -10.089  1.00  0.00    -0.203 F 
ATOM     68  F   UNL     1      10.715   4.370 -14.896  1.00  0.00    -0.200 F 
ATOM     69  C   UNL     1      11.721   5.125 -12.898  1.00  0.00     0.200 A 
ATOM     70  F   UNL     1      12.679   5.887 -10.880  1.00  0.00    -0.200 F 
ATOM     71  F   UNL     1      12.892   4.590 -13.269  1.00  0.00    -0.200 F 
ENDBRANCH  47  61
BRANCH  48  72
ATOM     72  C   UNL     1       0.501   9.951  -9.078  1.00  0.00     0.064 A 
ATOM     73  C   UNL     1      -0.288  10.751  -9.918  1.00  0.00     0.173 A 
ATOM     74  C   UNL     1       0.035   9.716  -7.776  1.00  0.00     0.173 A 
ATOM     75  F   UNL     1       0.125  11.022 -11.164  1.00  0.00    -0.203 F 
ATOM     76  C   UNL     1      -1.480  11.313  -9.466  1.00  0.00     0.198 A 
ATOM     77  C   UNL     1      -1.173  10.254  -7.336  1.00  0.00     0.198 A 
ATOM     78  F   UNL     1       0.748   8.955  -6.934  1.00  0.00    -0.203 F 
ATOM     79  F   UNL     1      -2.188  12.115 -10.273  1.00  0.00    -0.200 F 
ATOM     80  C   UNL     1      -1.925  11.059  -8.178  1.00  0.00     0.200 A 
ATOM     81  F   UNL     1      -1.607   9.993  -6.095  1.00  0.00    -0.200 F 
ATOM     82  F   UNL     1      -3.073  11.598  -7.744  1.00  0.00    -0.200 F 
ENDBRANCH  48  72
BRANCH  60  83
ATOM     83  C   UNL     1       6.581  12.819 -10.910  1.00  0.00     0.064 A 
ATOM     84  C   UNL     1       6.812  13.592  -9.762  1.00  0.00     0.173 A 
ATOM     85  C   UNL     1       6.834  13.407 -12.159  1.00  0.00     0.173 A 
ATOM     86  F   UNL     1       6.570  13.082  -8.545  1.00  0.00    -0.203 F 
ATOM     87  C   UNL     1       7.251  14.909  -9.863  1.00  0.00     0.198 A 
ATOM     88  C   UNL     1       7.305  14.713 -12.255  1.00  0.00     0.198 A 
ATOM     89  F   UNL     1       6.637  12.709 -13.287  1.00  0.00    -0.203 F 
ATOM     90  F   UNL     1       7.415  15.645  -8.755  1.00  0.00    -0.200 F 
ATOM     91  C   UNL     1       7.505  15.466 -11.108  1.00  0.00     0.200 A 
ATOM     92  F   UNL     1       7.565  15.244 -13.458  1.00  0.00    -0.200 F 
ATOM     93  F   UNL     1       7.936  16.731 -11.202  1.00  0.00    -0.200 F 
ENDBRANCH  60  83
ENDBRANCH  34  35
ENDBRANCH  26  29
ENDBRANCH  24  25
ENDBRANCH  23  24
ENDBRANCH  22  23
ENDBRANCH  21  22
ENDBRANCH   1  21
TORSDOF 18
