REMARK SMILES O=C(NCCCCCCNC(=O)c1sccc1S(=O)(=O)Nc1ccc(Cn2cncn2)cc1)c1ccc(-c2c3nc(c(-c4c(F)c(F)c(F)c(F)c4F)c4ccc([nH]4)c(-c4c(F)c(F)c(F)c(F)c4F)c4nc(c(-c5c(F)c(F)c(F)c(F)c5F)c5ccc2[nH]5)C=C4)C=C3)cc1
REMARK SMILES IDX 8 1 7 2 6 3 5 4 4 5 3 6 1 7 2 8 34 10 35 11 96 12 36 13
REMARK SMILES IDX 95 14 37 15 38 16 39 17 89 18 40 19 94 20 88 21 90 22 41 23
REMARK SMILES IDX 93 24 87 25 86 26 42 28 74 29 54 30 73 31 55 32 58 33 72 34
REMARK SMILES IDX 91 35 56 36 57 37 71 39 92 40 59 41 43 42 44 43 52 44 45 45
REMARK SMILES IDX 46 46 50 47 53 48 47 49 48 50 51 51 49 52 75 53 76 54 84 55
REMARK SMILES IDX 77 56 78 57 82 58 85 59 79 60 80 61 83 62 81 63 60 64 61 65
REMARK SMILES IDX 69 66 62 67 63 68 67 69 70 70 64 71 65 72 68 73 66 74 9 75
REMARK SMILES IDX 10 76 11 77 12 79 13 80 14 81 17 82 15 83 16 84 18 85 19 86
REMARK SMILES IDX 20 87 21 88 22 90 23 91 33 92 24 93 32 94 25 95 26 96 27 97
REMARK SMILES IDX 28 98 31 99 29 100 30 101
REMARK H PARENT 3 9 90 27 58 38 10 78 21 89
REMARK Flexibility Score: inf
ROOT
ATOM      1  C   UNL     1       6.538   2.405  -3.030  1.00  0.00     0.021 C 
ENDROOT
BRANCH   1   2
ATOM      2  C   UNL     1       5.042   2.172  -3.288  1.00  0.00     0.002 C 
BRANCH   2   3
ATOM      3  C   UNL     1       4.594   0.712  -3.190  1.00  0.00     0.002 C 
BRANCH   3   4
ATOM      4  C   UNL     1       4.981   0.003  -1.891  1.00  0.00     0.021 C 
BRANCH   4   5
ATOM      5  C   UNL     1       4.728   0.817  -0.618  1.00  0.00     0.116 C 
BRANCH   5   6
ATOM      6  N   UNL     1       3.342   1.166  -0.413  1.00  0.00    -0.352 N 
ATOM      7  O   UNL     1       1.231   1.151   0.240  1.00  0.00    -0.269 OA
ATOM      8  C   UNL     1       2.269   0.500   0.103  1.00  0.00     0.251 C 
ATOM      9  H   UNL     1       3.125   2.080  -0.709  1.00  0.00     0.163 HD
BRANCH   8  10
ATOM     10  C   UNL     1       2.264  -0.947   0.442  1.00  0.00     0.039 A 
ATOM     11  C   UNL     1       3.383  -1.785   0.458  1.00  0.00     0.014 A 
ATOM     12  C   UNL     1       1.006  -1.502   0.728  1.00  0.00     0.014 A 
ATOM     13  C   UNL     1       3.247  -3.152   0.645  1.00  0.00     0.010 A 
ATOM     14  C   UNL     1       0.866  -2.863   0.958  1.00  0.00     0.010 A 
ATOM     15  C   UNL     1       1.986  -3.689   0.871  1.00  0.00    -0.014 A 
BRANCH  15  16
ATOM     16  C   UNL     1       1.898  -5.122   1.120  1.00  0.00     0.031 A 
ATOM     17  C   UNL     1       2.532  -5.609   2.386  1.00  0.00     0.074 A 
ATOM     18  C   UNL     1       1.135  -5.909   0.339  1.00  0.00     0.049 A 
ATOM     19  N   UNL     1       3.276  -6.653   2.584  1.00  0.00    -0.248 NA
ATOM     20  C   UNL     1       2.339  -4.783   3.593  1.00  0.00     0.031 C 
ATOM     21  C   UNL     1       0.245  -5.494  -0.750  1.00  0.00     0.029 A 
ATOM     22  N   UNL     1       0.884  -7.242   0.454  1.00  0.00    -0.354 N 
ATOM     23  C   UNL     1       3.519  -6.700   3.960  1.00  0.00     0.074 A 
ATOM     24  C   UNL     1       3.002  -5.478   4.514  1.00  0.00     0.031 C 
ATOM     25  C   UNL     1      -0.618  -6.497  -1.020  1.00  0.00     0.029 A 
ATOM     26  C   UNL     1      -0.262  -7.649  -0.209  1.00  0.00     0.049 A 
ATOM     27  H   UNL     1       1.462  -7.857   0.961  1.00  0.00     0.167 HD
ATOM     28  C   UNL     1       3.964  -7.823   4.588  1.00  0.00     0.037 A 
ATOM     29  C   UNL     1      -0.935  -8.807  -0.015  1.00  0.00     0.037 A 
ATOM     30  C   UNL     1       4.669  -8.695   3.692  1.00  0.00     0.049 A 
ATOM     31  C   UNL     1      -0.029  -9.753   0.679  1.00  0.00     0.074 A 
ATOM     32  C   UNL     1       5.817  -8.582   2.931  1.00  0.00     0.029 A 
ATOM     33  N   UNL     1       4.049  -9.832   3.241  1.00  0.00    -0.354 N 
ATOM     34  N   UNL     1       1.034 -10.284   0.141  1.00  0.00    -0.248 NA
ATOM     35  C   UNL     1      -0.080  -9.793   2.133  1.00  0.00     0.031 C 
ATOM     36  C   UNL     1       5.560  -9.347   1.756  1.00  0.00     0.029 A 
ATOM     37  C   UNL     1       4.283  -9.892   1.893  1.00  0.00     0.049 A 
ATOM     38  H   UNL     1       3.537 -10.478   3.780  1.00  0.00     0.167 HD
ATOM     39  C   UNL     1       1.956 -10.357   1.175  1.00  0.00     0.074 A 
ATOM     40  C   UNL     1       1.184 -10.133   2.393  1.00  0.00     0.031 C 
ATOM     41  C   UNL     1       3.298 -10.315   0.930  1.00  0.00     0.037 A 
BRANCH  28  42
ATOM     42  C   UNL     1       3.475  -8.276   5.944  1.00  0.00     0.064 A 
ATOM     43  C   UNL     1       4.074  -9.394   6.561  1.00  0.00     0.173 A 
ATOM     44  C   UNL     1       2.251  -7.856   6.510  1.00  0.00     0.173 A 
ATOM     45  F   UNL     1       5.234  -9.889   6.102  1.00  0.00    -0.203 F 
ATOM     46  C   UNL     1       3.448 -10.091   7.598  1.00  0.00     0.198 A 
ATOM     47  C   UNL     1       1.655  -8.524   7.579  1.00  0.00     0.198 A 
ATOM     48  F   UNL     1       1.530  -6.858   5.987  1.00  0.00    -0.203 F 
ATOM     49  F   UNL     1       3.992 -11.225   8.061  1.00  0.00    -0.200 F 
ATOM     50  C   UNL     1       2.233  -9.662   8.099  1.00  0.00     0.200 A 
ATOM     51  F   UNL     1       0.470  -8.099   8.043  1.00  0.00    -0.200 F 
ATOM     52  F   UNL     1       1.598 -10.367   9.044  1.00  0.00    -0.200 F 
ENDBRANCH  28  42
BRANCH  29  53
ATOM     53  C   UNL     1      -2.401  -9.002  -0.084  1.00  0.00     0.064 A 
ATOM     54  C   UNL     1      -2.958 -10.278  -0.248  1.00  0.00     0.173 A 
ATOM     55  C   UNL     1      -3.295  -7.965   0.252  1.00  0.00     0.173 A 
ATOM     56  F   UNL     1      -2.167 -11.329  -0.511  1.00  0.00    -0.203 F 
ATOM     57  C   UNL     1      -4.329 -10.503  -0.084  1.00  0.00     0.198 A 
ATOM     58  C   UNL     1      -4.663  -8.187   0.401  1.00  0.00     0.198 A 
ATOM     59  F   UNL     1      -2.847  -6.732   0.533  1.00  0.00    -0.203 F 
ATOM     60  F   UNL     1      -4.820 -11.745  -0.196  1.00  0.00    -0.200 F 
ATOM     61  C   UNL     1      -5.179  -9.458   0.242  1.00  0.00     0.200 A 
ATOM     62  F   UNL     1      -5.466  -7.173   0.754  1.00  0.00    -0.200 F 
ATOM     63  F   UNL     1      -6.484  -9.682   0.445  1.00  0.00    -0.200 F 
ENDBRANCH  29  53
BRANCH  41  64
ATOM     64  C   UNL     1       3.753 -10.430  -0.495  1.00  0.00     0.064 A 
ATOM     65  C   UNL     1       3.462  -9.466  -1.475  1.00  0.00     0.173 A 
ATOM     66  C   UNL     1       4.641 -11.455  -0.840  1.00  0.00     0.173 A 
ATOM     67  F   UNL     1       2.716  -8.394  -1.186  1.00  0.00    -0.203 F 
ATOM     68  C   UNL     1       3.998  -9.554  -2.758  1.00  0.00     0.198 A 
ATOM     69  C   UNL     1       5.204 -11.521  -2.112  1.00  0.00     0.198 A 
ATOM     70  F   UNL     1       5.008 -12.364   0.077  1.00  0.00    -0.203 F 
ATOM     71  F   UNL     1       3.699  -8.623  -3.677  1.00  0.00    -0.200 F 
ATOM     72  C   UNL     1       4.874 -10.578  -3.073  1.00  0.00     0.200 A 
ATOM     73  F   UNL     1       6.095 -12.481  -2.397  1.00  0.00    -0.200 F 
ATOM     74  F   UNL     1       5.427 -10.638  -4.293  1.00  0.00    -0.200 F 
ENDBRANCH  41  64
ENDBRANCH  15  16
ENDBRANCH   8  10
ENDBRANCH   5   6
ENDBRANCH   4   5
ENDBRANCH   3   4
ENDBRANCH   2   3
ENDBRANCH   1   2
BRANCH   1  75
ATOM     75  C   UNL     1       7.433   1.916  -4.160  1.00  0.00     0.116 C 
BRANCH  75  76
ATOM     76  N   UNL     1       7.292   2.785  -5.303  1.00  0.00    -0.351 N 
ATOM     77  C   UNL     1       8.190   3.096  -6.279  1.00  0.00     0.262 C 
ATOM     78  H   UNL     1       6.412   3.220  -5.391  1.00  0.00     0.163 HD
ATOM     79  O   UNL     1       7.915   4.070  -6.983  1.00  0.00    -0.268 OA
BRANCH  77  80
ATOM     80  C   UNL     1       9.421   2.354  -6.391  1.00  0.00     0.112 A 
ATOM     81  S   UNL     1      10.835   3.357  -6.407  1.00  0.00    -0.137 S 
ATOM     82  C   UNL     1       9.755   1.016  -6.523  1.00  0.00     0.111 A 
ATOM     83  C   UNL     1      11.884   2.026  -6.460  1.00  0.00     0.067 A 
ATOM     84  C   UNL     1      11.191   0.844  -6.513  1.00  0.00     0.035 A 
BRANCH  82  85
ATOM     85  S   UNL     1       8.782  -0.421  -6.621  1.00  0.00     0.263 S 
ATOM     86  O   UNL     1       9.462  -1.188  -7.646  1.00  0.00    -0.201 OA
ATOM     87  O   UNL     1       8.797  -0.887  -5.248  1.00  0.00    -0.201 OA
BRANCH  85  88
ATOM     88  N   UNL     1       7.176  -0.416  -7.048  1.00  0.00    -0.280 N 
ATOM     89  H   UNL     1       6.673  -1.249  -6.896  1.00  0.00     0.180 HD
BRANCH  88  90
ATOM     90  C   UNL     1       6.465   0.662  -7.605  1.00  0.00     0.049 A 
ATOM     91  C   UNL     1       5.229   0.964  -7.031  1.00  0.00     0.027 A 
ATOM     92  C   UNL     1       6.944   1.421  -8.662  1.00  0.00     0.027 A 
ATOM     93  C   UNL     1       4.579   2.152  -7.352  1.00  0.00     0.008 A 
ATOM     94  C   UNL     1       6.280   2.603  -9.005  1.00  0.00     0.008 A 
ATOM     95  C   UNL     1       5.140   3.021  -8.294  1.00  0.00    -0.026 A 
BRANCH  95  96
ATOM     96  C   UNL     1       4.639   4.439  -8.435  1.00  0.00     0.181 C 
BRANCH  96  97
ATOM     97  N   UNL     1       3.270   4.515  -8.899  1.00  0.00    -0.249 N 
ATOM     98  C   UNL     1       2.135   4.504  -8.147  1.00  0.00     0.220 A 
ATOM     99  N   UNL     1       2.986   4.747 -10.195  1.00  0.00    -0.160 NA
ATOM    100  N   UNL     1       1.092   4.684  -8.922  1.00  0.00    -0.224 NA
ATOM    101  C   UNL     1       1.654   4.831 -10.159  1.00  0.00     0.246 A 
ENDBRANCH  96  97
ENDBRANCH  95  96
ENDBRANCH  88  90
ENDBRANCH  85  88
ENDBRANCH  82  85
ENDBRANCH  77  80
ENDBRANCH  75  76
ENDBRANCH   1  75
TORSDOF 18
