REMARK SMILES CC(C)[NH2+]CCCC(=O)N1Cc2nc[nH]c2C[C@@H]1C(=O)NCCCCCCNC(=O)c1ccc(-c2c3nc(c(-c4c(F)c(F)c(F)c(F)c4F)c4ccc([nH]4)c(-c4c(F)c(F)c(F)c(F)c4F)c4nc(c(-c5c(F)c(F)c(F)c(F)c5F)c5ccc2[nH]5)C=C4)C=C3)cc1
REMARK SMILES IDX 22 1 21 2 19 3 20 4 18 6 10 7 11 8 12 9 17 10 13 11 16 12
REMARK SMILES IDX 14 13 15 14 8 16 9 17 7 18 6 19 5 20 4 21 2 24 1 25 3 26
REMARK SMILES IDX 23 27 24 28 25 29 26 30 27 31 28 32 29 33 30 35 31 36 32 37
REMARK SMILES IDX 93 38 33 39 92 40 34 41 35 42 36 43 86 44 37 45 91 46 85 47
REMARK SMILES IDX 87 48 38 49 90 50 84 51 83 52 39 54 71 55 51 56 70 57 52 58
REMARK SMILES IDX 55 59 69 60 88 61 53 62 54 63 68 65 89 66 56 67 40 68 41 69
REMARK SMILES IDX 49 70 42 71 43 72 47 73 50 74 44 75 45 76 48 77 46 78 72 79
REMARK SMILES IDX 73 80 81 81 74 82 75 83 79 84 82 85 76 86 77 87 80 88 78 89
REMARK SMILES IDX 57 90 58 91 66 92 59 93 60 94 64 95 67 96 61 97 62 98 65 99
REMARK SMILES IDX 63 100
REMARK H PARENT 21 5 15 15 4 22 4 23 28 34 87 53 55 64
REMARK Flexibility Score: inf
ROOT
ATOM      1  C   UNL     1      -1.377   0.415  -4.287  1.00  0.00     0.116 C 
ENDROOT
BRANCH   1   2
ATOM      2  N   UNL     1      -1.561  -1.026  -4.426  1.00  0.00    -0.354 N 
ATOM      3  C   UNL     1      -2.500  -1.874  -3.894  1.00  0.00     0.243 C 
ATOM      4  O   UNL     1      -2.517  -3.038  -4.298  1.00  0.00    -0.273 OA
ATOM      5  H   UNL     1      -0.894  -1.467  -5.001  1.00  0.00     0.163 HD
BRANCH   3   6
ATOM      6  C   UNL     1      -3.525  -1.348  -2.877  1.00  0.00     0.180 C 
ATOM      7  N   UNL     1      -3.875  -2.164  -1.653  1.00  0.00    -0.324 N 
ATOM      8  C   UNL     1      -4.881  -1.593  -0.723  1.00  0.00     0.178 C 
ATOM      9  C   UNL     1      -5.838  -0.701  -1.438  1.00  0.00     0.081 A 
ATOM     10  C   UNL     1      -4.773  -0.946  -3.713  1.00  0.00     0.091 C 
ATOM     11  N   UNL     1      -6.852   0.005  -0.845  1.00  0.00    -0.240 NA
ATOM     12  C   UNL     1      -5.782  -0.409  -2.780  1.00  0.00     0.042 A 
ATOM     13  C   UNL     1      -7.416   0.685  -1.821  1.00  0.00     0.197 A 
ATOM     14  N   UNL     1      -6.796   0.465  -3.024  1.00  0.00    -0.348 N 
ATOM     15  H   UNL     1      -7.037   0.862  -3.892  1.00  0.00     0.167 HD
BRANCH   7  16
ATOM     16  C   UNL     1      -3.556  -3.492  -1.432  1.00  0.00     0.223 C 
ATOM     17  O   UNL     1      -4.450  -4.336  -1.295  1.00  0.00    -0.275 OA
BRANCH  16  18
ATOM     18  C   UNL     1      -2.161  -3.838  -0.882  1.00  0.00     0.106 C 
BRANCH  18  19
ATOM     19  C   UNL     1      -0.901  -3.251  -1.485  1.00  0.00     0.071 C 
BRANCH  19  20
ATOM     20  C   UNL     1      -0.710  -1.763  -1.238  1.00  0.00     0.261 C 
BRANCH  20  21
ATOM     21  N   UNL     1      -0.086  -1.335  -0.000  1.00  0.00    -0.344 N 
ATOM     22  H   UNL     1      -0.582  -0.515   0.347  1.00  0.00     0.346 HD
ATOM     23  H   UNL     1      -0.138  -2.117   0.653  1.00  0.00     0.346 HD
BRANCH  21  24
ATOM     24  C   UNL     1       1.326  -0.993  -0.161  1.00  0.00     0.176 C 
ATOM     25  C   UNL     1       1.698   0.009   0.926  1.00  0.00     0.075 C 
ATOM     26  C   UNL     1       2.196  -2.243  -0.132  1.00  0.00     0.075 C 
ENDBRANCH  21  24
ENDBRANCH  20  21
ENDBRANCH  19  20
ENDBRANCH  18  19
ENDBRANCH  16  18
ENDBRANCH   7  16
ENDBRANCH   3   6
ENDBRANCH   1   2
BRANCH   1  27
ATOM     27  C   UNL     1      -0.120   0.830  -3.511  1.00  0.00     0.021 C 
BRANCH  27  28
ATOM     28  C   UNL     1       1.188   0.161  -3.962  1.00  0.00     0.002 C 
BRANCH  28  29
ATOM     29  C   UNL     1       1.645   0.497  -5.386  1.00  0.00     0.002 C 
BRANCH  29  30
ATOM     30  C   UNL     1       1.797   1.991  -5.699  1.00  0.00     0.021 C 
BRANCH  30  31
ATOM     31  C   UNL     1       2.882   2.679  -4.884  1.00  0.00     0.116 C 
BRANCH  31  32
ATOM     32  N   UNL     1       4.225   2.359  -5.361  1.00  0.00    -0.352 N 
ATOM     33  C   UNL     1       5.418   2.939  -4.968  1.00  0.00     0.251 C 
ATOM     34  H   UNL     1       4.289   1.648  -6.039  1.00  0.00     0.163 HD
ATOM     35  O   UNL     1       6.402   2.913  -5.685  1.00  0.00    -0.269 OA
BRANCH  33  36
ATOM     36  C   UNL     1       5.481   3.573  -3.638  1.00  0.00     0.039 A 
ATOM     37  C   UNL     1       6.214   4.744  -3.422  1.00  0.00     0.014 A 
ATOM     38  C   UNL     1       4.797   2.957  -2.592  1.00  0.00     0.014 A 
ATOM     39  C   UNL     1       6.210   5.311  -2.150  1.00  0.00     0.010 A 
ATOM     40  C   UNL     1       4.667   3.594  -1.387  1.00  0.00     0.010 A 
ATOM     41  C   UNL     1       5.428   4.729  -1.139  1.00  0.00    -0.014 A 
BRANCH  41  42
ATOM     42  C   UNL     1       5.283   5.368   0.163  1.00  0.00     0.031 A 
ATOM     43  C   UNL     1       4.756   6.758   0.089  1.00  0.00     0.074 A 
ATOM     44  C   UNL     1       5.379   4.682   1.324  1.00  0.00     0.049 A 
ATOM     45  N   UNL     1       5.348   7.848   0.449  1.00  0.00    -0.248 NA
ATOM     46  C   UNL     1       3.473   6.979  -0.604  1.00  0.00     0.031 C 
ATOM     47  C   UNL     1       5.572   3.240   1.520  1.00  0.00     0.029 A 
ATOM     48  N   UNL     1       5.217   5.127   2.600  1.00  0.00    -0.354 N 
ATOM     49  C   UNL     1       4.431   8.871   0.225  1.00  0.00     0.074 A 
ATOM     50  C   UNL     1       3.389   8.310  -0.593  1.00  0.00     0.031 C 
ATOM     51  C   UNL     1       5.276   2.908   2.797  1.00  0.00     0.029 A 
ATOM     52  C   UNL     1       5.038   4.123   3.550  1.00  0.00     0.049 A 
ATOM     53  H   UNL     1       5.224   6.083   2.833  1.00  0.00     0.167 HD
ATOM     54  C   UNL     1       4.474  10.013   0.965  1.00  0.00     0.037 A 
ATOM     55  C   UNL     1       4.681   4.299   4.849  1.00  0.00     0.037 A 
ATOM     56  C   UNL     1       5.770  10.182   1.576  1.00  0.00     0.049 A 
ATOM     57  C   UNL     1       4.961   5.718   5.188  1.00  0.00     0.074 A 
ATOM     58  C   UNL     1       7.063  10.263   1.090  1.00  0.00     0.029 A 
ATOM     59  N   UNL     1       5.905   9.883   2.910  1.00  0.00    -0.354 N 
ATOM     60  N   UNL     1       6.161   6.221   5.260  1.00  0.00    -0.248 NA
ATOM     61  C   UNL     1       3.888   6.675   4.964  1.00  0.00     0.031 C 
ATOM     62  C   UNL     1       7.849   9.502   2.007  1.00  0.00     0.029 A 
ATOM     63  C   UNL     1       7.011   9.082   3.040  1.00  0.00     0.049 A 
ATOM     64  H   UNL     1       5.316  10.187   3.639  1.00  0.00     0.167 HD
ATOM     65  C   UNL     1       6.054   7.464   4.656  1.00  0.00     0.074 A 
ATOM     66  C   UNL     1       4.617   7.714   4.547  1.00  0.00     0.031 C 
ATOM     67  C   UNL     1       7.122   8.038   4.029  1.00  0.00     0.037 A 
BRANCH  54  68
ATOM     68  C   UNL     1       3.242  10.740   1.458  1.00  0.00     0.064 A 
ATOM     69  C   UNL     1       3.401  11.957   2.152  1.00  0.00     0.173 A 
ATOM     70  C   UNL     1       1.958  10.156   1.550  1.00  0.00     0.173 A 
ATOM     71  F   UNL     1       4.581  12.594   2.153  1.00  0.00    -0.203 F 
ATOM     72  C   UNL     1       2.382  12.494   2.945  1.00  0.00     0.198 A 
ATOM     73  C   UNL     1       0.929  10.725   2.297  1.00  0.00     0.198 A 
ATOM     74  F   UNL     1       1.672   8.961   1.023  1.00  0.00    -0.203 F 
ATOM     75  F   UNL     1       2.626  13.579   3.693  1.00  0.00    -0.200 F 
ATOM     76  C   UNL     1       1.149  11.874   3.022  1.00  0.00     0.200 A 
ATOM     77  F   UNL     1      -0.253  10.095   2.373  1.00  0.00    -0.200 F 
ATOM     78  F   UNL     1       0.194  12.351   3.831  1.00  0.00    -0.200 F 
ENDBRANCH  54  68
BRANCH  55  79
ATOM     79  C   UNL     1       3.811   3.455   5.709  1.00  0.00     0.064 A 
ATOM     80  C   UNL     1       3.733   3.688   7.095  1.00  0.00     0.173 A 
ATOM     81  C   UNL     1       2.814   2.627   5.160  1.00  0.00     0.173 A 
ATOM     82  F   UNL     1       4.621   4.493   7.694  1.00  0.00    -0.203 F 
ATOM     83  C   UNL     1       2.692   3.167   7.872  1.00  0.00     0.198 A 
ATOM     84  C   UNL     1       1.779   2.103   5.939  1.00  0.00     0.198 A 
ATOM     85  F   UNL     1       2.763   2.392   3.841  1.00  0.00    -0.203 F 
ATOM     86  F   UNL     1       2.610   3.476   9.174  1.00  0.00    -0.200 F 
ATOM     87  C   UNL     1       1.707   2.388   7.290  1.00  0.00     0.200 A 
ATOM     88  F   UNL     1       0.812   1.378   5.357  1.00  0.00    -0.200 F 
ATOM     89  F   UNL     1       0.670   1.950   8.017  1.00  0.00    -0.200 F 
ENDBRANCH  55  79
BRANCH  67  90
ATOM     90  C   UNL     1       8.475   7.407   4.218  1.00  0.00     0.064 A 
ATOM     91  C   UNL     1       8.803   6.092   3.841  1.00  0.00     0.173 A 
ATOM     92  C   UNL     1       9.519   8.215   4.689  1.00  0.00     0.173 A 
ATOM     93  F   UNL     1       7.891   5.284   3.286  1.00  0.00    -0.203 F 
ATOM     94  C   UNL     1      10.101   5.599   3.978  1.00  0.00     0.198 A 
ATOM     95  C   UNL     1      10.821   7.733   4.788  1.00  0.00     0.198 A 
ATOM     96  F   UNL     1       9.282   9.495   5.014  1.00  0.00    -0.203 F 
ATOM     97  F   UNL     1      10.381   4.334   3.627  1.00  0.00    -0.200 F 
ATOM     98  C   UNL     1      11.110   6.423   4.446  1.00  0.00     0.200 A 
ATOM     99  F   UNL     1      11.803   8.550   5.194  1.00  0.00    -0.200 F 
ATOM    100  F   UNL     1      12.365   5.962   4.544  1.00  0.00    -0.200 F 
ENDBRANCH  67  90
ENDBRANCH  41  42
ENDBRANCH  33  36
ENDBRANCH  31  32
ENDBRANCH  30  31
ENDBRANCH  29  30
ENDBRANCH  28  29
ENDBRANCH  27  28
ENDBRANCH   1  27
TORSDOF 19
