REMARK SMILES C/C=C/C[C@H](Cc1cccc(F)c1)C(=O)NCCCCCCNC(=O)c1ccc(-c2c3nc(c(-c4c(F)c(F)c(F)c(F)c4F)c4ccc([nH]4)c(-c4c(F)c(F)c(F)c(F)c4F)c4nc(c(-c5c(F)c(F)c(F)c(F)c5F)c5ccc2[nH]5)C=C4)C=C3)cc1
REMARK SMILES IDX 19 1 18 2 17 3 16 4 14 5 15 6 5 8 4 9 3 10 1 11 2 12 6 13
REMARK SMILES IDX 7 14 8 15 13 16 9 17 11 18 10 19 12 20 20 21 21 22 22 23
REMARK SMILES IDX 23 24 24 25 25 27 26 28 27 29 88 30 28 31 87 32 29 33 30 34
REMARK SMILES IDX 31 35 81 36 32 37 86 38 80 39 82 40 33 41 85 42 79 43 78 44
REMARK SMILES IDX 34 46 66 47 46 48 65 49 47 50 50 51 64 52 83 53 48 54 49 55
REMARK SMILES IDX 63 57 84 58 51 59 35 60 36 61 44 62 37 63 38 64 42 65 45 66
REMARK SMILES IDX 39 67 40 68 43 69 41 70 67 71 68 72 76 73 69 74 70 75 74 76
REMARK SMILES IDX 77 77 71 78 72 79 75 80 73 81 52 82 53 83 61 84 54 85 55 86
REMARK SMILES IDX 59 87 62 88 56 89 57 90 60 91 58 92
REMARK H PARENT 16 7 23 26 82 45 50 56
REMARK Flexibility Score: inf
ROOT
ATOM      1  C   UNL     1      -4.862  -0.469  -6.367  1.00  0.00     0.002 C 
ENDROOT
BRANCH   1   2
ATOM      2  C   UNL     1      -4.092  -0.462  -5.044  1.00  0.00     0.021 C 
BRANCH   2   3
ATOM      3  C   UNL     1      -3.219  -1.690  -4.811  1.00  0.00     0.116 C 
BRANCH   3   4
ATOM      4  N   UNL     1      -2.061  -1.715  -5.681  1.00  0.00    -0.356 N 
ATOM      5  C   UNL     1      -0.742  -1.891  -5.387  1.00  0.00     0.223 C 
ATOM      6  O   UNL     1       0.050  -1.941  -6.332  1.00  0.00    -0.275 OA
ATOM      7  H   UNL     1      -2.259  -1.584  -6.636  1.00  0.00     0.163 HD
BRANCH   5   8
ATOM      8  C   UNL     1      -0.245  -2.041  -3.950  1.00  0.00     0.086 C 
BRANCH   8   9
ATOM      9  C   UNL     1      -0.832  -3.329  -3.304  1.00  0.00     0.040 C 
BRANCH   9  10
ATOM     10  C   UNL     1      -1.384  -3.187  -1.910  1.00  0.00    -0.031 C 
ATOM     11  C   UNL     1      -3.228  -3.111  -0.220  1.00  0.00     0.035 C 
ATOM     12  C   UNL     1      -2.677  -3.347  -1.588  1.00  0.00    -0.035 C 
ENDBRANCH   9  10
ENDBRANCH   8   9
BRANCH   8  13
ATOM     13  C   UNL     1      -0.404  -0.724  -3.156  1.00  0.00     0.049 C 
BRANCH  13  14
ATOM     14  C   UNL     1       0.551   0.419  -3.447  1.00  0.00    -0.044 A 
ATOM     15  C   UNL     1       0.110   1.736  -3.218  1.00  0.00     0.004 A 
ATOM     16  C   UNL     1       1.895   0.223  -3.787  1.00  0.00     0.043 A 
ATOM     17  C   UNL     1       0.982   2.823  -3.331  1.00  0.00     0.003 A 
ATOM     18  C   UNL     1       2.757   1.312  -3.899  1.00  0.00     0.123 A 
ATOM     19  C   UNL     1       2.314   2.608  -3.671  1.00  0.00     0.039 A 
ATOM     20  F   UNL     1       4.044   1.103  -4.204  1.00  0.00    -0.207 F 
ENDBRANCH  13  14
ENDBRANCH   8  13
ENDBRANCH   5   8
ENDBRANCH   3   4
ENDBRANCH   2   3
ENDBRANCH   1   2
BRANCH   1  21
ATOM     21  C   UNL     1      -5.772  -1.681  -6.594  1.00  0.00     0.002 C 
BRANCH  21  22
ATOM     22  C   UNL     1      -6.765  -1.983  -5.468  1.00  0.00     0.021 C 
BRANCH  22  23
ATOM     23  C   UNL     1      -7.693  -0.831  -5.097  1.00  0.00     0.116 C 
BRANCH  23  24
ATOM     24  N   UNL     1      -8.543  -0.424  -6.204  1.00  0.00    -0.352 N 
ATOM     25  C   UNL     1      -9.902  -0.252  -6.240  1.00  0.00     0.251 C 
ATOM     26  H   UNL     1      -8.074  -0.245  -7.051  1.00  0.00     0.163 HD
ATOM     27  O   UNL     1     -10.472  -0.062  -7.315  1.00  0.00    -0.269 OA
BRANCH  25  28
ATOM     28  C   UNL     1     -10.695  -0.317  -4.995  1.00  0.00     0.039 A 
ATOM     29  C   UNL     1     -11.887  -1.045  -4.993  1.00  0.00     0.014 A 
ATOM     30  C   UNL     1     -10.278   0.349  -3.839  1.00  0.00     0.014 A 
ATOM     31  C   UNL     1     -12.632  -1.154  -3.817  1.00  0.00     0.010 A 
ATOM     32  C   UNL     1     -10.986   0.185  -2.650  1.00  0.00     0.010 A 
ATOM     33  C   UNL     1     -12.171  -0.566  -2.628  1.00  0.00    -0.014 A 
BRANCH  33  34
ATOM     34  C   UNL     1     -12.914  -0.730  -1.354  1.00  0.00     0.031 A 
ATOM     35  C   UNL     1     -13.535   0.461  -0.681  1.00  0.00     0.074 A 
ATOM     36  C   UNL     1     -12.983  -1.944  -0.776  1.00  0.00     0.049 A 
ATOM     37  N   UNL     1     -14.163   0.529   0.466  1.00  0.00    -0.248 NA
ATOM     38  C   UNL     1     -13.415   1.753  -1.375  1.00  0.00     0.031 C 
ATOM     39  C   UNL     1     -12.390  -3.169  -1.313  1.00  0.00     0.029 A 
ATOM     40  N   UNL     1     -13.578  -2.349   0.394  1.00  0.00    -0.354 N 
ATOM     41  C   UNL     1     -14.503   1.864   0.633  1.00  0.00     0.074 A 
ATOM     42  C   UNL     1     -13.969   2.583  -0.503  1.00  0.00     0.031 C 
ATOM     43  C   UNL     1     -12.673  -4.192  -0.492  1.00  0.00     0.029 A 
ATOM     44  C   UNL     1     -13.433  -3.691   0.650  1.00  0.00     0.049 A 
ATOM     45  H   UNL     1     -14.062  -1.735   0.993  1.00  0.00     0.167 HD
ATOM     46  C   UNL     1     -15.218   2.433   1.631  1.00  0.00     0.037 A 
ATOM     47  C   UNL     1     -13.861  -4.433   1.689  1.00  0.00     0.037 A 
ATOM     48  C   UNL     1     -15.774   1.710   2.744  1.00  0.00     0.049 A 
ATOM     49  C   UNL     1     -14.643  -3.774   2.792  1.00  0.00     0.074 A 
ATOM     50  C   UNL     1     -16.559   2.191   3.777  1.00  0.00     0.029 A 
ATOM     51  N   UNL     1     -15.607   0.351   2.967  1.00  0.00    -0.354 N 
ATOM     52  N   UNL     1     -14.999  -2.519   2.915  1.00  0.00    -0.248 NA
ATOM     53  C   UNL     1     -15.087  -4.634   3.898  1.00  0.00     0.031 C 
ATOM     54  C   UNL     1     -16.830   1.133   4.650  1.00  0.00     0.029 A 
ATOM     55  C   UNL     1     -16.258  -0.019   4.133  1.00  0.00     0.049 A 
ATOM     56  H   UNL     1     -15.102  -0.260   2.383  1.00  0.00     0.167 HD
ATOM     57  C   UNL     1     -15.725  -2.441   4.095  1.00  0.00     0.074 A 
ATOM     58  C   UNL     1     -15.770  -3.778   4.647  1.00  0.00     0.031 C 
ATOM     59  C   UNL     1     -16.300  -1.356   4.668  1.00  0.00     0.037 A 
BRANCH  46  60
ATOM     60  C   UNL     1     -15.459   3.913   1.566  1.00  0.00     0.064 A 
ATOM     61  C   UNL     1     -14.864   4.774   2.500  1.00  0.00     0.173 A 
ATOM     62  C   UNL     1     -16.338   4.471   0.626  1.00  0.00     0.173 A 
ATOM     63  F   UNL     1     -14.020   4.291   3.425  1.00  0.00    -0.203 F 
ATOM     64  C   UNL     1     -15.149   6.137   2.502  1.00  0.00     0.198 A 
ATOM     65  C   UNL     1     -16.599   5.838   0.612  1.00  0.00     0.198 A 
ATOM     66  F   UNL     1     -16.924   3.692  -0.295  1.00  0.00    -0.203 F 
ATOM     67  F   UNL     1     -14.594   6.935   3.424  1.00  0.00    -0.200 F 
ATOM     68  C   UNL     1     -16.013   6.668   1.556  1.00  0.00     0.200 A 
ATOM     69  F   UNL     1     -17.415   6.354  -0.317  1.00  0.00    -0.200 F 
ATOM     70  F   UNL     1     -16.280   7.981   1.554  1.00  0.00    -0.200 F 
ENDBRANCH  46  60
BRANCH  47  71
ATOM     71  C   UNL     1     -13.583  -5.892   1.711  1.00  0.00     0.064 A 
ATOM     72  C   UNL     1     -12.284  -6.388   1.898  1.00  0.00     0.173 A 
ATOM     73  C   UNL     1     -14.614  -6.821   1.512  1.00  0.00     0.173 A 
ATOM     74  F   UNL     1     -11.262  -5.540   2.087  1.00  0.00    -0.203 F 
ATOM     75  C   UNL     1     -12.025  -7.756   1.864  1.00  0.00     0.198 A 
ATOM     76  C   UNL     1     -14.357  -8.190   1.504  1.00  0.00     0.198 A 
ATOM     77  F   UNL     1     -15.875  -6.395   1.349  1.00  0.00    -0.203 F 
ATOM     78  F   UNL     1     -10.770  -8.202   2.009  1.00  0.00    -0.200 F 
ATOM     79  C   UNL     1     -13.062  -8.656   1.671  1.00  0.00     0.200 A 
ATOM     80  F   UNL     1     -15.366  -9.057   1.341  1.00  0.00    -0.200 F 
ATOM     81  F   UNL     1     -12.814  -9.973   1.648  1.00  0.00    -0.200 F 
ENDBRANCH  47  71
BRANCH  59  82
ATOM     82  C   UNL     1     -17.052  -1.560   5.950  1.00  0.00     0.064 A 
ATOM     83  C   UNL     1     -18.450  -1.442   5.979  1.00  0.00     0.173 A 
ATOM     84  C   UNL     1     -16.385  -1.786   7.162  1.00  0.00     0.173 A 
ATOM     85  F   UNL     1     -19.134  -1.216   4.847  1.00  0.00    -0.203 F 
ATOM     86  C   UNL     1     -19.151  -1.523   7.179  1.00  0.00     0.198 A 
ATOM     87  C   UNL     1     -17.091  -1.896   8.357  1.00  0.00     0.198 A 
ATOM     88  F   UNL     1     -15.050  -1.920   7.183  1.00  0.00    -0.203 F 
ATOM     89  F   UNL     1     -20.482  -1.369   7.189  1.00  0.00    -0.200 F 
ATOM     90  C   UNL     1     -18.471  -1.753   8.366  1.00  0.00     0.200 A 
ATOM     91  F   UNL     1     -16.436  -2.140   9.500  1.00  0.00    -0.200 F 
ATOM     92  F   UNL     1     -19.147  -1.838   9.520  1.00  0.00    -0.200 F 
ENDBRANCH  59  82
ENDBRANCH  33  34
ENDBRANCH  25  28
ENDBRANCH  23  24
ENDBRANCH  22  23
ENDBRANCH  21  22
ENDBRANCH   1  21
TORSDOF 17
