REMARK SMILES CCC[C@@H]1CCc2nc3c(F)cccc3c(C(=O)NCCCCCCNC(=O)c3ccc(-c4c5nc(c(-c6c(F)c(F)c(F)c(F)c6F)c6ccc([nH]6)c(-c6c(F)c(F)c(F)c(F)c6F)c6nc(c(-c7c(F)c(F)c(F)c(F)c7F)c7ccc4[nH]7)C=C6)C=C5)cc3)c2C1
REMARK SMILES IDX 22 1 21 2 20 3 19 4 17 5 18 6 16 8 4 9 5 10 93 11 6 12 92 13
REMARK SMILES IDX 7 14 8 15 15 16 9 17 14 18 10 19 13 20 11 21 12 22 3 23 2 24
REMARK SMILES IDX 1 25 23 26 24 27 25 28 26 29 27 30 28 32 29 33 30 34 91 35
REMARK SMILES IDX 31 36 90 37 32 38 33 39 34 40 84 41 35 42 89 43 83 44 85 45
REMARK SMILES IDX 36 46 88 47 82 48 81 49 37 51 69 52 49 53 68 54 50 55 53 56
REMARK SMILES IDX 67 57 86 58 51 59 52 60 66 62 87 63 54 64 38 65 39 66 47 67
REMARK SMILES IDX 40 68 41 69 45 70 48 71 42 72 43 73 46 74 44 75 70 76 71 77
REMARK SMILES IDX 79 78 72 79 73 80 77 81 80 82 74 83 75 84 78 85 76 86 55 87
REMARK SMILES IDX 56 88 64 89 57 90 58 91 62 92 65 93 59 94 60 95 63 96 61 97
REMARK H PARENT 19 7 26 31 85 50 53 61
REMARK Flexibility Score: inf
ROOT
ATOM      1  C   UNL     1      -3.276   3.380   5.145  1.00  0.00     0.002 C 
ENDROOT
BRANCH   1   2
ATOM      2  C   UNL     1      -3.080   1.887   5.423  1.00  0.00     0.021 C 
BRANCH   2   3
ATOM      3  C   UNL     1      -3.729   0.949   4.389  1.00  0.00     0.116 C 
BRANCH   3   4
ATOM      4  N   UNL     1      -2.799   0.717   3.299  1.00  0.00    -0.352 N 
ATOM      5  C   UNL     1      -1.666  -0.070   3.262  1.00  0.00     0.252 C 
ATOM      6  O   UNL     1      -0.663   0.463   2.788  1.00  0.00    -0.269 OA
ATOM      7  H   UNL     1      -3.008   1.191   2.461  1.00  0.00     0.163 HD
BRANCH   5   8
ATOM      8  C   UNL     1      -1.661  -1.541   3.600  1.00  0.00     0.054 A 
ATOM      9  C   UNL     1       0.438  -2.979   0.675  1.00  0.00    -0.006 C 
ATOM     10  C   UNL     1      -0.151  -4.396   0.676  1.00  0.00     0.010 C 
ATOM     11  C   UNL     1      -0.582  -2.011   1.298  1.00  0.00     0.042 C 
ATOM     12  C   UNL     1      -0.518  -4.843   2.085  1.00  0.00     0.057 C 
ATOM     13  C   UNL     1      -1.155  -2.445   2.627  1.00  0.00    -0.013 A 
ATOM     14  C   UNL     1      -1.245  -3.807   2.902  1.00  0.00     0.045 A 
ATOM     15  N   UNL     1      -1.878  -4.289   3.992  1.00  0.00    -0.249 NA
ATOM     16  C   UNL     1      -2.095  -2.056   4.852  1.00  0.00     0.016 A 
ATOM     17  C   UNL     1      -2.295  -3.445   4.947  1.00  0.00     0.107 A 
ATOM     18  C   UNL     1      -2.282  -1.300   6.034  1.00  0.00     0.011 A 
ATOM     19  C   UNL     1      -2.899  -3.958   6.097  1.00  0.00     0.149 A 
ATOM     20  C   UNL     1      -2.868  -1.830   7.182  1.00  0.00     0.004 A 
ATOM     21  F   UNL     1      -3.172  -5.271   6.181  1.00  0.00    -0.205 F 
ATOM     22  C   UNL     1      -3.222  -3.165   7.195  1.00  0.00     0.041 A 
BRANCH   9  23
ATOM     23  C   UNL     1       0.896  -2.595  -0.756  1.00  0.00     0.003 C 
BRANCH  23  24
ATOM     24  C   UNL     1       0.750  -1.133  -1.199  1.00  0.00    -0.003 C 
ATOM     25  C   UNL     1       1.689  -0.151  -0.516  1.00  0.00     0.004 C 
ENDBRANCH  23  24
ENDBRANCH   9  23
ENDBRANCH   5   8
ENDBRANCH   3   4
ENDBRANCH   2   3
ENDBRANCH   1   2
BRANCH   1  26
ATOM     26  C   UNL     1      -4.708   3.888   5.331  1.00  0.00     0.002 C 
BRANCH  26  27
ATOM     27  C   UNL     1      -5.370   3.479   6.649  1.00  0.00     0.021 C 
BRANCH  27  28
ATOM     28  C   UNL     1      -4.577   3.874   7.891  1.00  0.00     0.116 C 
BRANCH  28  29
ATOM     29  N   UNL     1      -4.577   5.314   8.085  1.00  0.00    -0.352 N 
ATOM     30  C   UNL     1      -5.284   6.039   9.010  1.00  0.00     0.251 C 
ATOM     31  H   UNL     1      -4.000   5.832   7.479  1.00  0.00     0.163 HD
ATOM     32  O   UNL     1      -5.398   7.256   8.916  1.00  0.00    -0.269 OA
BRANCH  30  33
ATOM     33  C   UNL     1      -5.916   5.321  10.131  1.00  0.00     0.039 A 
ATOM     34  C   UNL     1      -7.284   5.475  10.359  1.00  0.00     0.014 A 
ATOM     35  C   UNL     1      -5.143   4.479  10.938  1.00  0.00     0.014 A 
ATOM     36  C   UNL     1      -7.888   4.756  11.389  1.00  0.00     0.010 A 
ATOM     37  C   UNL     1      -5.758   3.718  11.925  1.00  0.00     0.010 A 
ATOM     38  C   UNL     1      -7.130   3.868  12.172  1.00  0.00    -0.014 A 
BRANCH  38  39
ATOM     39  C   UNL     1      -7.748   3.156  13.314  1.00  0.00     0.031 A 
ATOM     40  C   UNL     1      -7.391   3.572  14.713  1.00  0.00     0.074 A 
ATOM     41  C   UNL     1      -8.618   2.153  13.096  1.00  0.00     0.049 A 
ATOM     42  N   UNL     1      -7.832   3.104  15.852  1.00  0.00    -0.248 NA
ATOM     43  C   UNL     1      -6.397   4.651  14.852  1.00  0.00     0.031 C 
ATOM     44  C   UNL     1      -9.021   1.653  11.782  1.00  0.00     0.029 A 
ATOM     45  N   UNL     1      -9.329   1.380  13.980  1.00  0.00    -0.354 N 
ATOM     46  C   UNL     1      -7.186   3.843  16.834  1.00  0.00     0.074 A 
ATOM     47  C   UNL     1      -6.267   4.735  16.167  1.00  0.00     0.031 C 
ATOM     48  C   UNL     1      -9.934   0.680  11.944  1.00  0.00     0.029 A 
ATOM     49  C   UNL     1     -10.163   0.474  13.372  1.00  0.00     0.049 A 
ATOM     50  H   UNL     1      -9.248   1.466  14.957  1.00  0.00     0.167 HD
ATOM     51  C   UNL     1      -7.378   3.811  18.172  1.00  0.00     0.037 A 
ATOM     52  C   UNL     1     -11.023  -0.410  13.914  1.00  0.00     0.037 A 
ATOM     53  C   UNL     1      -8.305   2.935  18.832  1.00  0.00     0.049 A 
ATOM     54  C   UNL     1     -11.162  -0.472  15.413  1.00  0.00     0.074 A 
ATOM     55  C   UNL     1      -8.589   2.841  20.182  1.00  0.00     0.029 A 
ATOM     56  N   UNL     1      -9.102   2.003  18.185  1.00  0.00    -0.354 N 
ATOM     57  N   UNL     1     -10.591   0.272  16.328  1.00  0.00    -0.248 NA
ATOM     58  C   UNL     1     -12.068  -1.497  15.954  1.00  0.00     0.031 C 
ATOM     59  C   UNL     1      -9.535   1.828  20.356  1.00  0.00     0.029 A 
ATOM     60  C   UNL     1      -9.865   1.316  19.111  1.00  0.00     0.049 A 
ATOM     61  H   UNL     1      -9.121   1.853  17.212  1.00  0.00     0.167 HD
ATOM     62  C   UNL     1     -11.088  -0.172  17.546  1.00  0.00     0.074 A 
ATOM     63  C   UNL     1     -12.017  -1.243  17.254  1.00  0.00     0.031 C 
ATOM     64  C   UNL     1     -10.799   0.267  18.795  1.00  0.00     0.037 A 
BRANCH  51  65
ATOM     65  C   UNL     1      -6.603   4.782  19.009  1.00  0.00     0.064 A 
ATOM     66  C   UNL     1      -6.923   6.148  19.011  1.00  0.00     0.173 A 
ATOM     67  C   UNL     1      -5.582   4.342  19.862  1.00  0.00     0.173 A 
ATOM     68  F   UNL     1      -7.883   6.617  18.200  1.00  0.00    -0.203 F 
ATOM     69  C   UNL     1      -6.241   7.041  19.831  1.00  0.00     0.198 A 
ATOM     70  C   UNL     1      -4.918   5.235  20.700  1.00  0.00     0.198 A 
ATOM     71  F   UNL     1      -5.240   3.045  19.897  1.00  0.00    -0.203 F 
ATOM     72  F   UNL     1      -6.545   8.346  19.797  1.00  0.00    -0.200 F 
ATOM     73  C   UNL     1      -5.246   6.582  20.682  1.00  0.00     0.200 A 
ATOM     74  F   UNL     1      -3.963   4.790  21.529  1.00  0.00    -0.200 F 
ATOM     75  F   UNL     1      -4.602   7.441  21.484  1.00  0.00    -0.200 F 
ENDBRANCH  51  65
BRANCH  52  76
ATOM     76  C   UNL     1     -11.857  -1.278  13.041  1.00  0.00     0.064 A 
ATOM     77  C   UNL     1     -13.244  -1.090  12.964  1.00  0.00     0.173 A 
ATOM     78  C   UNL     1     -11.297  -2.320  12.289  1.00  0.00     0.173 A 
ATOM     79  F   UNL     1     -13.829  -0.119  13.681  1.00  0.00    -0.203 F 
ATOM     80  C   UNL     1     -14.042  -1.924  12.184  1.00  0.00     0.198 A 
ATOM     81  C   UNL     1     -12.093  -3.139  11.490  1.00  0.00     0.198 A 
ATOM     82  F   UNL     1      -9.975  -2.541  12.327  1.00  0.00    -0.203 F 
ATOM     83  F   UNL     1     -15.371  -1.750  12.164  1.00  0.00    -0.200 F 
ATOM     84  C   UNL     1     -13.466  -2.946  11.445  1.00  0.00     0.200 A 
ATOM     85  F   UNL     1     -11.531  -4.119  10.769  1.00  0.00    -0.200 F 
ATOM     86  F   UNL     1     -14.233  -3.750  10.697  1.00  0.00    -0.200 F 
ENDBRANCH  52  76
BRANCH  64  87
ATOM     87  C   UNL     1     -11.501  -0.389  19.945  1.00  0.00     0.064 A 
ATOM     88  C   UNL     1     -11.132  -1.666  20.388  1.00  0.00     0.173 A 
ATOM     89  C   UNL     1     -12.473   0.311  20.676  1.00  0.00     0.173 A 
ATOM     90  F   UNL     1     -10.215  -2.376  19.713  1.00  0.00    -0.203 F 
ATOM     91  C   UNL     1     -11.715  -2.223  21.522  1.00  0.00     0.198 A 
ATOM     92  C   UNL     1     -13.035  -0.239  21.825  1.00  0.00     0.198 A 
ATOM     93  F   UNL     1     -12.851   1.540  20.296  1.00  0.00    -0.203 F 
ATOM     94  F   UNL     1     -11.363  -3.454  21.918  1.00  0.00    -0.200 F 
ATOM     95  C   UNL     1     -12.655  -1.504  22.246  1.00  0.00     0.200 A 
ATOM     96  F   UNL     1     -13.930   0.463  22.533  1.00  0.00    -0.200 F 
ATOM     97  F   UNL     1     -13.196  -2.032  23.353  1.00  0.00    -0.200 F 
ENDBRANCH  64  87
ENDBRANCH  38  39
ENDBRANCH  30  33
ENDBRANCH  28  29
ENDBRANCH  27  28
ENDBRANCH  26  27
ENDBRANCH   1  26
TORSDOF 15
