REMARK SMILES O=C(/C=C/c1ccc(NC(=O)[C@@H]2COc3ccccc3C2)cc1)NCCCCCCNC(=O)c1ccc(-c2c3nc(c(-c4c(F)c(F)c(F)c(F)c4F)c4ccc([nH]4)c(-c4c(F)c(F)c(F)c(F)c4F)c4nc(c(-c5c(F)c(F)c(F)c(F)c5F)c5ccc2[nH]5)C=C4)C=C3)cc1
REMARK SMILES IDX 27 1 26 2 25 3 24 4 1 5 2 6 3 8 4 9 5 10 6 11 23 12 7 13
REMARK SMILES IDX 22 14 8 15 9 16 10 17 11 19 12 20 13 21 21 22 14 23 20 24
REMARK SMILES IDX 15 25 19 26 16 27 18 28 17 29 28 30 29 31 30 32 31 33 32 34
REMARK SMILES IDX 33 36 34 37 35 38 96 39 36 40 95 41 37 42 38 43 39 44 89 45
REMARK SMILES IDX 40 46 94 47 88 48 90 49 41 50 93 51 87 52 86 53 42 55 74 56
REMARK SMILES IDX 54 57 73 58 55 59 58 60 72 61 91 62 56 63 57 64 71 66 92 67
REMARK SMILES IDX 59 68 43 69 44 70 52 71 45 72 46 73 50 74 53 75 47 76 48 77
REMARK SMILES IDX 51 78 49 79 75 80 76 81 84 82 77 83 78 84 82 85 85 86 79 87
REMARK SMILES IDX 80 88 83 89 81 90 60 91 61 92 69 93 62 94 63 95 67 96 70 97
REMARK SMILES IDX 64 98 65 99 68 100 66 101
REMARK H PARENT 24 7 9 18 31 35 90 54 58 65
REMARK Flexibility Score: inf
ROOT
ATOM      1  C   UNL     1      11.218   6.945   2.344  1.00  0.00     0.002 C 
ENDROOT
BRANCH   1   2
ATOM      2  C   UNL     1      12.187   8.041   1.877  1.00  0.00     0.021 C 
BRANCH   2   3
ATOM      3  C   UNL     1      13.571   7.535   1.469  1.00  0.00     0.116 C 
BRANCH   3   4
ATOM      4  N   UNL     1      13.475   6.578   0.392  1.00  0.00    -0.353 N 
ATOM      5  O   UNL     1      14.302   7.957  -1.248  1.00  0.00    -0.270 OA
ATOM      6  C   UNL     1      13.774   6.909  -0.901  1.00  0.00     0.243 C 
ATOM      7  H   UNL     1      13.186   5.659   0.594  1.00  0.00     0.163 HD
BRANCH   6   8
ATOM      8  C   UNL     1      13.441   5.885  -1.917  1.00  0.00     0.072 C 
ATOM      9  C   UNL     1      12.496   4.941  -1.781  1.00  0.00     0.014 C 
BRANCH   9  10
ATOM     10  C   UNL     1      12.160   4.016  -2.867  1.00  0.00    -0.025 A 
ATOM     11  C   UNL     1      10.832   3.601  -3.047  1.00  0.00     0.010 A 
ATOM     12  C   UNL     1      13.149   3.499  -3.703  1.00  0.00     0.010 A 
ATOM     13  C   UNL     1      10.488   2.708  -4.071  1.00  0.00     0.027 A 
ATOM     14  C   UNL     1      12.805   2.625  -4.725  1.00  0.00     0.027 A 
ATOM     15  C   UNL     1      11.475   2.231  -4.920  1.00  0.00     0.041 A 
BRANCH  15  16
ATOM     16  N   UNL     1      11.300   1.268  -5.900  1.00  0.00    -0.326 N 
ATOM     17  C   UNL     1      10.288   0.620  -6.479  1.00  0.00     0.231 C 
ATOM     18  H   UNL     1      12.165   0.980  -6.273  1.00  0.00     0.169 HD
ATOM     19  O   UNL     1      10.641  -0.431  -7.047  1.00  0.00    -0.274 OA
BRANCH  17  20
ATOM     20  C   UNL     1       8.855   1.039  -6.651  1.00  0.00     0.121 C 
ATOM     21  C   UNL     1       8.099   2.343  -6.478  1.00  0.00     0.243 C 
ATOM     22  C   UNL     1       7.893  -0.058  -6.196  1.00  0.00     0.056 C 
ATOM     23  O   UNL     1       6.890   2.364  -7.312  1.00  0.00    -0.492 OA
ATOM     24  C   UNL     1       6.916  -0.082  -7.333  1.00  0.00    -0.005 A 
ATOM     25  C   UNL     1       6.504   1.154  -7.865  1.00  0.00     0.122 A 
ATOM     26  C   UNL     1       6.689  -1.273  -8.029  1.00  0.00     0.007 A 
ATOM     27  C   UNL     1       5.867   1.187  -9.101  1.00  0.00     0.047 A 
ATOM     28  C   UNL     1       6.108  -1.224  -9.291  1.00  0.00     0.001 A 
ATOM     29  C   UNL     1       5.702   0.001  -9.826  1.00  0.00     0.004 A 
ENDBRANCH  17  20
ENDBRANCH  15  16
ENDBRANCH   9  10
ENDBRANCH   6   8
ENDBRANCH   3   4
ENDBRANCH   2   3
ENDBRANCH   1   2
BRANCH   1  30
ATOM     30  C   UNL     1      11.727   6.060   3.486  1.00  0.00     0.002 C 
BRANCH  30  31
ATOM     31  C   UNL     1      12.174   6.809   4.742  1.00  0.00     0.021 C 
BRANCH  31  32
ATOM     32  C   UNL     1      11.104   7.689   5.377  1.00  0.00     0.116 C 
BRANCH  32  33
ATOM     33  N   UNL     1       9.980   6.919   5.884  1.00  0.00    -0.352 N 
ATOM     34  C   UNL     1       9.377   6.965   7.117  1.00  0.00     0.251 C 
ATOM     35  H   UNL     1       9.595   6.271   5.251  1.00  0.00     0.163 HD
ATOM     36  O   UNL     1       8.542   6.121   7.424  1.00  0.00    -0.269 OA
BRANCH  34  37
ATOM     37  C   UNL     1       9.748   8.019   8.088  1.00  0.00     0.039 A 
ATOM     38  C   UNL     1       9.914   7.667   9.431  1.00  0.00     0.014 A 
ATOM     39  C   UNL     1       9.912   9.348   7.689  1.00  0.00     0.014 A 
ATOM     40  C   UNL     1      10.290   8.638  10.362  1.00  0.00     0.010 A 
ATOM     41  C   UNL     1      10.364  10.298   8.602  1.00  0.00     0.010 A 
ATOM     42  C   UNL     1      10.545   9.957   9.951  1.00  0.00    -0.014 A 
BRANCH  42  43
ATOM     43  C   UNL     1      10.972  10.995  10.926  1.00  0.00     0.031 A 
ATOM     44  C   UNL     1      10.090  12.185  11.194  1.00  0.00     0.074 A 
ATOM     45  C   UNL     1      12.167  10.890  11.539  1.00  0.00     0.049 A 
ATOM     46  N   UNL     1      10.308  13.223  11.963  1.00  0.00    -0.248 NA
ATOM     47  C   UNL     1       8.801  12.226  10.486  1.00  0.00     0.031 C 
ATOM     48  C   UNL     1      13.133   9.810  11.331  1.00  0.00     0.029 A 
ATOM     49  N   UNL     1      12.778  11.710  12.455  1.00  0.00    -0.354 N 
ATOM     50  C   UNL     1       9.189  14.034  11.829  1.00  0.00     0.074 A 
ATOM     51  C   UNL     1       8.325  13.406  10.853  1.00  0.00     0.031 C 
ATOM     52  C   UNL     1      14.206  10.024  12.110  1.00  0.00     0.029 A 
ATOM     53  C   UNL     1      14.021  11.272  12.844  1.00  0.00     0.049 A 
ATOM     54  H   UNL     1      12.365  12.534  12.801  1.00  0.00     0.167 HD
ATOM     55  C   UNL     1       8.890  15.182  12.484  1.00  0.00     0.037 A 
ATOM     56  C   UNL     1      14.913  11.821  13.691  1.00  0.00     0.037 A 
ATOM     57  C   UNL     1       9.744  15.802  13.463  1.00  0.00     0.049 A 
ATOM     58  C   UNL     1      14.562  13.106  14.394  1.00  0.00     0.074 A 
ATOM     59  C   UNL     1       9.528  16.959  14.191  1.00  0.00     0.029 A 
ATOM     60  N   UNL     1      10.982  15.311  13.853  1.00  0.00    -0.354 N 
ATOM     61  N   UNL     1      13.478  13.837  14.296  1.00  0.00    -0.248 NA
ATOM     62  C   UNL     1      15.555  13.635  15.340  1.00  0.00     0.031 C 
ATOM     63  C   UNL     1      10.649  17.188  14.995  1.00  0.00     0.029 A 
ATOM     64  C   UNL     1      11.540  16.144  14.809  1.00  0.00     0.049 A 
ATOM     65  H   UNL     1      11.400  14.491  13.503  1.00  0.00     0.167 HD
ATOM     66  C   UNL     1      13.641  14.884  15.193  1.00  0.00     0.074 A 
ATOM     67  C   UNL     1      14.921  14.686  15.838  1.00  0.00     0.031 C 
ATOM     68  C   UNL     1      12.806  15.919  15.460  1.00  0.00     0.037 A 
BRANCH  55  69
ATOM     69  C   UNL     1       7.571  15.832  12.177  1.00  0.00     0.064 A 
ATOM     70  C   UNL     1       6.358  15.244  12.569  1.00  0.00     0.173 A 
ATOM     71  C   UNL     1       7.516  17.073  11.524  1.00  0.00     0.173 A 
ATOM     72  F   UNL     1       6.354  14.052  13.185  1.00  0.00    -0.203 F 
ATOM     73  C   UNL     1       5.140  15.859  12.294  1.00  0.00     0.198 A 
ATOM     74  C   UNL     1       6.297  17.701  11.280  1.00  0.00     0.198 A 
ATOM     75  F   UNL     1       8.645  17.683  11.132  1.00  0.00    -0.203 F 
ATOM     76  F   UNL     1       3.994  15.254  12.634  1.00  0.00    -0.200 F 
ATOM     77  C   UNL     1       5.110  17.091  11.658  1.00  0.00     0.200 A 
ATOM     78  F   UNL     1       6.271  18.898  10.678  1.00  0.00    -0.200 F 
ATOM     79  F   UNL     1       3.938  17.687  11.404  1.00  0.00    -0.200 F 
ENDBRANCH  55  69
BRANCH  56  80
ATOM     80  C   UNL     1      16.220  11.155  13.940  1.00  0.00     0.064 A 
ATOM     81  C   UNL     1      16.530  10.613  15.196  1.00  0.00     0.173 A 
ATOM     82  C   UNL     1      17.202  11.082  12.941  1.00  0.00     0.173 A 
ATOM     83  F   UNL     1      15.633  10.674  16.191  1.00  0.00    -0.203 F 
ATOM     84  C   UNL     1      17.783  10.060  15.454  1.00  0.00     0.198 A 
ATOM     85  C   UNL     1      18.442  10.498  13.190  1.00  0.00     0.198 A 
ATOM     86  F   UNL     1      16.956  11.578  11.719  1.00  0.00    -0.203 F 
ATOM     87  F   UNL     1      18.074   9.611  16.683  1.00  0.00    -0.200 F 
ATOM     88  C   UNL     1      18.737  10.000  14.450  1.00  0.00     0.200 A 
ATOM     89  F   UNL     1      19.355  10.427  12.211  1.00  0.00    -0.200 F 
ATOM     90  F   UNL     1      19.943   9.474  14.700  1.00  0.00    -0.200 F 
ENDBRANCH  56  80
BRANCH  68  91
ATOM     91  C   UNL     1      13.220  16.879  16.538  1.00  0.00     0.064 A 
ATOM     92  C   UNL     1      14.293  17.767  16.371  1.00  0.00     0.173 A 
ATOM     93  C   UNL     1      12.515  16.923  17.751  1.00  0.00     0.173 A 
ATOM     94  F   UNL     1      15.008  17.756  15.235  1.00  0.00    -0.203 F 
ATOM     95  C   UNL     1      14.669  18.636  17.392  1.00  0.00     0.198 A 
ATOM     96  C   UNL     1      12.872  17.818  18.756  1.00  0.00     0.198 A 
ATOM     97  F   UNL     1      11.475  16.102  17.960  1.00  0.00    -0.203 F 
ATOM     98  F   UNL     1      15.735  19.432  17.233  1.00  0.00    -0.200 F 
ATOM     99  C   UNL     1      13.955  18.665  18.580  1.00  0.00     0.200 A 
ATOM    100  F   UNL     1      12.170  17.856  19.897  1.00  0.00    -0.200 F 
ATOM    101  F   UNL     1      14.316  19.505  19.561  1.00  0.00    -0.200 F 
ENDBRANCH  68  91
ENDBRANCH  42  43
ENDBRANCH  34  37
ENDBRANCH  32  33
ENDBRANCH  31  32
ENDBRANCH  30  31
ENDBRANCH   1  30
TORSDOF 16
