REMARK SMILES CSc1ccc([C@H]2[NH2+][C@@H](C(=O)NCCCCCCNC(=O)c3ccc(-c4c5nc(c(-c6c(F)c(F)c(F)c(F)c6F)c6ccc([nH]6)c(-c6c(F)c(F)c(F)c(F)c6F)c6nc(c(-c7c(F)c(F)c(F)c(F)c7F)c7ccc4[nH]7)C=C6)C=C5)cc3)C(C)(C)S2)cc1
REMARK SMILES IDX 15 1 14 2 13 3 12 4 10 5 11 6 9 8 7 9 8 10 88 11 85 14 86 15
REMARK SMILES IDX 87 16 6 17 3 18 4 19 90 20 5 21 89 22 2 23 1 24 16 25 17 26
REMARK SMILES IDX 18 27 19 28 20 29 21 31 22 32 23 33 84 34 24 35 83 36 25 37
REMARK SMILES IDX 26 38 27 39 77 40 28 41 82 42 76 43 78 44 29 45 81 46 75 47
REMARK SMILES IDX 74 48 30 50 62 51 42 52 61 53 43 54 46 55 60 56 79 57 44 58
REMARK SMILES IDX 45 59 59 61 80 62 47 63 31 64 32 65 40 66 33 67 34 68 38 69
REMARK SMILES IDX 41 70 35 71 36 72 39 73 37 74 63 75 64 76 72 77 65 78 66 79
REMARK SMILES IDX 70 80 73 81 67 82 68 83 71 84 69 85 48 86 49 87 57 88 50 89
REMARK SMILES IDX 51 90 55 91 58 92 52 93 53 94 56 95 54 96
REMARK H PARENT 12 7 8 12 8 13 19 30 78 49 46 60
REMARK Flexibility Score: inf
ROOT
ATOM      1  C   UNL     1       3.413   9.444   3.850  1.00  0.00     0.002 C 
ENDROOT
BRANCH   1   2
ATOM      2  C   UNL     1       2.507   8.368   4.444  1.00  0.00     0.021 C 
BRANCH   2   3
ATOM      3  C   UNL     1       3.191   7.016   4.636  1.00  0.00     0.116 C 
BRANCH   3   4
ATOM      4  N   UNL     1       3.964   6.989   5.860  1.00  0.00    -0.351 N 
ATOM      5  C   UNL     1       3.847   6.264   7.008  1.00  0.00     0.279 C 
ATOM      6  O   UNL     1       4.584   6.599   7.943  1.00  0.00    -0.268 OA
ATOM      7  H   UNL     1       4.722   7.617   5.864  1.00  0.00     0.163 HD
BRANCH   5   8
ATOM      8  C   UNL     1       2.857   5.093   7.187  1.00  0.00     0.289 C 
ATOM      9  C   UNL     1       1.804   3.223   6.126  1.00  0.00     0.274 C 
ATOM     10  N   UNL     1       2.957   4.118   6.082  1.00  0.00    -0.320 N 
ATOM     11  S   UNL     1       0.473   3.962   7.112  1.00  0.00    -0.081 SA
ATOM     12  H   UNL     1       2.972   4.613   5.191  1.00  0.00     0.348 HD
ATOM     13  H   UNL     1       3.816   3.576   6.180  1.00  0.00     0.348 HD
ATOM     14  C   UNL     1       1.403   5.480   7.537  1.00  0.00     0.077 C 
ATOM     15  C   UNL     1       0.734   6.623   6.776  1.00  0.00     0.030 C 
ATOM     16  C   UNL     1       1.277   5.781   9.038  1.00  0.00     0.030 C 
BRANCH   9  17
ATOM     17  C   UNL     1       1.375   2.829   4.721  1.00  0.00     0.020 A 
ATOM     18  C   UNL     1       0.773   2.080   2.043  1.00  0.00     0.007 A 
ATOM     19  C   UNL     1       1.191   1.128   2.976  1.00  0.00     0.015 A 
ATOM     20  C   UNL     1       0.636   3.405   2.466  1.00  0.00     0.015 A 
ATOM     21  C   UNL     1       1.494   1.499   4.295  1.00  0.00     0.012 A 
ATOM     22  C   UNL     1       0.920   3.773   3.785  1.00  0.00     0.012 A 
BRANCH  18  23
ATOM     23  S   UNL     1       0.366   1.741   0.335  1.00  0.00    -0.130 SA
ATOM     24  C   UNL     1       0.980   0.056   0.081  1.00  0.00     0.091 C 
ENDBRANCH  18  23
ENDBRANCH   9  17
ENDBRANCH   5   8
ENDBRANCH   3   4
ENDBRANCH   2   3
ENDBRANCH   1   2
BRANCH   1  25
ATOM     25  C   UNL     1       3.900   9.155   2.429  1.00  0.00     0.002 C 
BRANCH  25  26
ATOM     26  C   UNL     1       2.797   8.815   1.423  1.00  0.00     0.021 C 
BRANCH  26  27
ATOM     27  C   UNL     1       1.677   9.845   1.340  1.00  0.00     0.116 C 
BRANCH  27  28
ATOM     28  N   UNL     1       2.170  11.151   0.935  1.00  0.00    -0.352 N 
ATOM     29  C   UNL     1       1.833  11.901  -0.163  1.00  0.00     0.251 C 
ATOM     30  H   UNL     1       2.841  11.554   1.533  1.00  0.00     0.163 HD
ATOM     31  O   UNL     1       2.502  12.875  -0.484  1.00  0.00    -0.269 OA
BRANCH  29  32
ATOM     32  C   UNL     1       0.656  11.513  -0.966  1.00  0.00     0.039 A 
ATOM     33  C   UNL     1       0.767  11.468  -2.356  1.00  0.00     0.014 A 
ATOM     34  C   UNL     1      -0.551  11.190  -0.339  1.00  0.00     0.014 A 
ATOM     35  C   UNL     1      -0.321  11.044  -3.119  1.00  0.00     0.010 A 
ATOM     36  C   UNL     1      -1.607  10.693  -1.094  1.00  0.00     0.010 A 
ATOM     37  C   UNL     1      -1.506  10.623  -2.492  1.00  0.00    -0.014 A 
BRANCH  37  38
ATOM     38  C   UNL     1      -2.659  10.119  -3.278  1.00  0.00     0.031 A 
ATOM     39  C   UNL     1      -3.963  10.864  -3.259  1.00  0.00     0.074 A 
ATOM     40  C   UNL     1      -2.549   8.961  -3.956  1.00  0.00     0.049 A 
ATOM     41  N   UNL     1      -5.107  10.550  -3.812  1.00  0.00    -0.248 NA
ATOM     42  C   UNL     1      -3.994  12.119  -2.491  1.00  0.00     0.031 C 
ATOM     43  C   UNL     1      -1.346   8.130  -4.023  1.00  0.00     0.029 A 
ATOM     44  N   UNL     1      -3.468   8.276  -4.712  1.00  0.00    -0.354 N 
ATOM     45  C   UNL     1      -5.990  11.558  -3.451  1.00  0.00     0.074 A 
ATOM     46  C   UNL     1      -5.270  12.460  -2.579  1.00  0.00     0.031 C 
ATOM     47  C   UNL     1      -1.591   7.063  -4.799  1.00  0.00     0.029 A 
ATOM     48  C   UNL     1      -2.980   7.109  -5.247  1.00  0.00     0.049 A 
ATOM     49  H   UNL     1      -4.389   8.591  -4.856  1.00  0.00     0.167 HD
ATOM     50  C   UNL     1      -7.278  11.732  -3.835  1.00  0.00     0.037 A 
ATOM     51  C   UNL     1      -3.589   6.179  -6.006  1.00  0.00     0.037 A 
ATOM     52  C   UNL     1      -7.985  10.836  -4.712  1.00  0.00     0.049 A 
ATOM     53  C   UNL     1      -5.034   6.372  -6.382  1.00  0.00     0.074 A 
ATOM     54  C   UNL     1      -9.278  10.941  -5.194  1.00  0.00     0.029 A 
ATOM     55  N   UNL     1      -7.459   9.661  -5.232  1.00  0.00    -0.354 N 
ATOM     56  N   UNL     1      -5.842   7.361  -6.088  1.00  0.00    -0.248 NA
ATOM     57  C   UNL     1      -5.650   5.318  -7.201  1.00  0.00     0.031 C 
ATOM     58  C   UNL     1      -9.552   9.803  -5.960  1.00  0.00     0.029 A 
ATOM     59  C   UNL     1      -8.410   9.020  -6.009  1.00  0.00     0.049 A 
ATOM     60  H   UNL     1      -6.545   9.333  -5.072  1.00  0.00     0.167 HD
ATOM     61  C   UNL     1      -7.047   7.070  -6.714  1.00  0.00     0.074 A 
ATOM     62  C   UNL     1      -6.860   5.815  -7.413  1.00  0.00     0.031 C 
ATOM     63  C   UNL     1      -8.203   7.778  -6.712  1.00  0.00     0.037 A 
BRANCH  50  64
ATOM     64  C   UNL     1      -8.002  12.937  -3.303  1.00  0.00     0.064 A 
ATOM     65  C   UNL     1      -7.644  14.240  -3.686  1.00  0.00     0.173 A 
ATOM     66  C   UNL     1      -9.078  12.789  -2.416  1.00  0.00     0.173 A 
ATOM     67  F   UNL     1      -6.616  14.440  -4.524  1.00  0.00    -0.203 F 
ATOM     68  C   UNL     1      -8.310  15.348  -3.168  1.00  0.00     0.198 A 
ATOM     69  C   UNL     1      -9.765  13.898  -1.929  1.00  0.00     0.198 A 
ATOM     70  F   UNL     1      -9.468  11.568  -2.021  1.00  0.00    -0.203 F 
ATOM     71  F   UNL     1      -7.908  16.583  -3.499  1.00  0.00    -0.200 F 
ATOM     72  C   UNL     1      -9.373  15.177  -2.296  1.00  0.00     0.200 A 
ATOM     73  F   UNL     1     -10.803  13.730  -1.098  1.00  0.00    -0.200 F 
ATOM     74  F   UNL     1     -10.016  16.244  -1.802  1.00  0.00    -0.200 F 
ENDBRANCH  50  64
BRANCH  51  75
ATOM     75  C   UNL     1      -2.829   4.994  -6.486  1.00  0.00     0.064 A 
ATOM     76  C   UNL     1      -2.536   4.834  -7.848  1.00  0.00     0.173 A 
ATOM     77  C   UNL     1      -2.387   3.998  -5.604  1.00  0.00     0.173 A 
ATOM     78  F   UNL     1      -2.954   5.750  -8.735  1.00  0.00    -0.203 F 
ATOM     79  C   UNL     1      -1.853   3.712  -8.312  1.00  0.00     0.198 A 
ATOM     80  C   UNL     1      -1.675   2.892  -6.064  1.00  0.00     0.198 A 
ATOM     81  F   UNL     1      -2.636   4.105  -4.290  1.00  0.00    -0.203 F 
ATOM     82  F   UNL     1      -1.631   3.560  -9.624  1.00  0.00    -0.200 F 
ATOM     83  C   UNL     1      -1.417   2.745  -7.419  1.00  0.00     0.200 A 
ATOM     84  F   UNL     1      -1.243   1.966  -5.197  1.00  0.00    -0.200 F 
ATOM     85  F   UNL     1      -0.757   1.667  -7.864  1.00  0.00    -0.200 F 
ENDBRANCH  51  75
BRANCH  63  86
ATOM     86  C   UNL     1      -9.344   7.244  -7.530  1.00  0.00     0.064 A 
ATOM     87  C   UNL     1     -10.048   6.090  -7.156  1.00  0.00     0.173 A 
ATOM     88  C   UNL     1      -9.767   7.926  -8.682  1.00  0.00     0.173 A 
ATOM     89  F   UNL     1      -9.675   5.392  -6.073  1.00  0.00    -0.203 F 
ATOM     90  C   UNL     1     -11.117   5.625  -7.919  1.00  0.00     0.198 A 
ATOM     91  C   UNL     1     -10.858   7.479  -9.421  1.00  0.00     0.198 A 
ATOM     92  F   UNL     1      -9.133   9.040  -9.080  1.00  0.00    -0.203 F 
ATOM     93  F   UNL     1     -11.743   4.493  -7.571  1.00  0.00    -0.200 F 
ATOM     94  C   UNL     1     -11.527   6.325  -9.044  1.00  0.00     0.200 A 
ATOM     95  F   UNL     1     -11.262   8.167 -10.498  1.00  0.00    -0.200 F 
ATOM     96  F   UNL     1     -12.564   5.883  -9.769  1.00  0.00    -0.200 F 
ENDBRANCH  63  86
ENDBRANCH  37  38
ENDBRANCH  29  32
ENDBRANCH  27  28
ENDBRANCH  26  27
ENDBRANCH  25  26
ENDBRANCH   1  25
TORSDOF 15
