REMARK SMILES O=C(NCCCCCCNC(=O)c1cccc(Oc2ncc([N+](=O)[O-])cc2Br)c1)c1ccc(-c2c3nc(c(-c4c(F)c(F)c(F)c(F)c4F)c4ccc([nH]4)c(-c4c(F)c(F)c(F)c(F)c4F)c4nc(c(-c5c(F)c(F)c(F)c(F)c5F)c5ccc2[nH]5)C=C4)C=C3)cc1
REMARK SMILES IDX 7 1 6 2 5 3 4 4 3 5 1 6 2 7 30 9 31 10 92 11 32 12 91 13
REMARK SMILES IDX 33 14 34 15 35 16 85 17 36 18 90 19 84 20 86 21 37 22 89 23
REMARK SMILES IDX 83 24 82 25 38 27 70 28 50 29 69 30 51 31 54 32 68 33 87 34
REMARK SMILES IDX 52 35 53 36 67 38 88 39 55 40 39 41 40 42 48 43 41 44 42 45
REMARK SMILES IDX 46 46 49 47 43 48 44 49 47 50 45 51 71 52 72 53 80 54 73 55
REMARK SMILES IDX 74 56 78 57 81 58 75 59 76 60 79 61 77 62 56 63 57 64 65 65
REMARK SMILES IDX 58 66 59 67 63 68 66 69 60 70 61 71 64 72 62 73 8 74 9 75
REMARK SMILES IDX 10 76 11 77 12 79 13 80 14 81 29 82 15 83 17 84 16 85 18 86
REMARK SMILES IDX 19 87 20 88 27 89 21 90 26 91 28 92 22 93 23 94 24 95 25 96
REMARK H PARENT 3 8 86 26 54 37 10 78
REMARK Flexibility Score: inf
ROOT
ATOM      1  C   UNL     1       4.740  -3.450  -2.641  1.00  0.00     0.002 C 
ENDROOT
BRANCH   1   2
ATOM      2  C   UNL     1       4.216  -3.652  -1.217  1.00  0.00     0.002 C 
BRANCH   2   3
ATOM      3  C   UNL     1       4.687  -2.625  -0.188  1.00  0.00     0.021 C 
BRANCH   3   4
ATOM      4  C   UNL     1       4.456  -1.169  -0.569  1.00  0.00     0.116 C 
BRANCH   4   5
ATOM      5  N   UNL     1       3.049  -0.828  -0.707  1.00  0.00    -0.352 N 
ATOM      6  O   UNL     1       1.123   0.270  -0.271  1.00  0.00    -0.269 OA
ATOM      7  C   UNL     1       2.344   0.203  -0.136  1.00  0.00     0.251 C 
ATOM      8  H   UNL     1       2.527  -1.422  -1.294  1.00  0.00     0.163 HD
BRANCH   7   9
ATOM      9  C   UNL     1       3.050   1.216   0.677  1.00  0.00     0.039 A 
ATOM     10  C   UNL     1       4.249   1.777   0.235  1.00  0.00     0.014 A 
ATOM     11  C   UNL     1       2.515   1.591   1.913  1.00  0.00     0.014 A 
ATOM     12  C   UNL     1       4.996   2.574   1.097  1.00  0.00     0.010 A 
ATOM     13  C   UNL     1       3.223   2.467   2.741  1.00  0.00     0.010 A 
ATOM     14  C   UNL     1       4.493   2.928   2.360  1.00  0.00    -0.014 A 
BRANCH  14  15
ATOM     15  C   UNL     1       5.310   3.793   3.251  1.00  0.00     0.031 A 
ATOM     16  C   UNL     1       5.830   3.282   4.567  1.00  0.00     0.074 A 
ATOM     17  C   UNL     1       5.622   5.038   2.842  1.00  0.00     0.049 A 
ATOM     18  N   UNL     1       6.595   3.886   5.444  1.00  0.00    -0.248 NA
ATOM     19  C   UNL     1       5.434   1.921   4.960  1.00  0.00     0.031 C 
ATOM     20  C   UNL     1       5.168   5.650   1.591  1.00  0.00     0.029 A 
ATOM     21  N   UNL     1       6.410   6.002   3.416  1.00  0.00    -0.354 N 
ATOM     22  C   UNL     1       6.750   2.993   6.497  1.00  0.00     0.074 A 
ATOM     23  C   UNL     1       5.980   1.814   6.164  1.00  0.00     0.031 C 
ATOM     24  C   UNL     1       5.729   6.861   1.466  1.00  0.00     0.029 A 
ATOM     25  C   UNL     1       6.533   7.135   2.651  1.00  0.00     0.049 A 
ATOM     26  H   UNL     1       6.846   5.892   4.292  1.00  0.00     0.167 HD
ATOM     27  C   UNL     1       7.474   3.142   7.633  1.00  0.00     0.037 A 
ATOM     28  C   UNL     1       7.214   8.274   2.880  1.00  0.00     0.037 A 
ATOM     29  C   UNL     1       8.263   4.306   7.948  1.00  0.00     0.049 A 
ATOM     30  C   UNL     1       8.007   8.409   4.148  1.00  0.00     0.074 A 
ATOM     31  C   UNL     1       9.066   4.532   9.053  1.00  0.00     0.029 A 
ATOM     32  N   UNL     1       8.345   5.443   7.157  1.00  0.00    -0.354 N 
ATOM     33  N   UNL     1       8.177   7.541   5.115  1.00  0.00    -0.248 NA
ATOM     34  C   UNL     1       8.704   9.685   4.355  1.00  0.00     0.031 C 
ATOM     35  C   UNL     1       9.598   5.823   8.953  1.00  0.00     0.029 A 
ATOM     36  C   UNL     1       9.170   6.381   7.760  1.00  0.00     0.049 A 
ATOM     37  H   UNL     1       7.886   5.566   6.295  1.00  0.00     0.167 HD
ATOM     38  C   UNL     1       9.022   8.153   6.030  1.00  0.00     0.074 A 
ATOM     39  C   UNL     1       9.342   9.460   5.494  1.00  0.00     0.031 C 
ATOM     40  C   UNL     1       9.489   7.674   7.209  1.00  0.00     0.037 A 
BRANCH  27  41
ATOM     41  C   UNL     1       7.436   2.024   8.637  1.00  0.00     0.064 A 
ATOM     42  C   UNL     1       8.073   0.796   8.404  1.00  0.00     0.173 A 
ATOM     43  C   UNL     1       6.789   2.203   9.870  1.00  0.00     0.173 A 
ATOM     44  F   UNL     1       8.699   0.571   7.239  1.00  0.00    -0.203 F 
ATOM     45  C   UNL     1       8.042  -0.220   9.358  1.00  0.00     0.198 A 
ATOM     46  C   UNL     1       6.785   1.196  10.832  1.00  0.00     0.198 A 
ATOM     47  F   UNL     1       6.173   3.361  10.149  1.00  0.00    -0.203 F 
ATOM     48  F   UNL     1       8.622  -1.399   9.097  1.00  0.00    -0.200 F 
ATOM     49  C   UNL     1       7.404  -0.017  10.572  1.00  0.00     0.200 A 
ATOM     50  F   UNL     1       6.182   1.400  12.012  1.00  0.00    -0.200 F 
ATOM     51  F   UNL     1       7.384  -0.992  11.492  1.00  0.00    -0.200 F 
ENDBRANCH  27  41
BRANCH  28  52
ATOM     52  C   UNL     1       7.188   9.364   1.872  1.00  0.00     0.064 A 
ATOM     53  C   UNL     1       8.335   9.694   1.139  1.00  0.00     0.173 A 
ATOM     54  C   UNL     1       6.016  10.093   1.617  1.00  0.00     0.173 A 
ATOM     55  F   UNL     1       9.484   9.038   1.361  1.00  0.00    -0.203 F 
ATOM     56  C   UNL     1       8.317  10.723   0.200  1.00  0.00     0.198 A 
ATOM     57  C   UNL     1       5.992  11.101   0.656  1.00  0.00     0.198 A 
ATOM     58  F   UNL     1       4.890   9.811   2.288  1.00  0.00    -0.203 F 
ATOM     59  F   UNL     1       9.439  11.047  -0.457  1.00  0.00    -0.200 F 
ATOM     60  C   UNL     1       7.144  11.421  -0.046  1.00  0.00     0.200 A 
ATOM     61  F   UNL     1       4.851  11.760   0.410  1.00  0.00    -0.200 F 
ATOM     62  F   UNL     1       7.125  12.405  -0.954  1.00  0.00    -0.200 F 
ENDBRANCH  28  52
BRANCH  40  63
ATOM     63  C   UNL     1      10.438   8.550   7.974  1.00  0.00     0.064 A 
ATOM     64  C   UNL     1      10.008   9.719   8.619  1.00  0.00     0.173 A 
ATOM     65  C   UNL     1      11.794   8.206   8.074  1.00  0.00     0.173 A 
ATOM     66  F   UNL     1       8.724  10.101   8.539  1.00  0.00    -0.203 F 
ATOM     67  C   UNL     1      10.907  10.528   9.308  1.00  0.00     0.198 A 
ATOM     68  C   UNL     1      12.685   9.000   8.790  1.00  0.00     0.198 A 
ATOM     69  F   UNL     1      12.256   7.095   7.480  1.00  0.00    -0.203 F 
ATOM     70  F   UNL     1      10.485  11.671   9.868  1.00  0.00    -0.200 F 
ATOM     71  C   UNL     1      12.243  10.166   9.397  1.00  0.00     0.200 A 
ATOM     72  F   UNL     1      13.973   8.642   8.885  1.00  0.00    -0.200 F 
ATOM     73  F   UNL     1      13.108  10.946  10.061  1.00  0.00    -0.200 F 
ENDBRANCH  40  63
ENDBRANCH  14  15
ENDBRANCH   7   9
ENDBRANCH   4   5
ENDBRANCH   3   4
ENDBRANCH   2   3
ENDBRANCH   1   2
BRANCH   1  74
ATOM     74  C   UNL     1       6.261  -3.323  -2.781  1.00  0.00     0.021 C 
BRANCH  74  75
ATOM     75  C   UNL     1       7.063  -4.495  -2.224  1.00  0.00     0.116 C 
BRANCH  75  76
ATOM     76  N   UNL     1       6.789  -5.727  -2.943  1.00  0.00    -0.352 N 
ATOM     77  C   UNL     1       7.673  -6.603  -3.518  1.00  0.00     0.251 C 
ATOM     78  H   UNL     1       5.838  -5.966  -3.029  1.00  0.00     0.163 HD
ATOM     79  O   UNL     1       7.268  -7.485  -4.273  1.00  0.00    -0.269 OA
BRANCH  77  80
ATOM     80  C   UNL     1       9.115  -6.504  -3.215  1.00  0.00     0.043 A 
ATOM     81  C   UNL     1      10.044  -6.585  -4.253  1.00  0.00     0.014 A 
ATOM     82  C   UNL     1       9.544  -6.406  -1.887  1.00  0.00     0.061 A 
ATOM     83  C   UNL     1      11.406  -6.520  -3.962  1.00  0.00     0.005 A 
ATOM     84  C   UNL     1      10.907  -6.347  -1.591  1.00  0.00     0.130 A 
ATOM     85  C   UNL     1      11.835  -6.397  -2.636  1.00  0.00     0.047 A 
BRANCH  84  86
ATOM     86  O   UNL     1      11.440  -6.288  -0.318  1.00  0.00    -0.438 OA
BRANCH  86  87
ATOM     87  C   UNL     1      10.563  -6.072   0.723  1.00  0.00     0.234 A 
ATOM     88  N   UNL     1      10.403  -4.774   1.090  1.00  0.00    -0.214 NA
ATOM     89  C   UNL     1       9.898  -7.134   1.342  1.00  0.00     0.087 A 
ATOM     90  C   UNL     1       9.525  -4.519   2.091  1.00  0.00     0.200 A 
ATOM     91  C   UNL     1       8.968  -6.844   2.339  1.00  0.00     0.108 A 
ATOM     92  Br  UNL     1      10.167  -8.939   0.842  1.00  0.00    -0.045 Br
ATOM     93  C   UNL     1       8.782  -5.510   2.714  1.00  0.00     0.288 A 
BRANCH  93  94
ATOM     94  N   UNL     1       7.799  -5.149   3.725  1.00  0.00     0.064 N 
ATOM     95  O   UNL     1       7.780  -3.974   4.114  1.00  0.00    -0.258 OA
ATOM     96  O   UNL     1       7.027  -6.035   4.113  1.00  0.00    -0.258 OA
ENDBRANCH  93  94
ENDBRANCH  86  87
ENDBRANCH  84  86
ENDBRANCH  77  80
ENDBRANCH  75  76
ENDBRANCH  74  75
ENDBRANCH   1  74
TORSDOF 16
