REMARK SMILES O=C(NCCCCCCNC(=O)[C@@H]1[NH2+]CC[C@H]1c1cccc2cccnc12)c1ccc(-c2c3nc(c(-c4c(F)c(F)c(F)c(F)c4F)c4ccc([nH]4)c(-c4c(F)c(F)c(F)c(F)c4F)c4nc(c(-c5c(F)c(F)c(F)c(F)c5F)c5ccc2[nH]5)C=C4)C=C3)cc1
REMARK SMILES IDX 6 1 5 2 4 3 3 4 1 5 2 6 28 8 29 9 90 10 30 11 89 12 31 13
REMARK SMILES IDX 32 14 33 15 83 16 34 17 88 18 82 19 84 20 35 21 87 22 81 23
REMARK SMILES IDX 80 24 36 26 68 27 48 28 67 29 49 30 52 31 66 32 85 33 50 34
REMARK SMILES IDX 51 35 65 37 86 38 53 39 37 40 38 41 46 42 39 43 40 44 44 45
REMARK SMILES IDX 47 46 41 47 42 48 45 49 43 50 69 51 70 52 78 53 71 54 72 55
REMARK SMILES IDX 76 56 79 57 73 58 74 59 77 60 75 61 54 62 55 63 63 64 56 65
REMARK SMILES IDX 57 66 61 67 64 68 58 69 59 70 62 71 60 72 7 73 8 74 9 75
REMARK SMILES IDX 10 76 11 77 12 79 13 80 14 81 17 82 15 83 16 86 18 87 19 88
REMARK SMILES IDX 27 89 20 90 22 91 26 92 21 93 23 94 25 95 24 96
REMARK H PARENT 3 7 84 25 52 36 10 78 14 84 14 85
REMARK Flexibility Score: inf
ROOT
ATOM      1  C   UNL     1       5.319   5.716   1.395  1.00  0.00     0.002 C 
ENDROOT
BRANCH   1   2
ATOM      2  C   UNL     1       3.961   6.107   1.976  1.00  0.00     0.021 C 
BRANCH   2   3
ATOM      3  C   UNL     1       3.578   7.561   1.745  1.00  0.00     0.116 C 
BRANCH   3   4
ATOM      4  N   UNL     1       3.375   7.857   0.337  1.00  0.00    -0.352 N 
ATOM      5  O   UNL     1       2.172   8.399  -1.499  1.00  0.00    -0.269 OA
ATOM      6  C   UNL     1       2.266   8.383  -0.275  1.00  0.00     0.251 C 
ATOM      7  H   UNL     1       4.133   7.653  -0.257  1.00  0.00     0.163 HD
BRANCH   6   8
ATOM      8  C   UNL     1       1.172   8.924   0.558  1.00  0.00     0.039 A 
ATOM      9  C   UNL     1       1.459   9.763   1.638  1.00  0.00     0.014 A 
ATOM     10  C   UNL     1      -0.150   8.599   0.246  1.00  0.00     0.014 A 
ATOM     11  C   UNL     1       0.434  10.190   2.472  1.00  0.00     0.010 A 
ATOM     12  C   UNL     1      -1.187   9.102   1.033  1.00  0.00     0.010 A 
ATOM     13  C   UNL     1      -0.901   9.897   2.155  1.00  0.00    -0.014 A 
BRANCH  13  14
ATOM     14  C   UNL     1      -1.989  10.542   2.929  1.00  0.00     0.031 A 
ATOM     15  C   UNL     1      -2.952   9.734   3.747  1.00  0.00     0.074 A 
ATOM     16  C   UNL     1      -2.105  11.882   2.857  1.00  0.00     0.049 A 
ATOM     17  N   UNL     1      -3.988  10.143   4.436  1.00  0.00    -0.248 NA
ATOM     18  C   UNL     1      -2.733   8.281   3.798  1.00  0.00     0.031 C 
ATOM     19  C   UNL     1      -1.229  12.761   2.075  1.00  0.00     0.029 A 
ATOM     20  N   UNL     1      -3.001  12.742   3.437  1.00  0.00    -0.354 N 
ATOM     21  C   UNL     1      -4.559   9.001   4.980  1.00  0.00     0.074 A 
ATOM     22  C   UNL     1      -3.762   7.878   4.535  1.00  0.00     0.031 C 
ATOM     23  C   UNL     1      -1.619  14.032   2.238  1.00  0.00     0.029 A 
ATOM     24  C   UNL     1      -2.814  14.053   3.071  1.00  0.00     0.049 A 
ATOM     25  H   UNL     1      -3.710  12.449   4.054  1.00  0.00     0.167 HD
ATOM     26  C   UNL     1      -5.650   8.911   5.778  1.00  0.00     0.037 A 
ATOM     27  C   UNL     1      -3.549  15.148   3.338  1.00  0.00     0.037 A 
ATOM     28  C   UNL     1      -6.420  10.044   6.226  1.00  0.00     0.049 A 
ATOM     29  C   UNL     1      -4.777  15.003   4.190  1.00  0.00     0.074 A 
ATOM     30  C   UNL     1      -7.492  10.063   7.102  1.00  0.00     0.029 A 
ATOM     31  N   UNL     1      -6.213  11.354   5.820  1.00  0.00    -0.354 N 
ATOM     32  N   UNL     1      -5.261  13.929   4.764  1.00  0.00    -0.248 NA
ATOM     33  C   UNL     1      -5.566  16.219   4.425  1.00  0.00     0.031 C 
ATOM     34  C   UNL     1      -7.979  11.371   7.168  1.00  0.00     0.029 A 
ATOM     35  C   UNL     1      -7.171  12.181   6.386  1.00  0.00     0.049 A 
ATOM     36  H   UNL     1      -5.493  11.653   5.218  1.00  0.00     0.167 HD
ATOM     37  C   UNL     1      -6.401  14.340   5.438  1.00  0.00     0.074 A 
ATOM     38  C   UNL     1      -6.520  15.768   5.226  1.00  0.00     0.031 C 
ATOM     39  C   UNL     1      -7.275  13.600   6.162  1.00  0.00     0.037 A 
BRANCH  26  40
ATOM     40  C   UNL     1      -6.108   7.547   6.207  1.00  0.00     0.064 A 
ATOM     41  C   UNL     1      -5.403   6.789   7.151  1.00  0.00     0.173 A 
ATOM     42  C   UNL     1      -7.327   7.035   5.733  1.00  0.00     0.173 A 
ATOM     43  F   UNL     1      -4.231   7.229   7.632  1.00  0.00    -0.203 F 
ATOM     44  C   UNL     1      -5.895   5.564   7.598  1.00  0.00     0.198 A 
ATOM     45  C   UNL     1      -7.829   5.824   6.201  1.00  0.00     0.198 A 
ATOM     46  F   UNL     1      -8.046   7.724   4.834  1.00  0.00    -0.203 F 
ATOM     47  F   UNL     1      -5.191   4.843   8.482  1.00  0.00    -0.200 F 
ATOM     48  C   UNL     1      -7.111   5.088   7.131  1.00  0.00     0.200 A 
ATOM     49  F   UNL     1      -9.012   5.374   5.761  1.00  0.00    -0.200 F 
ATOM     50  F   UNL     1      -7.592   3.919   7.578  1.00  0.00    -0.200 F 
ENDBRANCH  26  40
BRANCH  27  51
ATOM     51  C   UNL     1      -3.168  16.460   2.752  1.00  0.00     0.064 A 
ATOM     52  C   UNL     1      -2.758  17.526   3.563  1.00  0.00     0.173 A 
ATOM     53  C   UNL     1      -3.221  16.678   1.365  1.00  0.00     0.173 A 
ATOM     54  F   UNL     1      -2.707  17.372   4.894  1.00  0.00    -0.203 F 
ATOM     55  C   UNL     1      -2.445  18.767   3.014  1.00  0.00     0.198 A 
ATOM     56  C   UNL     1      -2.870  17.908   0.815  1.00  0.00     0.198 A 
ATOM     57  F   UNL     1      -3.600  15.689   0.542  1.00  0.00    -0.203 F 
ATOM     58  F   UNL     1      -2.113  19.787   3.818  1.00  0.00    -0.200 F 
ATOM     59  C   UNL     1      -2.495  18.956   1.641  1.00  0.00     0.200 A 
ATOM     60  F   UNL     1      -2.902  18.078  -0.514  1.00  0.00    -0.200 F 
ATOM     61  F   UNL     1      -2.193  20.150   1.114  1.00  0.00    -0.200 F 
ENDBRANCH  27  51
BRANCH  39  62
ATOM     62  C   UNL     1      -8.429  14.324   6.791  1.00  0.00     0.064 A 
ATOM     63  C   UNL     1      -9.491  14.820   6.020  1.00  0.00     0.173 A 
ATOM     64  C   UNL     1      -8.498  14.481   8.184  1.00  0.00     0.173 A 
ATOM     65  F   UNL     1      -9.461  14.713   4.683  1.00  0.00    -0.203 F 
ATOM     66  C   UNL     1     -10.570  15.463   6.619  1.00  0.00     0.198 A 
ATOM     67  C   UNL     1      -9.594  15.094   8.782  1.00  0.00     0.198 A 
ATOM     68  F   UNL     1      -7.510  14.021   8.966  1.00  0.00    -0.203 F 
ATOM     69  F   UNL     1     -11.551  15.969   5.860  1.00  0.00    -0.200 F 
ATOM     70  C   UNL     1     -10.626  15.589   7.999  1.00  0.00     0.200 A 
ATOM     71  F   UNL     1      -9.654  15.202  10.116  1.00  0.00    -0.200 F 
ATOM     72  F   UNL     1     -11.674  16.195   8.576  1.00  0.00    -0.200 F 
ENDBRANCH  39  62
ENDBRANCH  13  14
ENDBRANCH   6   8
ENDBRANCH   3   4
ENDBRANCH   2   3
ENDBRANCH   1   2
BRANCH   1  73
ATOM     73  C   UNL     1       6.497   6.573   1.868  1.00  0.00     0.002 C 
BRANCH  73  74
ATOM     74  C   UNL     1       6.655   6.694   3.389  1.00  0.00     0.021 C 
BRANCH  74  75
ATOM     75  C   UNL     1       6.731   5.364   4.130  1.00  0.00     0.116 C 
BRANCH  75  76
ATOM     76  N   UNL     1       7.835   4.554   3.664  1.00  0.00    -0.351 N 
ATOM     77  C   UNL     1       8.860   3.987   4.363  1.00  0.00     0.278 C 
ATOM     78  H   UNL     1       7.849   4.387   2.694  1.00  0.00     0.163 HD
ATOM     79  O   UNL     1       9.667   3.314   3.719  1.00  0.00    -0.268 OA
BRANCH  77  80
ATOM     80  C   UNL     1       8.946   4.197   5.892  1.00  0.00     0.280 C 
ATOM     81  N   UNL     1       9.757   5.406   6.198  1.00  0.00    -0.335 N 
ATOM     82  C   UNL     1       9.653   3.021   6.596  1.00  0.00     0.095 C 
ATOM     83  C   UNL     1      11.136   4.927   6.426  1.00  0.00     0.262 C 
ATOM     84  H   UNL     1       9.400   5.869   7.033  1.00  0.00     0.346 HD
ATOM     85  H   UNL     1       9.719   6.083   5.436  1.00  0.00     0.346 HD
ATOM     86  C   UNL     1      11.116   3.407   6.373  1.00  0.00     0.076 C 
BRANCH  82  87
ATOM     87  C   UNL     1       9.094   2.842   8.020  1.00  0.00    -0.012 A 
ATOM     88  C   UNL     1       7.712   2.532   8.109  1.00  0.00     0.006 A 
ATOM     89  C   UNL     1       9.847   2.951   9.203  1.00  0.00     0.074 A 
ATOM     90  C   UNL     1       7.070   2.399   9.334  1.00  0.00     0.001 A 
ATOM     91  C   UNL     1       9.182   2.782  10.444  1.00  0.00     0.000 A 
ATOM     92  N   UNL     1      11.170   3.204   9.187  1.00  0.00    -0.256 NA
ATOM     93  C   UNL     1       7.805   2.528  10.501  1.00  0.00     0.010 A 
ATOM     94  C   UNL     1       9.925   2.863  11.631  1.00  0.00     0.012 A 
ATOM     95  C   UNL     1      11.863   3.260  10.344  1.00  0.00     0.112 A 
ATOM     96  C   UNL     1      11.290   3.096  11.583  1.00  0.00     0.021 A 
ENDBRANCH  82  87
ENDBRANCH  77  80
ENDBRANCH  75  76
ENDBRANCH  74  75
ENDBRANCH  73  74
ENDBRANCH   1  73
TORSDOF 14
