REMARK SMILES COCCCN1C(=O)CC[C@@H](C(=O)NCCCCCCNC(=O)c2ccc(-c3c4nc(c(-c5c(F)c(F)c(F)c(F)c5F)c5ccc([nH]5)c(-c5c(F)c(F)c(F)c(F)c5F)c5nc(c(-c6c(F)c(F)c(F)c(F)c6F)c6ccc3[nH]6)C=C5)C=C4)cc2)[C@@H]1c1ccc(F)cc1
REMARK SMILES IDX 16 1 15 2 14 3 12 4 13 5 11 7 6 8 7 9 87 10 8 11 9 12 10 13
REMARK SMILES IDX 5 14 4 15 3 16 2 17 1 18 88 19 89 20 94 21 90 22 93 23 91 24
REMARK SMILES IDX 92 25 17 26 18 27 19 28 20 29 21 30 22 31 23 33 24 34 25 35
REMARK SMILES IDX 86 36 26 37 85 38 27 39 28 40 29 41 79 42 30 43 84 44 78 45
REMARK SMILES IDX 80 46 31 47 83 48 77 49 76 50 32 52 64 53 44 54 63 55 45 56
REMARK SMILES IDX 48 57 62 58 81 59 46 60 47 61 61 63 82 64 49 65 33 66 34 67
REMARK SMILES IDX 42 68 35 69 36 70 40 71 43 72 37 73 38 74 41 75 39 76 65 77
REMARK SMILES IDX 66 78 74 79 67 80 68 81 72 82 75 83 69 84 70 85 73 86 71 87
REMARK SMILES IDX 50 88 51 89 59 90 52 91 53 92 57 93 60 94 54 95 55 96 58 97
REMARK SMILES IDX 56 98
REMARK H PARENT 14 6 21 32 80 51 48 62
REMARK Flexibility Score: inf
ROOT
ATOM      1  C   UNL     1       4.921   6.687  -2.683  1.00  0.00     0.021 C 
ENDROOT
BRANCH   1   2
ATOM      2  C   UNL     1       3.981   5.752  -1.927  1.00  0.00     0.116 C 
BRANCH   2   3
ATOM      3  N   UNL     1       4.198   4.369  -2.296  1.00  0.00    -0.356 N 
ATOM      4  C   UNL     1       4.578   3.305  -1.536  1.00  0.00     0.225 C 
ATOM      5  O   UNL     1       4.819   2.251  -2.121  1.00  0.00    -0.275 OA
ATOM      6  H   UNL     1       4.046   4.165  -3.247  1.00  0.00     0.163 HD
BRANCH   4   7
ATOM      7  C   UNL     1       4.671   3.455  -0.019  1.00  0.00     0.106 C 
ATOM      8  N   UNL     1       2.553   2.253   0.510  1.00  0.00    -0.335 N 
ATOM      9  C   UNL     1       3.192   1.055   0.796  1.00  0.00     0.223 C 
ATOM     10  C   UNL     1       3.257   3.542   0.584  1.00  0.00     0.128 C 
ATOM     11  O   UNL     1       2.578   0.036   1.112  1.00  0.00    -0.275 OA
ATOM     12  C   UNL     1       4.691   0.988   0.592  1.00  0.00     0.101 C 
ATOM     13  C   UNL     1       5.439   2.308   0.635  1.00  0.00     0.026 C 
BRANCH   8  14
ATOM     14  C   UNL     1       1.091   2.280   0.363  1.00  0.00     0.122 C 
BRANCH  14  15
ATOM     15  C   UNL     1       0.640   2.324  -1.098  1.00  0.00     0.050 C 
BRANCH  15  16
ATOM     16  C   UNL     1       0.933   1.060  -1.905  1.00  0.00     0.161 C 
BRANCH  16  17
ATOM     17  O   UNL     1      -0.036   0.039  -1.671  1.00  0.00    -0.385 OA
ATOM     18  C   UNL     1       0.386  -0.950  -0.740  1.00  0.00     0.194 C 
ENDBRANCH  16  17
ENDBRANCH  15  16
ENDBRANCH  14  15
ENDBRANCH   8  14
BRANCH  10  19
ATOM     19  C   UNL     1       3.245   4.129   2.009  1.00  0.00    -0.024 A 
ATOM     20  C   UNL     1       2.702   3.432   3.108  1.00  0.00     0.009 A 
ATOM     21  C   UNL     1       3.734   5.429   2.239  1.00  0.00     0.009 A 
ATOM     22  C   UNL     1       2.642   4.010   4.378  1.00  0.00     0.039 A 
ATOM     23  C   UNL     1       3.684   6.004   3.513  1.00  0.00     0.039 A 
ATOM     24  C   UNL     1       3.134   5.291   4.569  1.00  0.00     0.123 A 
ATOM     25  F   UNL     1       3.070   5.851   5.783  1.00  0.00    -0.207 F 
ENDBRANCH  10  19
ENDBRANCH   4   7
ENDBRANCH   2   3
ENDBRANCH   1   2
BRANCH   1  26
ATOM     26  C   UNL     1       4.750   6.670  -4.207  1.00  0.00     0.002 C 
BRANCH  26  27
ATOM     27  C   UNL     1       3.327   6.933  -4.710  1.00  0.00     0.002 C 
BRANCH  27  28
ATOM     28  C   UNL     1       2.681   8.224  -4.203  1.00  0.00     0.021 C 
BRANCH  28  29
ATOM     29  C   UNL     1       3.474   9.494  -4.483  1.00  0.00     0.116 C 
BRANCH  29  30
ATOM     30  N   UNL     1       3.643   9.742  -5.903  1.00  0.00    -0.352 N 
ATOM     31  C   UNL     1       3.505  10.913  -6.604  1.00  0.00     0.251 C 
ATOM     32  H   UNL     1       3.894   8.957  -6.441  1.00  0.00     0.163 HD
ATOM     33  O   UNL     1       3.538  10.900  -7.830  1.00  0.00    -0.269 OA
BRANCH  31  34
ATOM     34  C   UNL     1       3.297  12.193  -5.889  1.00  0.00     0.039 A 
ATOM     35  C   UNL     1       2.381  13.108  -6.413  1.00  0.00     0.014 A 
ATOM     36  C   UNL     1       4.027  12.515  -4.740  1.00  0.00     0.014 A 
ATOM     37  C   UNL     1       2.180  14.334  -5.776  1.00  0.00     0.010 A 
ATOM     38  C   UNL     1       3.771  13.705  -4.063  1.00  0.00     0.010 A 
ATOM     39  C   UNL     1       2.865  14.638  -4.589  1.00  0.00    -0.014 A 
BRANCH  39  40
ATOM     40  C   UNL     1       2.687  15.954  -3.925  1.00  0.00     0.031 A 
ATOM     41  C   UNL     1       3.836  16.922  -3.853  1.00  0.00     0.074 A 
ATOM     42  C   UNL     1       1.503  16.267  -3.364  1.00  0.00     0.049 A 
ATOM     43  N   UNL     1       3.886  18.112  -3.309  1.00  0.00    -0.248 NA
ATOM     44  C   UNL     1       5.109  16.483  -4.447  1.00  0.00     0.031 C 
ATOM     45  C   UNL     1       0.330  15.395  -3.321  1.00  0.00     0.029 A 
ATOM     46  N   UNL     1       1.094  17.409  -2.722  1.00  0.00    -0.354 N 
ATOM     47  C   UNL     1       5.192  18.553  -3.483  1.00  0.00     0.074 A 
ATOM     48  C   UNL     1       5.918  17.481  -4.127  1.00  0.00     0.031 C 
ATOM     49  C   UNL     1      -0.677  16.043  -2.712  1.00  0.00     0.029 A 
ATOM     50  C   UNL     1      -0.213  17.365  -2.302  1.00  0.00     0.049 A 
ATOM     51  H   UNL     1       1.681  18.186  -2.577  1.00  0.00     0.167 HD
ATOM     52  C   UNL     1       5.731  19.754  -3.163  1.00  0.00     0.037 A 
ATOM     53  C   UNL     1      -0.953  18.292  -1.665  1.00  0.00     0.037 A 
ATOM     54  C   UNL     1       4.999  20.832  -2.553  1.00  0.00     0.049 A 
ATOM     55  C   UNL     1      -0.339  19.630  -1.349  1.00  0.00     0.074 A 
ATOM     56  C   UNL     1       5.438  22.105  -2.232  1.00  0.00     0.029 A 
ATOM     57  N   UNL     1       3.666  20.762  -2.174  1.00  0.00    -0.354 N 
ATOM     58  N   UNL     1       0.878  20.059  -1.578  1.00  0.00    -0.248 NA
ATOM     59  C   UNL     1      -1.212  20.618  -0.700  1.00  0.00     0.031 C 
ATOM     60  C   UNL     1       4.381  22.793  -1.627  1.00  0.00     0.029 A 
ATOM     61  C   UNL     1       3.269  21.966  -1.615  1.00  0.00     0.049 A 
ATOM     62  H   UNL     1       3.087  19.974  -2.286  1.00  0.00     0.167 HD
ATOM     63  C   UNL     1       0.909  21.374  -1.134  1.00  0.00     0.074 A 
ATOM     64  C   UNL     1      -0.418  21.677  -0.638  1.00  0.00     0.031 C 
ATOM     65  C   UNL     1       1.941  22.253  -1.136  1.00  0.00     0.037 A 
BRANCH  52  66
ATOM     66  C   UNL     1       7.185  19.965  -3.477  1.00  0.00     0.064 A 
ATOM     67  C   UNL     1       7.645  20.070  -4.799  1.00  0.00     0.173 A 
ATOM     68  C   UNL     1       8.128  20.083  -2.445  1.00  0.00     0.173 A 
ATOM     69  F   UNL     1       6.787  19.950  -5.823  1.00  0.00    -0.203 F 
ATOM     70  C   UNL     1       8.998  20.252  -5.076  1.00  0.00     0.198 A 
ATOM     71  C   UNL     1       9.476  20.297  -2.725  1.00  0.00     0.198 A 
ATOM     72  F   UNL     1       7.743  19.993  -1.163  1.00  0.00    -0.203 F 
ATOM     73  F   UNL     1       9.419  20.293  -6.348  1.00  0.00    -0.200 F 
ATOM     74  C   UNL     1       9.910  20.372  -4.040  1.00  0.00     0.200 A 
ATOM     75  F   UNL     1      10.355  20.423  -1.722  1.00  0.00    -0.200 F 
ATOM     76  F   UNL     1      11.211  20.550  -4.308  1.00  0.00    -0.200 F 
ENDBRANCH  52  66
BRANCH  53  77
ATOM     77  C   UNL     1      -2.372  18.008  -1.329  1.00  0.00     0.064 A 
ATOM     78  C   UNL     1      -3.415  18.665  -1.996  1.00  0.00     0.173 A 
ATOM     79  C   UNL     1      -2.714  17.086  -0.330  1.00  0.00     0.173 A 
ATOM     80  F   UNL     1      -3.136  19.570  -2.946  1.00  0.00    -0.203 F 
ATOM     81  C   UNL     1      -4.746  18.431  -1.659  1.00  0.00     0.198 A 
ATOM     82  C   UNL     1      -4.047  16.831  -0.013  1.00  0.00     0.198 A 
ATOM     83  F   UNL     1      -1.754  16.425   0.333  1.00  0.00    -0.203 F 
ATOM     84  F   UNL     1      -5.721  19.110  -2.278  1.00  0.00    -0.200 F 
ATOM     85  C   UNL     1      -5.062  17.511  -0.671  1.00  0.00     0.200 A 
ATOM     86  F   UNL     1      -4.349  15.931   0.932  1.00  0.00    -0.200 F 
ATOM     87  F   UNL     1      -6.342  17.285  -0.347  1.00  0.00    -0.200 F 
ENDBRANCH  53  77
BRANCH  65  88
ATOM     88  C   UNL     1       1.661  23.638  -0.627  1.00  0.00     0.064 A 
ATOM     89  C   UNL     1       1.431  23.893   0.733  1.00  0.00     0.173 A 
ATOM     90  C   UNL     1       1.636  24.726  -1.514  1.00  0.00     0.173 A 
ATOM     91  F   UNL     1       1.431  22.885   1.618  1.00  0.00    -0.203 F 
ATOM     92  C   UNL     1       1.147  25.180   1.181  1.00  0.00     0.198 A 
ATOM     93  C   UNL     1       1.384  26.016  -1.057  1.00  0.00     0.198 A 
ATOM     94  F   UNL     1       1.859  24.538  -2.823  1.00  0.00    -0.203 F 
ATOM     95  F   UNL     1       0.870  25.391   2.475  1.00  0.00    -0.200 F 
ATOM     96  C   UNL     1       1.128  26.241   0.287  1.00  0.00     0.200 A 
ATOM     97  F   UNL     1       1.380  27.042  -1.920  1.00  0.00    -0.200 F 
ATOM     98  F   UNL     1       0.853  27.479   0.720  1.00  0.00    -0.200 F 
ENDBRANCH  65  88
ENDBRANCH  39  40
ENDBRANCH  31  34
ENDBRANCH  29  30
ENDBRANCH  28  29
ENDBRANCH  27  28
ENDBRANCH  26  27
ENDBRANCH   1  26
TORSDOF 18
