REMARK SMILES O=C(NCCCCCCNC(=O)c1ccc(COc2cccc(Cl)c2Cl)o1)c1ccc(-c2c3nc(c(-c4c(F)c(F)c(F)c(F)c4F)c4ccc([nH]4)c(-c4c(F)c(F)c(F)c(F)c4F)c4nc(c(-c5c(F)c(F)c(F)c(F)c5F)c5ccc2[nH]5)C=C4)C=C3)cc1
REMARK SMILES IDX 7 1 6 2 5 3 4 4 3 5 1 6 2 7 28 9 29 10 90 11 30 12 89 13
REMARK SMILES IDX 31 14 32 15 33 16 83 17 34 18 88 19 82 20 84 21 35 22 87 23
REMARK SMILES IDX 81 24 80 25 36 27 68 28 48 29 67 30 49 31 52 32 66 33 85 34
REMARK SMILES IDX 50 35 51 36 65 38 86 39 53 40 37 41 38 42 46 43 39 44 40 45
REMARK SMILES IDX 44 46 47 47 41 48 42 49 45 50 43 51 69 52 70 53 78 54 71 55
REMARK SMILES IDX 72 56 76 57 79 58 73 59 74 60 77 61 75 62 54 63 55 64 63 65
REMARK SMILES IDX 56 66 57 67 61 68 64 69 58 70 59 71 62 72 60 73 8 74 9 75
REMARK SMILES IDX 10 76 11 77 12 79 13 80 14 81 27 82 15 83 16 84 17 85 18 86
REMARK SMILES IDX 19 87 20 88 25 89 21 90 23 91 26 92 22 93 24 94
REMARK H PARENT 3 8 84 26 52 37 10 78
REMARK Flexibility Score: inf
ROOT
ATOM      1  C   UNL     1       4.660   3.421  -2.936  1.00  0.00     0.002 C 
ENDROOT
BRANCH   1   2
ATOM      2  C   UNL     1       4.039   2.132  -3.482  1.00  0.00     0.002 C 
BRANCH   2   3
ATOM      3  C   UNL     1       4.470   0.836  -2.797  1.00  0.00     0.021 C 
BRANCH   3   4
ATOM      4  C   UNL     1       4.294   0.804  -1.286  1.00  0.00     0.116 C 
BRANCH   4   5
ATOM      5  N   UNL     1       2.903   0.805  -0.870  1.00  0.00    -0.352 N 
ATOM      6  O   UNL     1       1.073   0.065   0.229  1.00  0.00    -0.269 OA
ATOM      7  C   UNL     1       2.290   0.019   0.076  1.00  0.00     0.251 C 
ATOM      8  H   UNL     1       2.322   1.456  -1.326  1.00  0.00     0.163 HD
BRANCH   7   9
ATOM      9  C   UNL     1       3.099  -0.914   0.894  1.00  0.00     0.039 A 
ATOM     10  C   UNL     1       4.304  -0.502   1.468  1.00  0.00     0.014 A 
ATOM     11  C   UNL     1       2.643  -2.222   1.088  1.00  0.00     0.014 A 
ATOM     12  C   UNL     1       5.112  -1.429   2.116  1.00  0.00     0.010 A 
ATOM     13  C   UNL     1       3.419  -3.132   1.813  1.00  0.00     0.010 A 
ATOM     14  C   UNL     1       4.674  -2.750   2.310  1.00  0.00    -0.014 A 
BRANCH  14  15
ATOM     15  C   UNL     1       5.524  -3.676   3.101  1.00  0.00     0.031 A 
ATOM     16  C   UNL     1       6.178  -4.874   2.474  1.00  0.00     0.074 A 
ATOM     17  C   UNL     1       5.750  -3.382   4.396  1.00  0.00     0.049 A 
ATOM     18  N   UNL     1       7.016  -5.728   3.010  1.00  0.00    -0.248 NA
ATOM     19  C   UNL     1       5.849  -5.160   1.070  1.00  0.00     0.031 C 
ATOM     20  C   UNL     1       5.142  -2.263   5.119  1.00  0.00     0.029 A 
ATOM     21  N   UNL     1       6.569  -3.971   5.324  1.00  0.00    -0.354 N 
ATOM     22  C   UNL     1       7.305  -6.654   2.017  1.00  0.00     0.074 A 
ATOM     23  C   UNL     1       6.535  -6.275   0.851  1.00  0.00     0.031 C 
ATOM     24  C   UNL     1       5.653  -2.209   6.357  1.00  0.00     0.029 A 
ATOM     25  C   UNL     1       6.586  -3.317   6.531  1.00  0.00     0.049 A 
ATOM     26  H   UNL     1       7.093  -4.785   5.142  1.00  0.00     0.167 HD
ATOM     27  C   UNL     1       8.144  -7.717   2.074  1.00  0.00     0.037 A 
ATOM     28  C   UNL     1       7.277  -3.578   7.655  1.00  0.00     0.037 A 
ATOM     29  C   UNL     1       8.916  -8.086   3.234  1.00  0.00     0.049 A 
ATOM     30  C   UNL     1       8.219  -4.745   7.678  1.00  0.00     0.074 A 
ATOM     31  C   UNL     1       9.799  -9.142   3.386  1.00  0.00     0.029 A 
ATOM     32  N   UNL     1       8.899  -7.405   4.443  1.00  0.00    -0.354 N 
ATOM     33  N   UNL     1       8.498  -5.599   6.723  1.00  0.00    -0.248 NA
ATOM     34  C   UNL     1       8.941  -4.987   8.933  1.00  0.00     0.031 C 
ATOM     35  C   UNL     1      10.295  -9.117   4.694  1.00  0.00     0.029 A 
ATOM     36  C   UNL     1       9.749  -8.024   5.347  1.00  0.00     0.049 A 
ATOM     37  H   UNL     1       8.363  -6.602   4.631  1.00  0.00     0.167 HD
ATOM     38  C   UNL     1       9.421  -6.481   7.262  1.00  0.00     0.074 A 
ATOM     39  C   UNL     1       9.687  -6.035   8.614  1.00  0.00     0.031 C 
ATOM     40  C   UNL     1       9.988  -7.572   6.693  1.00  0.00     0.037 A 
BRANCH  27  41
ATOM     41  C   UNL     1       8.277  -8.568   0.846  1.00  0.00     0.064 A 
ATOM     42  C   UNL     1       9.003  -8.131  -0.272  1.00  0.00     0.173 A 
ATOM     43  C   UNL     1       7.731  -9.860   0.810  1.00  0.00     0.173 A 
ATOM     44  F   UNL     1       9.535  -6.899  -0.291  1.00  0.00    -0.203 F 
ATOM     45  C   UNL     1       9.168  -8.952  -1.385  1.00  0.00     0.198 A 
ATOM     46  C   UNL     1       7.916 -10.686  -0.296  1.00  0.00     0.198 A 
ATOM     47  F   UNL     1       7.032 -10.328   1.855  1.00  0.00    -0.203 F 
ATOM     48  F   UNL     1       9.842  -8.503  -2.452  1.00  0.00    -0.200 F 
ATOM     49  C   UNL     1       8.631 -10.231  -1.393  1.00  0.00     0.200 A 
ATOM     50  F   UNL     1       7.405 -11.926  -0.299  1.00  0.00    -0.200 F 
ATOM     51  F   UNL     1       8.801 -11.024  -2.460  1.00  0.00    -0.200 F 
ENDBRANCH  27  41
BRANCH  28  52
ATOM     52  C   UNL     1       7.103  -2.705   8.843  1.00  0.00     0.064 A 
ATOM     53  C   UNL     1       8.126  -1.846   9.265  1.00  0.00     0.173 A 
ATOM     54  C   UNL     1       5.902  -2.700   9.566  1.00  0.00     0.173 A 
ATOM     55  F   UNL     1       9.298  -1.829   8.615  1.00  0.00    -0.203 F 
ATOM     56  C   UNL     1       7.957  -1.022  10.376  1.00  0.00     0.198 A 
ATOM     57  C   UNL     1       5.724  -1.856  10.659  1.00  0.00     0.198 A 
ATOM     58  F   UNL     1       4.891  -3.500   9.195  1.00  0.00    -0.203 F 
ATOM     59  F   UNL     1       8.963  -0.236  10.782  1.00  0.00    -0.200 F 
ATOM     60  C   UNL     1       6.755  -1.022  11.068  1.00  0.00     0.200 A 
ATOM     61  F   UNL     1       4.555  -1.847  11.313  1.00  0.00    -0.200 F 
ATOM     62  F   UNL     1       6.590  -0.223  12.130  1.00  0.00    -0.200 F 
ENDBRANCH  28  52
BRANCH  40  63
ATOM     63  C   UNL     1      10.943  -8.355   7.543  1.00  0.00     0.064 A 
ATOM     64  C   UNL     1      10.484  -9.166   8.592  1.00  0.00     0.173 A 
ATOM     65  C   UNL     1      12.323  -8.298   7.307  1.00  0.00     0.173 A 
ATOM     66  F   UNL     1       9.173  -9.237   8.866  1.00  0.00    -0.203 F 
ATOM     67  C   UNL     1      11.378  -9.868   9.395  1.00  0.00     0.198 A 
ATOM     68  C   UNL     1      13.213  -9.021   8.097  1.00  0.00     0.198 A 
ATOM     69  F   UNL     1      12.809  -7.539   6.313  1.00  0.00    -0.203 F 
ATOM     70  F   UNL     1      10.923 -10.595  10.424  1.00  0.00    -0.200 F 
ATOM     71  C   UNL     1      12.741  -9.797   9.145  1.00  0.00     0.200 A 
ATOM     72  F   UNL     1      14.528  -8.957   7.851  1.00  0.00    -0.200 F 
ATOM     73  F   UNL     1      13.601 -10.470   9.922  1.00  0.00    -0.200 F 
ENDBRANCH  40  63
ENDBRANCH  14  15
ENDBRANCH   7   9
ENDBRANCH   4   5
ENDBRANCH   3   4
ENDBRANCH   2   3
ENDBRANCH   1   2
BRANCH   1  74
ATOM     74  C   UNL     1       6.183   3.418  -2.761  1.00  0.00     0.021 C 
BRANCH  74  75
ATOM     75  C   UNL     1       6.986   3.023  -3.997  1.00  0.00     0.116 C 
BRANCH  75  76
ATOM     76  N   UNL     1       6.824   3.979  -5.071  1.00  0.00    -0.349 N 
ATOM     77  C   UNL     1       7.783   4.717  -5.721  1.00  0.00     0.286 C 
ATOM     78  H   UNL     1       5.899   4.119  -5.379  1.00  0.00     0.163 HD
ATOM     79  O   UNL     1       7.388   5.625  -6.457  1.00  0.00    -0.266 OA
BRANCH  77  80
ATOM     80  C   UNL     1       9.179   4.394  -5.534  1.00  0.00     0.191 A 
ATOM     81  C   UNL     1       9.875   3.199  -5.467  1.00  0.00     0.057 A 
ATOM     82  O   UNL     1      10.067   5.430  -5.466  1.00  0.00    -0.452 OA
ATOM     83  C   UNL     1      11.248   3.525  -5.344  1.00  0.00     0.050 A 
ATOM     84  C   UNL     1      11.320   4.901  -5.378  1.00  0.00     0.142 A 
BRANCH  84  85
ATOM     85  C   UNL     1      12.451   5.865  -5.429  1.00  0.00     0.304 C 
BRANCH  85  86
ATOM     86  O   UNL     1      12.275   6.743  -6.557  1.00  0.00    -0.484 OA
BRANCH  86  87
ATOM     87  C   UNL     1      12.709   6.177  -7.731  1.00  0.00     0.140 A 
ATOM     88  C   UNL     1      11.796   5.420  -8.475  1.00  0.00     0.048 A 
ATOM     89  C   UNL     1      13.996   6.422  -8.224  1.00  0.00     0.101 A 
ATOM     90  C   UNL     1      12.184   4.838  -9.678  1.00  0.00     0.005 A 
ATOM     91  C   UNL     1      14.374   5.851  -9.447  1.00  0.00     0.063 A 
ATOM     92  Cl  UNL     1      15.084   7.419  -7.315  1.00  0.00    -0.079 Cl
ATOM     93  C   UNL     1      13.473   5.051 -10.162  1.00  0.00     0.022 A 
ATOM     94  Cl  UNL     1      15.939   6.094 -10.141  1.00  0.00    -0.083 Cl
ENDBRANCH  86  87
ENDBRANCH  85  86
ENDBRANCH  84  85
ENDBRANCH  77  80
ENDBRANCH  75  76
ENDBRANCH  74  75
ENDBRANCH   1  74
TORSDOF 16
