REMARK SMILES CC(C)(Br)[C@H](Br)C(=O)NCCCCCCNC(=O)c1ccc(-c2c3nc(c(-c4c(F)c(F)c(F)c(F)c4F)c4ccc([nH]4)c(-c4c(F)c(F)c(F)c(F)c4F)c4nc(c(-c5c(F)c(F)c(F)c(F)c5F)c5ccc2[nH]5)C=C4)C=C3)cc1
REMARK SMILES IDX 13 1 12 2 11 3 10 4 9 5 7 6 8 7 5 9 6 10 2 11 1 12 3 13 4 14
REMARK SMILES IDX 14 15 15 16 16 17 17 18 18 20 19 21 20 22 81 23 21 24 80 25
REMARK SMILES IDX 22 26 23 27 24 28 74 29 25 30 79 31 73 32 75 33 26 34 78 35
REMARK SMILES IDX 72 36 71 37 27 39 59 40 39 41 58 42 40 43 43 44 57 45 76 46
REMARK SMILES IDX 41 47 42 48 56 50 77 51 44 52 28 53 29 54 37 55 30 56 31 57
REMARK SMILES IDX 35 58 38 59 32 60 33 61 36 62 34 63 60 64 61 65 69 66 62 67
REMARK SMILES IDX 63 68 67 69 70 70 64 71 65 72 68 73 66 74 45 75 46 76 54 77
REMARK SMILES IDX 47 78 48 79 52 80 55 81 49 82 50 83 53 84 51 85
REMARK H PARENT 9 8 16 19 75 38 43 49
REMARK Flexibility Score: inf
ROOT
ATOM      1  C   UNL     1       5.173   2.479  -0.251  1.00  0.00     0.002 C 
ENDROOT
BRANCH   1   2
ATOM      2  C   UNL     1       4.807   1.254   0.597  1.00  0.00     0.002 C 
BRANCH   2   3
ATOM      3  C   UNL     1       3.315   0.906   0.646  1.00  0.00     0.021 C 
BRANCH   3   4
ATOM      4  C   UNL     1       2.654   0.792  -0.722  1.00  0.00     0.116 C 
BRANCH   4   5
ATOM      5  N   UNL     1       3.164  -0.327  -1.494  1.00  0.00    -0.355 N 
ATOM      6  C   UNL     1       2.514  -1.269  -2.231  1.00  0.00     0.235 C 
ATOM      7  O   UNL     1       3.217  -2.030  -2.906  1.00  0.00    -0.274 OA
ATOM      8  H   UNL     1       4.144  -0.420  -1.482  1.00  0.00     0.163 HD
BRANCH   6   9
ATOM      9  C   UNL     1       0.996  -1.405  -2.276  1.00  0.00     0.162 C 
ATOM     10  Br  UNL     1       0.335  -1.682  -0.444  1.00  0.00    -0.077 Br
BRANCH   9  11
ATOM     11  C   UNL     1       0.168  -0.476  -3.195  1.00  0.00     0.042 C 
ATOM     12  C   UNL     1      -1.244  -0.145  -2.691  1.00  0.00     0.025 C 
ATOM     13  C   UNL     1       0.056  -1.124  -4.591  1.00  0.00     0.025 C 
ATOM     14  Br  UNL     1       1.012   1.286  -3.555  1.00  0.00    -0.084 Br
ENDBRANCH   9  11
ENDBRANCH   6   9
ENDBRANCH   4   5
ENDBRANCH   3   4
ENDBRANCH   2   3
ENDBRANCH   1   2
BRANCH   1  15
ATOM     15  C   UNL     1       4.412   3.764   0.084  1.00  0.00     0.021 C 
BRANCH  15  16
ATOM     16  C   UNL     1       4.506   4.204   1.539  1.00  0.00     0.116 C 
BRANCH  16  17
ATOM     17  N   UNL     1       5.876   4.451   1.954  1.00  0.00    -0.352 N 
ATOM     18  C   UNL     1       6.415   5.544   2.580  1.00  0.00     0.251 C 
ATOM     19  H   UNL     1       6.512   3.725   1.757  1.00  0.00     0.163 HD
ATOM     20  O   UNL     1       7.635   5.649   2.694  1.00  0.00    -0.269 OA
BRANCH  18  21
ATOM     21  C   UNL     1       5.536   6.612   3.098  1.00  0.00     0.039 A 
ATOM     22  C   UNL     1       5.902   7.943   2.885  1.00  0.00     0.014 A 
ATOM     23  C   UNL     1       4.363   6.310   3.798  1.00  0.00     0.014 A 
ATOM     24  C   UNL     1       5.064   8.969   3.322  1.00  0.00     0.010 A 
ATOM     25  C   UNL     1       3.491   7.331   4.163  1.00  0.00     0.010 A 
ATOM     26  C   UNL     1       3.833   8.671   3.932  1.00  0.00    -0.014 A 
BRANCH  26  27
ATOM     27  C   UNL     1       2.893   9.755   4.311  1.00  0.00     0.031 A 
ATOM     28  C   UNL     1       2.539   9.993   5.752  1.00  0.00     0.074 A 
ATOM     29  C   UNL     1       2.319  10.497   3.344  1.00  0.00     0.049 A 
ATOM     30  N   UNL     1       1.732  10.885   6.269  1.00  0.00    -0.248 NA
ATOM     31  C   UNL     1       3.153   9.095   6.741  1.00  0.00     0.031 C 
ATOM     32  C   UNL     1       2.541  10.325   1.908  1.00  0.00     0.029 A 
ATOM     33  N   UNL     1       1.433  11.541   3.422  1.00  0.00    -0.354 N 
ATOM     34  C   UNL     1       1.735  10.650   7.638  1.00  0.00     0.074 A 
ATOM     35  C   UNL     1       2.577   9.495   7.865  1.00  0.00     0.031 C 
ATOM     36  C   UNL     1       1.840  11.255   1.241  1.00  0.00     0.029 A 
ATOM     37  C   UNL     1       1.089  12.062   2.199  1.00  0.00     0.049 A 
ATOM     38  H   UNL     1       1.077  11.884   4.273  1.00  0.00     0.167 HD
ATOM     39  C   UNL     1       1.112  11.349   8.617  1.00  0.00     0.037 A 
ATOM     40  C   UNL     1       0.261  13.075   1.884  1.00  0.00     0.037 A 
ATOM     41  C   UNL     1       0.284  12.505   8.385  1.00  0.00     0.049 A 
ATOM     42  C   UNL     1      -0.432  13.825   2.988  1.00  0.00     0.074 A 
ATOM     43  C   UNL     1      -0.337  13.323   9.312  1.00  0.00     0.029 A 
ATOM     44  N   UNL     1      -0.048  13.000   7.131  1.00  0.00    -0.354 N 
ATOM     45  N   UNL     1      -0.355  13.648   4.285  1.00  0.00    -0.248 NA
ATOM     46  C   UNL     1      -1.323  14.920   2.583  1.00  0.00     0.031 C 
ATOM     47  C   UNL     1      -1.095  14.274   8.619  1.00  0.00     0.029 A 
ATOM     48  C   UNL     1      -0.895  14.090   7.261  1.00  0.00     0.049 A 
ATOM     49  H   UNL     1       0.271  12.631   6.276  1.00  0.00     0.167 HD
ATOM     50  C   UNL     1      -1.165  14.623   4.852  1.00  0.00     0.074 A 
ATOM     51  C   UNL     1      -1.708  15.401   3.757  1.00  0.00     0.031 C 
ATOM     52  C   UNL     1      -1.435  14.851   6.161  1.00  0.00     0.037 A 
BRANCH  39  53
ATOM     53  C   UNL     1       1.296  10.873  10.032  1.00  0.00     0.064 A 
ATOM     54  C   UNL     1       2.537  10.952  10.684  1.00  0.00     0.173 A 
ATOM     55  C   UNL     1       0.212  10.350  10.753  1.00  0.00     0.173 A 
ATOM     56  F   UNL     1       3.609  11.436  10.039  1.00  0.00    -0.203 F 
ATOM     57  C   UNL     1       2.694  10.488  11.988  1.00  0.00     0.198 A 
ATOM     58  C   UNL     1       0.365   9.920  12.069  1.00  0.00     0.198 A 
ATOM     59  F   UNL     1      -0.999  10.258  10.184  1.00  0.00    -0.203 F 
ATOM     60  F   UNL     1       3.903  10.517  12.566  1.00  0.00    -0.200 F 
ATOM     61  C   UNL     1       1.607   9.979  12.681  1.00  0.00     0.200 A 
ATOM     62  F   UNL     1      -0.691   9.442  12.743  1.00  0.00    -0.200 F 
ATOM     63  F   UNL     1       1.759   9.536  13.937  1.00  0.00    -0.200 F 
ENDBRANCH  39  53
BRANCH  40  64
ATOM     64  C   UNL     1       0.071  13.459   0.461  1.00  0.00     0.064 A 
ATOM     65  C   UNL     1       0.570  14.673  -0.029  1.00  0.00     0.173 A 
ATOM     66  C   UNL     1      -0.600  12.618  -0.440  1.00  0.00     0.173 A 
ATOM     67  F   UNL     1       1.201  15.520   0.798  1.00  0.00    -0.203 F 
ATOM     68  C   UNL     1       0.392  15.041  -1.361  1.00  0.00     0.198 A 
ATOM     69  C   UNL     1      -0.751  12.973  -1.779  1.00  0.00     0.198 A 
ATOM     70  F   UNL     1      -1.092  11.442  -0.023  1.00  0.00    -0.203 F 
ATOM     71  F   UNL     1       0.843  16.226  -1.793  1.00  0.00    -0.200 F 
ATOM     72  C   UNL     1      -0.261  14.187  -2.237  1.00  0.00     0.200 A 
ATOM     73  F   UNL     1      -1.369  12.138  -2.625  1.00  0.00    -0.200 F 
ATOM     74  F   UNL     1      -0.424  14.536  -3.520  1.00  0.00    -0.200 F 
ENDBRANCH  40  64
BRANCH  52  75
ATOM     75  C   UNL     1      -2.342  16.006   6.482  1.00  0.00     0.064 A 
ATOM     76  C   UNL     1      -3.711  15.976   6.177  1.00  0.00     0.173 A 
ATOM     77  C   UNL     1      -1.840  17.148   7.125  1.00  0.00     0.173 A 
ATOM     78  F   UNL     1      -4.240  14.915   5.548  1.00  0.00    -0.203 F 
ATOM     79  C   UNL     1      -4.536  17.058   6.472  1.00  0.00     0.198 A 
ATOM     80  C   UNL     1      -2.674  18.213   7.451  1.00  0.00     0.198 A 
ATOM     81  F   UNL     1      -0.540  17.227   7.447  1.00  0.00    -0.203 F 
ATOM     82  F   UNL     1      -5.828  17.030   6.117  1.00  0.00    -0.200 F 
ATOM     83  C   UNL     1      -4.018  18.173   7.115  1.00  0.00     0.200 A 
ATOM     84  F   UNL     1      -2.175  19.282   8.087  1.00  0.00    -0.200 F 
ATOM     85  F   UNL     1      -4.814  19.212   7.404  1.00  0.00    -0.200 F 
ENDBRANCH  52  75
ENDBRANCH  26  27
ENDBRANCH  18  21
ENDBRANCH  16  17
ENDBRANCH  15  16
ENDBRANCH   1  15
TORSDOF 14
