REMARK SMILES C[C@H]1CCC[C@@](NC(=O)N2CCO[C@H](C#N)C2)(C(=O)NCCCCCCNC(=O)c2ccc(-c3c4nc(c(-c5c(F)c(F)c(F)c(F)c5F)c5ccc([nH]5)c(-c5c(F)c(F)c(F)c(F)c5F)c5nc(c(-c6c(F)c(F)c(F)c(F)c6F)c6ccc3[nH]6)C=C5)C=C4)cc2)C1
REMARK SMILES IDX 23 1 22 2 21 3 20 4 18 5 19 6 6 8 1 9 2 10 3 11 93 12 4 13
REMARK SMILES IDX 5 14 7 15 8 16 9 18 10 19 11 20 17 21 12 22 14 23 13 24
REMARK SMILES IDX 15 25 16 26 24 27 25 28 26 29 27 30 28 31 29 33 30 34 31 35
REMARK SMILES IDX 92 36 32 37 91 38 33 39 34 40 35 41 85 42 36 43 90 44 84 45
REMARK SMILES IDX 86 46 37 47 89 48 83 49 82 50 38 52 70 53 50 54 69 55 51 56
REMARK SMILES IDX 54 57 68 58 87 59 52 60 53 61 67 63 88 64 55 65 39 66 40 67
REMARK SMILES IDX 48 68 41 69 42 70 46 71 49 72 43 73 44 74 47 75 45 76 71 77
REMARK SMILES IDX 72 78 80 79 73 80 74 81 78 82 81 83 75 84 76 85 79 86 77 87
REMARK SMILES IDX 56 88 57 89 65 90 58 91 59 92 63 93 66 94 60 95 61 96 64 97
REMARK SMILES IDX 62 98
REMARK H PARENT 20 7 7 17 27 32 86 51 54 62
REMARK Flexibility Score: inf
ROOT
ATOM      1  C   UNL     1      -6.399  -2.232  -0.649  1.00  0.00     0.002 C 
ENDROOT
BRANCH   1   2
ATOM      2  C   UNL     1      -5.578  -0.979  -0.334  1.00  0.00     0.021 C 
BRANCH   2   3
ATOM      3  C   UNL     1      -4.236  -1.352   0.267  1.00  0.00     0.116 C 
BRANCH   3   4
ATOM      4  N   UNL     1      -3.361  -1.832  -0.791  1.00  0.00    -0.354 N 
ATOM      5  C   UNL     1      -2.004  -1.795  -0.912  1.00  0.00     0.245 C 
ATOM      6  O   UNL     1      -1.522  -2.349  -1.905  1.00  0.00    -0.272 OA
ATOM      7  H   UNL     1      -3.827  -2.256  -1.547  1.00  0.00     0.163 HD
BRANCH   5   8
ATOM      8  C   UNL     1      -1.139  -1.009   0.099  1.00  0.00     0.121 C 
ATOM      9  C   UNL     1       2.698  -0.110  -0.059  1.00  0.00     0.008 C 
ATOM     10  C   UNL     1       1.246   0.006   0.405  1.00  0.00    -0.011 C 
ATOM     11  C   UNL     1       0.717   1.387   0.012  1.00  0.00     0.003 C 
ATOM     12  C   UNL     1       0.383  -1.141  -0.177  1.00  0.00     0.042 C 
ATOM     13  C   UNL     1      -0.717   1.544   0.459  1.00  0.00     0.003 C 
ATOM     14  C   UNL     1      -1.566   0.471  -0.188  1.00  0.00     0.039 C 
BRANCH   8  15
ATOM     15  N   UNL     1      -1.445  -1.428   1.489  1.00  0.00    -0.323 N 
ATOM     16  C   UNL     1      -1.798  -2.581   2.113  1.00  0.00     0.318 C 
ATOM     17  H   UNL     1      -1.373  -0.677   2.121  1.00  0.00     0.166 HD
ATOM     18  O   UNL     1      -1.966  -2.498   3.333  1.00  0.00    -0.249 OA
BRANCH  16  19
ATOM     19  N   UNL     1      -2.181  -3.700   1.423  1.00  0.00    -0.319 N 
ATOM     20  C   UNL     1      -3.240  -4.534   2.018  1.00  0.00     0.150 C 
ATOM     21  C   UNL     1      -1.379  -4.445   0.430  1.00  0.00     0.169 C 
ATOM     22  C   UNL     1      -4.066  -5.222   0.923  1.00  0.00     0.183 C 
ATOM     23  C   UNL     1      -2.286  -5.134  -0.618  1.00  0.00     0.240 C 
ATOM     24  O   UNL     1      -3.233  -6.001   0.056  1.00  0.00    -0.360 OA
BRANCH  23  25
ATOM     25  C   UNL     1      -1.502  -5.902  -1.601  1.00  0.00     0.096 C 
ATOM     26  N   UNL     1      -0.909  -6.497  -2.399  1.00  0.00    -0.195 NA
ENDBRANCH  23  25
ENDBRANCH  16  19
ENDBRANCH   8  15
ENDBRANCH   5   8
ENDBRANCH   3   4
ENDBRANCH   2   3
ENDBRANCH   1   2
BRANCH   1  27
ATOM     27  C   UNL     1      -6.886  -2.973   0.603  1.00  0.00     0.002 C 
BRANCH  27  28
ATOM     28  C   UNL     1      -7.740  -2.134   1.542  1.00  0.00     0.021 C 
BRANCH  28  29
ATOM     29  C   UNL     1      -8.883  -1.437   0.833  1.00  0.00     0.116 C 
BRANCH  29  30
ATOM     30  N   UNL     1      -9.754  -2.392   0.165  1.00  0.00    -0.352 N 
ATOM     31  C   UNL     1     -11.105  -2.555   0.304  1.00  0.00     0.251 C 
ATOM     32  H   UNL     1      -9.312  -3.001  -0.470  1.00  0.00     0.163 HD
ATOM     33  O   UNL     1     -11.661  -3.561  -0.120  1.00  0.00    -0.269 OA
BRANCH  31  34
ATOM     34  C   UNL     1     -11.873  -1.506   0.998  1.00  0.00     0.039 A 
ATOM     35  C   UNL     1     -12.851  -1.884   1.914  1.00  0.00     0.014 A 
ATOM     36  C   UNL     1     -11.586  -0.154   0.777  1.00  0.00     0.014 A 
ATOM     37  C   UNL     1     -13.509  -0.899   2.644  1.00  0.00     0.010 A 
ATOM     38  C   UNL     1     -12.150   0.812   1.595  1.00  0.00     0.010 A 
ATOM     39  C   UNL     1     -13.133   0.452   2.523  1.00  0.00    -0.014 A 
BRANCH  39  40
ATOM     40  C   UNL     1     -13.779   1.486   3.365  1.00  0.00     0.031 A 
ATOM     41  C   UNL     1     -14.557   2.605   2.731  1.00  0.00     0.074 A 
ATOM     42  C   UNL     1     -13.658   1.407   4.705  1.00  0.00     0.049 A 
ATOM     43  N   UNL     1     -15.231   3.569   3.306  1.00  0.00    -0.248 NA
ATOM     44  C   UNL     1     -14.567   2.670   1.259  1.00  0.00     0.031 C 
ATOM     45  C   UNL     1     -12.870   0.403   5.425  1.00  0.00     0.029 A 
ATOM     46  N   UNL     1     -14.208   2.171   5.701  1.00  0.00    -0.354 N 
ATOM     47  C   UNL     1     -15.749   4.337   2.273  1.00  0.00     0.074 A 
ATOM     48  C   UNL     1     -15.247   3.784   1.036  1.00  0.00     0.031 C 
ATOM     49  C   UNL     1     -13.037   0.576   6.745  1.00  0.00     0.029 A 
ATOM     50  C   UNL     1     -13.899   1.732   6.965  1.00  0.00     0.049 A 
ATOM     51  H   UNL     1     -14.772   2.959   5.527  1.00  0.00     0.167 HD
ATOM     52  C   UNL     1     -16.602   5.385   2.347  1.00  0.00     0.037 A 
ATOM     53  C   UNL     1     -14.270   2.212   8.166  1.00  0.00     0.037 A 
ATOM     54  C   UNL     1     -17.103   5.928   3.582  1.00  0.00     0.049 A 
ATOM     55  C   UNL     1     -15.191   3.403   8.211  1.00  0.00     0.074 A 
ATOM     56  C   UNL     1     -17.991   6.972   3.768  1.00  0.00     0.029 A 
ATOM     57  N   UNL     1     -16.756   5.469   4.845  1.00  0.00    -0.354 N 
ATOM     58  N   UNL     1     -15.739   4.070   7.224  1.00  0.00    -0.248 NA
ATOM     59  C   UNL     1     -15.556   3.900   9.544  1.00  0.00     0.031 C 
ATOM     60  C   UNL     1     -18.135   7.184   5.142  1.00  0.00     0.029 A 
ATOM     61  C   UNL     1     -17.394   6.226   5.814  1.00  0.00     0.049 A 
ATOM     62  H   UNL     1     -16.146   4.717   5.025  1.00  0.00     0.167 HD
ATOM     63  C   UNL     1     -16.535   5.041   7.816  1.00  0.00     0.074 A 
ATOM     64  C   UNL     1     -16.430   4.847   9.247  1.00  0.00     0.031 C 
ATOM     65  C   UNL     1     -17.279   6.014   7.234  1.00  0.00     0.037 A 
BRANCH  52  66
ATOM     66  C   UNL     1     -17.066   6.005   1.060  1.00  0.00     0.064 A 
ATOM     67  C   UNL     1     -17.926   5.320   0.186  1.00  0.00     0.173 A 
ATOM     68  C   UNL     1     -16.709   7.320   0.730  1.00  0.00     0.173 A 
ATOM     69  F   UNL     1     -18.286   4.054   0.446  1.00  0.00    -0.203 F 
ATOM     70  C   UNL     1     -18.399   5.925  -0.975  1.00  0.00     0.198 A 
ATOM     71  C   UNL     1     -17.212   7.934  -0.415  1.00  0.00     0.198 A 
ATOM     72  F   UNL     1     -15.890   8.020   1.529  1.00  0.00    -0.203 F 
ATOM     73  F   UNL     1     -19.189   5.238  -1.812  1.00  0.00    -0.200 F 
ATOM     74  C   UNL     1     -18.053   7.235  -1.268  1.00  0.00     0.200 A 
ATOM     75  F   UNL     1     -16.888   9.205  -0.688  1.00  0.00    -0.200 F 
ATOM     76  F   UNL     1     -18.527   7.824  -2.374  1.00  0.00    -0.200 F 
ENDBRANCH  52  66
BRANCH  53  77
ATOM     77  C   UNL     1     -13.782   1.581   9.423  1.00  0.00     0.064 A 
ATOM     78  C   UNL     1     -14.671   0.998  10.338  1.00  0.00     0.173 A 
ATOM     79  C   UNL     1     -12.422   1.606   9.768  1.00  0.00     0.173 A 
ATOM     80  F   UNL     1     -15.984   0.958  10.063  1.00  0.00    -0.203 F 
ATOM     81  C   UNL     1     -14.229   0.520  11.570  1.00  0.00     0.198 A 
ATOM     82  C   UNL     1     -11.975   1.086  10.981  1.00  0.00     0.198 A 
ATOM     83  F   UNL     1     -11.524   2.140   8.927  1.00  0.00    -0.203 F 
ATOM     84  F   UNL     1     -15.114   0.052  12.460  1.00  0.00    -0.200 F 
ATOM     85  C   UNL     1     -12.881   0.563  11.889  1.00  0.00     0.200 A 
ATOM     86  F   UNL     1     -10.668   1.110  11.275  1.00  0.00    -0.200 F 
ATOM     87  F   UNL     1     -12.458   0.116  13.079  1.00  0.00    -0.200 F 
ENDBRANCH  53  77
BRANCH  65  88
ATOM     88  C   UNL     1     -18.065   6.910   8.151  1.00  0.00     0.064 A 
ATOM     89  C   UNL     1     -17.436   7.799   9.036  1.00  0.00     0.173 A 
ATOM     90  C   UNL     1     -19.468   6.870   8.152  1.00  0.00     0.173 A 
ATOM     91  F   UNL     1     -16.097   7.872   9.083  1.00  0.00    -0.203 F 
ATOM     92  C   UNL     1     -18.178   8.566   9.929  1.00  0.00     0.198 A 
ATOM     93  C   UNL     1     -20.209   7.674   9.013  1.00  0.00     0.198 A 
ATOM     94  F   UNL     1     -20.124   6.051   7.316  1.00  0.00    -0.203 F 
ATOM     95  F   UNL     1     -17.551   9.339  10.826  1.00  0.00    -0.200 F 
ATOM     96  C   UNL     1     -19.563   8.507   9.914  1.00  0.00     0.200 A 
ATOM     97  F   UNL     1     -21.548   7.632   8.981  1.00  0.00    -0.200 F 
ATOM     98  F   UNL     1     -20.276   9.242  10.778  1.00  0.00    -0.200 F 
ENDBRANCH  65  88
ENDBRANCH  39  40
ENDBRANCH  31  34
ENDBRANCH  29  30
ENDBRANCH  28  29
ENDBRANCH  27  28
ENDBRANCH   1  27
TORSDOF 16
