REMARK SMILES CNC(=O)[C@H]1CCCCN1C(=O)NCCOCC(=O)NCCCCCCNC(=O)c1ccc(-c2c3nc(c(-c4c(F)c(F)c(F)c(F)c4F)c4ccc([nH]4)c(-c4c(F)c(F)c(F)c(F)c4F)c4nc(c(-c5c(F)c(F)c(F)c(F)c5F)c5ccc2[nH]5)C=C4)C=C3)cc1
REMARK SMILES IDX 21 1 20 2 18 3 19 4 17 6 16 7 15 8 14 9 13 10 11 11 12 12
REMARK SMILES IDX 10 14 5 15 6 16 7 17 9 18 8 19 3 20 1 21 2 22 4 24 22 25
REMARK SMILES IDX 23 26 24 27 25 28 26 29 27 30 28 31 29 33 30 34 31 35 92 36
REMARK SMILES IDX 32 37 91 38 33 39 34 40 35 41 85 42 36 43 90 44 84 45 86 46
REMARK SMILES IDX 37 47 89 48 83 49 82 50 38 52 70 53 50 54 69 55 51 56 54 57
REMARK SMILES IDX 68 58 87 59 52 60 53 61 67 63 88 64 55 65 39 66 40 67 48 68
REMARK SMILES IDX 41 69 42 70 46 71 49 72 43 73 44 74 47 75 45 76 71 77 72 78
REMARK SMILES IDX 80 79 73 80 74 81 78 82 81 83 75 84 76 85 79 86 77 87 56 88
REMARK SMILES IDX 57 89 65 90 58 91 59 92 63 93 66 94 60 95 61 96 64 97 62 98
REMARK H PARENT 20 5 13 13 2 23 27 32 86 51 54 62
REMARK Flexibility Score: inf
ROOT
ATOM      1  C   UNL     1       0.259  -0.281  10.465  1.00  0.00     0.116 C 
ENDROOT
BRANCH   1   2
ATOM      2  N   UNL     1       0.171  -0.990   9.206  1.00  0.00    -0.354 N 
ATOM      3  C   UNL     1       0.959  -0.841   8.103  1.00  0.00     0.245 C 
ATOM      4  O   UNL     1       0.770  -1.570   7.130  1.00  0.00    -0.272 OA
ATOM      5  H   UNL     1      -0.546  -1.661   9.138  1.00  0.00     0.163 HD
BRANCH   3   6
ATOM      6  C   UNL     1       2.081   0.201   8.132  1.00  0.00     0.260 C 
BRANCH   6   7
ATOM      7  O   UNL     1       1.691   1.555   8.304  1.00  0.00    -0.370 OA
BRANCH   7   8
ATOM      8  C   UNL     1       0.921   2.103   7.225  1.00  0.00     0.182 C 
BRANCH   8   9
ATOM      9  C   UNL     1       1.754   2.318   5.955  1.00  0.00     0.146 C 
BRANCH   9  10
ATOM     10  N   UNL     1       1.692   1.179   5.052  1.00  0.00    -0.336 N 
ATOM     11  C   UNL     1       0.866   0.701   4.111  1.00  0.00     0.318 C 
ATOM     12  O   UNL     1       1.228  -0.378   3.629  1.00  0.00    -0.249 OA
ATOM     13  H   UNL     1       2.478   0.596   5.164  1.00  0.00     0.165 HD
BRANCH  11  14
ATOM     14  N   UNL     1      -0.244   1.356   3.657  1.00  0.00    -0.313 N 
ATOM     15  C   UNL     1      -0.875   0.800   2.433  1.00  0.00     0.176 C 
ATOM     16  C   UNL     1      -0.482   1.703   1.246  1.00  0.00     0.035 C 
ATOM     17  C   UNL     1      -0.762   3.187   1.512  1.00  0.00     0.004 C 
ATOM     18  C   UNL     1      -0.691   2.709   3.972  1.00  0.00     0.122 C 
ATOM     19  C   UNL     1      -0.218   3.649   2.868  1.00  0.00     0.022 C 
BRANCH  15  20
ATOM     20  C   UNL     1      -2.409   0.557   2.507  1.00  0.00     0.242 C 
ATOM     21  C   UNL     1      -2.443  -0.955   0.457  1.00  0.00     0.142 C 
ATOM     22  N   UNL     1      -3.019  -0.209   1.551  1.00  0.00    -0.357 N 
ATOM     23  H   UNL     1      -4.000  -0.259   1.619  1.00  0.00     0.163 HD
ATOM     24  O   UNL     1      -3.140   1.050   3.369  1.00  0.00    -0.273 OA
ENDBRANCH  15  20
ENDBRANCH  11  14
ENDBRANCH   9  10
ENDBRANCH   8   9
ENDBRANCH   7   8
ENDBRANCH   6   7
ENDBRANCH   3   6
ENDBRANCH   1   2
BRANCH   1  25
ATOM     25  C   UNL     1      -1.028   0.475  10.784  1.00  0.00     0.021 C 
BRANCH  25  26
ATOM     26  C   UNL     1      -2.268  -0.410  10.951  1.00  0.00     0.002 C 
BRANCH  26  27
ATOM     27  C   UNL     1      -2.123  -1.575  11.936  1.00  0.00     0.002 C 
BRANCH  27  28
ATOM     28  C   UNL     1      -1.635  -1.198  13.336  1.00  0.00     0.021 C 
BRANCH  28  29
ATOM     29  C   UNL     1      -2.494  -0.173  14.065  1.00  0.00     0.116 C 
BRANCH  29  30
ATOM     30  N   UNL     1      -3.837  -0.660  14.325  1.00  0.00    -0.352 N 
ATOM     31  C   UNL     1      -4.568  -0.617  15.482  1.00  0.00     0.251 C 
ATOM     32  H   UNL     1      -4.286  -1.083  13.559  1.00  0.00     0.163 HD
ATOM     33  O   UNL     1      -5.634  -1.233  15.554  1.00  0.00    -0.269 OA
BRANCH  31  34
ATOM     34  C   UNL     1      -4.089   0.148  16.653  1.00  0.00     0.039 A 
ATOM     35  C   UNL     1      -4.266  -0.401  17.927  1.00  0.00     0.014 A 
ATOM     36  C   UNL     1      -3.518   1.417  16.515  1.00  0.00     0.014 A 
ATOM     37  C   UNL     1      -3.850   0.308  19.055  1.00  0.00     0.010 A 
ATOM     38  C   UNL     1      -3.037   2.092  17.635  1.00  0.00     0.010 A 
ATOM     39  C   UNL     1      -3.221   1.556  18.918  1.00  0.00    -0.014 A 
BRANCH  39  40
ATOM     40  C   UNL     1      -2.804   2.329  20.115  1.00  0.00     0.031 A 
ATOM     41  C   UNL     1      -3.483   3.631  20.445  1.00  0.00     0.074 A 
ATOM     42  C   UNL     1      -1.805   1.873  20.893  1.00  0.00     0.049 A 
ATOM     43  N   UNL     1      -3.265   4.451  21.443  1.00  0.00    -0.248 NA
ATOM     44  C   UNL     1      -4.530   4.085  19.517  1.00  0.00     0.031 C 
ATOM     45  C   UNL     1      -1.036   0.652  20.652  1.00  0.00     0.029 A 
ATOM     46  N   UNL     1      -1.265   2.385  22.047  1.00  0.00    -0.354 N 
ATOM     47  C   UNL     1      -4.136   5.516  21.255  1.00  0.00     0.074 A 
ATOM     48  C   UNL     1      -4.843   5.271  20.017  1.00  0.00     0.031 C 
ATOM     49  C   UNL     1      -0.145   0.492  21.644  1.00  0.00     0.029 A 
ATOM     50  C   UNL     1      -0.264   1.609  22.576  1.00  0.00     0.049 A 
ATOM     51  H   UNL     1      -1.567   3.228  22.455  1.00  0.00     0.167 HD
ATOM     52  C   UNL     1      -4.350   6.588  22.055  1.00  0.00     0.037 A 
ATOM     53  C   UNL     1       0.467   1.778  23.695  1.00  0.00     0.037 A 
ATOM     54  C   UNL     1      -3.666   6.818  23.300  1.00  0.00     0.049 A 
ATOM     55  C   UNL     1       0.195   2.966  24.578  1.00  0.00     0.074 A 
ATOM     56  C   UNL     1      -3.840   7.850  24.206  1.00  0.00     0.029 A 
ATOM     57  N   UNL     1      -2.677   5.995  23.818  1.00  0.00    -0.354 N 
ATOM     58  N   UNL     1      -0.676   3.933  24.422  1.00  0.00    -0.248 NA
ATOM     59  C   UNL     1       0.999   3.075  25.802  1.00  0.00     0.031 C 
ATOM     60  C   UNL     1      -2.932   7.669  25.256  1.00  0.00     0.029 A 
ATOM     61  C   UNL     1      -2.224   6.500  25.026  1.00  0.00     0.049 A 
ATOM     62  H   UNL     1      -2.345   5.172  23.390  1.00  0.00     0.167 HD
ATOM     63  C   UNL     1      -0.548   4.745  25.540  1.00  0.00     0.074 A 
ATOM     64  C   UNL     1       0.473   4.148  26.375  1.00  0.00     0.031 C 
ATOM     65  C   UNL     1      -1.214   5.885  25.849  1.00  0.00     0.037 A 
BRANCH  52  66
ATOM     66  C   UNL     1      -5.376   7.590  21.608  1.00  0.00     0.064 A 
ATOM     67  C   UNL     1      -6.746   7.285  21.604  1.00  0.00     0.173 A 
ATOM     68  C   UNL     1      -4.990   8.875  21.200  1.00  0.00     0.173 A 
ATOM     69  F   UNL     1      -7.167   6.065  21.972  1.00  0.00    -0.203 F 
ATOM     70  C   UNL     1      -7.688   8.217  21.178  1.00  0.00     0.198 A 
ATOM     71  C   UNL     1      -5.938   9.816  20.804  1.00  0.00     0.198 A 
ATOM     72  F   UNL     1      -3.694   9.222  21.189  1.00  0.00    -0.203 F 
ATOM     73  F   UNL     1      -8.985   7.884  21.133  1.00  0.00    -0.200 F 
ATOM     74  C   UNL     1      -7.284   9.484  20.785  1.00  0.00     0.200 A 
ATOM     75  F   UNL     1      -5.547  11.044  20.434  1.00  0.00    -0.200 F 
ATOM     76  F   UNL     1      -8.192  10.382  20.379  1.00  0.00    -0.200 F 
ENDBRANCH  52  66
BRANCH  53  77
ATOM     77  C   UNL     1       1.492   0.771  24.072  1.00  0.00     0.064 A 
ATOM     78  C   UNL     1       1.300  -0.070  25.177  1.00  0.00     0.173 A 
ATOM     79  C   UNL     1       2.686   0.638  23.350  1.00  0.00     0.173 A 
ATOM     80  F   UNL     1       0.182   0.034  25.911  1.00  0.00    -0.203 F 
ATOM     81  C   UNL     1       2.274  -0.989  25.561  1.00  0.00     0.198 A 
ATOM     82  C   UNL     1       3.648  -0.300  23.718  1.00  0.00     0.198 A 
ATOM     83  F   UNL     1       2.916   1.416  22.282  1.00  0.00    -0.203 F 
ATOM     84  F   UNL     1       2.086  -1.746  26.650  1.00  0.00    -0.200 F 
ATOM     85  C   UNL     1       3.446  -1.106  24.828  1.00  0.00     0.200 A 
ATOM     86  F   UNL     1       4.774  -0.419  23.001  1.00  0.00    -0.200 F 
ATOM     87  F   UNL     1       4.383  -1.989  25.198  1.00  0.00    -0.200 F 
ENDBRANCH  53  77
BRANCH  65  88
ATOM     88  C   UNL     1      -0.886   6.534  27.162  1.00  0.00     0.064 A 
ATOM     89  C   UNL     1       0.336   7.187  27.376  1.00  0.00     0.173 A 
ATOM     90  C   UNL     1      -1.814   6.513  28.214  1.00  0.00     0.173 A 
ATOM     91  F   UNL     1       1.262   7.222  26.406  1.00  0.00    -0.203 F 
ATOM     92  C   UNL     1       0.632   7.764  28.608  1.00  0.00     0.198 A 
ATOM     93  C   UNL     1      -1.527   7.117  29.434  1.00  0.00     0.198 A 
ATOM     94  F   UNL     1      -3.001   5.908  28.057  1.00  0.00    -0.203 F 
ATOM     95  F   UNL     1       1.829   8.332  28.810  1.00  0.00    -0.200 F 
ATOM     96  C   UNL     1      -0.301   7.733  29.634  1.00  0.00     0.200 A 
ATOM     97  F   UNL     1      -2.435   7.097  30.420  1.00  0.00    -0.200 F 
ATOM     98  F   UNL     1      -0.014   8.288  30.820  1.00  0.00    -0.200 F 
ENDBRANCH  65  88
ENDBRANCH  39  40
ENDBRANCH  31  34
ENDBRANCH  29  30
ENDBRANCH  28  29
ENDBRANCH  27  28
ENDBRANCH  26  27
ENDBRANCH  25  26
ENDBRANCH   1  25
TORSDOF 19
