REMARK SMILES COc1ccc(/C=N/NC(=O)c2cc(C)nc3ccccc23)c(C(=O)NCCCCCCNC(=O)c2ccc(-c3c4nc(c(-c5c(F)c(F)c(F)c(F)c5F)c5ccc([nH]5)c(-c5c(F)c(F)c(F)c(F)c5F)c5nc(c(-c6c(F)c(F)c(F)c(F)c6F)c6ccc3[nH]6)C=C5)C=C4)cc2)c1OC
REMARK SMILES IDX 29 1 28 2 27 3 26 4 24 5 25 6 23 8 3 9 4 10 99 11 5 12 6 13
REMARK SMILES IDX 2 14 1 15 100 16 101 17 7 18 8 19 9 20 10 21 11 23 12 24
REMARK SMILES IDX 13 25 22 26 14 27 17 28 21 29 15 30 16 31 18 32 20 33 19 34
REMARK SMILES IDX 30 35 31 36 32 37 33 38 34 39 35 41 36 42 37 43 98 44 38 45
REMARK SMILES IDX 97 46 39 47 40 48 41 49 91 50 42 51 96 52 90 53 92 54 43 55
REMARK SMILES IDX 95 56 89 57 88 58 44 60 76 61 56 62 75 63 57 64 60 65 74 66
REMARK SMILES IDX 93 67 58 68 59 69 73 71 94 72 61 73 45 74 46 75 54 76 47 77
REMARK SMILES IDX 48 78 52 79 55 80 49 81 50 82 53 83 51 84 77 85 78 86 86 87
REMARK SMILES IDX 79 88 80 89 84 90 87 91 81 92 82 93 85 94 83 95 62 96 63 97
REMARK SMILES IDX 71 98 64 99 65 100 69 101 72 102 66 103 67 104 70 105 68 106
REMARK H PARENT 26 7 9 22 33 40 92 59 60 70
REMARK Flexibility Score: inf
ROOT
ATOM      1  C   UNL     1       7.082  -0.885   1.046  1.00  0.00     0.002 C 
ENDROOT
BRANCH   1   2
ATOM      2  C   UNL     1       5.645  -0.677   1.406  1.00  0.00     0.021 C 
BRANCH   2   3
ATOM      3  C   UNL     1       4.815  -1.879   1.027  1.00  0.00     0.116 C 
BRANCH   3   4
ATOM      4  N   UNL     1       4.983  -3.296   1.016  1.00  0.00    -0.352 N 
ATOM      5  C   UNL     1       4.002  -4.079   1.581  1.00  0.00     0.255 C 
ATOM      6  O   UNL     1       4.466  -5.082   2.114  1.00  0.00    -0.269 OA
ATOM      7  H   UNL     1       5.783  -3.704   0.613  1.00  0.00     0.163 HD
BRANCH   5   8
ATOM      8  C   UNL     1       2.528  -3.611   1.700  1.00  0.00     0.094 A 
ATOM      9  C   UNL     1       0.723  -1.860   1.442  1.00  0.00     0.161 A 
ATOM     10  C   UNL     1      -0.075  -2.685   2.243  1.00  0.00     0.051 A 
ATOM     11  C   UNL     1       1.988  -2.372   1.086  1.00  0.00     0.174 A 
ATOM     12  C   UNL     1       0.370  -3.940   2.732  1.00  0.00     0.015 A 
ATOM     13  C   UNL     1       1.676  -4.422   2.498  1.00  0.00     0.011 A 
BRANCH   9  14
ATOM     14  O   UNL     1       0.134  -0.638   1.229  1.00  0.00    -0.493 OA
ATOM     15  C   UNL     1       0.198   0.119   0.028  1.00  0.00     0.278 C 
ENDBRANCH   9  14
BRANCH  11  16
ATOM     16  O   UNL     1       2.631  -1.921  -0.052  1.00  0.00    -0.492 OA
ATOM     17  C   UNL     1       2.858  -0.526  -0.218  1.00  0.00     0.278 C 
ENDBRANCH  11  16
BRANCH  13  18
ATOM     18  C   UNL     1       2.068  -5.832   2.986  1.00  0.00     0.142 C 
ATOM     19  N   UNL     1       1.266  -6.620   3.623  1.00  0.00    -0.180 NA
BRANCH  19  20
ATOM     20  N   UNL     1       1.510  -7.918   4.042  1.00  0.00    -0.243 N 
ATOM     21  C   UNL     1       2.334  -9.049   4.204  1.00  0.00     0.272 C 
ATOM     22  H   UNL     1       0.652  -8.199   4.434  1.00  0.00     0.194 HD
ATOM     23  O   UNL     1       1.692  -9.960   4.768  1.00  0.00    -0.267 OA
BRANCH  21  24
ATOM     24  C   UNL     1       3.762  -9.481   3.925  1.00  0.00     0.052 A 
ATOM     25  C   UNL     1       4.830  -8.551   3.258  1.00  0.00     0.038 A 
ATOM     26  C   UNL     1       4.220 -11.102   4.377  1.00  0.00     0.013 A 
ATOM     27  C   UNL     1       6.080  -9.049   3.086  1.00  0.00     0.039 A 
ATOM     28  C   UNL     1       5.540 -11.254   4.120  1.00  0.00     0.071 A 
ATOM     29  C   UNL     1       3.951 -12.489   4.920  1.00  0.00     0.011 A 
ATOM     30  C   UNL     1       7.463  -9.148   2.680  1.00  0.00     0.067 C 
ATOM     31  N   UNL     1       5.741 -10.133   3.615  1.00  0.00    -0.253 NA
ATOM     32  C   UNL     1       6.566 -12.189   4.152  1.00  0.00     0.029 A 
ATOM     33  C   UNL     1       4.926 -13.605   4.950  1.00  0.00     0.001 A 
ATOM     34  C   UNL     1       6.237 -13.446   4.513  1.00  0.00     0.002 A 
ENDBRANCH  21  24
ENDBRANCH  19  20
ENDBRANCH  13  18
ENDBRANCH   5   8
ENDBRANCH   3   4
ENDBRANCH   2   3
ENDBRANCH   1   2
BRANCH   1  35
ATOM     35  C   UNL     1       7.297  -0.862  -0.474  1.00  0.00     0.002 C 
BRANCH  35  36
ATOM     36  C   UNL     1       6.808   0.426  -1.137  1.00  0.00     0.021 C 
BRANCH  36  37
ATOM     37  C   UNL     1       7.406   1.651  -0.478  1.00  0.00     0.116 C 
BRANCH  37  38
ATOM     38  N   UNL     1       8.848   1.647  -0.614  1.00  0.00    -0.352 N 
ATOM     39  C   UNL     1       9.637   2.525  -1.296  1.00  0.00     0.251 C 
ATOM     40  H   UNL     1       9.319   0.915  -0.154  1.00  0.00     0.163 HD
ATOM     41  O   UNL     1      10.815   2.265  -1.515  1.00  0.00    -0.269 OA
BRANCH  39  42
ATOM     42  C   UNL     1       9.049   3.785  -1.782  1.00  0.00     0.039 A 
ATOM     43  C   UNL     1       9.390   4.214  -3.061  1.00  0.00     0.014 A 
ATOM     44  C   UNL     1       8.180   4.539  -0.984  1.00  0.00     0.014 A 
ATOM     45  C   UNL     1       8.860   5.407  -3.537  1.00  0.00     0.010 A 
ATOM     46  C   UNL     1       7.543   5.652  -1.515  1.00  0.00     0.010 A 
ATOM     47  C   UNL     1       7.883   6.098  -2.797  1.00  0.00    -0.014 A 
BRANCH  47  48
ATOM     48  C   UNL     1       7.143   7.221  -3.414  1.00  0.00     0.031 A 
ATOM     49  C   UNL     1       7.174   8.594  -2.830  1.00  0.00     0.074 A 
ATOM     50  C   UNL     1       6.399   6.980  -4.509  1.00  0.00     0.049 A 
ATOM     51  N   UNL     1       6.562   9.667  -3.258  1.00  0.00    -0.248 NA
ATOM     52  C   UNL     1       7.980   8.793  -1.619  1.00  0.00     0.031 C 
ATOM     53  C   UNL     1       6.281   5.676  -5.156  1.00  0.00     0.029 A 
ATOM     54  N   UNL     1       5.611   7.805  -5.272  1.00  0.00    -0.354 N 
ATOM     55  C   UNL     1       6.911  10.675  -2.378  1.00  0.00     0.074 A 
ATOM     56  C   UNL     1       7.747  10.071  -1.359  1.00  0.00     0.031 C 
ATOM     57  C   UNL     1       5.508   5.793  -6.241  1.00  0.00     0.029 A 
ATOM     58  C   UNL     1       5.011   7.160  -6.325  1.00  0.00     0.049 A 
ATOM     59  H   UNL     1       5.488   8.763  -5.083  1.00  0.00     0.167 HD
ATOM     60  C   UNL     1       6.562  11.982  -2.433  1.00  0.00     0.037 A 
ATOM     61  C   UNL     1       4.127   7.588  -7.246  1.00  0.00     0.037 A 
ATOM     62  C   UNL     1       5.701  12.552  -3.431  1.00  0.00     0.049 A 
ATOM     63  C   UNL     1       3.679   9.012  -7.224  1.00  0.00     0.074 A 
ATOM     64  C   UNL     1       5.310  13.873  -3.557  1.00  0.00     0.029 A 
ATOM     65  N   UNL     1       5.060  11.846  -4.436  1.00  0.00    -0.354 N 
ATOM     66  N   UNL     1       4.057   9.965  -6.412  1.00  0.00    -0.248 NA
ATOM     67  C   UNL     1       2.686   9.425  -8.225  1.00  0.00     0.031 C 
ATOM     68  C   UNL     1       4.361  13.952  -4.569  1.00  0.00     0.029 A 
ATOM     69  C   UNL     1       4.240  12.704  -5.151  1.00  0.00     0.049 A 
ATOM     70  H   UNL     1       5.170  10.884  -4.615  1.00  0.00     0.167 HD
ATOM     71  C   UNL     1       3.373  11.097  -6.815  1.00  0.00     0.074 A 
ATOM     72  C   UNL     1       2.560  10.716  -7.953  1.00  0.00     0.031 C 
ATOM     73  C   UNL     1       3.428  12.337  -6.277  1.00  0.00     0.037 A 
BRANCH  60  74
ATOM     74  C   UNL     1       7.040  12.868  -1.323  1.00  0.00     0.064 A 
ATOM     75  C   UNL     1       8.402  13.062  -1.059  1.00  0.00     0.173 A 
ATOM     76  C   UNL     1       6.110  13.506  -0.485  1.00  0.00     0.173 A 
ATOM     77  F   UNL     1       9.333  12.529  -1.865  1.00  0.00    -0.203 F 
ATOM     78  C   UNL     1       8.810  13.730   0.089  1.00  0.00     0.198 A 
ATOM     79  C   UNL     1       6.525  14.258   0.603  1.00  0.00     0.198 A 
ATOM     80  F   UNL     1       4.793  13.401  -0.720  1.00  0.00    -0.203 F 
ATOM     81  F   UNL     1      10.105  13.730   0.431  1.00  0.00    -0.200 F 
ATOM     82  C   UNL     1       7.873  14.338   0.912  1.00  0.00     0.200 A 
ATOM     83  F   UNL     1       5.617  14.871   1.374  1.00  0.00    -0.200 F 
ATOM     84  F   UNL     1       8.269  14.986   2.015  1.00  0.00    -0.200 F 
ENDBRANCH  60  74
BRANCH  61  85
ATOM     85  C   UNL     1       3.567   6.618  -8.215  1.00  0.00     0.064 A 
ATOM     86  C   UNL     1       3.808   6.715  -9.590  1.00  0.00     0.173 A 
ATOM     87  C   UNL     1       2.786   5.546  -7.756  1.00  0.00     0.173 A 
ATOM     88  F   UNL     1       4.550   7.721 -10.075  1.00  0.00    -0.203 F 
ATOM     89  C   UNL     1       3.266   5.785 -10.473  1.00  0.00     0.198 A 
ATOM     90  C   UNL     1       2.312   4.578  -8.630  1.00  0.00     0.198 A 
ATOM     91  F   UNL     1       2.528   5.414  -6.446  1.00  0.00    -0.203 F 
ATOM     92  F   UNL     1       3.427   5.945 -11.794  1.00  0.00    -0.200 F 
ATOM     93  C   UNL     1       2.545   4.701  -9.990  1.00  0.00     0.200 A 
ATOM     94  F   UNL     1       1.636   3.525  -8.151  1.00  0.00    -0.200 F 
ATOM     95  F   UNL     1       2.078   3.773 -10.834  1.00  0.00    -0.200 F 
ENDBRANCH  61  85
BRANCH  73  96
ATOM     96  C   UNL     1       2.608  13.411  -6.920  1.00  0.00     0.064 A 
ATOM     97  C   UNL     1       1.210  13.353  -6.919  1.00  0.00     0.173 A 
ATOM     98  C   UNL     1       3.223  14.532  -7.502  1.00  0.00     0.173 A 
ATOM     99  F   UNL     1       0.577  12.328  -6.328  1.00  0.00    -0.203 F 
ATOM    100  C   UNL     1       0.460  14.325  -7.566  1.00  0.00     0.198 A 
ATOM    101  C   UNL     1       2.464  15.547  -8.069  1.00  0.00     0.198 A 
ATOM    102  F   UNL     1       4.559  14.662  -7.487  1.00  0.00    -0.203 F 
ATOM    103  F   UNL     1      -0.867  14.172  -7.679  1.00  0.00    -0.200 F 
ATOM    104  C   UNL     1       1.084  15.431  -8.121  1.00  0.00     0.200 A 
ATOM    105  F   UNL     1       3.069  16.632  -8.573  1.00  0.00    -0.200 F 
ATOM    106  F   UNL     1       0.353  16.387  -8.709  1.00  0.00    -0.200 F 
ENDBRANCH  73  96
ENDBRANCH  47  48
ENDBRANCH  39  42
ENDBRANCH  37  38
ENDBRANCH  36  37
ENDBRANCH  35  36
ENDBRANCH   1  35
TORSDOF 18
