REMARK SMILES Cn1cc([C@@H]2CC(NCCCCCCNC(=O)c3ccc(-c4c5nc(c(-c6c(F)c(F)c(F)c(F)c6F)c6ccc([nH]6)c(-c6c(F)c(F)c(F)c(F)c6F)c6nc(c(-c7c(F)c(F)c(F)c(F)c7F)c7ccc4[nH]7)C=C6)C=C5)cc3)=[NH+]c3c2sc(C(=O)[O-])c3-c2ccc(Cl)cc2)cn1
REMARK SMILES IDX 12 1 11 2 10 3 9 4 8 5 5 6 6 7 83 8 7 9 82 10 84 11 81 12
REMARK SMILES IDX 89 13 85 14 4 17 1 18 2 19 3 20 98 21 97 22 90 23 91 24
REMARK SMILES IDX 96 25 92 26 95 27 93 28 94 29 86 30 87 31 88 32 13 33 14 34
REMARK SMILES IDX 15 35 16 36 17 38 18 39 19 40 80 41 20 42 79 43 21 44 22 45
REMARK SMILES IDX 23 46 73 47 24 48 78 49 72 50 74 51 25 52 77 53 71 54 70 55
REMARK SMILES IDX 26 57 58 58 38 59 57 60 39 61 42 62 56 63 75 64 40 65 41 66
REMARK SMILES IDX 55 68 76 69 43 70 27 71 28 72 36 73 29 74 30 75 34 76 37 77
REMARK SMILES IDX 31 78 32 79 35 80 33 81 59 82 60 83 68 84 61 85 62 86 66 87
REMARK SMILES IDX 69 88 63 89 64 90 67 91 65 92 44 93 45 94 53 95 46 96 47 97
REMARK SMILES IDX 51 98 54 99 48 100 49 101 52 102 50 103
REMARK H PARENT 8 15 81 16 15 37 74 56 42 67
REMARK Flexibility Score: inf
ROOT
ATOM      1  C   UNL     1       4.149  -6.699  -4.558  1.00  0.00     0.002 C 
ENDROOT
BRANCH   1   2
ATOM      2  C   UNL     1       2.733  -6.443  -4.019  1.00  0.00     0.004 C 
BRANCH   2   3
ATOM      3  C   UNL     1       2.524  -6.715  -2.526  1.00  0.00     0.046 C 
BRANCH   3   4
ATOM      4  C   UNL     1       3.521  -6.015  -1.604  1.00  0.00     0.233 C 
BRANCH   4   5
ATOM      5  N   UNL     1       3.382  -4.576  -1.712  1.00  0.00    -0.278 N 
ATOM      6  C   UNL     1       2.657  -1.325   0.196  1.00  0.00     0.079 C 
ATOM      7  C   UNL     1       2.976  -2.266  -0.973  1.00  0.00     0.142 C 
ATOM      8  C   UNL     1       2.661  -2.067   1.489  1.00  0.00     0.061 A 
ATOM      9  C   UNL     1       3.130  -3.750  -0.638  1.00  0.00     0.248 C 
ATOM     10  C   UNL     1       2.836  -3.411   1.621  1.00  0.00     0.147 A 
ATOM     11  S   UNL     1       2.456  -1.324   3.003  1.00  0.00    -0.133 S 
ATOM     12  N   UNL     1       3.058  -4.271   0.551  1.00  0.00    -0.243 N 
ATOM     13  C   UNL     1       2.779  -3.885   2.968  1.00  0.00     0.049 A 
ATOM     14  C   UNL     1       2.559  -2.829   3.853  1.00  0.00     0.062 A 
ATOM     15  H   UNL     1       3.474  -4.165  -2.602  1.00  0.00     0.304 HD
ATOM     16  H   UNL     1       3.156  -5.240   0.690  1.00  0.00     0.312 HD
BRANCH   6  17
ATOM     17  C   UNL     1       1.367  -0.581  -0.010  1.00  0.00    -0.001 A 
ATOM     18  C   UNL     1      -2.189  -0.003  -0.129  1.00  0.00     0.173 C 
ATOM     19  N   UNL     1      -0.747   0.001  -0.158  1.00  0.00    -0.276 N 
ATOM     20  C   UNL     1       0.078  -1.079  -0.063  1.00  0.00     0.112 A 
ATOM     21  N   UNL     1      -0.088   1.170  -0.245  1.00  0.00    -0.182 NA
ATOM     22  C   UNL     1       1.194   0.818  -0.132  1.00  0.00     0.139 A 
ENDBRANCH   6  17
BRANCH  13  23
ATOM     23  C   UNL     1       2.978  -5.274   3.374  1.00  0.00    -0.012 A 
ATOM     24  C   UNL     1       1.964  -6.003   4.009  1.00  0.00     0.010 A 
ATOM     25  C   UNL     1       4.204  -5.900   3.102  1.00  0.00     0.010 A 
ATOM     26  C   UNL     1       2.198  -7.316   4.427  1.00  0.00     0.021 A 
ATOM     27  C   UNL     1       4.433  -7.217   3.506  1.00  0.00     0.021 A 
ATOM     28  C   UNL     1       3.434  -7.913   4.182  1.00  0.00     0.041 A 
ATOM     29  Cl  UNL     1       3.731  -9.519   4.721  1.00  0.00    -0.084 Cl
ENDBRANCH  13  23
BRANCH  14  30
ATOM     30  C   UNL     1       2.433  -2.760   5.292  1.00  0.00     0.082 C 
ATOM     31  O   UNL     1       2.103  -1.793   5.979  1.00  0.00    -0.544 OA
ATOM     32  O   UNL     1       2.729  -3.916   5.916  1.00  0.00    -0.544 OA
ENDBRANCH  14  30
ENDBRANCH   4   5
ENDBRANCH   3   4
ENDBRANCH   2   3
ENDBRANCH   1   2
BRANCH   1  33
ATOM     33  C   UNL     1       4.750  -8.088  -4.293  1.00  0.00     0.021 C 
BRANCH  33  34
ATOM     34  C   UNL     1       3.976  -9.233  -4.923  1.00  0.00     0.116 C 
BRANCH  34  35
ATOM     35  N   UNL     1       4.005  -9.211  -6.390  1.00  0.00    -0.352 N 
ATOM     36  C   UNL     1       3.368 -10.069  -7.272  1.00  0.00     0.251 C 
ATOM     37  H   UNL     1       4.546  -8.497  -6.799  1.00  0.00     0.163 HD
ATOM     38  O   UNL     1       3.763 -10.211  -8.422  1.00  0.00    -0.269 OA
BRANCH  36  39
ATOM     39  C   UNL     1       2.178 -10.795  -6.798  1.00  0.00     0.039 A 
ATOM     40  C   UNL     1       1.895 -12.115  -7.160  1.00  0.00     0.014 A 
ATOM     41  C   UNL     1       1.353 -10.110  -5.916  1.00  0.00     0.014 A 
ATOM     42  C   UNL     1       0.799 -12.742  -6.569  1.00  0.00     0.010 A 
ATOM     43  C   UNL     1       0.468 -10.803  -5.147  1.00  0.00     0.010 A 
ATOM     44  C   UNL     1       0.099 -12.073  -5.550  1.00  0.00    -0.014 A 
BRANCH  44  45
ATOM     45  C   UNL     1      -0.958 -12.707  -4.777  1.00  0.00     0.031 A 
ATOM     46  C   UNL     1      -0.492 -13.935  -4.094  1.00  0.00     0.074 A 
ATOM     47  C   UNL     1      -2.138 -12.096  -4.507  1.00  0.00     0.049 A 
ATOM     48  N   UNL     1      -0.755 -15.154  -4.421  1.00  0.00    -0.248 NA
ATOM     49  C   UNL     1       0.552 -13.814  -3.059  1.00  0.00     0.031 C 
ATOM     50  C   UNL     1      -2.528 -10.718  -4.847  1.00  0.00     0.029 A 
ATOM     51  N   UNL     1      -3.210 -12.531  -3.779  1.00  0.00    -0.354 N 
ATOM     52  C   UNL     1      -0.160 -15.932  -3.432  1.00  0.00     0.074 A 
ATOM     53  C   UNL     1       0.831 -15.097  -2.815  1.00  0.00     0.031 C 
ATOM     54  C   UNL     1      -3.619 -10.356  -4.136  1.00  0.00     0.029 A 
ATOM     55  C   UNL     1      -4.120 -11.525  -3.441  1.00  0.00     0.049 A 
ATOM     56  H   UNL     1      -3.331 -13.472  -3.516  1.00  0.00     0.167 HD
ATOM     57  C   UNL     1      -0.827 -17.024  -2.960  1.00  0.00     0.037 A 
ATOM     58  C   UNL     1      -5.214 -11.654  -2.650  1.00  0.00     0.037 A 
ATOM     59  C   UNL     1      -1.928 -17.340  -3.840  1.00  0.00     0.049 A 
ATOM     60  C   UNL     1      -5.571 -13.089  -2.635  1.00  0.00     0.074 A 
ATOM     61  C   UNL     1      -2.102 -17.934  -5.070  1.00  0.00     0.029 A 
ATOM     62  N   UNL     1      -3.044 -16.587  -3.592  1.00  0.00    -0.354 N 
ATOM     63  N   UNL     1      -5.996 -13.728  -3.690  1.00  0.00    -0.248 NA
ATOM     64  C   UNL     1      -5.098 -13.927  -1.538  1.00  0.00     0.031 C 
ATOM     65  C   UNL     1      -3.339 -17.438  -5.587  1.00  0.00     0.029 A 
ATOM     66  C   UNL     1      -3.921 -16.603  -4.639  1.00  0.00     0.049 A 
ATOM     67  H   UNL     1      -3.197 -16.091  -2.755  1.00  0.00     0.167 HD
ATOM     68  C   UNL     1      -5.445 -14.985  -3.563  1.00  0.00     0.074 A 
ATOM     69  C   UNL     1      -5.060 -15.107  -2.162  1.00  0.00     0.031 C 
ATOM     70  C   UNL     1      -5.019 -15.667  -4.663  1.00  0.00     0.037 A 
BRANCH  57  71
ATOM     71  C   UNL     1      -0.888 -17.456  -1.501  1.00  0.00     0.064 A 
ATOM     72  C   UNL     1      -1.637 -18.610  -1.180  1.00  0.00     0.173 A 
ATOM     73  C   UNL     1      -0.543 -16.644  -0.399  1.00  0.00     0.173 A 
ATOM     74  F   UNL     1      -2.025 -19.462  -2.141  1.00  0.00    -0.203 F 
ATOM     75  C   UNL     1      -2.084 -18.871   0.119  1.00  0.00     0.198 A 
ATOM     76  C   UNL     1      -0.955 -16.931   0.903  1.00  0.00     0.198 A 
ATOM     77  F   UNL     1       0.113 -15.488  -0.527  1.00  0.00    -0.203 F 
ATOM     78  F   UNL     1      -2.896 -19.912   0.348  1.00  0.00    -0.200 F 
ATOM     79  C   UNL     1      -1.752 -18.025   1.158  1.00  0.00     0.200 A 
ATOM     80  F   UNL     1      -0.637 -16.085   1.894  1.00  0.00    -0.200 F 
ATOM     81  F   UNL     1      -2.231 -18.233   2.391  1.00  0.00    -0.200 F 
ENDBRANCH  57  71
BRANCH  58  82
ATOM     82  C   UNL     1      -5.830 -10.693  -1.703  1.00  0.00     0.064 A 
ATOM     83  C   UNL     1      -7.144 -10.870  -1.235  1.00  0.00     0.173 A 
ATOM     84  C   UNL     1      -5.030  -9.779  -0.991  1.00  0.00     0.173 A 
ATOM     85  F   UNL     1      -7.961 -11.747  -1.838  1.00  0.00    -0.203 F 
ATOM     86  C   UNL     1      -7.613 -10.213  -0.092  1.00  0.00     0.198 A 
ATOM     87  C   UNL     1      -5.499  -9.125   0.151  1.00  0.00     0.198 A 
ATOM     88  F   UNL     1      -3.747  -9.588  -1.330  1.00  0.00    -0.203 F 
ATOM     89  F   UNL     1      -8.848 -10.465   0.367  1.00  0.00    -0.200 F 
ATOM     90  C   UNL     1      -6.784  -9.356   0.611  1.00  0.00     0.200 A 
ATOM     91  F   UNL     1      -4.675  -8.327   0.845  1.00  0.00    -0.200 F 
ATOM     92  F   UNL     1      -7.203  -8.789   1.751  1.00  0.00    -0.200 F 
ENDBRANCH  58  82
BRANCH  70  93
ATOM     93  C   UNL     1      -5.641 -15.324  -5.977  1.00  0.00     0.064 A 
ATOM     94  C   UNL     1      -5.456 -14.114  -6.664  1.00  0.00     0.173 A 
ATOM     95  C   UNL     1      -6.417 -16.312  -6.595  1.00  0.00     0.173 A 
ATOM     96  F   UNL     1      -4.675 -13.149  -6.163  1.00  0.00    -0.203 F 
ATOM     97  C   UNL     1      -6.053 -13.898  -7.907  1.00  0.00     0.198 A 
ATOM     98  C   UNL     1      -6.983 -16.108  -7.847  1.00  0.00     0.198 A 
ATOM     99  F   UNL     1      -6.597 -17.498  -5.992  1.00  0.00    -0.203 F 
ATOM    100  F   UNL     1      -5.879 -12.731  -8.543  1.00  0.00    -0.200 F 
ATOM    101  C   UNL     1      -6.810 -14.898  -8.499  1.00  0.00     0.200 A 
ATOM    102  F   UNL     1      -7.682 -17.092  -8.428  1.00  0.00    -0.200 F 
ATOM    103  F   UNL     1      -7.359 -14.703  -9.706  1.00  0.00    -0.200 F 
ENDBRANCH  70  93
ENDBRANCH  44  45
ENDBRANCH  36  39
ENDBRANCH  34  35
ENDBRANCH  33  34
ENDBRANCH   1  33
TORSDOF 15
