REMARK SMILES Cc1oc2cc3c(cc2c1C)[C@H](C)[C@@H](CC(=O)N[C@H](CC1=c2ccccc2=NC1)C(=O)NCCCCCCNC(=O)c1ccc(-c2c4nc(c(-c5c(F)c(F)c(F)c(F)c5F)c5ccc([nH]5)c(-c5c(F)c(F)c(F)c(F)c5F)c5nc(c(-c6c(F)c(F)c(F)c(F)c6F)c6ccc2[nH]6)C=C5)C=C4)cc1)C(=O)O3
REMARK SMILES IDX 35 1 34 2 33 3 32 4 30 5 31 6 19 8 18 9 16 10 17 11 15 13
REMARK SMILES IDX 14 14 1 15 2 16 3 17 10 18 4 19 9 20 11 21 5 22 8 23 6 24
REMARK SMILES IDX 7 25 107 26 12 27 105 28 13 29 106 30 20 31 21 32 22 33
REMARK SMILES IDX 29 34 23 35 27 36 28 37 24 38 26 39 25 40 36 41 37 42 38 43
REMARK SMILES IDX 39 44 40 45 41 47 42 48 43 49 104 50 44 51 103 52 45 53
REMARK SMILES IDX 46 54 47 55 97 56 48 57 102 58 96 59 98 60 49 61 101 62
REMARK SMILES IDX 95 63 94 64 50 66 82 67 62 68 81 69 63 70 66 71 80 72 99 73
REMARK SMILES IDX 64 74 65 75 79 77 100 78 67 79 51 80 52 81 60 82 53 83 54 84
REMARK SMILES IDX 58 85 61 86 55 87 56 88 59 89 57 90 83 91 84 92 92 93 85 94
REMARK SMILES IDX 86 95 90 96 93 97 87 98 88 99 91 100 89 101 68 102 69 103
REMARK SMILES IDX 77 104 70 105 71 106 75 107 78 108 72 109 73 110 76 111
REMARK SMILES IDX 74 112
REMARK H PARENT 32 7 18 12 39 46 98 65 66 76
REMARK Flexibility Score: inf
ROOT
ATOM      1  C   UNL     1       1.883  14.946   1.645  1.00  0.00     0.002 C 
ENDROOT
BRANCH   1   2
ATOM      2  C   UNL     1       2.332  13.581   1.048  1.00  0.00     0.021 C 
BRANCH   2   3
ATOM      3  C   UNL     1       2.619  12.125   1.698  1.00  0.00     0.116 C 
BRANCH   3   4
ATOM      4  N   UNL     1       1.822  11.370   2.775  1.00  0.00    -0.354 N 
ATOM      5  C   UNL     1       0.959  10.321   3.096  1.00  0.00     0.242 C 
ATOM      6  O   UNL     1       0.889  10.135   4.324  1.00  0.00    -0.273 OA
ATOM      7  H   UNL     1       2.003  11.838   3.622  1.00  0.00     0.163 HD
BRANCH   5   8
ATOM      8  C   UNL     1       0.043   9.371   2.151  1.00  0.00     0.175 C 
BRANCH   8   9
ATOM      9  N   UNL     1       0.592   9.538   0.855  1.00  0.00    -0.344 N 
ATOM     10  C   UNL     1       0.513  10.696   0.172  1.00  0.00     0.221 C 
ATOM     11  O   UNL     1       1.049  10.725  -0.939  1.00  0.00    -0.275 OA
ATOM     12  H   UNL     1       1.052   8.775   0.436  1.00  0.00     0.164 HD
BRANCH  10  13
ATOM     13  C   UNL     1      -0.299  11.911   0.703  1.00  0.00     0.116 C 
BRANCH  13  14
ATOM     14  C   UNL     1      -0.554  12.611   2.120  1.00  0.00     0.116 C 
ATOM     15  C   UNL     1      -5.311  19.056   3.790  1.00  0.00     0.088 C 
ATOM     16  C   UNL     1      -4.251  18.042   3.681  1.00  0.00     0.105 A 
ATOM     17  O   UNL     1      -4.731  16.826   3.362  1.00  0.00    -0.461 OA
ATOM     18  C   UNL     1      -2.868  18.006   3.799  1.00  0.00    -0.002 A 
ATOM     19  C   UNL     1      -3.685  15.991   3.336  1.00  0.00     0.138 A 
ATOM     20  C   UNL     1      -2.494  16.626   3.666  1.00  0.00     0.024 A 
ATOM     21  C   UNL     1      -1.961  19.156   3.997  1.00  0.00     0.049 C 
ATOM     22  C   UNL     1      -3.831  14.681   2.988  1.00  0.00     0.095 A 
ATOM     23  C   UNL     1      -1.297  15.860   3.752  1.00  0.00     0.020 A 
ATOM     24  C   UNL     1      -2.659  13.972   3.017  1.00  0.00     0.138 A 
ATOM     25  C   UNL     1      -1.381  14.495   3.454  1.00  0.00    -0.001 A 
ATOM     26  O   UNL     1      -2.879  12.708   2.462  1.00  0.00    -0.426 OA
ATOM     27  C   UNL     1      -0.184  13.465   3.455  1.00  0.00     0.035 C 
ATOM     28  C   UNL     1      -1.775  12.034   2.794  1.00  0.00     0.315 C 
ATOM     29  C   UNL     1       1.151  13.728   4.232  1.00  0.00     0.014 C 
ATOM     30  O   UNL     1      -1.759  11.273   3.753  1.00  0.00    -0.251 OA
ENDBRANCH  13  14
ENDBRANCH  10  13
ENDBRANCH   8   9
BRANCH   8  31
ATOM     31  C   UNL     1      -1.560   9.346   2.067  1.00  0.00     0.068 C 
BRANCH  31  32
ATOM     32  C   UNL     1      -2.375   8.143   1.607  1.00  0.00    -0.037 C 
ATOM     33  C   UNL     1      -2.404   7.746   0.328  1.00  0.00     0.001 A 
ATOM     34  C   UNL     1      -2.123   6.969   2.495  1.00  0.00     0.174 C 
ATOM     35  C   UNL     1      -3.526   7.167  -0.415  1.00  0.00     0.010 A 
ATOM     36  C   UNL     1      -1.378   6.670   0.511  1.00  0.00     0.065 A 
ATOM     37  N   UNL     1      -1.142   6.207   1.702  1.00  0.00    -0.280 NA
ATOM     38  C   UNL     1      -3.231   6.266  -1.376  1.00  0.00     0.001 A 
ATOM     39  C   UNL     1      -0.865   6.160  -0.767  1.00  0.00     0.028 A 
ATOM     40  C   UNL     1      -1.832   5.961  -1.681  1.00  0.00     0.002 A 
ENDBRANCH  31  32
ENDBRANCH   8  31
ENDBRANCH   5   8
ENDBRANCH   3   4
ENDBRANCH   2   3
ENDBRANCH   1   2
BRANCH   1  41
ATOM     41  C   UNL     1       2.930  16.052   1.836  1.00  0.00     0.002 C 
BRANCH  41  42
ATOM     42  C   UNL     1       2.885  17.006   0.651  1.00  0.00     0.021 C 
BRANCH  42  43
ATOM     43  C   UNL     1       1.536  17.749   0.611  1.00  0.00     0.116 C 
BRANCH  43  44
ATOM     44  N   UNL     1       1.674  19.176   0.860  1.00  0.00    -0.352 N 
ATOM     45  C   UNL     1       2.054  20.128  -0.057  1.00  0.00     0.251 C 
ATOM     46  H   UNL     1       1.475  19.490   1.771  1.00  0.00     0.163 HD
ATOM     47  O   UNL     1       2.262  21.298   0.242  1.00  0.00    -0.269 OA
BRANCH  45  48
ATOM     48  C   UNL     1       2.237  19.628  -1.424  1.00  0.00     0.039 A 
ATOM     49  C   UNL     1       1.097  19.175  -2.098  1.00  0.00     0.014 A 
ATOM     50  C   UNL     1       3.526  19.244  -1.800  1.00  0.00     0.014 A 
ATOM     51  C   UNL     1       1.244  18.199  -3.067  1.00  0.00     0.010 A 
ATOM     52  C   UNL     1       3.669  18.293  -2.800  1.00  0.00     0.010 A 
ATOM     53  C   UNL     1       2.526  17.747  -3.408  1.00  0.00    -0.014 A 
BRANCH  53  54
ATOM     54  C   UNL     1       2.598  16.964  -4.646  1.00  0.00     0.031 A 
ATOM     55  C   UNL     1       3.091  17.859  -5.739  1.00  0.00     0.074 A 
ATOM     56  C   UNL     1       2.785  15.632  -4.741  1.00  0.00     0.049 A 
ATOM     57  N   UNL     1       4.359  18.130  -5.852  1.00  0.00    -0.248 NA
ATOM     58  C   UNL     1       2.222  18.808  -6.434  1.00  0.00     0.031 C 
ATOM     59  C   UNL     1       3.467  14.782  -3.764  1.00  0.00     0.029 A 
ATOM     60  N   UNL     1       2.529  14.790  -5.803  1.00  0.00    -0.354 N 
ATOM     61  C   UNL     1       4.468  19.297  -6.579  1.00  0.00     0.074 A 
ATOM     62  C   UNL     1       3.118  19.676  -6.934  1.00  0.00     0.031 C 
ATOM     63  C   UNL     1       3.742  13.594  -4.345  1.00  0.00     0.029 A 
ATOM     64  C   UNL     1       3.132  13.536  -5.676  1.00  0.00     0.049 A 
ATOM     65  H   UNL     1       1.975  15.047  -6.576  1.00  0.00     0.167 HD
ATOM     66  C   UNL     1       5.674  19.873  -6.826  1.00  0.00     0.037 A 
ATOM     67  C   UNL     1       3.685  12.875  -6.737  1.00  0.00     0.037 A 
ATOM     68  C   UNL     1       6.807  19.211  -6.245  1.00  0.00     0.049 A 
ATOM     69  C   UNL     1       4.848  13.783  -7.075  1.00  0.00     0.074 A 
ATOM     70  C   UNL     1       7.688  19.388  -5.202  1.00  0.00     0.029 A 
ATOM     71  N   UNL     1       7.204  18.033  -6.830  1.00  0.00    -0.354 N 
ATOM     72  N   UNL     1       5.976  13.871  -6.419  1.00  0.00    -0.248 NA
ATOM     73  C   UNL     1       4.575  14.905  -7.975  1.00  0.00     0.031 C 
ATOM     74  C   UNL     1       8.234  18.087  -4.942  1.00  0.00     0.029 A 
ATOM     75  C   UNL     1       7.628  17.201  -5.831  1.00  0.00     0.049 A 
ATOM     76  H   UNL     1       7.186  17.826  -7.792  1.00  0.00     0.167 HD
ATOM     77  C   UNL     1       6.420  15.181  -6.622  1.00  0.00     0.074 A 
ATOM     78  C   UNL     1       5.518  15.755  -7.597  1.00  0.00     0.031 C 
ATOM     79  C   UNL     1       7.383  15.778  -5.862  1.00  0.00     0.037 A 
BRANCH  66  80
ATOM     80  C   UNL     1       5.913  20.896  -7.857  1.00  0.00     0.064 A 
ATOM     81  C   UNL     1       6.434  20.426  -9.075  1.00  0.00     0.173 A 
ATOM     82  C   UNL     1       5.899  22.271  -7.627  1.00  0.00     0.173 A 
ATOM     83  F   UNL     1       6.455  19.106  -9.329  1.00  0.00    -0.203 F 
ATOM     84  C   UNL     1       6.997  21.290  -9.999  1.00  0.00     0.198 A 
ATOM     85  C   UNL     1       6.443  23.143  -8.573  1.00  0.00     0.198 A 
ATOM     86  F   UNL     1       5.414  22.766  -6.480  1.00  0.00    -0.203 F 
ATOM     87  F   UNL     1       7.561  20.797 -11.109  1.00  0.00    -0.200 F 
ATOM     88  C   UNL     1       7.012  22.650  -9.744  1.00  0.00     0.200 A 
ATOM     89  F   UNL     1       6.456  24.463  -8.339  1.00  0.00    -0.200 F 
ATOM     90  F   UNL     1       7.589  23.483 -10.619  1.00  0.00    -0.200 F 
ENDBRANCH  66  80
BRANCH  67  91
ATOM     91  C   UNL     1       2.714  12.378  -7.774  1.00  0.00     0.064 A 
ATOM     92  C   UNL     1       1.550  11.707  -7.344  1.00  0.00     0.173 A 
ATOM     93  C   UNL     1       2.849  12.532  -9.164  1.00  0.00     0.173 A 
ATOM     94  F   UNL     1       1.392  11.394  -6.049  1.00  0.00    -0.203 F 
ATOM     95  C   UNL     1       0.522  11.366  -8.224  1.00  0.00     0.198 A 
ATOM     96  C   UNL     1       1.808  12.219 -10.043  1.00  0.00     0.198 A 
ATOM     97  F   UNL     1       3.980  13.008  -9.701  1.00  0.00    -0.203 F 
ATOM     98  F   UNL     1      -0.590  10.781  -7.758  1.00  0.00    -0.200 F 
ATOM     99  C   UNL     1       0.635  11.660  -9.569  1.00  0.00     0.200 A 
ATOM    100  F   UNL     1       1.935  12.493 -11.349  1.00  0.00    -0.200 F 
ATOM    101  F   UNL     1      -0.380  11.405 -10.406  1.00  0.00    -0.200 F 
ENDBRANCH  67  91
BRANCH  79 102
ATOM    102  C   UNL     1       8.072  14.900  -4.880  1.00  0.00     0.064 A 
ATOM    103  C   UNL     1       8.956  13.910  -5.327  1.00  0.00     0.173 A 
ATOM    104  C   UNL     1       7.925  15.082  -3.496  1.00  0.00     0.173 A 
ATOM    105  F   UNL     1       9.137  13.708  -6.642  1.00  0.00    -0.203 F 
ATOM    106  C   UNL     1       9.691  13.151  -4.424  1.00  0.00     0.198 A 
ATOM    107  C   UNL     1       8.683  14.339  -2.596  1.00  0.00     0.198 A 
ATOM    108  F   UNL     1       7.074  15.999  -3.009  1.00  0.00    -0.203 F 
ATOM    109  F   UNL     1      10.542  12.219  -4.872  1.00  0.00    -0.200 F 
ATOM    110  C   UNL     1       9.568  13.379  -3.061  1.00  0.00     0.200 A 
ATOM    111  F   UNL     1       8.577  14.572  -1.280  1.00  0.00    -0.200 F 
ATOM    112  F   UNL     1      10.317  12.683  -2.194  1.00  0.00    -0.200 F 
ENDBRANCH  79 102
ENDBRANCH  53  54
ENDBRANCH  45  48
ENDBRANCH  43  44
ENDBRANCH  42  43
ENDBRANCH  41  42
ENDBRANCH   1  41
TORSDOF 18
