REMARK SMILES O=C(Cc1ccccc1Nc1c(Cl)cccc1Cl)NCCCCCCNC(=O)c1ccc(-c2c3nc(c(-c4c(F)c(F)c(F)c(F)c4F)c4ccc([nH]4)c(-c4c(F)c(F)c(F)c(F)c4F)c4nc(c(-c5c(F)c(F)c(F)c(F)c5F)c5ccc2[nH]5)C=C4)C=C3)cc1
REMARK SMILES IDX 22 1 21 2 20 3 19 4 1 5 2 6 3 8 4 9 5 10 9 11 6 12 8 13 7 14
REMARK SMILES IDX 10 15 11 17 12 18 17 19 13 20 14 21 16 22 18 23 15 24 23 25
REMARK SMILES IDX 24 26 25 27 26 28 27 29 28 31 29 32 30 33 91 34 31 35 90 36
REMARK SMILES IDX 32 37 33 38 34 39 84 40 35 41 89 42 83 43 85 44 36 45 88 46
REMARK SMILES IDX 82 47 81 48 37 50 69 51 49 52 68 53 50 54 53 55 67 56 86 57
REMARK SMILES IDX 51 58 52 59 66 61 87 62 54 63 38 64 39 65 47 66 40 67 41 68
REMARK SMILES IDX 45 69 48 70 42 71 43 72 46 73 44 74 70 75 71 76 79 77 72 78
REMARK SMILES IDX 73 79 77 80 80 81 74 82 75 83 78 84 76 85 55 86 56 87 64 88
REMARK SMILES IDX 57 89 58 90 62 91 65 92 59 93 60 94 63 95 61 96
REMARK H PARENT 19 7 10 16 26 30 85 49 53 60
REMARK Flexibility Score: inf
ROOT
ATOM      1  C   UNL     1       4.168  -3.631   1.073  1.00  0.00     0.002 C 
ENDROOT
BRANCH   1   2
ATOM      2  C   UNL     1       2.661  -3.437   0.836  1.00  0.00     0.021 C 
BRANCH   2   3
ATOM      3  C   UNL     1       2.125  -2.049   1.192  1.00  0.00     0.116 C 
BRANCH   3   4
ATOM      4  N   UNL     1       2.849  -1.024   0.473  1.00  0.00    -0.356 N 
ATOM      5  O   UNL     1       1.100   0.413   0.065  1.00  0.00    -0.275 OA
ATOM      6  C   UNL     1       2.293   0.141  -0.007  1.00  0.00     0.224 C 
ATOM      7  H   UNL     1       3.810  -1.169   0.316  1.00  0.00     0.163 HD
BRANCH   6   8
ATOM      8  C   UNL     1       3.325   1.071  -0.636  1.00  0.00     0.137 C 
BRANCH   8   9
ATOM      9  C   UNL     1       3.989   1.966   0.392  1.00  0.00    -0.015 A 
ATOM     10  C   UNL     1       4.868   1.379   1.329  1.00  0.00     0.006 A 
ATOM     11  C   UNL     1       3.759   3.354   0.452  1.00  0.00     0.042 A 
ATOM     12  C   UNL     1       5.464   2.129   2.340  1.00  0.00     0.000 A 
ATOM     13  C   UNL     1       4.368   4.089   1.486  1.00  0.00     0.026 A 
ATOM     14  C   UNL     1       5.203   3.486   2.426  1.00  0.00     0.002 A 
BRANCH  11  15
ATOM     15  N   UNL     1       2.986   4.008  -0.533  1.00  0.00    -0.353 N 
ATOM     16  H   UNL     1       2.397   3.424  -1.065  1.00  0.00     0.167 HD
BRANCH  15  17
ATOM     17  C   UNL     1       2.938   5.386  -0.865  1.00  0.00     0.076 A 
ATOM     18  C   UNL     1       1.689   6.043  -0.885  1.00  0.00     0.066 A 
ATOM     19  C   UNL     1       4.086   6.180  -1.077  1.00  0.00     0.066 A 
ATOM     20  Cl  UNL     1       0.218   5.148  -0.689  1.00  0.00    -0.082 Cl
ATOM     21  C   UNL     1       1.591   7.429  -1.046  1.00  0.00     0.023 A 
ATOM     22  C   UNL     1       3.986   7.570  -1.230  1.00  0.00     0.023 A 
ATOM     23  Cl  UNL     1       5.670   5.498  -1.254  1.00  0.00    -0.082 Cl
ATOM     24  C   UNL     1       2.742   8.195  -1.200  1.00  0.00     0.003 A 
ENDBRANCH  15  17
ENDBRANCH  11  15
ENDBRANCH   8   9
ENDBRANCH   6   8
ENDBRANCH   3   4
ENDBRANCH   2   3
ENDBRANCH   1   2
BRANCH   1  25
ATOM     25  C   UNL     1       4.636  -3.441   2.519  1.00  0.00     0.002 C 
BRANCH  25  26
ATOM     26  C   UNL     1       3.994  -4.390   3.532  1.00  0.00     0.021 C 
BRANCH  26  27
ATOM     27  C   UNL     1       4.145  -5.871   3.205  1.00  0.00     0.116 C 
BRANCH  27  28
ATOM     28  N   UNL     1       5.531  -6.311   3.215  1.00  0.00    -0.352 N 
ATOM     29  C   UNL     1       6.072  -7.439   3.779  1.00  0.00     0.251 C 
ATOM     30  H   UNL     1       6.168  -5.719   2.754  1.00  0.00     0.163 HD
ATOM     31  O   UNL     1       7.292  -7.585   3.827  1.00  0.00    -0.269 OA
BRANCH  29  32
ATOM     32  C   UNL     1       5.185  -8.472   4.355  1.00  0.00     0.039 A 
ATOM     33  C   UNL     1       5.505  -9.021   5.599  1.00  0.00     0.014 A 
ATOM     34  C   UNL     1       4.044  -8.901   3.671  1.00  0.00     0.014 A 
ATOM     35  C   UNL     1       4.654  -9.965   6.179  1.00  0.00     0.010 A 
ATOM     36  C   UNL     1       3.158  -9.782   4.284  1.00  0.00     0.010 A 
ATOM     37  C   UNL     1       3.459 -10.334   5.539  1.00  0.00    -0.014 A 
BRANCH  37  38
ATOM     38  C   UNL     1       2.532 -11.322   6.147  1.00  0.00     0.031 A 
ATOM     39  C   UNL     1       2.275 -12.633   5.453  1.00  0.00     0.074 A 
ATOM     40  C   UNL     1       1.887 -11.027   7.293  1.00  0.00     0.049 A 
ATOM     41  N   UNL     1       1.443 -13.593   5.772  1.00  0.00    -0.248 NA
ATOM     42  C   UNL     1       3.037 -12.889   4.220  1.00  0.00     0.031 C 
ATOM     43  C   UNL     1       2.019  -9.776   8.041  1.00  0.00     0.029 A 
ATOM     44  N   UNL     1       0.979 -11.755   8.022  1.00  0.00    -0.354 N 
ATOM     45  C   UNL     1       1.579 -14.557   4.782  1.00  0.00     0.074 A 
ATOM     46  C   UNL     1       2.523 -14.041   3.815  1.00  0.00     0.031 C 
ATOM     47  C   UNL     1       1.234  -9.829   9.130  1.00  0.00     0.029 A 
ATOM     48  C   UNL     1       0.515 -11.100   9.137  1.00  0.00     0.049 A 
ATOM     49  H   UNL     1       0.688 -12.661   7.770  1.00  0.00     0.167 HD
ATOM     50  C   UNL     1       0.997 -15.777   4.702  1.00  0.00     0.037 A 
ATOM     51  C   UNL     1      -0.397 -11.477  10.054  1.00  0.00     0.037 A 
ATOM     52  C   UNL     1       0.072 -16.297   5.674  1.00  0.00     0.049 A 
ATOM     53  C   UNL     1      -1.043 -12.834   9.930  1.00  0.00     0.074 A 
ATOM     54  C   UNL     1      -0.561 -17.528   5.691  1.00  0.00     0.029 A 
ATOM     55  N   UNL     1      -0.346 -15.617   6.808  1.00  0.00    -0.354 N 
ATOM     56  N   UNL     1      -0.868 -13.755   9.013  1.00  0.00    -0.248 NA
ATOM     57  C   UNL     1      -2.003 -13.209  10.977  1.00  0.00     0.031 C 
ATOM     58  C   UNL     1      -1.390 -17.578   6.816  1.00  0.00     0.029 A 
ATOM     59  C   UNL     1      -1.231 -16.401   7.529  1.00  0.00     0.049 A 
ATOM     60  H   UNL     1      -0.056 -14.711   7.062  1.00  0.00     0.167 HD
ATOM     61  C   UNL     1      -1.660 -14.830   9.396  1.00  0.00     0.074 A 
ATOM     62  C   UNL     1      -2.306 -14.452  10.635  1.00  0.00     0.031 C 
ATOM     63  C   UNL     1      -1.839 -16.023   8.778  1.00  0.00     0.037 A 
BRANCH  50  64
ATOM     64  C   UNL     1       1.360 -16.647   3.534  1.00  0.00     0.064 A 
ATOM     65  C   UNL     1       2.636 -17.221   3.420  1.00  0.00     0.173 A 
ATOM     66  C   UNL     1       0.411 -16.958   2.549  1.00  0.00     0.173 A 
ATOM     67  F   UNL     1       3.584 -16.944   4.328  1.00  0.00    -0.203 F 
ATOM     68  C   UNL     1       2.954 -18.056   2.353  1.00  0.00     0.198 A 
ATOM     69  C   UNL     1       0.723 -17.820   1.500  1.00  0.00     0.198 A 
ATOM     70  F   UNL     1      -0.825 -16.441   2.612  1.00  0.00    -0.203 F 
ATOM     71  F   UNL     1       4.192 -18.558   2.243  1.00  0.00    -0.200 F 
ATOM     72  C   UNL     1       1.995 -18.363   1.400  1.00  0.00     0.200 A 
ATOM     73  F   UNL     1      -0.209 -18.127   0.587  1.00  0.00    -0.200 F 
ATOM     74  F   UNL     1       2.298 -19.180   0.382  1.00  0.00    -0.200 F 
ENDBRANCH  50  64
BRANCH  51  75
ATOM     75  C   UNL     1      -0.756 -10.572  11.179  1.00  0.00     0.064 A 
ATOM     76  C   UNL     1      -0.445 -10.906  12.505  1.00  0.00     0.173 A 
ATOM     77  C   UNL     1      -1.459  -9.379  10.958  1.00  0.00     0.173 A 
ATOM     78  F   UNL     1       0.209 -12.046  12.772  1.00  0.00    -0.203 F 
ATOM     79  C   UNL     1      -0.861 -10.106  13.568  1.00  0.00     0.198 A 
ATOM     80  C   UNL     1      -1.843  -8.561  12.018  1.00  0.00     0.198 A 
ATOM     81  F   UNL     1      -1.776  -9.006   9.709  1.00  0.00    -0.203 F 
ATOM     82  F   UNL     1      -0.613 -10.488  14.828  1.00  0.00    -0.200 F 
ATOM     83  C   UNL     1      -1.558  -8.933  13.323  1.00  0.00     0.200 A 
ATOM     84  F   UNL     1      -2.503  -7.420  11.777  1.00  0.00    -0.200 F 
ATOM     85  F   UNL     1      -1.966  -8.168  14.345  1.00  0.00    -0.200 F 
ENDBRANCH  51  75
BRANCH  63  86
ATOM     86  C   UNL     1      -2.711 -17.034   9.464  1.00  0.00     0.064 A 
ATOM     87  C   UNL     1      -4.101 -16.873   9.562  1.00  0.00     0.173 A 
ATOM     88  C   UNL     1      -2.145 -18.201  10.002  1.00  0.00     0.173 A 
ATOM     89  F   UNL     1      -4.689 -15.770   9.075  1.00  0.00    -0.203 F 
ATOM     90  C   UNL     1      -4.888 -17.827  10.202  1.00  0.00     0.198 A 
ATOM     91  C   UNL     1      -2.939 -19.169  10.610  1.00  0.00     0.198 A 
ATOM     92  F   UNL     1      -0.822 -18.409   9.927  1.00  0.00    -0.203 F 
ATOM     93  F   UNL     1      -6.206 -17.626  10.333  1.00  0.00    -0.200 F 
ATOM     94  C   UNL     1      -4.308 -18.977  10.719  1.00  0.00     0.200 A 
ATOM     95  F   UNL     1      -2.379 -20.286  11.094  1.00  0.00    -0.200 F 
ATOM     96  F   UNL     1      -5.069 -19.896  11.328  1.00  0.00    -0.200 F 
ENDBRANCH  63  86
ENDBRANCH  37  38
ENDBRANCH  29  32
ENDBRANCH  27  28
ENDBRANCH  26  27
ENDBRANCH  25  26
ENDBRANCH   1  25
TORSDOF 16
