REMARK SMILES O=C(NCCCCCCNC(=O)c1cc(-c2ccoc2)n[nH]1)c1ccc(-c2c3nc(c(-c4c(F)c(F)c(F)c(F)c4F)c4ccc([nH]4)c(-c4c(F)c(F)c(F)c(F)c4F)c4nc(c(-c5c(F)c(F)c(F)c(F)c5F)c5ccc2[nH]5)C=C4)C=C3)cc1
REMARK SMILES IDX 6 1 5 2 4 3 3 4 1 5 2 6 23 8 24 9 85 10 25 11 84 12 26 13
REMARK SMILES IDX 27 14 28 15 78 16 29 17 83 18 77 19 79 20 30 21 82 22 76 23
REMARK SMILES IDX 75 24 31 26 63 27 43 28 62 29 44 30 47 31 61 32 80 33 45 34
REMARK SMILES IDX 46 35 60 37 81 38 48 39 32 40 33 41 41 42 34 43 35 44 39 45
REMARK SMILES IDX 42 46 36 47 37 48 40 49 38 50 64 51 65 52 73 53 66 54 67 55
REMARK SMILES IDX 71 56 74 57 68 58 69 59 72 60 70 61 49 62 50 63 58 64 51 65
REMARK SMILES IDX 52 66 56 67 59 68 53 69 54 70 57 71 55 72 7 73 8 74 9 75
REMARK SMILES IDX 10 76 11 77 12 79 13 80 14 81 22 82 15 83 21 84 16 86 17 87
REMARK SMILES IDX 20 88 18 89 19 90
REMARK H PARENT 3 7 79 25 47 36 10 78 22 85
REMARK Flexibility Score: inf
ROOT
ATOM      1  C   UNL     1       4.120   2.220   3.300  1.00  0.00     0.002 C 
ENDROOT
BRANCH   1   2
ATOM      2  C   UNL     1       4.580   2.161   1.841  1.00  0.00     0.021 C 
BRANCH   2   3
ATOM      3  C   UNL     1       4.398   0.813   1.150  1.00  0.00     0.116 C 
BRANCH   3   4
ATOM      4  N   UNL     1       3.002   0.442   1.010  1.00  0.00    -0.352 N 
ATOM      5  O   UNL     1       1.104  -0.124  -0.063  1.00  0.00    -0.269 OA
ATOM      6  C   UNL     1       2.324   0.002  -0.099  1.00  0.00     0.251 C 
ATOM      7  H   UNL     1       2.462   0.517   1.830  1.00  0.00     0.163 HD
BRANCH   6   8
ATOM      8  C   UNL     1       3.053  -0.305  -1.351  1.00  0.00     0.039 A 
ATOM      9  C   UNL     1       4.231  -1.058  -1.341  1.00  0.00     0.014 A 
ATOM     10  C   UNL     1       2.511   0.130  -2.565  1.00  0.00     0.014 A 
ATOM     11  C   UNL     1       4.914  -1.296  -2.532  1.00  0.00     0.010 A 
ATOM     12  C   UNL     1       3.168  -0.156  -3.765  1.00  0.00     0.010 A 
ATOM     13  C   UNL     1       4.383  -0.856  -3.756  1.00  0.00    -0.014 A 
BRANCH  13  14
ATOM     14  C   UNL     1       5.073  -1.198  -5.024  1.00  0.00     0.031 A 
ATOM     15  C   UNL     1       5.748  -0.141  -5.848  1.00  0.00     0.074 A 
ATOM     16  C   UNL     1       5.082  -2.481  -5.431  1.00  0.00     0.049 A 
ATOM     17  N   UNL     1       6.396  -0.268  -6.980  1.00  0.00    -0.248 NA
ATOM     18  C   UNL     1       5.686   1.238  -5.343  1.00  0.00     0.031 C 
ATOM     19  C   UNL     1       4.439  -3.591  -4.725  1.00  0.00     0.029 A 
ATOM     20  N   UNL     1       5.652  -3.070  -6.530  1.00  0.00    -0.354 N 
ATOM     21  C   UNL     1       6.803   1.012  -7.330  1.00  0.00     0.074 A 
ATOM     22  C   UNL     1       6.316   1.906  -6.300  1.00  0.00     0.031 C 
ATOM     23  C   UNL     1       4.672  -4.730  -5.394  1.00  0.00     0.029 A 
ATOM     24  C   UNL     1       5.444  -4.425  -6.594  1.00  0.00     0.049 A 
ATOM     25  H   UNL     1       6.160  -2.569  -7.208  1.00  0.00     0.167 HD
ATOM     26  C   UNL     1       7.525   1.400  -8.408  1.00  0.00     0.037 A 
ATOM     27  C   UNL     1       5.824  -5.322  -7.523  1.00  0.00     0.037 A 
ATOM     28  C   UNL     1       8.027   0.507  -9.420  1.00  0.00     0.049 A 
ATOM     29  C   UNL     1       6.614  -4.861  -8.712  1.00  0.00     0.074 A 
ATOM     30  C   UNL     1       8.822   0.802 -10.515  1.00  0.00     0.029 A 
ATOM     31  N   UNL     1       7.778  -0.856  -9.462  1.00  0.00    -0.354 N 
ATOM     32  N   UNL     1       7.033  -3.655  -9.006  1.00  0.00    -0.248 NA
ATOM     33  C   UNL     1       6.979  -5.884  -9.701  1.00  0.00     0.031 C 
ATOM     34  C   UNL     1       9.026  -0.379 -11.239  1.00  0.00     0.029 A 
ATOM     35  C   UNL     1       8.383  -1.413 -10.578  1.00  0.00     0.049 A 
ATOM     36  H   UNL     1       7.250  -1.355  -8.798  1.00  0.00     0.167 HD
ATOM     37  C   UNL     1       7.714  -3.772 -10.208  1.00  0.00     0.074 A 
ATOM     38  C   UNL     1       7.670  -5.172 -10.581  1.00  0.00     0.031 C 
ATOM     39  C   UNL     1       8.319  -2.805 -10.939  1.00  0.00     0.037 A 
BRANCH  26  40
ATOM     40  C   UNL     1       7.814   2.863  -8.561  1.00  0.00     0.064 A 
ATOM     41  C   UNL     1       8.792   3.501  -7.784  1.00  0.00     0.173 A 
ATOM     42  C   UNL     1       7.148   3.620  -9.535  1.00  0.00     0.173 A 
ATOM     43  F   UNL     1       9.448   2.820  -6.832  1.00  0.00    -0.203 F 
ATOM     44  C   UNL     1       9.082   4.850  -7.968  1.00  0.00     0.198 A 
ATOM     45  C   UNL     1       7.454   4.965  -9.729  1.00  0.00     0.198 A 
ATOM     46  F   UNL     1       6.208   3.053 -10.306  1.00  0.00    -0.203 F 
ATOM     47  F   UNL     1      10.000   5.448  -7.196  1.00  0.00    -0.200 F 
ATOM     48  C   UNL     1       8.418   5.579  -8.944  1.00  0.00     0.200 A 
ATOM     49  F   UNL     1       6.817   5.666 -10.677  1.00  0.00    -0.200 F 
ATOM     50  F   UNL     1       8.705   6.876  -9.125  1.00  0.00    -0.200 F 
ENDBRANCH  26  40
BRANCH  27  51
ATOM     51  C   UNL     1       5.455  -6.748  -7.352  1.00  0.00     0.064 A 
ATOM     52  C   UNL     1       6.417  -7.700  -6.991  1.00  0.00     0.173 A 
ATOM     53  C   UNL     1       4.132  -7.180  -7.517  1.00  0.00     0.173 A 
ATOM     54  F   UNL     1       7.699  -7.334  -6.842  1.00  0.00    -0.203 F 
ATOM     55  C   UNL     1       6.068  -9.036  -6.805  1.00  0.00     0.198 A 
ATOM     56  C   UNL     1       3.781  -8.511  -7.310  1.00  0.00     0.198 A 
ATOM     57  F   UNL     1       3.177  -6.303  -7.860  1.00  0.00    -0.203 F 
ATOM     58  F   UNL     1       7.010  -9.933  -6.484  1.00  0.00    -0.200 F 
ATOM     59  C   UNL     1       4.750  -9.439  -6.957  1.00  0.00     0.200 A 
ATOM     60  F   UNL     1       2.504  -8.895  -7.446  1.00  0.00    -0.200 F 
ATOM     61  F   UNL     1       4.413 -10.722  -6.767  1.00  0.00    -0.200 F 
ENDBRANCH  27  51
BRANCH  39  62
ATOM     62  C   UNL     1       8.978  -3.230 -12.214  1.00  0.00     0.064 A 
ATOM     63  C   UNL     1       8.224  -3.514 -13.362  1.00  0.00     0.173 A 
ATOM     64  C   UNL     1      10.374  -3.328 -12.299  1.00  0.00     0.173 A 
ATOM     65  F   UNL     1       6.885  -3.450 -13.322  1.00  0.00    -0.203 F 
ATOM     66  C   UNL     1       8.845  -3.896 -14.547  1.00  0.00     0.198 A 
ATOM     67  C   UNL     1      10.993  -3.692 -13.491  1.00  0.00     0.198 A 
ATOM     68  F   UNL     1      11.136  -3.065 -11.227  1.00  0.00    -0.203 F 
ATOM     69  F   UNL     1       8.105  -4.196 -15.623  1.00  0.00    -0.200 F 
ATOM     70  C   UNL     1      10.229  -3.979 -14.612  1.00  0.00     0.200 A 
ATOM     71  F   UNL     1      12.329  -3.767 -13.555  1.00  0.00    -0.200 F 
ATOM     72  F   UNL     1      10.825  -4.346 -15.755  1.00  0.00    -0.200 F 
ENDBRANCH  39  62
ENDBRANCH  13  14
ENDBRANCH   6   8
ENDBRANCH   3   4
ENDBRANCH   2   3
ENDBRANCH   1   2
BRANCH   1  73
ATOM     73  C   UNL     1       4.756   1.193   4.241  1.00  0.00     0.002 C 
BRANCH  73  74
ATOM     74  C   UNL     1       6.287   1.132   4.223  1.00  0.00     0.021 C 
BRANCH  74  75
ATOM     75  C   UNL     1       6.994   2.455   4.518  1.00  0.00     0.116 C 
BRANCH  75  76
ATOM     76  N   UNL     1       6.785   2.882   5.891  1.00  0.00    -0.351 N 
ATOM     77  C   UNL     1       7.704   3.014   6.897  1.00  0.00     0.269 C 
ATOM     78  H   UNL     1       5.856   3.106   6.131  1.00  0.00     0.163 HD
ATOM     79  O   UNL     1       7.303   3.074   8.061  1.00  0.00    -0.268 OA
BRANCH  77  80
ATOM     80  C   UNL     1       9.097   3.039   6.569  1.00  0.00     0.123 A 
ATOM     81  C   UNL     1       9.808   3.688   5.576  1.00  0.00     0.064 A 
ATOM     82  N   UNL     1      10.043   2.389   7.313  1.00  0.00    -0.272 N 
ATOM     83  C   UNL     1      11.138   3.248   5.731  1.00  0.00     0.096 A 
ATOM     84  N   UNL     1      11.274   2.419   6.770  1.00  0.00    -0.175 NA
ATOM     85  H   UNL     1       9.843   1.943   8.167  1.00  0.00     0.190 HD
BRANCH  83  86
ATOM     86  C   UNL     1      12.230   3.599   4.838  1.00  0.00     0.040 A 
ATOM     87  C   UNL     1      12.429   4.853   4.209  1.00  0.00     0.052 A 
ATOM     88  C   UNL     1      13.265   2.791   4.431  1.00  0.00     0.205 A 
ATOM     89  C   UNL     1      13.572   4.718   3.453  1.00  0.00     0.195 A 
ATOM     90  O   UNL     1      14.080   3.464   3.575  1.00  0.00    -0.472 OA
ENDBRANCH  83  86
ENDBRANCH  77  80
ENDBRANCH  75  76
ENDBRANCH  74  75
ENDBRANCH  73  74
ENDBRANCH   1  73
TORSDOF 14
