REMARK SMILES CC(=O)C1=C(NCCCCCCNC(=O)c2ccc(-c3c4nc(c(-c5c(F)c(F)c(F)c(F)c5F)c5ccc([nH]5)c(-c5c(F)c(F)c(F)c(F)c5F)c5nc(c(-c6c(F)c(F)c(F)c(F)c6F)c6ccc3[nH]6)C=C5)C=C4)cc2)C(=O)N(c2cccc(C(=O)[O-])c2)[C@@H]1c1ccc([N+](=O)[O-])cc1
REMARK SMILES IDX 9 1 8 2 7 3 6 4 5 6 4 7 91 8 79 9 81 10 80 11 2 12 1 13 3 14
REMARK SMILES IDX 92 15 93 16 100 17 94 18 99 19 95 20 96 21 97 22 98 23 82 24
REMARK SMILES IDX 83 25 90 26 84 27 86 28 85 29 87 30 88 31 89 32 10 33 11 34
REMARK SMILES IDX 12 35 13 36 14 37 15 39 16 40 17 41 78 42 18 43 77 44 19 45
REMARK SMILES IDX 20 46 21 47 71 48 22 49 76 50 70 51 72 52 23 53 75 54 69 55
REMARK SMILES IDX 68 56 24 58 56 59 36 60 55 61 37 62 40 63 54 64 73 65 38 66
REMARK SMILES IDX 39 67 53 69 74 70 41 71 25 72 26 73 34 74 27 75 28 76 32 77
REMARK SMILES IDX 35 78 29 79 30 80 33 81 31 82 57 83 58 84 66 85 59 86 60 87
REMARK SMILES IDX 64 88 67 89 61 90 62 91 65 92 63 93 42 94 43 95 51 96 44 97
REMARK SMILES IDX 45 98 49 99 52 100 46 101 47 102 50 103 48 104
REMARK H PARENT 6 5 13 38 72 57 40 68
REMARK Flexibility Score: inf
ROOT
ATOM      1  C   UNL     1      -4.269   2.017   2.358  1.00  0.00     0.002 C 
ENDROOT
BRANCH   1   2
ATOM      2  C   UNL     1      -3.223   1.314   1.489  1.00  0.00     0.021 C 
BRANCH   2   3
ATOM      3  C   UNL     1      -2.050   2.198   1.077  1.00  0.00     0.113 C 
BRANCH   3   4
ATOM      4  N   UNL     1      -1.232   2.482   2.231  1.00  0.00    -0.380 N 
ATOM      5  H   UNL     1      -1.724   2.765   3.035  1.00  0.00     0.160 HD
BRANCH   4   6
ATOM      6  C   UNL     1       0.126   2.414   2.368  1.00  0.00     0.110 C 
ATOM      7  C   UNL     1       1.148   1.963   1.635  1.00  0.00     0.051 C 
ATOM      8  C   UNL     1       2.494   2.162   2.259  1.00  0.00     0.157 C 
ATOM      9  C   UNL     1       0.756   2.935   3.628  1.00  0.00     0.275 C 
ATOM     10  N   UNL     1       2.129   2.890   3.461  1.00  0.00    -0.295 N 
ATOM     11  O   UNL     1       0.107   3.344   4.578  1.00  0.00    -0.267 OA
BRANCH   7  12
ATOM     12  C   UNL     1       1.011   1.329   0.314  1.00  0.00     0.160 C 
ATOM     13  C   UNL     1       1.303  -0.141   0.212  1.00  0.00     0.093 C 
ATOM     14  O   UNL     1       0.708   1.998  -0.671  1.00  0.00    -0.295 OA
ENDBRANCH   7  12
BRANCH   8  15
ATOM     15  C   UNL     1       3.550   2.821   1.385  1.00  0.00    -0.020 A 
ATOM     16  C   UNL     1       3.230   3.705   0.340  1.00  0.00     0.013 A 
ATOM     17  C   UNL     1       4.912   2.582   1.665  1.00  0.00     0.013 A 
ATOM     18  C   UNL     1       4.230   4.327  -0.410  1.00  0.00     0.086 A 
ATOM     19  C   UNL     1       5.919   3.243   0.959  1.00  0.00     0.086 A 
ATOM     20  C   UNL     1       5.571   4.111  -0.080  1.00  0.00     0.269 A 
BRANCH  20  21
ATOM     21  N   UNL     1       6.618   4.825  -0.811  1.00  0.00     0.062 N 
ATOM     22  O   UNL     1       6.324   5.306  -1.915  1.00  0.00    -0.258 OA
ATOM     23  O   UNL     1       7.734   4.910  -0.278  1.00  0.00    -0.258 OA
ENDBRANCH  20  21
ENDBRANCH   8  15
BRANCH  10  24
ATOM     24  C   UNL     1       3.038   3.268   4.467  1.00  0.00     0.046 A 
ATOM     25  C   UNL     1       2.967   2.717   5.749  1.00  0.00     0.026 A 
ATOM     26  C   UNL     1       4.006   4.236   4.191  1.00  0.00     0.036 A 
ATOM     27  C   UNL     1       3.908   3.076   6.720  1.00  0.00     0.003 A 
ATOM     28  C   UNL     1       4.955   4.593   5.154  1.00  0.00    -0.001 A 
ATOM     29  C   UNL     1       4.908   4.004   6.420  1.00  0.00     0.010 A 
BRANCH  28  30
ATOM     30  C   UNL     1       6.018   5.581   4.854  1.00  0.00     0.072 C 
ATOM     31  O   UNL     1       6.851   5.992   5.641  1.00  0.00    -0.545 OA
ATOM     32  O   UNL     1       6.008   5.979   3.569  1.00  0.00    -0.545 OA
ENDBRANCH  28  30
ENDBRANCH  10  24
ENDBRANCH   4   6
ENDBRANCH   3   4
ENDBRANCH   2   3
ENDBRANCH   1   2
BRANCH   1  33
ATOM     33  C   UNL     1      -4.904   3.261   1.729  1.00  0.00     0.002 C 
BRANCH  33  34
ATOM     34  C   UNL     1      -5.479   3.054   0.328  1.00  0.00     0.021 C 
BRANCH  34  35
ATOM     35  C   UNL     1      -6.498   1.925   0.224  1.00  0.00     0.116 C 
BRANCH  35  36
ATOM     36  N   UNL     1      -7.683   2.178   1.028  1.00  0.00    -0.352 N 
ATOM     37  C   UNL     1      -9.001   2.176   0.644  1.00  0.00     0.251 C 
ATOM     38  H   UNL     1      -7.517   2.377   1.978  1.00  0.00     0.163 HD
ATOM     39  O   UNL     1      -9.875   2.591   1.397  1.00  0.00    -0.269 OA
BRANCH  37  40
ATOM     40  C   UNL     1      -9.354   1.691  -0.704  1.00  0.00     0.039 A 
ATOM     41  C   UNL     1     -10.193   2.466  -1.507  1.00  0.00     0.014 A 
ATOM     42  C   UNL     1      -8.826   0.488  -1.183  1.00  0.00     0.014 A 
ATOM     43  C   UNL     1     -10.447   2.069  -2.821  1.00  0.00     0.010 A 
ATOM     44  C   UNL     1      -9.016   0.136  -2.514  1.00  0.00     0.010 A 
ATOM     45  C   UNL     1      -9.827   0.923  -3.347  1.00  0.00    -0.014 A 
BRANCH  45  46
ATOM     46  C   UNL     1     -10.000   0.529  -4.768  1.00  0.00     0.031 A 
ATOM     47  C   UNL     1     -10.640  -0.787  -5.108  1.00  0.00     0.074 A 
ATOM     48  C   UNL     1      -9.495   1.309  -5.743  1.00  0.00     0.049 A 
ATOM     49  N   UNL     1     -10.772  -1.369  -6.273  1.00  0.00    -0.248 NA
ATOM     50  C   UNL     1     -11.177  -1.567  -3.982  1.00  0.00     0.031 C 
ATOM     51  C   UNL     1      -8.813   2.586  -5.536  1.00  0.00     0.029 A 
ATOM     52  N   UNL     1      -9.457   1.129  -7.104  1.00  0.00    -0.354 N 
ATOM     53  C   UNL     1     -11.383  -2.588  -6.017  1.00  0.00     0.074 A 
ATOM     54  C   UNL     1     -11.552  -2.686  -4.584  1.00  0.00     0.031 C 
ATOM     55  C   UNL     1      -8.432   3.079  -6.725  1.00  0.00     0.029 A 
ATOM     56  C   UNL     1      -8.797   2.131  -7.773  1.00  0.00     0.049 A 
ATOM     57  H   UNL     1      -9.864   0.355  -7.557  1.00  0.00     0.167 HD
ATOM     58  C   UNL     1     -11.783  -3.533  -6.902  1.00  0.00     0.037 A 
ATOM     59  C   UNL     1      -8.497   2.259  -9.080  1.00  0.00     0.037 A 
ATOM     60  C   UNL     1     -11.629  -3.418  -8.329  1.00  0.00     0.049 A 
ATOM     61  C   UNL     1      -8.939   1.189 -10.042  1.00  0.00     0.074 A 
ATOM     62  C   UNL     1     -12.065  -4.285  -9.315  1.00  0.00     0.029 A 
ATOM     63  N   UNL     1     -10.977  -2.375  -8.972  1.00  0.00    -0.354 N 
ATOM     64  N   UNL     1      -9.583   0.073  -9.800  1.00  0.00    -0.248 NA
ATOM     65  C   UNL     1      -8.616   1.397 -11.461  1.00  0.00     0.031 C 
ATOM     66  C   UNL     1     -11.617  -3.803 -10.549  1.00  0.00     0.029 A 
ATOM     67  C   UNL     1     -10.968  -2.596 -10.340  1.00  0.00     0.049 A 
ATOM     68  H   UNL     1     -10.581  -1.593  -8.523  1.00  0.00     0.167 HD
ATOM     69  C   UNL     1      -9.771  -0.536 -11.033  1.00  0.00     0.074 A 
ATOM     70  C   UNL     1      -9.180   0.338 -12.024  1.00  0.00     0.031 C 
ATOM     71  C   UNL     1     -10.383  -1.712 -11.318  1.00  0.00     0.037 A 
BRANCH  58  72
ATOM     72  C   UNL     1     -12.412  -4.782  -6.352  1.00  0.00     0.064 A 
ATOM     73  C   UNL     1     -13.665  -4.767  -5.721  1.00  0.00     0.173 A 
ATOM     74  C   UNL     1     -11.762  -6.019  -6.486  1.00  0.00     0.173 A 
ATOM     75  F   UNL     1     -14.326  -3.611  -5.558  1.00  0.00    -0.203 F 
ATOM     76  C   UNL     1     -14.226  -5.936  -5.211  1.00  0.00     0.198 A 
ATOM     77  C   UNL     1     -12.343  -7.191  -6.008  1.00  0.00     0.198 A 
ATOM     78  F   UNL     1     -10.565  -6.094  -7.087  1.00  0.00    -0.203 F 
ATOM     79  F   UNL     1     -15.396  -5.886  -4.559  1.00  0.00    -0.200 F 
ATOM     80  C   UNL     1     -13.568  -7.147  -5.362  1.00  0.00     0.200 A 
ATOM     81  F   UNL     1     -11.713  -8.363  -6.170  1.00  0.00    -0.200 F 
ATOM     82  F   UNL     1     -14.112  -8.272  -4.877  1.00  0.00    -0.200 F 
ENDBRANCH  58  72
BRANCH  59  83
ATOM     83  C   UNL     1      -7.741   3.449  -9.551  1.00  0.00     0.064 A 
ATOM     84  C   UNL     1      -8.350   4.420 -10.359  1.00  0.00     0.173 A 
ATOM     85  C   UNL     1      -6.397   3.645  -9.199  1.00  0.00     0.173 A 
ATOM     86  F   UNL     1      -9.627   4.269 -10.739  1.00  0.00    -0.203 F 
ATOM     87  C   UNL     1      -7.638   5.529 -10.812  1.00  0.00     0.198 A 
ATOM     88  C   UNL     1      -5.696   4.771  -9.625  1.00  0.00     0.198 A 
ATOM     89  F   UNL     1      -5.769   2.749  -8.423  1.00  0.00    -0.203 F 
ATOM     90  F   UNL     1      -8.231   6.418 -11.621  1.00  0.00    -0.200 F 
ATOM     91  C   UNL     1      -6.315   5.708 -10.439  1.00  0.00     0.200 A 
ATOM     92  F   UNL     1      -4.423   4.947  -9.248  1.00  0.00    -0.200 F 
ATOM     93  F   UNL     1      -5.633   6.779 -10.868  1.00  0.00    -0.200 F 
ENDBRANCH  59  83
BRANCH  71  94
ATOM     94  C   UNL     1     -10.490  -2.110 -12.763  1.00  0.00     0.064 A 
ATOM     95  C   UNL     1      -9.373  -2.523 -13.503  1.00  0.00     0.173 A 
ATOM     96  C   UNL     1     -11.743  -2.139 -13.395  1.00  0.00     0.173 A 
ATOM     97  F   UNL     1      -8.150  -2.501 -12.950  1.00  0.00    -0.203 F 
ATOM     98  C   UNL     1      -9.504  -2.933 -14.828  1.00  0.00     0.198 A 
ATOM     99  C   UNL     1     -11.875  -2.581 -14.708  1.00  0.00     0.198 A 
ATOM    100  F   UNL     1     -12.845  -1.760 -12.730  1.00  0.00    -0.203 F 
ATOM    101  F   UNL     1      -8.417  -3.283 -15.529  1.00  0.00    -0.200 F 
ATOM    102  C   UNL     1     -10.755  -2.972 -15.425  1.00  0.00     0.200 A 
ATOM    103  F   UNL     1     -13.088  -2.635 -15.276  1.00  0.00    -0.200 F 
ATOM    104  F   UNL     1     -10.881  -3.383 -16.694  1.00  0.00    -0.200 F 
ENDBRANCH  71  94
ENDBRANCH  45  46
ENDBRANCH  37  40
ENDBRANCH  35  36
ENDBRANCH  34  35
ENDBRANCH  33  34
ENDBRANCH   1  33
TORSDOF 18
