REMARK SMILES NC(=O)C[C@H](NC(=O)c1csc(Br)c1)C(=O)NCCCCCCNC(=O)c1ccc(-c2c3nc(c(-c4c(F)c(F)c(F)c(F)c4F)c4ccc([nH]4)c(-c4c(F)c(F)c(F)c(F)c4F)c4nc(c(-c5c(F)c(F)c(F)c(F)c5F)c5ccc2[nH]5)C=C4)C=C3)cc1
REMARK SMILES IDX 20 1 19 2 18 3 17 4 15 5 16 6 5 8 4 9 2 10 1 11 3 14 6 15
REMARK SMILES IDX 7 16 8 18 9 19 10 20 14 21 11 22 12 23 13 24 21 25 22 26
REMARK SMILES IDX 23 27 24 28 25 29 26 31 27 32 28 33 89 34 29 35 88 36 30 37
REMARK SMILES IDX 31 38 32 39 82 40 33 41 87 42 81 43 83 44 34 45 86 46 80 47
REMARK SMILES IDX 79 48 35 50 67 51 47 52 66 53 48 54 51 55 65 56 84 57 49 58
REMARK SMILES IDX 50 59 64 61 85 62 52 63 36 64 37 65 45 66 38 67 39 68 43 69
REMARK SMILES IDX 46 70 40 71 41 72 44 73 42 74 68 75 69 76 77 77 70 78 71 79
REMARK SMILES IDX 75 80 78 81 72 82 73 83 76 84 74 85 53 86 54 87 62 88 55 89
REMARK SMILES IDX 56 90 60 91 63 92 57 93 58 94 61 95 59 96
REMARK H PARENT 17 7 1 12 1 13 6 17 24 30 83 49 51 60
REMARK Flexibility Score: inf
ROOT
ATOM      1  C   UNL     1       4.218  -6.217  -0.915  1.00  0.00     0.002 C 
ENDROOT
BRANCH   1   2
ATOM      2  C   UNL     1       3.252  -5.128  -0.436  1.00  0.00     0.021 C 
BRANCH   2   3
ATOM      3  C   UNL     1       3.488  -3.734  -1.011  1.00  0.00     0.116 C 
BRANCH   3   4
ATOM      4  N   UNL     1       3.274  -3.674  -2.445  1.00  0.00    -0.354 N 
ATOM      5  C   UNL     1       2.721  -2.711  -3.234  1.00  0.00     0.243 C 
ATOM      6  O   UNL     1       3.006  -2.736  -4.436  1.00  0.00    -0.273 OA
ATOM      7  H   UNL     1       3.582  -4.471  -2.934  1.00  0.00     0.163 HD
BRANCH   5   8
ATOM      8  C   UNL     1       1.836  -1.572  -2.685  1.00  0.00     0.180 C 
BRANCH   8   9
ATOM      9  C   UNL     1       2.633  -0.325  -2.291  1.00  0.00     0.134 C 
BRANCH   9  10
ATOM     10  C   UNL     1       3.778  -0.575  -1.345  1.00  0.00     0.220 C 
ATOM     11  N   UNL     1       3.512  -0.385  -0.023  1.00  0.00    -0.370 N 
ATOM     12  H   UNL     1       4.218  -0.532   0.647  1.00  0.00     0.159 HD
ATOM     13  H   UNL     1       2.613  -0.101   0.263  1.00  0.00     0.159 HD
ATOM     14  O   UNL     1       4.888  -0.941  -1.710  1.00  0.00    -0.275 OA
ENDBRANCH   9  10
ENDBRANCH   8   9
BRANCH   8  15
ATOM     15  N   UNL     1       0.877  -2.036  -1.677  1.00  0.00    -0.340 N 
ATOM     16  C   UNL     1      -0.248  -1.442  -1.172  1.00  0.00     0.252 C 
ATOM     17  H   UNL     1       1.075  -2.924  -1.302  1.00  0.00     0.164 HD
ATOM     18  O   UNL     1      -0.783  -1.950  -0.190  1.00  0.00    -0.269 OA
BRANCH  16  19
ATOM     19  C   UNL     1      -0.754  -0.212  -1.770  1.00  0.00     0.051 A 
ATOM     20  C   UNL     1      -1.177   0.854  -0.991  1.00  0.00     0.079 A 
ATOM     21  C   UNL     1      -0.990   0.064  -3.162  1.00  0.00     0.041 A 
ATOM     22  S   UNL     1      -1.728   2.182  -1.920  1.00  0.00    -0.136 S 
ATOM     23  C   UNL     1      -1.490   1.326  -3.359  1.00  0.00     0.071 A 
ATOM     24  Br  UNL     1      -1.888   2.028  -5.049  1.00  0.00    -0.039 Br
ENDBRANCH  16  19
ENDBRANCH   8  15
ENDBRANCH   5   8
ENDBRANCH   3   4
ENDBRANCH   2   3
ENDBRANCH   1   2
BRANCH   1  25
ATOM     25  C   UNL     1       5.715  -5.917  -0.780  1.00  0.00     0.002 C 
BRANCH  25  26
ATOM     26  C   UNL     1       6.203  -5.447   0.594  1.00  0.00     0.021 C 
BRANCH  26  27
ATOM     27  C   UNL     1       5.843  -6.334   1.782  1.00  0.00     0.116 C 
BRANCH  27  28
ATOM     28  N   UNL     1       6.402  -7.669   1.694  1.00  0.00    -0.352 N 
ATOM     29  C   UNL     1       6.938  -8.461   2.679  1.00  0.00     0.251 C 
ATOM     30  H   UNL     1       6.397  -8.066   0.793  1.00  0.00     0.163 HD
ATOM     31  O   UNL     1       7.441  -9.542   2.383  1.00  0.00    -0.269 OA
BRANCH  29  32
ATOM     32  C   UNL     1       6.950  -8.020   4.095  1.00  0.00     0.039 A 
ATOM     33  C   UNL     1       8.117  -8.228   4.839  1.00  0.00     0.014 A 
ATOM     34  C   UNL     1       5.826  -7.458   4.710  1.00  0.00     0.014 A 
ATOM     35  C   UNL     1       8.179  -7.827   6.176  1.00  0.00     0.010 A 
ATOM     36  C   UNL     1       5.899  -7.026   6.037  1.00  0.00     0.010 A 
ATOM     37  C   UNL     1       7.076  -7.205   6.779  1.00  0.00    -0.014 A 
BRANCH  37  38
ATOM     38  C   UNL     1       7.144  -6.737   8.184  1.00  0.00     0.031 A 
ATOM     39  C   UNL     1       6.419  -7.480   9.268  1.00  0.00     0.074 A 
ATOM     40  C   UNL     1       7.821  -5.613   8.480  1.00  0.00     0.049 A 
ATOM     41  N   UNL     1       6.302  -7.180  10.538  1.00  0.00    -0.248 NA
ATOM     42  C   UNL     1       5.721  -8.711   8.871  1.00  0.00     0.031 C 
ATOM     43  C   UNL     1       8.542  -4.782   7.516  1.00  0.00     0.029 A 
ATOM     44  N   UNL     1       8.001  -4.970   9.679  1.00  0.00    -0.354 N 
ATOM     45  C   UNL     1       5.492  -8.165  11.084  1.00  0.00     0.074 A 
ATOM     46  C   UNL     1       5.147  -9.074  10.011  1.00  0.00     0.031 C 
ATOM     47  C   UNL     1       9.091  -3.740   8.163  1.00  0.00     0.029 A 
ATOM     48  C   UNL     1       8.748  -3.824   9.580  1.00  0.00     0.049 A 
ATOM     49  H   UNL     1       7.630  -5.301  10.529  1.00  0.00     0.167 HD
ATOM     50  C   UNL     1       5.074  -8.299  12.365  1.00  0.00     0.037 A 
ATOM     51  C   UNL     1       9.110  -2.937  10.525  1.00  0.00     0.037 A 
ATOM     52  C   UNL     1       5.447  -7.431  13.448  1.00  0.00     0.049 A 
ATOM     53  C   UNL     1       8.687  -3.145  11.949  1.00  0.00     0.074 A 
ATOM     54  C   UNL     1       5.114  -7.529  14.789  1.00  0.00     0.029 A 
ATOM     55  N   UNL     1       6.246  -6.307  13.315  1.00  0.00    -0.354 N 
ATOM     56  N   UNL     1       7.942  -4.094  12.457  1.00  0.00    -0.248 NA
ATOM     57  C   UNL     1       9.158  -2.157  12.932  1.00  0.00     0.031 C 
ATOM     58  C   UNL     1       5.708  -6.457  15.467  1.00  0.00     0.029 A 
ATOM     59  C   UNL     1       6.415  -5.700  14.549  1.00  0.00     0.049 A 
ATOM     60  H   UNL     1       6.636  -5.988  12.470  1.00  0.00     0.167 HD
ATOM     61  C   UNL     1       7.856  -3.824  13.814  1.00  0.00     0.074 A 
ATOM     62  C   UNL     1       8.632  -2.625  14.056  1.00  0.00     0.031 C 
ATOM     63  C   UNL     1       7.191  -4.510  14.772  1.00  0.00     0.037 A 
BRANCH  50  64
ATOM     64  C   UNL     1       4.148  -9.433  12.663  1.00  0.00     0.064 A 
ATOM     65  C   UNL     1       4.631 -10.728  12.892  1.00  0.00     0.173 A 
ATOM     66  C   UNL     1       2.766  -9.214  12.749  1.00  0.00     0.173 A 
ATOM     67  F   UNL     1       5.945 -10.982  12.805  1.00  0.00    -0.203 F 
ATOM     68  C   UNL     1       3.758 -11.770  13.189  1.00  0.00     0.198 A 
ATOM     69  C   UNL     1       1.897 -10.256  13.056  1.00  0.00     0.198 A 
ATOM     70  F   UNL     1       2.261  -7.990  12.533  1.00  0.00    -0.203 F 
ATOM     71  F   UNL     1       4.236 -13.007  13.385  1.00  0.00    -0.200 F 
ATOM     72  C   UNL     1       2.393 -11.533  13.274  1.00  0.00     0.200 A 
ATOM     73  F   UNL     1       0.579 -10.027  13.137  1.00  0.00    -0.200 F 
ATOM     74  F   UNL     1       1.555 -12.539  13.559  1.00  0.00    -0.200 F 
ENDBRANCH  50  64
BRANCH  51  75
ATOM     75  C   UNL     1       9.935  -1.768  10.146  1.00  0.00     0.064 A 
ATOM     76  C   UNL     1      11.321  -1.775  10.347  1.00  0.00     0.173 A 
ATOM     77  C   UNL     1       9.356  -0.633   9.565  1.00  0.00     0.173 A 
ATOM     78  F   UNL     1      11.909  -2.836  10.918  1.00  0.00    -0.203 F 
ATOM     79  C   UNL     1      12.101  -0.682   9.980  1.00  0.00     0.198 A 
ATOM     80  C   UNL     1      10.139   0.456   9.190  1.00  0.00     0.198 A 
ATOM     81  F   UNL     1       8.031  -0.586   9.359  1.00  0.00    -0.203 F 
ATOM     82  F   UNL     1      13.424  -0.703  10.195  1.00  0.00    -0.200 F 
ATOM     83  C   UNL     1      11.510   0.431   9.398  1.00  0.00     0.200 A 
ATOM     84  F   UNL     1       9.566   1.528   8.627  1.00  0.00    -0.200 F 
ATOM     85  F   UNL     1      12.262   1.482   9.044  1.00  0.00    -0.200 F 
ENDBRANCH  51  75
BRANCH  63  86
ATOM     86  C   UNL     1       7.277  -3.985  16.169  1.00  0.00     0.064 A 
ATOM     87  C   UNL     1       6.423  -2.966  16.610  1.00  0.00     0.173 A 
ATOM     88  C   UNL     1       8.194  -4.527  17.080  1.00  0.00     0.173 A 
ATOM     89  F   UNL     1       5.542  -2.411  15.765  1.00  0.00    -0.203 F 
ATOM     90  C   UNL     1       6.488  -2.501  17.920  1.00  0.00     0.198 A 
ATOM     91  C   UNL     1       8.251  -4.064  18.391  1.00  0.00     0.198 A 
ATOM     92  F   UNL     1       9.033  -5.500  16.696  1.00  0.00    -0.203 F 
ATOM     93  F   UNL     1       5.676  -1.513  18.320  1.00  0.00    -0.200 F 
ATOM     94  C   UNL     1       7.399  -3.052  18.810  1.00  0.00     0.200 A 
ATOM     95  F   UNL     1       9.134  -4.593  19.250  1.00  0.00    -0.200 F 
ATOM     96  F   UNL     1       7.462  -2.601  20.071  1.00  0.00    -0.200 F 
ENDBRANCH  63  86
ENDBRANCH  37  38
ENDBRANCH  29  32
ENDBRANCH  27  28
ENDBRANCH  26  27
ENDBRANCH  25  26
ENDBRANCH   1  25
TORSDOF 17
