REMARK SMILES COc1nc(-c2ccccc2)nc(C)c1CC(=O)NCCCCCCNC(=O)c1ccc(-c2c3nc(c(-c4c(F)c(F)c(F)c(F)c4F)c4ccc([nH]4)c(-c4c(F)c(F)c(F)c(F)c4F)c4nc(c(-c5c(F)c(F)c(F)c(F)c5F)c5ccc2[nH]5)C=C4)C=C3)cc1
REMARK SMILES IDX 22 1 21 2 20 3 19 4 17 5 18 6 16 8 15 9 3 10 4 11 5 12 13 13
REMARK SMILES IDX 12 14 14 15 2 16 1 17 6 18 7 19 11 20 8 21 10 22 9 23 23 24
REMARK SMILES IDX 24 25 25 26 26 27 27 28 28 30 29 31 30 32 91 33 31 34 90 35
REMARK SMILES IDX 32 36 33 37 34 38 84 39 35 40 89 41 83 42 85 43 36 44 88 45
REMARK SMILES IDX 82 46 81 47 37 49 69 50 49 51 68 52 50 53 53 54 67 55 86 56
REMARK SMILES IDX 51 57 52 58 66 60 87 61 54 62 38 63 39 64 47 65 40 66 41 67
REMARK SMILES IDX 45 68 48 69 42 70 43 71 46 72 44 73 70 74 71 75 79 76 72 77
REMARK SMILES IDX 73 78 77 79 80 80 74 81 75 82 78 83 76 84 55 85 56 86 64 87
REMARK SMILES IDX 57 88 58 89 62 90 65 91 59 92 60 93 63 94 61 95
REMARK H PARENT 19 7 26 29 85 48 53 59
REMARK Flexibility Score: inf
ROOT
ATOM      1  C   UNL     1       1.469   3.726   2.571  1.00  0.00     0.002 C 
ENDROOT
BRANCH   1   2
ATOM      2  C   UNL     1       1.909   3.762   1.101  1.00  0.00     0.021 C 
BRANCH   2   3
ATOM      3  C   UNL     1       3.293   3.163   0.844  1.00  0.00     0.116 C 
BRANCH   3   4
ATOM      4  N   UNL     1       3.316   1.730   1.041  1.00  0.00    -0.356 N 
ATOM      5  C   UNL     1       3.404   0.702   0.154  1.00  0.00     0.224 C 
ATOM      6  O   UNL     1       3.487  -0.434   0.631  1.00  0.00    -0.275 OA
ATOM      7  H   UNL     1       3.258   1.449   1.982  1.00  0.00     0.163 HD
BRANCH   5   8
ATOM      8  C   UNL     1       3.486   0.911  -1.352  1.00  0.00     0.143 C 
BRANCH   8   9
ATOM      9  C   UNL     1       2.448   1.814  -1.958  1.00  0.00     0.045 A 
ATOM     10  C   UNL     1       1.102   1.465  -1.954  1.00  0.00     0.220 A 
ATOM     11  N   UNL     1       0.097   2.243  -2.397  1.00  0.00    -0.193 NA
ATOM     12  C   UNL     1       0.474   3.414  -2.931  1.00  0.00     0.163 A 
ATOM     13  C   UNL     1       2.725   3.037  -2.554  1.00  0.00     0.049 A 
ATOM     14  N   UNL     1       1.748   3.832  -3.035  1.00  0.00    -0.233 NA
ATOM     15  C   UNL     1       4.097   3.615  -2.739  1.00  0.00     0.067 C 
BRANCH  10  16
ATOM     16  O   UNL     1       0.768   0.156  -1.692  1.00  0.00    -0.481 OA
ATOM     17  C   UNL     1       0.314  -0.034  -0.358  1.00  0.00     0.280 C 
ENDBRANCH  10  16
BRANCH  12  18
ATOM     18  C   UNL     1      -0.540   4.333  -3.462  1.00  0.00     0.019 A 
ATOM     19  C   UNL     1      -0.366   4.928  -4.728  1.00  0.00     0.012 A 
ATOM     20  C   UNL     1      -1.669   4.703  -2.715  1.00  0.00     0.012 A 
ATOM     21  C   UNL     1      -1.280   5.860  -5.226  1.00  0.00     0.001 A 
ATOM     22  C   UNL     1      -2.577   5.650  -3.206  1.00  0.00     0.001 A 
ATOM     23  C   UNL     1      -2.381   6.227  -4.460  1.00  0.00     0.000 A 
ENDBRANCH  12  18
ENDBRANCH   8   9
ENDBRANCH   5   8
ENDBRANCH   3   4
ENDBRANCH   2   3
ENDBRANCH   1   2
BRANCH   1  24
ATOM     24  C   UNL     1       2.453   4.351   3.567  1.00  0.00     0.002 C 
BRANCH  24  25
ATOM     25  C   UNL     1       2.893   5.779   3.235  1.00  0.00     0.021 C 
BRANCH  25  26
ATOM     26  C   UNL     1       1.760   6.796   3.211  1.00  0.00     0.116 C 
BRANCH  26  27
ATOM     27  N   UNL     1       1.189   7.009   4.532  1.00  0.00    -0.352 N 
ATOM     28  C   UNL     1       1.020   8.189   5.220  1.00  0.00     0.251 C 
ATOM     29  H   UNL     1       0.882   6.198   4.998  1.00  0.00     0.163 HD
ATOM     30  O   UNL     1       0.703   8.188   6.398  1.00  0.00    -0.269 OA
BRANCH  28  31
ATOM     31  C   UNL     1       1.248   9.467   4.513  1.00  0.00     0.039 A 
ATOM     32  C   UNL     1       2.047  10.445   5.109  1.00  0.00     0.014 A 
ATOM     33  C   UNL     1       0.686   9.682   3.252  1.00  0.00     0.014 A 
ATOM     34  C   UNL     1       2.341  11.618   4.408  1.00  0.00     0.010 A 
ATOM     35  C   UNL     1       1.038  10.815   2.528  1.00  0.00     0.010 A 
ATOM     36  C   UNL     1       1.867  11.794   3.099  1.00  0.00    -0.014 A 
BRANCH  36  37
ATOM     37  C   UNL     1       2.196  12.998   2.295  1.00  0.00     0.031 A 
ATOM     38  C   UNL     1       1.090  13.912   1.851  1.00  0.00     0.074 A 
ATOM     39  C   UNL     1       3.459  13.206   1.875  1.00  0.00     0.049 A 
ATOM     40  N   UNL     1       1.121  14.900   0.995  1.00  0.00    -0.248 NA
ATOM     41  C   UNL     1      -0.241  13.655   2.426  1.00  0.00     0.031 C 
ATOM     42  C   UNL     1       4.615  12.378   2.221  1.00  0.00     0.029 A 
ATOM     43  N   UNL     1       3.976  14.166   1.040  1.00  0.00    -0.354 N 
ATOM     44  C   UNL     1      -0.185  15.362   0.907  1.00  0.00     0.074 A 
ATOM     45  C   UNL     1      -0.993  14.518   1.760  1.00  0.00     0.031 C 
ATOM     46  C   UNL     1       5.705  12.867   1.607  1.00  0.00     0.029 A 
ATOM     47  C   UNL     1       5.316  14.009   0.784  1.00  0.00     0.049 A 
ATOM     48  H   UNL     1       3.437  14.898   0.661  1.00  0.00     0.167 HD
ATOM     49  C   UNL     1      -0.664  16.406   0.190  1.00  0.00     0.037 A 
ATOM     50  C   UNL     1       6.132  14.693  -0.041  1.00  0.00     0.037 A 
ATOM     51  C   UNL     1       0.152  17.257  -0.635  1.00  0.00     0.049 A 
ATOM     52  C   UNL     1       5.572  15.836  -0.846  1.00  0.00     0.074 A 
ATOM     53  C   UNL     1      -0.226  18.372  -1.362  1.00  0.00     0.029 A 
ATOM     54  N   UNL     1       1.513  17.084  -0.843  1.00  0.00    -0.354 N 
ATOM     55  N   UNL     1       4.344  16.295  -0.889  1.00  0.00    -0.248 NA
ATOM     56  C   UNL     1       6.510  16.559  -1.717  1.00  0.00     0.031 C 
ATOM     57  C   UNL     1       0.896  18.845  -2.049  1.00  0.00     0.029 A 
ATOM     58  C   UNL     1       1.986  18.062  -1.702  1.00  0.00     0.049 A 
ATOM     59  H   UNL     1       2.061  16.373  -0.439  1.00  0.00     0.167 HD
ATOM     60  C   UNL     1       4.371  17.381  -1.754  1.00  0.00     0.074 A 
ATOM     61  C   UNL     1       5.737  17.514  -2.216  1.00  0.00     0.031 C 
ATOM     62  C   UNL     1       3.356  18.198  -2.126  1.00  0.00     0.037 A 
BRANCH  49  63
ATOM     63  C   UNL     1      -2.138  16.683   0.261  1.00  0.00     0.064 A 
ATOM     64  C   UNL     1      -2.743  17.164   1.432  1.00  0.00     0.173 A 
ATOM     65  C   UNL     1      -2.950  16.499  -0.868  1.00  0.00     0.173 A 
ATOM     66  F   UNL     1      -2.013  17.348   2.543  1.00  0.00    -0.203 F 
ATOM     67  C   UNL     1      -4.111  17.419   1.480  1.00  0.00     0.198 A 
ATOM     68  C   UNL     1      -4.312  16.788  -0.827  1.00  0.00     0.198 A 
ATOM     69  F   UNL     1      -2.423  16.047  -2.016  1.00  0.00    -0.203 F 
ATOM     70  F   UNL     1      -4.675  17.826   2.625  1.00  0.00    -0.200 F 
ATOM     71  C   UNL     1      -4.892  17.238   0.349  1.00  0.00     0.200 A 
ATOM     72  F   UNL     1      -5.063  16.627  -1.925  1.00  0.00    -0.200 F 
ATOM     73  F   UNL     1      -6.207  17.493   0.394  1.00  0.00    -0.200 F 
ENDBRANCH  49  63
BRANCH  50  74
ATOM     74  C   UNL     1       7.569  14.323  -0.143  1.00  0.00     0.064 A 
ATOM     75  C   UNL     1       8.567  15.178   0.347  1.00  0.00     0.173 A 
ATOM     76  C   UNL     1       7.976  13.118  -0.734  1.00  0.00     0.173 A 
ATOM     77  F   UNL     1       8.229  16.351   0.902  1.00  0.00    -0.203 F 
ATOM     78  C   UNL     1       9.916  14.853   0.228  1.00  0.00     0.198 A 
ATOM     79  C   UNL     1       9.325  12.780  -0.824  1.00  0.00     0.198 A 
ATOM     80  F   UNL     1       7.062  12.262  -1.213  1.00  0.00    -0.203 F 
ATOM     81  F   UNL     1      10.850  15.711   0.661  1.00  0.00    -0.200 F 
ATOM     82  C   UNL     1      10.294  13.652  -0.352  1.00  0.00     0.200 A 
ATOM     83  F   UNL     1       9.685  11.611  -1.371  1.00  0.00    -0.200 F 
ATOM     84  F   UNL     1      11.592  13.338  -0.462  1.00  0.00    -0.200 F 
ENDBRANCH  50  74
BRANCH  62  85
ATOM     85  C   UNL     1       3.684  19.354  -3.025  1.00  0.00     0.064 A 
ATOM     86  C   UNL     1       3.974  19.178  -4.385  1.00  0.00     0.173 A 
ATOM     87  C   UNL     1       3.625  20.666  -2.528  1.00  0.00     0.173 A 
ATOM     88  F   UNL     1       4.057  17.944  -4.904  1.00  0.00    -0.203 F 
ATOM     89  C   UNL     1       4.205  20.274  -5.213  1.00  0.00     0.198 A 
ATOM     90  C   UNL     1       3.826  21.759  -3.365  1.00  0.00     0.198 A 
ATOM     91  F   UNL     1       3.344  20.888  -1.235  1.00  0.00    -0.203 F 
ATOM     92  F   UNL     1       4.513  20.083  -6.503  1.00  0.00    -0.200 F 
ATOM     93  C   UNL     1       4.119  21.562  -4.706  1.00  0.00     0.200 A 
ATOM     94  F   UNL     1       3.726  23.003  -2.877  1.00  0.00    -0.200 F 
ATOM     95  F   UNL     1       4.321  22.616  -5.510  1.00  0.00    -0.200 F 
ENDBRANCH  62  85
ENDBRANCH  36  37
ENDBRANCH  28  31
ENDBRANCH  26  27
ENDBRANCH  25  26
ENDBRANCH  24  25
ENDBRANCH   1  24
TORSDOF 16
