REMARK SMILES Cc1nccn1CCC[NH+]1CCC2(CC1)[C@@H](C(=O)NCCCCCCNC(=O)c1ccc(-c3c4nc(c(-c5c(F)c(F)c(F)c(F)c5F)c5ccc([nH]5)c(-c5c(F)c(F)c(F)c(F)c5F)c5nc(c(-c6c(F)c(F)c(F)c(F)c6F)c6ccc3[nH]6)C=C5)C=C4)cc1)CC(=O)N2C
REMARK SMILES IDX 21 1 20 2 19 3 17 4 18 5 16 7 10 8 11 9 15 10 12 12 14 13
REMARK SMILES IDX 13 14 95 15 92 16 93 17 96 18 94 19 9 20 8 21 7 22 6 23 1 24
REMARK SMILES IDX 2 25 3 26 4 27 5 28 22 29 23 30 24 31 25 32 26 33 27 34
REMARK SMILES IDX 28 36 29 37 30 38 91 39 31 40 90 41 32 42 33 43 34 44 84 45
REMARK SMILES IDX 35 46 89 47 83 48 85 49 36 50 88 51 82 52 81 53 37 55 69 56
REMARK SMILES IDX 49 57 68 58 50 59 53 60 67 61 86 62 51 63 52 64 66 66 87 67
REMARK SMILES IDX 54 68 38 69 39 70 47 71 40 72 41 73 45 74 48 75 42 76 43 77
REMARK SMILES IDX 46 78 44 79 70 80 71 81 79 82 72 83 73 84 77 85 80 86 74 87
REMARK SMILES IDX 75 88 78 89 76 90 55 91 56 92 64 93 57 94 58 95 62 96 65 97
REMARK SMILES IDX 59 98 60 99 63 100 61 101
REMARK H PARENT 19 6 10 11 26 35 85 54 53 65
REMARK Flexibility Score: inf
ROOT
ATOM      1  C   UNL     1      -1.696  -9.641   4.412  1.00  0.00     0.021 C 
ENDROOT
BRANCH   1   2
ATOM      2  C   UNL     1      -1.693  -8.115   4.359  1.00  0.00     0.116 C 
BRANCH   2   3
ATOM      3  N   UNL     1      -2.206  -7.657   3.086  1.00  0.00    -0.356 N 
ATOM      4  C   UNL     1      -3.344  -7.008   2.751  1.00  0.00     0.226 C 
ATOM      5  O   UNL     1      -3.559  -6.855   1.544  1.00  0.00    -0.275 OA
ATOM      6  H   UNL     1      -1.617  -7.854   2.322  1.00  0.00     0.163 HD
BRANCH   4   7
ATOM      7  C   UNL     1      -4.286  -6.370   3.761  1.00  0.00     0.114 C 
ATOM      8  N   UNL     1      -3.143  -2.180   3.754  1.00  0.00    -0.335 N 
ATOM      9  C   UNL     1      -4.379  -2.538   4.466  1.00  0.00     0.264 C 
ATOM     10  C   UNL     1      -2.078  -3.108   4.152  1.00  0.00     0.264 C 
ATOM     11  H   UNL     1      -2.851  -1.240   4.024  1.00  0.00     0.348 HD
ATOM     12  C   UNL     1      -4.847  -3.967   4.197  1.00  0.00     0.091 C 
ATOM     13  C   UNL     1      -2.399  -4.589   3.921  1.00  0.00     0.091 C 
ATOM     14  C   UNL     1      -3.774  -5.060   4.449  1.00  0.00     0.065 C 
ATOM     15  N   UNL     1      -3.743  -5.455   5.871  1.00  0.00    -0.339 N 
ATOM     16  C   UNL     1      -4.834  -7.278   4.854  1.00  0.00     0.116 C 
ATOM     17  C   UNL     1      -4.338  -6.679   6.134  1.00  0.00     0.223 C 
ATOM     18  C   UNL     1      -3.062  -4.738   6.932  1.00  0.00     0.147 C 
ATOM     19  O   UNL     1      -4.423  -7.220   7.226  1.00  0.00    -0.275 OA
BRANCH   8  20
ATOM     20  C   UNL     1      -3.347  -2.081   2.297  1.00  0.00     0.264 C 
BRANCH  20  21
ATOM     21  C   UNL     1      -2.642  -0.879   1.651  1.00  0.00     0.083 C 
BRANCH  21  22
ATOM     22  C   UNL     1      -1.127  -0.750   1.817  1.00  0.00     0.129 C 
BRANCH  22  23
ATOM     23  N   UNL     1      -0.292  -1.605   0.990  1.00  0.00    -0.335 N 
ATOM     24  C   UNL     1       1.140   0.192  -0.119  1.00  0.00     0.087 C 
ATOM     25  C   UNL     1       0.767  -1.212   0.193  1.00  0.00     0.105 A 
ATOM     26  N   UNL     1       1.411  -2.262  -0.280  1.00  0.00    -0.242 NA
ATOM     27  C   UNL     1       0.750  -3.356   0.192  1.00  0.00     0.131 A 
ATOM     28  C   UNL     1      -0.317  -2.973   0.961  1.00  0.00     0.107 A 
ENDBRANCH  22  23
ENDBRANCH  21  22
ENDBRANCH  20  21
ENDBRANCH   8  20
ENDBRANCH   4   7
ENDBRANCH   2   3
ENDBRANCH   1   2
BRANCH   1  29
ATOM     29  C   UNL     1      -0.673 -10.295   3.473  1.00  0.00     0.002 C 
BRANCH  29  30
ATOM     30  C   UNL     1       0.783  -9.825   3.633  1.00  0.00     0.002 C 
BRANCH  30  31
ATOM     31  C   UNL     1       1.365  -9.852   5.055  1.00  0.00     0.021 C 
BRANCH  31  32
ATOM     32  C   UNL     1       1.486 -11.247   5.641  1.00  0.00     0.116 C 
BRANCH  32  33
ATOM     33  N   UNL     1       2.479 -12.080   4.949  1.00  0.00    -0.352 N 
ATOM     34  C   UNL     1       2.783 -13.422   5.154  1.00  0.00     0.251 C 
ATOM     35  H   UNL     1       2.999 -11.628   4.246  1.00  0.00     0.163 HD
ATOM     36  O   UNL     1       3.835 -13.908   4.790  1.00  0.00    -0.269 OA
BRANCH  34  37
ATOM     37  C   UNL     1       1.761 -14.254   5.813  1.00  0.00     0.039 A 
ATOM     38  C   UNL     1       2.047 -15.249   6.752  1.00  0.00     0.014 A 
ATOM     39  C   UNL     1       0.452 -13.942   5.492  1.00  0.00     0.014 A 
ATOM     40  C   UNL     1       0.978 -15.878   7.390  1.00  0.00     0.010 A 
ATOM     41  C   UNL     1      -0.532 -14.288   6.357  1.00  0.00     0.010 A 
ATOM     42  C   UNL     1      -0.315 -15.381   7.173  1.00  0.00    -0.014 A 
BRANCH  42  43
ATOM     43  C   UNL     1      -1.515 -15.952   7.755  1.00  0.00     0.031 A 
ATOM     44  C   UNL     1      -1.556 -15.967   9.234  1.00  0.00     0.074 A 
ATOM     45  C   UNL     1      -2.614 -16.178   6.997  1.00  0.00     0.049 A 
ATOM     46  N   UNL     1      -1.572 -16.999  10.009  1.00  0.00    -0.248 NA
ATOM     47  C   UNL     1      -1.450 -14.684   9.944  1.00  0.00     0.031 C 
ATOM     48  C   UNL     1      -2.840 -15.890   5.569  1.00  0.00     0.029 A 
ATOM     49  N   UNL     1      -3.833 -16.621   7.393  1.00  0.00    -0.354 N 
ATOM     50  C   UNL     1      -1.671 -16.501  11.303  1.00  0.00     0.074 A 
ATOM     51  C   UNL     1      -1.412 -15.087  11.216  1.00  0.00     0.031 C 
ATOM     52  C   UNL     1      -4.162 -15.937   5.294  1.00  0.00     0.029 A 
ATOM     53  C   UNL     1      -4.849 -16.440   6.464  1.00  0.00     0.049 A 
ATOM     54  H   UNL     1      -3.985 -17.039   8.271  1.00  0.00     0.167 HD
ATOM     55  C   UNL     1      -2.202 -17.256  12.305  1.00  0.00     0.037 A 
ATOM     56  C   UNL     1      -6.169 -16.662   6.674  1.00  0.00     0.037 A 
ATOM     57  C   UNL     1      -2.273 -18.647  11.932  1.00  0.00     0.049 A 
ATOM     58  C   UNL     1      -6.268 -17.571   7.848  1.00  0.00     0.074 A 
ATOM     59  C   UNL     1      -1.340 -19.593  11.553  1.00  0.00     0.029 A 
ATOM     60  N   UNL     1      -3.485 -19.145  11.514  1.00  0.00    -0.354 N 
ATOM     61  N   UNL     1      -5.835 -18.803   7.840  1.00  0.00    -0.248 NA
ATOM     62  C   UNL     1      -6.375 -16.954   9.162  1.00  0.00     0.031 C 
ATOM     63  C   UNL     1      -1.963 -20.317  10.491  1.00  0.00     0.029 A 
ATOM     64  C   UNL     1      -3.259 -19.822  10.341  1.00  0.00     0.049 A 
ATOM     65  H   UNL     1      -4.351 -19.037  11.970  1.00  0.00     0.167 HD
ATOM     66  C   UNL     1      -5.225 -18.975   9.076  1.00  0.00     0.074 A 
ATOM     67  C   UNL     1      -5.647 -17.822   9.871  1.00  0.00     0.031 C 
ATOM     68  C   UNL     1      -4.202 -19.865   9.248  1.00  0.00     0.037 A 
BRANCH  55  69
ATOM     69  C   UNL     1      -2.985 -16.697  13.463  1.00  0.00     0.064 A 
ATOM     70  C   UNL     1      -3.302 -17.539  14.546  1.00  0.00     0.173 A 
ATOM     71  C   UNL     1      -3.683 -15.471  13.415  1.00  0.00     0.173 A 
ATOM     72  F   UNL     1      -2.710 -18.736  14.675  1.00  0.00    -0.203 F 
ATOM     73  C   UNL     1      -4.299 -17.209  15.466  1.00  0.00     0.198 A 
ATOM     74  C   UNL     1      -4.637 -15.120  14.368  1.00  0.00     0.198 A 
ATOM     75  F   UNL     1      -3.559 -14.620  12.390  1.00  0.00    -0.203 F 
ATOM     76  F   UNL     1      -4.657 -18.095  16.405  1.00  0.00    -0.200 F 
ATOM     77  C   UNL     1      -4.970 -16.003  15.373  1.00  0.00     0.200 A 
ATOM     78  F   UNL     1      -5.289 -13.955  14.248  1.00  0.00    -0.200 F 
ATOM     79  F   UNL     1      -5.970 -15.712  16.215  1.00  0.00    -0.200 F 
ENDBRANCH  55  69
BRANCH  56  80
ATOM     80  C   UNL     1      -7.304 -15.855   6.167  1.00  0.00     0.064 A 
ATOM     81  C   UNL     1      -8.617 -16.350   6.185  1.00  0.00     0.173 A 
ATOM     82  C   UNL     1      -7.159 -14.477   5.904  1.00  0.00     0.173 A 
ATOM     83  F   UNL     1      -8.844 -17.640   6.472  1.00  0.00    -0.203 F 
ATOM     84  C   UNL     1      -9.719 -15.514   5.971  1.00  0.00     0.198 A 
ATOM     85  C   UNL     1      -8.258 -13.645   5.686  1.00  0.00     0.198 A 
ATOM     86  F   UNL     1      -5.953 -13.892   5.942  1.00  0.00    -0.203 F 
ATOM     87  F   UNL     1     -10.961 -16.011   6.049  1.00  0.00    -0.200 F 
ATOM     88  C   UNL     1      -9.539 -14.161   5.732  1.00  0.00     0.200 A 
ATOM     89  F   UNL     1      -8.070 -12.331   5.493  1.00  0.00    -0.200 F 
ATOM     90  F   UNL     1     -10.596 -13.350   5.587  1.00  0.00    -0.200 F 
ENDBRANCH  56  80
BRANCH  68  91
ATOM     91  C   UNL     1      -3.881 -20.800   8.111  1.00  0.00     0.064 A 
ATOM     92  C   UNL     1      -3.410 -20.376   6.855  1.00  0.00     0.173 A 
ATOM     93  C   UNL     1      -3.901 -22.179   8.349  1.00  0.00     0.173 A 
ATOM     94  F   UNL     1      -3.256 -19.078   6.580  1.00  0.00    -0.203 F 
ATOM     95  C   UNL     1      -3.023 -21.287   5.873  1.00  0.00     0.198 A 
ATOM     96  C   UNL     1      -3.482 -23.088   7.379  1.00  0.00     0.198 A 
ATOM     97  F   UNL     1      -4.281 -22.646   9.548  1.00  0.00    -0.203 F 
ATOM     98  F   UNL     1      -2.586 -20.848   4.683  1.00  0.00    -0.200 F 
ATOM     99  C   UNL     1      -3.054 -22.643   6.139  1.00  0.00     0.200 A 
ATOM    100  F   UNL     1      -3.466 -24.398   7.660  1.00  0.00    -0.200 F 
ATOM    101  F   UNL     1      -2.646 -23.521   5.211  1.00  0.00    -0.200 F 
ENDBRANCH  68  91
ENDBRANCH  42  43
ENDBRANCH  34  37
ENDBRANCH  32  33
ENDBRANCH  31  32
ENDBRANCH  30  31
ENDBRANCH  29  30
ENDBRANCH   1  29
TORSDOF 17
