REMARK SMILES O=C(NCCCCCCNC(=O)c1ccc(F)cc1NC(=O)[C@H]1CCS(=O)(=O)C1)c1ccc(-c2c3nc(c(-c4c(F)c(F)c(F)c(F)c4F)c4ccc([nH]4)c(-c4c(F)c(F)c(F)c(F)c4F)c4nc(c(-c5c(F)c(F)c(F)c(F)c5F)c5ccc2[nH]5)C=C4)C=C3)cc1
REMARK SMILES IDX 6 1 5 2 4 3 3 4 1 5 2 6 30 8 31 9 92 10 32 11 91 12 33 13
REMARK SMILES IDX 34 14 35 15 85 16 36 17 90 18 84 19 86 20 37 21 89 22 83 23
REMARK SMILES IDX 82 24 38 26 70 27 50 28 69 29 51 30 54 31 68 32 87 33 52 34
REMARK SMILES IDX 53 35 67 37 88 38 55 39 39 40 40 41 48 42 41 43 42 44 46 45
REMARK SMILES IDX 49 46 43 47 44 48 47 49 45 50 71 51 72 52 80 53 73 54 74 55
REMARK SMILES IDX 78 56 81 57 75 58 76 59 79 60 77 61 56 62 57 63 65 64 58 65
REMARK SMILES IDX 59 66 63 67 66 68 60 69 61 70 64 71 62 72 7 73 8 74 9 75
REMARK SMILES IDX 10 76 11 77 12 79 13 80 14 81 19 82 15 83 18 84 16 85 17 86
REMARK SMILES IDX 20 87 21 88 22 90 23 91 24 92 29 93 25 94 26 95 27 96 28 97
REMARK H PARENT 3 7 86 25 54 36 10 78 20 89
REMARK Flexibility Score: inf
ROOT
ATOM      1  C   UNL     1      15.647 -10.922  10.786  1.00  0.00     0.002 C 
ENDROOT
BRANCH   1   2
ATOM      2  C   UNL     1      16.390 -12.257  10.773  1.00  0.00     0.021 C 
BRANCH   2   3
ATOM      3  C   UNL     1      17.896 -12.142  10.576  1.00  0.00     0.116 C 
BRANCH   3   4
ATOM      4  N   UNL     1      18.542 -11.420  11.659  1.00  0.00    -0.352 N 
ATOM      5  O   UNL     1      19.849 -11.161  13.482  1.00  0.00    -0.269 OA
ATOM      6  C   UNL     1      19.542 -11.833  12.502  1.00  0.00     0.251 C 
ATOM      7  H   UNL     1      18.215 -10.503  11.810  1.00  0.00     0.163 HD
BRANCH   6   8
ATOM      8  C   UNL     1      20.235 -13.111  12.238  1.00  0.00     0.039 A 
ATOM      9  C   UNL     1      20.663 -13.435  10.947  1.00  0.00     0.014 A 
ATOM     10  C   UNL     1      20.459 -13.993  13.297  1.00  0.00     0.014 A 
ATOM     11  C   UNL     1      21.186 -14.697  10.691  1.00  0.00     0.010 A 
ATOM     12  C   UNL     1      21.067 -15.225  13.053  1.00  0.00     0.010 A 
ATOM     13  C   UNL     1      21.410 -15.598  11.743  1.00  0.00    -0.014 A 
BRANCH  13  14
ATOM     14  C   UNL     1      22.059 -16.904  11.472  1.00  0.00     0.031 A 
ATOM     15  C   UNL     1      21.332 -18.194  11.718  1.00  0.00     0.074 A 
ATOM     16  C   UNL     1      23.323 -16.916  11.008  1.00  0.00     0.049 A 
ATOM     17  N   UNL     1      21.767 -19.422  11.589  1.00  0.00    -0.248 NA
ATOM     18  C   UNL     1      19.937 -18.096  12.173  1.00  0.00     0.031 C 
ATOM     19  C   UNL     1      24.124 -15.723  10.726  1.00  0.00     0.029 A 
ATOM     20  N   UNL     1      24.155 -17.958  10.688  1.00  0.00    -0.354 N 
ATOM     21  C   UNL     1      20.710 -20.241  11.964  1.00  0.00     0.074 A 
ATOM     22  C   UNL     1      19.620 -19.371  12.353  1.00  0.00     0.031 C 
ATOM     23  C   UNL     1      25.318 -16.099  10.248  1.00  0.00     0.029 A 
ATOM     24  C   UNL     1      25.394 -17.556  10.257  1.00  0.00     0.049 A 
ATOM     25  H   UNL     1      23.889 -18.903  10.761  1.00  0.00     0.167 HD
ATOM     26  C   UNL     1      20.657 -21.594  11.971  1.00  0.00     0.037 A 
ATOM     27  C   UNL     1      26.484 -18.275   9.931  1.00  0.00     0.037 A 
ATOM     28  C   UNL     1      21.748 -22.447  11.572  1.00  0.00     0.049 A 
ATOM     29  C   UNL     1      26.419 -19.773  10.002  1.00  0.00     0.074 A 
ATOM     30  C   UNL     1      21.782 -23.830  11.515  1.00  0.00     0.029 A 
ATOM     31  N   UNL     1      23.001 -22.001  11.174  1.00  0.00    -0.354 N 
ATOM     32  N   UNL     1      25.408 -20.538  10.335  1.00  0.00    -0.248 NA
ATOM     33  C   UNL     1      27.642 -20.509   9.657  1.00  0.00     0.031 C 
ATOM     34  C   UNL     1      23.071 -24.221  11.147  1.00  0.00     0.029 A 
ATOM     35  C   UNL     1      23.823 -23.083  10.899  1.00  0.00     0.049 A 
ATOM     36  H   UNL     1      23.266 -21.056  11.098  1.00  0.00     0.167 HD
ATOM     37  C   UNL     1      25.861 -21.843  10.216  1.00  0.00     0.074 A 
ATOM     38  C   UNL     1      27.239 -21.768   9.773  1.00  0.00     0.031 C 
ATOM     39  C   UNL     1      25.191 -22.997  10.449  1.00  0.00     0.037 A 
BRANCH  26  40
ATOM     40  C   UNL     1      19.388 -22.249  12.439  1.00  0.00     0.064 A 
ATOM     41  C   UNL     1      19.373 -23.003  13.623  1.00  0.00     0.173 A 
ATOM     42  C   UNL     1      18.206 -22.195  11.685  1.00  0.00     0.173 A 
ATOM     43  F   UNL     1      20.478 -23.097  14.379  1.00  0.00    -0.203 F 
ATOM     44  C   UNL     1      18.230 -23.687  14.027  1.00  0.00     0.198 A 
ATOM     45  C   UNL     1      17.053 -22.853  12.109  1.00  0.00     0.198 A 
ATOM     46  F   UNL     1      18.161 -21.482  10.550  1.00  0.00    -0.203 F 
ATOM     47  F   UNL     1      18.253 -24.429  15.143  1.00  0.00    -0.200 F 
ATOM     48  C   UNL     1      17.069 -23.606  13.273  1.00  0.00     0.200 A 
ATOM     49  F   UNL     1      15.925 -22.752  11.393  1.00  0.00    -0.200 F 
ATOM     50  F   UNL     1      15.964 -24.252  13.671  1.00  0.00    -0.200 F 
ENDBRANCH  26  40
BRANCH  27  51
ATOM     51  C   UNL     1      27.715 -17.564   9.501  1.00  0.00     0.064 A 
ATOM     52  C   UNL     1      28.448 -16.769  10.396  1.00  0.00     0.173 A 
ATOM     53  C   UNL     1      28.140 -17.607   8.167  1.00  0.00     0.173 A 
ATOM     54  F   UNL     1      28.075 -16.687  11.682  1.00  0.00    -0.203 F 
ATOM     55  C   UNL     1      29.537 -16.016   9.964  1.00  0.00     0.198 A 
ATOM     56  C   UNL     1      29.248 -16.877   7.743  1.00  0.00     0.198 A 
ATOM     57  F   UNL     1      27.481 -18.365   7.279  1.00  0.00    -0.203 F 
ATOM     58  F   UNL     1      30.185 -15.223  10.828  1.00  0.00    -0.200 F 
ATOM     59  C   UNL     1      29.938 -16.073   8.639  1.00  0.00     0.200 A 
ATOM     60  F   UNL     1      29.645 -16.949   6.465  1.00  0.00    -0.200 F 
ATOM     61  F   UNL     1      30.987 -15.350   8.223  1.00  0.00    -0.200 F 
ENDBRANCH  27  51
BRANCH  39  62
ATOM     62  C   UNL     1      25.910 -24.291  10.198  1.00  0.00     0.064 A 
ATOM     63  C   UNL     1      25.509 -25.128   9.145  1.00  0.00     0.173 A 
ATOM     64  C   UNL     1      26.918 -24.753  11.056  1.00  0.00     0.173 A 
ATOM     65  F   UNL     1      24.543 -24.735   8.300  1.00  0.00    -0.203 F 
ATOM     66  C   UNL     1      26.069 -26.390   8.978  1.00  0.00     0.198 A 
ATOM     67  C   UNL     1      27.500 -26.004  10.867  1.00  0.00     0.198 A 
ATOM     68  F   UNL     1      27.348 -23.985  12.069  1.00  0.00    -0.203 F 
ATOM     69  F   UNL     1      25.633 -27.191   7.995  1.00  0.00    -0.200 F 
ATOM     70  C   UNL     1      27.065 -26.827   9.838  1.00  0.00     0.200 A 
ATOM     71  F   UNL     1      28.479 -26.416  11.683  1.00  0.00    -0.200 F 
ATOM     72  F   UNL     1      27.605 -28.042   9.676  1.00  0.00    -0.200 F 
ENDBRANCH  39  62
ENDBRANCH  13  14
ENDBRANCH   6   8
ENDBRANCH   3   4
ENDBRANCH   2   3
ENDBRANCH   1   2
BRANCH   1  73
ATOM     73  C   UNL     1      15.895 -10.031   9.565  1.00  0.00     0.002 C 
BRANCH  73  74
ATOM     74  C   UNL     1      15.630 -10.691   8.206  1.00  0.00     0.021 C 
BRANCH  74  75
ATOM     75  C   UNL     1      14.223 -11.256   8.032  1.00  0.00     0.116 C 
BRANCH  75  76
ATOM     76  N   UNL     1      13.222 -10.208   8.092  1.00  0.00    -0.352 N 
ATOM     77  C   UNL     1      12.221  -9.917   7.206  1.00  0.00     0.253 C 
ATOM     78  H   UNL     1      13.269  -9.623   8.883  1.00  0.00     0.163 HD
ATOM     79  O   UNL     1      11.673  -8.819   7.249  1.00  0.00    -0.269 OA
BRANCH  77  80
ATOM     80  C   UNL     1      11.788 -10.904   6.186  1.00  0.00     0.063 A 
ATOM     81  C   UNL     1      11.632 -12.248   6.574  1.00  0.00     0.019 A 
ATOM     82  C   UNL     1      11.479 -10.488   4.866  1.00  0.00     0.056 A 
ATOM     83  C   UNL     1      11.207 -13.198   5.652  1.00  0.00     0.040 A 
ATOM     84  C   UNL     1      10.919 -11.439   4.012  1.00  0.00     0.066 A 
ATOM     85  C   UNL     1      10.832 -12.778   4.390  1.00  0.00     0.125 A 
ATOM     86  F   UNL     1      10.382 -13.677   3.506  1.00  0.00    -0.207 F 
BRANCH  82  87
ATOM     87  N   UNL     1      11.795  -9.161   4.476  1.00  0.00    -0.325 N 
ATOM     88  C   UNL     1      11.972  -8.522   3.281  1.00  0.00     0.228 C 
ATOM     89  H   UNL     1      11.914  -8.559   5.247  1.00  0.00     0.169 HD
ATOM     90  O   UNL     1      12.315  -7.336   3.306  1.00  0.00    -0.274 OA
BRANCH  88  91
ATOM     91  C   UNL     1      11.768  -9.219   1.956  1.00  0.00     0.095 C 
ATOM     92  C   UNL     1      11.942  -8.304   0.724  1.00  0.00     0.030 C 
ATOM     93  C   UNL     1      12.772 -10.334   1.676  1.00  0.00     0.150 C 
ATOM     94  C   UNL     1      11.813  -9.205  -0.509  1.00  0.00     0.138 C 
ATOM     95  S   UNL     1      12.330 -10.832   0.028  1.00  0.00     0.151 S 
ATOM     96  O   UNL     1      11.160 -11.678   0.127  1.00  0.00    -0.229 OA
ATOM     97  O   UNL     1      13.526 -11.238  -0.679  1.00  0.00    -0.229 OA
ENDBRANCH  88  91
ENDBRANCH  82  87
ENDBRANCH  77  80
ENDBRANCH  75  76
ENDBRANCH  74  75
ENDBRANCH  73  74
ENDBRANCH   1  73
TORSDOF 15
