REMARK SMILES CCc1ccnc(C(=O)c2[nH]c3ccc(OC(F)(F)F)cc3c2CC(=O)NCCCCCCNC(=O)c2ccc(-c3c4nc(c(-c5c(F)c(F)c(F)c(F)c5F)c5ccc([nH]5)c(-c5c(F)c(F)c(F)c(F)c5F)c5nc(c(-c6c(F)c(F)c(F)c(F)c6F)c6ccc3[nH]6)C=C5)C=C4)cc2)c1
REMARK SMILES IDX 29 1 28 2 27 3 25 4 26 5 24 7 23 8 10 9 11 10 12 11 22 13
REMARK SMILES IDX 13 14 21 15 14 16 15 17 8 18 9 19 7 20 3 21 4 22 100 23 5 24
REMARK SMILES IDX 6 25 2 26 1 27 16 28 17 29 18 30 19 31 20 32 30 33 31 34
REMARK SMILES IDX 32 35 33 36 34 37 35 38 36 40 37 41 38 42 99 43 39 44 98 45
REMARK SMILES IDX 40 46 41 47 42 48 92 49 43 50 97 51 91 52 93 53 44 54 96 55
REMARK SMILES IDX 90 56 89 57 45 59 77 60 57 61 76 62 58 63 61 64 75 65 94 66
REMARK SMILES IDX 59 67 60 68 74 70 95 71 62 72 46 73 47 74 55 75 48 76 49 77
REMARK SMILES IDX 53 78 56 79 50 80 51 81 54 82 52 83 78 84 79 85 87 86 80 87
REMARK SMILES IDX 81 88 85 89 88 90 82 91 83 92 86 93 84 94 63 95 64 96 72 97
REMARK SMILES IDX 65 98 66 99 70 100 73 101 67 102 68 103 71 104 69 105
REMARK H PARENT 27 6 11 12 34 39 93 58 61 69
REMARK Flexibility Score: inf
ROOT
ATOM      1  C   UNL     1       3.555   0.957   8.238  1.00  0.00     0.021 C 
ENDROOT
BRANCH   1   2
ATOM      2  C   UNL     1       4.964   0.584   7.777  1.00  0.00     0.116 C 
BRANCH   2   3
ATOM      3  N   UNL     1       5.075  -0.803   7.377  1.00  0.00    -0.356 N 
ATOM      4  C   UNL     1       5.130  -1.341   6.123  1.00  0.00     0.224 C 
ATOM      5  O   UNL     1       5.354  -2.550   6.017  1.00  0.00    -0.275 OA
ATOM      6  H   UNL     1       5.117  -1.452   8.116  1.00  0.00     0.163 HD
BRANCH   4   7
ATOM      7  C   UNL     1       5.042  -0.457   4.891  1.00  0.00     0.138 C 
BRANCH   7   8
ATOM      8  C   UNL     1       3.735   0.262   4.706  1.00  0.00    -0.002 A 
ATOM      9  C   UNL     1       2.465  -0.298   4.599  1.00  0.00     0.093 A 
ATOM     10  N   UNL     1       1.564   0.737   4.492  1.00  0.00    -0.352 N 
ATOM     11  C   UNL     1       2.215   1.942   4.418  1.00  0.00     0.046 A 
ATOM     12  H   UNL     1       0.586   0.627   4.472  1.00  0.00     0.167 HD
ATOM     13  C   UNL     1       3.576   1.680   4.539  1.00  0.00     0.008 A 
ATOM     14  C   UNL     1       1.704   3.234   4.263  1.00  0.00     0.030 A 
ATOM     15  C   UNL     1       4.469   2.772   4.493  1.00  0.00     0.057 A 
ATOM     16  C   UNL     1       2.614   4.299   4.225  1.00  0.00     0.049 A 
ATOM     17  C   UNL     1       3.985   4.080   4.339  1.00  0.00     0.130 A 
BRANCH   9  18
ATOM     18  C   UNL     1       2.055  -1.690   4.664  1.00  0.00     0.227 C 
ATOM     19  O   UNL     1       2.113  -2.314   5.719  1.00  0.00    -0.285 OA
BRANCH  18  20
ATOM     20  C   UNL     1       1.490  -2.330   3.415  1.00  0.00     0.113 A 
ATOM     21  C   UNL     1       0.884  -2.284   1.076  1.00  0.00    -0.044 A 
ATOM     22  C   UNL     1       0.372  -3.575   1.244  1.00  0.00     0.024 A 
ATOM     23  C   UNL     1       1.481  -1.669   2.183  1.00  0.00     0.036 A 
ATOM     24  C   UNL     1       0.440  -4.170   2.493  1.00  0.00     0.112 A 
ATOM     25  N   UNL     1       0.967  -3.572   3.579  1.00  0.00    -0.253 NA
BRANCH  21  26
ATOM     26  C   UNL     1       0.796  -1.645  -0.291  1.00  0.00     0.032 C 
ATOM     27  C   UNL     1       1.008  -0.137  -0.348  1.00  0.00     0.009 C 
ENDBRANCH  21  26
ENDBRANCH  18  20
ENDBRANCH   9  18
BRANCH  17  28
ATOM     28  O   UNL     1       4.964   5.034   4.318  1.00  0.00    -0.406 OA
BRANCH  28  29
ATOM     29  C   UNL     1       4.566   6.389   4.202  1.00  0.00     0.573 C 
ATOM     30  F   UNL     1       3.916   6.609   3.040  1.00  0.00    -0.132 F 
ATOM     31  F   UNL     1       3.780   6.755   5.237  1.00  0.00    -0.132 F 
ATOM     32  F   UNL     1       5.671   7.167   4.219  1.00  0.00    -0.132 F 
ENDBRANCH  28  29
ENDBRANCH  17  28
ENDBRANCH   7   8
ENDBRANCH   4   7
ENDBRANCH   2   3
ENDBRANCH   1   2
BRANCH   1  33
ATOM     33  C   UNL     1       3.108   0.306   9.552  1.00  0.00     0.002 C 
BRANCH  33  34
ATOM     34  C   UNL     1       3.964   0.621  10.783  1.00  0.00     0.002 C 
BRANCH  34  35
ATOM     35  C   UNL     1       4.209   2.106  11.074  1.00  0.00     0.021 C 
BRANCH  35  36
ATOM     36  C   UNL     1       2.957   2.966  11.248  1.00  0.00     0.116 C 
BRANCH  36  37
ATOM     37  N   UNL     1       2.172   2.587  12.410  1.00  0.00    -0.352 N 
ATOM     38  C   UNL     1       1.536   3.381  13.332  1.00  0.00     0.251 C 
ATOM     39  H   UNL     1       2.084   1.618  12.558  1.00  0.00     0.163 HD
ATOM     40  O   UNL     1       1.021   2.877  14.324  1.00  0.00    -0.269 OA
BRANCH  38  41
ATOM     41  C   UNL     1       1.482   4.851  13.156  1.00  0.00     0.039 A 
ATOM     42  C   UNL     1       1.770   5.663  14.260  1.00  0.00     0.014 A 
ATOM     43  C   UNL     1       1.094   5.431  11.945  1.00  0.00     0.014 A 
ATOM     44  C   UNL     1       1.720   7.054  14.138  1.00  0.00     0.010 A 
ATOM     45  C   UNL     1       1.063   6.822  11.817  1.00  0.00     0.010 A 
ATOM     46  C   UNL     1       1.381   7.642  12.911  1.00  0.00    -0.014 A 
BRANCH  46  47
ATOM     47  C   UNL     1       1.363   9.116  12.754  1.00  0.00     0.031 A 
ATOM     48  C   UNL     1       0.063   9.862  12.730  1.00  0.00     0.074 A 
ATOM     49  C   UNL     1       2.521   9.779  12.586  1.00  0.00     0.049 A 
ATOM     50  N   UNL     1      -0.156  11.132  12.495  1.00  0.00    -0.248 NA
ATOM     51  C   UNL     1      -1.152   9.078  12.997  1.00  0.00     0.031 C 
ATOM     52  C   UNL     1       3.851   9.171  12.580  1.00  0.00     0.029 A 
ATOM     53  N   UNL     1       2.761  11.114  12.375  1.00  0.00    -0.354 N 
ATOM     54  C   UNL     1      -1.532  11.295  12.555  1.00  0.00     0.074 A 
ATOM     55  C   UNL     1      -2.099   9.997  12.859  1.00  0.00     0.031 C 
ATOM     56  C   UNL     1       4.769  10.130  12.376  1.00  0.00     0.029 A 
ATOM     57  C   UNL     1       4.090  11.413  12.217  1.00  0.00     0.049 A 
ATOM     58  H   UNL     1       2.047  11.791  12.340  1.00  0.00     0.167 HD
ATOM     59  C   UNL     1      -2.255  12.423  12.368  1.00  0.00     0.037 A 
ATOM     60  C   UNL     1       4.691  12.589  11.960  1.00  0.00     0.037 A 
ATOM     61  C   UNL     1      -1.702  13.723  12.097  1.00  0.00     0.049 A 
ATOM     62  C   UNL     1       3.868  13.832  11.796  1.00  0.00     0.074 A 
ATOM     63  C   UNL     1      -2.365  14.925  11.914  1.00  0.00     0.029 A 
ATOM     64  N   UNL     1      -0.348  13.991  11.981  1.00  0.00    -0.354 N 
ATOM     65  N   UNL     1       2.567  13.970  11.844  1.00  0.00    -0.248 NA
ATOM     66  C   UNL     1       4.599  15.081  11.537  1.00  0.00     0.031 C 
ATOM     67  C   UNL     1      -1.409  15.922  11.681  1.00  0.00     0.029 A 
ATOM     68  C   UNL     1      -0.154  15.339  11.729  1.00  0.00     0.049 A 
ATOM     69  H   UNL     1       0.370  13.322  12.066  1.00  0.00     0.167 HD
ATOM     70  C   UNL     1       2.321  15.316  11.619  1.00  0.00     0.074 A 
ATOM     71  C   UNL     1       3.608  15.958  11.445  1.00  0.00     0.031 C 
ATOM     72  C   UNL     1       1.132  15.960  11.558  1.00  0.00     0.037 A 
BRANCH  59  73
ATOM     73  C   UNL     1      -3.743  12.296  12.436  1.00  0.00     0.064 A 
ATOM     74  C   UNL     1      -4.422  12.357  13.660  1.00  0.00     0.173 A 
ATOM     75  C   UNL     1      -4.495  12.144  11.263  1.00  0.00     0.173 A 
ATOM     76  F   UNL     1      -3.738  12.490  14.806  1.00  0.00    -0.203 F 
ATOM     77  C   UNL     1      -5.810  12.264  13.707  1.00  0.00     0.198 A 
ATOM     78  C   UNL     1      -5.883  12.059  11.314  1.00  0.00     0.198 A 
ATOM     79  F   UNL     1      -3.883  12.077  10.072  1.00  0.00    -0.203 F 
ATOM     80  F   UNL     1      -6.444  12.309  14.887  1.00  0.00    -0.200 F 
ATOM     81  C   UNL     1      -6.539  12.118  12.535  1.00  0.00     0.200 A 
ATOM     82  F   UNL     1      -6.586  11.915  10.182  1.00  0.00    -0.200 F 
ATOM     83  F   UNL     1      -7.875  12.028  12.583  1.00  0.00    -0.200 F 
ENDBRANCH  59  73
BRANCH  60  84
ATOM     84  C   UNL     1       6.165  12.639  11.837  1.00  0.00     0.064 A 
ATOM     85  C   UNL     1       6.961  13.025  12.922  1.00  0.00     0.173 A 
ATOM     86  C   UNL     1       6.801  12.287  10.640  1.00  0.00     0.173 A 
ATOM     87  F   UNL     1       6.386  13.386  14.078  1.00  0.00    -0.203 F 
ATOM     88  C   UNL     1       8.348  13.059  12.813  1.00  0.00     0.198 A 
ATOM     89  C   UNL     1       8.189  12.314  10.534  1.00  0.00     0.198 A 
ATOM     90  F   UNL     1       6.072  11.916   9.577  1.00  0.00    -0.203 F 
ATOM     91  F   UNL     1       9.092  13.446  13.858  1.00  0.00    -0.200 F 
ATOM     92  C   UNL     1       8.961  12.701  11.620  1.00  0.00     0.200 A 
ATOM     93  F   UNL     1       8.779  11.968   9.382  1.00  0.00    -0.200 F 
ATOM     94  F   UNL     1      10.297  12.733  11.516  1.00  0.00    -0.200 F 
ENDBRANCH  60  84
BRANCH  72  95
ATOM     95  C   UNL     1       1.169  17.430  11.294  1.00  0.00     0.064 A 
ATOM     96  C   UNL     1       1.220  17.924   9.983  1.00  0.00     0.173 A 
ATOM     97  C   UNL     1       1.122  18.349  12.350  1.00  0.00     0.173 A 
ATOM     98  F   UNL     1       1.280  17.077   8.945  1.00  0.00    -0.203 F 
ATOM     99  C   UNL     1       1.228  19.294   9.740  1.00  0.00     0.198 A 
ATOM    100  C   UNL     1       1.125  19.718  12.103  1.00  0.00     0.198 A 
ATOM    101  F   UNL     1       1.079  17.917  13.619  1.00  0.00    -0.203 F 
ATOM    102  F   UNL     1       1.294  19.749   8.481  1.00  0.00    -0.200 F 
ATOM    103  C   UNL     1       1.179  20.190  10.799  1.00  0.00     0.200 A 
ATOM    104  F   UNL     1       1.083  20.584  13.125  1.00  0.00    -0.200 F 
ATOM    105  F   UNL     1       1.191  21.509  10.562  1.00  0.00    -0.200 F 
ENDBRANCH  72  95
ENDBRANCH  46  47
ENDBRANCH  38  41
ENDBRANCH  36  37
ENDBRANCH  35  36
ENDBRANCH  34  35
ENDBRANCH  33  34
ENDBRANCH   1  33
TORSDOF 19
