REMARK SMILES CCN(CC)c1ccc([C@@H]2c3[nH]c4ccccc4c3C[C@@H](C(=O)NCCCCCCNC(=O)c3ccc(-c4c5nc(c(-c6c(F)c(F)c(F)c(F)c6F)c6ccc([nH]6)c(-c6c(F)c(F)c(F)c(F)c6F)c6nc(c(-c7c(F)c(F)c(F)c(F)c7F)c7ccc4[nH]7)C=C6)C=C5)cc3)N2C(C)=O)cc1
REMARK SMILES IDX 27 1 26 2 25 3 24 4 22 5 23 6 21 8 10 9 11 10 97 11 12 12
REMARK SMILES IDX 19 13 13 14 18 16 20 17 14 18 17 19 15 20 16 21 9 22 6 23
REMARK SMILES IDX 7 24 102 25 8 26 101 27 3 28 2 29 1 30 4 31 5 32 98 33 99 34
REMARK SMILES IDX 100 35 28 36 29 37 30 38 31 39 32 40 33 42 34 43 35 44 96 45
REMARK SMILES IDX 36 46 95 47 37 48 38 49 39 50 89 51 40 52 94 53 88 54 90 55
REMARK SMILES IDX 41 56 93 57 87 58 86 59 42 61 74 62 54 63 73 64 55 65 58 66
REMARK SMILES IDX 72 67 91 68 56 69 57 70 71 72 92 73 59 74 43 75 44 76 52 77
REMARK SMILES IDX 45 78 46 79 50 80 53 81 47 82 48 83 51 84 49 85 75 86 76 87
REMARK SMILES IDX 84 88 77 89 78 90 82 91 85 92 79 93 80 94 83 95 81 96 60 97
REMARK SMILES IDX 61 98 69 99 62 100 63 101 67 102 70 103 64 104 65 105 68 106
REMARK SMILES IDX 66 107
REMARK H PARENT 24 7 12 15 31 41 90 60 58 71
REMARK Flexibility Score: inf
ROOT
ATOM      1  C   UNL     1       6.175   6.923   3.267  1.00  0.00     0.002 C 
ENDROOT
BRANCH   1   2
ATOM      2  C   UNL     1       6.574   6.009   2.098  1.00  0.00     0.021 C 
BRANCH   2   3
ATOM      3  C   UNL     1       8.008   5.452   2.086  1.00  0.00     0.116 C 
BRANCH   3   4
ATOM      4  N   UNL     1       8.103   4.019   1.740  1.00  0.00    -0.354 N 
ATOM      5  C   UNL     1       8.377   3.238   0.655  1.00  0.00     0.243 C 
ATOM      6  O   UNL     1       8.444   2.024   0.912  1.00  0.00    -0.273 OA
ATOM      7  H   UNL     1       7.912   3.460   2.528  1.00  0.00     0.163 HD
BRANCH   5   8
ATOM      8  C   UNL     1       8.429   3.668  -0.851  1.00  0.00     0.179 C 
ATOM      9  C   UNL     1       5.986   3.933  -0.927  1.00  0.00     0.163 C 
ATOM     10  C   UNL     1       6.266   5.412  -1.104  1.00  0.00     0.047 A 
ATOM     11  N   UNL     1       7.155   3.337  -1.584  1.00  0.00    -0.318 N 
ATOM     12  N   UNL     1       5.372   6.442  -1.173  1.00  0.00    -0.356 N 
ATOM     13  C   UNL     1       7.543   5.964  -1.207  1.00  0.00    -0.014 A 
ATOM     14  C   UNL     1       6.023   7.584  -1.589  1.00  0.00     0.046 A 
ATOM     15  H   UNL     1       4.413   6.378  -0.961  1.00  0.00     0.166 HD
ATOM     16  C   UNL     1       7.393   7.317  -1.581  1.00  0.00     0.003 A 
ATOM     17  C   UNL     1       8.795   5.141  -1.104  1.00  0.00     0.073 C 
ATOM     18  C   UNL     1       5.503   8.815  -1.991  1.00  0.00     0.026 A 
ATOM     19  C   UNL     1       8.294   8.321  -1.971  1.00  0.00     0.010 A 
ATOM     20  C   UNL     1       6.414   9.784  -2.423  1.00  0.00     0.002 A 
ATOM     21  C   UNL     1       7.787   9.546  -2.409  1.00  0.00     0.001 A 
BRANCH   9  22
ATOM     22  C   UNL     1       4.622   3.340  -1.199  1.00  0.00    -0.019 A 
ATOM     23  C   UNL     1       1.943   2.329  -1.227  1.00  0.00     0.037 A 
ATOM     24  C   UNL     1       2.302   3.502  -1.897  1.00  0.00     0.026 A 
ATOM     25  C   UNL     1       3.005   1.585  -0.699  1.00  0.00     0.026 A 
ATOM     26  C   UNL     1       3.611   3.994  -1.896  1.00  0.00     0.008 A 
ATOM     27  C   UNL     1       4.318   2.074  -0.680  1.00  0.00     0.008 A 
BRANCH  23  28
ATOM     28  N   UNL     1       0.619   1.934  -1.076  1.00  0.00    -0.372 N 
BRANCH  28  29
ATOM     29  C   UNL     1       0.179   1.361   0.207  1.00  0.00     0.113 C 
ATOM     30  C   UNL     1       0.260  -0.158   0.233  1.00  0.00     0.027 C 
ENDBRANCH  28  29
BRANCH  28  31
ATOM     31  C   UNL     1      -0.436   2.402  -1.986  1.00  0.00     0.113 C 
ATOM     32  C   UNL     1      -0.923   3.813  -1.656  1.00  0.00     0.027 C 
ENDBRANCH  28  31
ENDBRANCH  23  28
ENDBRANCH   9  22
BRANCH  11  33
ATOM     33  C   UNL     1       7.073   3.210  -2.977  1.00  0.00     0.220 C 
ATOM     34  C   UNL     1       8.329   3.141  -3.809  1.00  0.00     0.114 C 
ATOM     35  O   UNL     1       6.005   3.195  -3.595  1.00  0.00    -0.275 OA
ENDBRANCH  11  33
ENDBRANCH   5   8
ENDBRANCH   3   4
ENDBRANCH   2   3
ENDBRANCH   1   2
BRANCH   1  36
ATOM     36  C   UNL     1       6.883   8.279   3.384  1.00  0.00     0.002 C 
BRANCH  36  37
ATOM     37  C   UNL     1       6.773   9.257   2.203  1.00  0.00     0.021 C 
BRANCH  37  38
ATOM     38  C   UNL     1       5.370   9.722   1.796  1.00  0.00     0.116 C 
BRANCH  38  39
ATOM     39  N   UNL     1       4.680  10.478   2.836  1.00  0.00    -0.352 N 
ATOM     40  C   UNL     1       4.295  11.793   2.905  1.00  0.00     0.251 C 
ATOM     41  H   UNL     1       4.449   9.948   3.633  1.00  0.00     0.163 HD
ATOM     42  O   UNL     1       3.823  12.226   3.964  1.00  0.00    -0.269 OA
BRANCH  40  43
ATOM     43  C   UNL     1       4.438  12.729   1.764  1.00  0.00     0.039 A 
ATOM     44  C   UNL     1       4.901  14.028   2.014  1.00  0.00     0.014 A 
ATOM     45  C   UNL     1       4.047  12.381   0.469  1.00  0.00     0.014 A 
ATOM     46  C   UNL     1       5.051  14.944   0.965  1.00  0.00     0.010 A 
ATOM     47  C   UNL     1       4.238  13.280  -0.586  1.00  0.00     0.010 A 
ATOM     48  C   UNL     1       4.756  14.565  -0.353  1.00  0.00    -0.014 A 
BRANCH  48  49
ATOM     49  C   UNL     1       5.006  15.473  -1.507  1.00  0.00     0.031 A 
ATOM     50  C   UNL     1       3.862  15.991  -2.333  1.00  0.00     0.074 A 
ATOM     51  C   UNL     1       6.273  15.751  -1.875  1.00  0.00     0.049 A 
ATOM     52  N   UNL     1       3.886  16.635  -3.474  1.00  0.00    -0.248 NA
ATOM     53  C   UNL     1       2.511  15.733  -1.816  1.00  0.00     0.031 C 
ATOM     54  C   UNL     1       7.474  15.308  -1.169  1.00  0.00     0.029 A 
ATOM     55  N   UNL     1       6.761  16.451  -2.954  1.00  0.00    -0.354 N 
ATOM     56  C   UNL     1       2.557  16.835  -3.824  1.00  0.00     0.074 A 
ATOM     57  C   UNL     1       1.752  16.223  -2.787  1.00  0.00     0.031 C 
ATOM     58  C   UNL     1       8.559  15.739  -1.832  1.00  0.00     0.029 A 
ATOM     59  C   UNL     1       8.133  16.447  -3.036  1.00  0.00     0.049 A 
ATOM     60  H   UNL     1       6.183  16.910  -3.605  1.00  0.00     0.167 HD
ATOM     61  C   UNL     1       2.055  17.477  -4.907  1.00  0.00     0.037 A 
ATOM     62  C   UNL     1       8.955  16.931  -3.988  1.00  0.00     0.037 A 
ATOM     63  C   UNL     1       2.855  18.109  -5.925  1.00  0.00     0.049 A 
ATOM     64  C   UNL     1       8.373  17.614  -5.195  1.00  0.00     0.074 A 
ATOM     65  C   UNL     1       2.434  18.823  -7.034  1.00  0.00     0.029 A 
ATOM     66  N   UNL     1       4.241  18.102  -5.959  1.00  0.00    -0.354 N 
ATOM     67  N   UNL     1       7.116  17.826  -5.499  1.00  0.00    -0.248 NA
ATOM     68  C   UNL     1       9.324  18.125  -6.194  1.00  0.00     0.031 C 
ATOM     69  C   UNL     1       3.564  19.212  -7.761  1.00  0.00     0.029 A 
ATOM     70  C   UNL     1       4.691  18.782  -7.080  1.00  0.00     0.049 A 
ATOM     71  H   UNL     1       4.821  17.676  -5.287  1.00  0.00     0.167 HD
ATOM     72  C   UNL     1       7.125  18.521  -6.701  1.00  0.00     0.074 A 
ATOM     73  C   UNL     1       8.513  18.699  -7.073  1.00  0.00     0.031 C 
ATOM     74  C   UNL     1       6.075  18.973  -7.428  1.00  0.00     0.037 A 
BRANCH  61  75
ATOM     75  C   UNL     1       0.562  17.523  -5.061  1.00  0.00     0.064 A 
ATOM     76  C   UNL     1      -0.239  18.320  -4.230  1.00  0.00     0.173 A 
ATOM     77  C   UNL     1      -0.070  16.800  -6.084  1.00  0.00     0.173 A 
ATOM     78  F   UNL     1       0.315  19.026  -3.233  1.00  0.00    -0.203 F 
ATOM     79  C   UNL     1      -1.621  18.369  -4.399  1.00  0.00     0.198 A 
ATOM     80  C   UNL     1      -1.448  16.873  -6.269  1.00  0.00     0.198 A 
ATOM     81  F   UNL     1       0.651  16.030  -6.913  1.00  0.00    -0.203 F 
ATOM     82  F   UNL     1      -2.371  19.103  -3.566  1.00  0.00    -0.200 F 
ATOM     83  C   UNL     1      -2.223  17.651  -5.422  1.00  0.00     0.200 A 
ATOM     84  F   UNL     1      -2.027  16.191  -7.266  1.00  0.00    -0.200 F 
ATOM     85  F   UNL     1      -3.552  17.705  -5.588  1.00  0.00    -0.200 F 
ENDBRANCH  61  75
BRANCH  62  86
ATOM     86  C   UNL     1      10.427  16.785  -3.837  1.00  0.00     0.064 A 
ATOM     87  C   UNL     1      11.236  17.901  -3.582  1.00  0.00     0.173 A 
ATOM     88  C   UNL     1      11.053  15.535  -3.946  1.00  0.00     0.173 A 
ATOM     89  F   UNL     1      10.685  19.120  -3.493  1.00  0.00    -0.203 F 
ATOM     90  C   UNL     1      12.618  17.774  -3.457  1.00  0.00     0.198 A 
ATOM     91  C   UNL     1      12.432  15.406  -3.794  1.00  0.00     0.198 A 
ATOM     92  F   UNL     1      10.323  14.436  -4.187  1.00  0.00    -0.203 F 
ATOM     93  F   UNL     1      13.372  18.863  -3.254  1.00  0.00    -0.200 F 
ATOM     94  C   UNL     1      13.214  16.526  -3.556  1.00  0.00     0.200 A 
ATOM     95  F   UNL     1      13.003  14.196  -3.877  1.00  0.00    -0.200 F 
ATOM     96  F   UNL     1      14.542  16.404  -3.430  1.00  0.00    -0.200 F 
ENDBRANCH  62  86
BRANCH  74  97
ATOM     97  C   UNL     1       6.376  19.753  -8.674  1.00  0.00     0.064 A 
ATOM     98  C   UNL     1       6.831  19.128  -9.844  1.00  0.00     0.173 A 
ATOM     99  C   UNL     1       6.141  21.136  -8.715  1.00  0.00     0.173 A 
ATOM    100  F   UNL     1       7.086  17.811  -9.850  1.00  0.00    -0.203 F 
ATOM    101  C   UNL     1       7.050  19.861 -11.007  1.00  0.00     0.198 A 
ATOM    102  C   UNL     1       6.337  21.862  -9.887  1.00  0.00     0.198 A 
ATOM    103  F   UNL     1       5.702  21.779  -7.623  1.00  0.00    -0.203 F 
ATOM    104  F   UNL     1       7.514  19.250 -12.105  1.00  0.00    -0.200 F 
ATOM    105  C   UNL     1       6.794  21.225 -11.030  1.00  0.00     0.200 A 
ATOM    106  F   UNL     1       6.078  23.176  -9.911  1.00  0.00    -0.200 F 
ATOM    107  F   UNL     1       6.991  21.926 -12.155  1.00  0.00    -0.200 F 
ENDBRANCH  74  97
ENDBRANCH  48  49
ENDBRANCH  40  43
ENDBRANCH  38  39
ENDBRANCH  37  38
ENDBRANCH  36  37
ENDBRANCH   1  36
TORSDOF 18
