REMARK SMILES Nc1ccc2[nH]cc(C(=O)NCCCCCCNC(=O)c3ccc(-c4c5nc(c(-c6c(F)c(F)c(F)c(F)c6F)c6ccc([nH]6)c(-c6c(F)c(F)c(F)c(F)c6F)c6nc(c(-c7c(F)c(F)c(F)c(F)c7F)c7ccc4[nH]7)C=C6)C=C5)cc3)c2c1
REMARK SMILES IDX 15 1 14 2 13 3 12 4 11 5 9 6 10 7 8 9 2 10 3 11 85 12 4 13
REMARK SMILES IDX 84 14 5 15 6 16 7 17 1 19 16 22 17 23 18 24 19 25 20 27
REMARK SMILES IDX 21 28 22 29 83 30 23 31 82 32 24 33 25 34 26 35 76 36 27 37
REMARK SMILES IDX 81 38 75 39 77 40 28 41 80 42 74 43 73 44 29 46 61 47 41 48
REMARK SMILES IDX 60 49 42 50 45 51 59 52 78 53 43 54 44 55 58 57 79 58 46 59
REMARK SMILES IDX 30 60 31 61 39 62 32 63 33 64 37 65 40 66 34 67 35 68 38 69
REMARK SMILES IDX 36 70 62 71 63 72 71 73 64 74 65 75 69 76 72 77 66 78 67 79
REMARK SMILES IDX 70 80 68 81 47 82 48 83 56 84 49 85 50 86 54 87 57 88 51 89
REMARK SMILES IDX 52 90 55 91 53 92
REMARK H PARENT 11 8 6 18 1 20 1 21 18 26 77 45 45 56
REMARK Flexibility Score: inf
ROOT
ATOM      1  C   UNL     1      -1.884   4.457  -1.216  1.00  0.00     0.002 C 
ENDROOT
BRANCH   1   2
ATOM      2  C   UNL     1      -1.878   4.007  -2.682  1.00  0.00     0.002 C 
BRANCH   2   3
ATOM      3  C   UNL     1      -1.300   2.627  -2.982  1.00  0.00     0.021 C 
BRANCH   3   4
ATOM      4  C   UNL     1      -1.907   1.452  -2.234  1.00  0.00     0.116 C 
BRANCH   4   5
ATOM      5  N   UNL     1      -3.194   1.001  -2.690  1.00  0.00    -0.352 N 
ATOM      6  C   UNL     1      -3.699  -0.279  -2.765  1.00  0.00     0.253 C 
ATOM      7  O   UNL     1      -4.855  -0.380  -3.191  1.00  0.00    -0.269 OA
ATOM      8  H   UNL     1      -3.805   1.711  -2.992  1.00  0.00     0.163 HD
BRANCH   6   9
ATOM      9  C   UNL     1      -2.900  -1.480  -2.466  1.00  0.00     0.065 A 
ATOM     10  C   UNL     1       0.288  -1.522  -0.289  1.00  0.00     0.032 A 
ATOM     11  C   UNL     1       0.675  -2.809  -0.642  1.00  0.00     0.027 A 
ATOM     12  C   UNL     1      -0.978  -1.065  -0.675  1.00  0.00     0.036 A 
ATOM     13  C   UNL     1      -0.139  -3.619  -1.438  1.00  0.00     0.029 A 
ATOM     14  C   UNL     1      -1.749  -1.767  -1.635  1.00  0.00     0.014 A 
ATOM     15  C   UNL     1      -1.323  -3.064  -1.938  1.00  0.00     0.046 A 
ATOM     16  N   UNL     1      -2.273  -3.623  -2.754  1.00  0.00    -0.360 N 
ATOM     17  C   UNL     1      -3.209  -2.688  -3.083  1.00  0.00     0.097 A 
ATOM     18  H   UNL     1      -2.278  -4.559  -3.057  1.00  0.00     0.166 HD
BRANCH  10  19
ATOM     19  N   UNL     1       1.097  -0.737   0.523  1.00  0.00    -0.399 N 
ATOM     20  H   UNL     1       1.987  -1.062   0.792  1.00  0.00     0.156 HD
ATOM     21  H   UNL     1       0.780   0.143   0.830  1.00  0.00     0.156 HD
ENDBRANCH  10  19
ENDBRANCH   6   9
ENDBRANCH   4   5
ENDBRANCH   3   4
ENDBRANCH   2   3
ENDBRANCH   1   2
BRANCH   1  22
ATOM     22  C   UNL     1      -0.563   4.347  -0.443  1.00  0.00     0.021 C 
BRANCH  22  23
ATOM     23  C   UNL     1       0.670   4.924  -1.140  1.00  0.00     0.116 C 
BRANCH  23  24
ATOM     24  N   UNL     1       0.524   6.290  -1.593  1.00  0.00    -0.352 N 
ATOM     25  C   UNL     1       0.679   7.522  -1.028  1.00  0.00     0.251 C 
ATOM     26  H   UNL     1       0.247   6.343  -2.535  1.00  0.00     0.163 HD
ATOM     27  O   UNL     1       0.576   8.487  -1.790  1.00  0.00    -0.269 OA
BRANCH  25  28
ATOM     28  C   UNL     1       0.881   7.779   0.421  1.00  0.00     0.039 A 
ATOM     29  C   UNL     1       1.171   6.817   1.388  1.00  0.00     0.014 A 
ATOM     30  C   UNL     1       0.706   9.115   0.829  1.00  0.00     0.014 A 
ATOM     31  C   UNL     1       1.159   7.153   2.737  1.00  0.00     0.010 A 
ATOM     32  C   UNL     1       0.720   9.462   2.172  1.00  0.00     0.010 A 
ATOM     33  C   UNL     1       0.886   8.465   3.127  1.00  0.00    -0.014 A 
BRANCH  33  34
ATOM     34  C   UNL     1       0.872   8.769   4.554  1.00  0.00     0.031 A 
ATOM     35  C   UNL     1       2.171   8.550   5.256  1.00  0.00     0.074 A 
ATOM     36  C   UNL     1      -0.201   9.317   5.162  1.00  0.00     0.049 A 
ATOM     37  N   UNL     1       2.415   7.813   6.293  1.00  0.00    -0.248 NA
ATOM     38  C   UNL     1       3.374   9.161   4.664  1.00  0.00     0.031 C 
ATOM     39  C   UNL     1      -1.429   9.824   4.542  1.00  0.00     0.029 A 
ATOM     40  N   UNL     1      -0.375   9.633   6.475  1.00  0.00    -0.354 N 
ATOM     41  C   UNL     1       3.770   7.981   6.576  1.00  0.00     0.074 A 
ATOM     42  C   UNL     1       4.334   8.725   5.480  1.00  0.00     0.031 C 
ATOM     43  C   UNL     1      -2.100  10.586   5.434  1.00  0.00     0.029 A 
ATOM     44  C   UNL     1      -1.424  10.511   6.717  1.00  0.00     0.049 A 
ATOM     45  H   UNL     1       0.194   9.271   7.192  1.00  0.00     0.167 HD
ATOM     46  C   UNL     1       4.304   7.657   7.785  1.00  0.00     0.037 A 
ATOM     47  C   UNL     1      -1.662  11.185   7.870  1.00  0.00     0.037 A 
ATOM     48  C   UNL     1       3.466   6.752   8.517  1.00  0.00     0.049 A 
ATOM     49  C   UNL     1      -0.922  10.489   8.951  1.00  0.00     0.074 A 
ATOM     50  C   UNL     1       3.054   5.447   8.332  1.00  0.00     0.029 A 
ATOM     51  N   UNL     1       2.638   7.272   9.477  1.00  0.00    -0.354 N 
ATOM     52  N   UNL     1      -1.217   9.298   9.391  1.00  0.00    -0.248 NA
ATOM     53  C   UNL     1       0.425  10.952   9.250  1.00  0.00     0.031 C 
ATOM     54  C   UNL     1       1.719   5.408   8.826  1.00  0.00     0.029 A 
ATOM     55  C   UNL     1       1.414   6.674   9.327  1.00  0.00     0.049 A 
ATOM     56  H   UNL     1       2.878   7.950  10.149  1.00  0.00     0.167 HD
ATOM     57  C   UNL     1       0.010   8.702   9.640  1.00  0.00     0.074 A 
ATOM     58  C   UNL     1       0.977   9.795   9.621  1.00  0.00     0.031 C 
ATOM     59  C   UNL     1       0.160   7.349   9.558  1.00  0.00     0.037 A 
BRANCH  46  60
ATOM     60  C   UNL     1       5.433   8.412   8.435  1.00  0.00     0.064 A 
ATOM     61  C   UNL     1       6.085   7.875   9.561  1.00  0.00     0.173 A 
ATOM     62  C   UNL     1       5.696   9.773   8.165  1.00  0.00     0.173 A 
ATOM     63  F   UNL     1       5.876   6.602   9.929  1.00  0.00    -0.203 F 
ATOM     64  C   UNL     1       6.902   8.659  10.382  1.00  0.00     0.198 A 
ATOM     65  C   UNL     1       6.551  10.537   8.956  1.00  0.00     0.198 A 
ATOM     66  F   UNL     1       5.050  10.437   7.199  1.00  0.00    -0.203 F 
ATOM     67  F   UNL     1       7.416   8.137  11.505  1.00  0.00    -0.200 F 
ATOM     68  C   UNL     1       7.133   9.989  10.079  1.00  0.00     0.200 A 
ATOM     69  F   UNL     1       6.741  11.831   8.660  1.00  0.00    -0.200 F 
ATOM     70  F   UNL     1       7.872  10.755  10.892  1.00  0.00    -0.200 F 
ENDBRANCH  46  60
BRANCH  47  71
ATOM     71  C   UNL     1      -2.172  12.570   8.036  1.00  0.00     0.064 A 
ATOM     72  C   UNL     1      -2.595  13.036   9.293  1.00  0.00     0.173 A 
ATOM     73  C   UNL     1      -1.977  13.549   7.042  1.00  0.00     0.173 A 
ATOM     74  F   UNL     1      -2.763  12.177  10.309  1.00  0.00    -0.203 F 
ATOM     75  C   UNL     1      -2.775  14.400   9.549  1.00  0.00     0.198 A 
ATOM     76  C   UNL     1      -2.166  14.909   7.296  1.00  0.00     0.198 A 
ATOM     77  F   UNL     1      -1.501  13.220   5.833  1.00  0.00    -0.203 F 
ATOM     78  F   UNL     1      -3.109  14.811  10.781  1.00  0.00    -0.200 F 
ATOM     79  C   UNL     1      -2.548  15.336   8.554  1.00  0.00     0.200 A 
ATOM     80  F   UNL     1      -1.908  15.806   6.334  1.00  0.00    -0.200 F 
ATOM     81  F   UNL     1      -2.654  16.646   8.816  1.00  0.00    -0.200 F 
ENDBRANCH  47  71
BRANCH  59  82
ATOM     82  C   UNL     1      -1.084   6.511   9.451  1.00  0.00     0.064 A 
ATOM     83  C   UNL     1      -1.966   6.554   8.357  1.00  0.00     0.173 A 
ATOM     84  C   UNL     1      -1.297   5.514  10.412  1.00  0.00     0.173 A 
ATOM     85  F   UNL     1      -1.772   7.413   7.348  1.00  0.00    -0.203 F 
ATOM     86  C   UNL     1      -3.030   5.660   8.250  1.00  0.00     0.198 A 
ATOM     87  C   UNL     1      -2.338   4.599  10.283  1.00  0.00     0.198 A 
ATOM     88  F   UNL     1      -0.455   5.390  11.449  1.00  0.00    -0.203 F 
ATOM     89  F   UNL     1      -3.858   5.723   7.197  1.00  0.00    -0.200 F 
ATOM     90  C   UNL     1      -3.208   4.676   9.208  1.00  0.00     0.200 A 
ATOM     91  F   UNL     1      -2.475   3.617  11.185  1.00  0.00    -0.200 F 
ATOM     92  F   UNL     1      -4.198   3.782   9.079  1.00  0.00    -0.200 F 
ENDBRANCH  59  82
ENDBRANCH  33  34
ENDBRANCH  25  28
ENDBRANCH  23  24
ENDBRANCH  22  23
ENDBRANCH   1  22
TORSDOF 14
