REMARK SMILES CC[C@@](C)(NS(=O)(=O)c1ccc(F)c(F)c1)C(=O)NCCCCCCNC(=O)c1ccc(-c2c3nc(c(-c4c(F)c(F)c(F)c(F)c4F)c4ccc([nH]4)c(-c4c(F)c(F)c(F)c(F)c4F)c4nc(c(-c5c(F)c(F)c(F)c(F)c5F)c5ccc2[nH]5)C=C4)C=C3)cc1
REMARK SMILES IDX 22 1 21 2 20 3 19 4 17 5 18 6 3 8 4 9 2 10 1 11 5 12 6 14
REMARK SMILES IDX 7 15 8 16 9 17 10 18 16 19 11 20 14 21 12 22 15 23 13 24
REMARK SMILES IDX 23 25 24 26 25 27 26 28 27 29 28 31 29 32 30 33 91 34 31 35
REMARK SMILES IDX 90 36 32 37 33 38 34 39 84 40 35 41 89 42 83 43 85 44 36 45
REMARK SMILES IDX 88 46 82 47 81 48 37 50 69 51 49 52 68 53 50 54 53 55 67 56
REMARK SMILES IDX 86 57 51 58 52 59 66 61 87 62 54 63 38 64 39 65 47 66 40 67
REMARK SMILES IDX 41 68 45 69 48 70 42 71 43 72 46 73 44 74 70 75 71 76 79 77
REMARK SMILES IDX 72 78 73 79 77 80 80 81 74 82 75 83 78 84 76 85 55 86 56 87
REMARK SMILES IDX 64 88 57 89 58 90 62 91 65 92 59 93 60 94 63 95 61 96
REMARK H PARENT 19 7 5 13 26 30 85 49 53 60
REMARK Flexibility Score: inf
ROOT
ATOM      1  C   UNL     1       3.702   3.451   5.751  1.00  0.00     0.002 C 
ENDROOT
BRANCH   1   2
ATOM      2  C   UNL     1       2.212   3.649   5.449  1.00  0.00     0.021 C 
BRANCH   2   3
ATOM      3  C   UNL     1       1.704   3.674   3.989  1.00  0.00     0.116 C 
BRANCH   3   4
ATOM      4  N   UNL     1       2.362   2.824   2.998  1.00  0.00    -0.354 N 
ATOM      5  C   UNL     1       2.087   1.714   2.250  1.00  0.00     0.241 C 
ATOM      6  O   UNL     1       3.008   1.420   1.471  1.00  0.00    -0.273 OA
ATOM      7  H   UNL     1       3.274   3.147   2.816  1.00  0.00     0.163 HD
BRANCH   5   8
ATOM      8  C   UNL     1       0.850   0.789   2.341  1.00  0.00     0.108 C 
ATOM      9  C   UNL     1      -0.447   1.610   2.357  1.00  0.00     0.040 C 
BRANCH   8  10
ATOM     10  C   UNL     1       0.782  -0.161   1.070  1.00  0.00     0.030 C 
ATOM     11  C   UNL     1       0.888   0.429  -0.327  1.00  0.00     0.006 C 
ENDBRANCH   8  10
BRANCH   8  12
ATOM     12  N   UNL     1       0.806  -0.240   3.409  1.00  0.00    -0.196 NA
ATOM     13  H   UNL     1       1.011  -1.104   2.906  1.00  0.00     0.142 HD
BRANCH  12  14
ATOM     14  S   UNL     1       1.608  -0.438   4.834  1.00  0.00     0.241 S 
ATOM     15  O   UNL     1       1.453   0.761   5.611  1.00  0.00    -0.207 OA
ATOM     16  O   UNL     1       1.077  -1.690   5.340  1.00  0.00    -0.207 OA
BRANCH  14  17
ATOM     17  C   UNL     1       3.348  -0.711   4.571  1.00  0.00     0.085 A 
ATOM     18  C   UNL     1       3.972  -1.871   5.041  1.00  0.00     0.025 A 
ATOM     19  C   UNL     1       4.155   0.334   4.144  1.00  0.00     0.064 A 
ATOM     20  C   UNL     1       5.376  -1.955   5.064  1.00  0.00     0.044 A 
ATOM     21  C   UNL     1       5.540   0.255   4.154  1.00  0.00     0.160 A 
ATOM     22  C   UNL     1       6.153  -0.887   4.621  1.00  0.00     0.158 A 
ATOM     23  F   UNL     1       6.257   1.323   3.775  1.00  0.00    -0.204 F 
ATOM     24  F   UNL     1       7.489  -0.953   4.689  1.00  0.00    -0.204 F 
ENDBRANCH  14  17
ENDBRANCH  12  14
ENDBRANCH   8  12
ENDBRANCH   5   8
ENDBRANCH   3   4
ENDBRANCH   2   3
ENDBRANCH   1   2
BRANCH   1  25
ATOM     25  C   UNL     1       4.597   4.678   5.620  1.00  0.00     0.002 C 
BRANCH  25  26
ATOM     26  C   UNL     1       4.301   5.791   6.619  1.00  0.00     0.021 C 
BRANCH  26  27
ATOM     27  C   UNL     1       4.376   5.380   8.085  1.00  0.00     0.116 C 
BRANCH  27  28
ATOM     28  N   UNL     1       5.723   5.022   8.514  1.00  0.00    -0.352 N 
ATOM     29  C   UNL     1       6.359   5.413   9.670  1.00  0.00     0.251 C 
ATOM     30  H   UNL     1       6.233   4.436   7.910  1.00  0.00     0.163 HD
ATOM     31  O   UNL     1       7.538   5.162   9.883  1.00  0.00    -0.269 OA
BRANCH  29  32
ATOM     32  C   UNL     1       5.569   6.180  10.650  1.00  0.00     0.039 A 
ATOM     33  C   UNL     1       5.942   7.490  10.951  1.00  0.00     0.014 A 
ATOM     34  C   UNL     1       4.381   5.633  11.143  1.00  0.00     0.014 A 
ATOM     35  C   UNL     1       5.080   8.280  11.710  1.00  0.00     0.010 A 
ATOM     36  C   UNL     1       3.491   6.447  11.831  1.00  0.00     0.010 A 
ATOM     37  C   UNL     1       3.834   7.776  12.125  1.00  0.00    -0.014 A 
BRANCH  37  38
ATOM     38  C   UNL     1       2.887   8.630  12.883  1.00  0.00     0.031 A 
ATOM     39  C   UNL     1       2.535   8.275  14.299  1.00  0.00     0.074 A 
ATOM     40  C   UNL     1       2.330   9.703  12.286  1.00  0.00     0.049 A 
ATOM     41  N   UNL     1       1.743   8.899  15.133  1.00  0.00    -0.248 NA
ATOM     42  C   UNL     1       3.128   7.043  14.847  1.00  0.00     0.031 C 
ATOM     43  C   UNL     1       2.549  10.102  10.894  1.00  0.00     0.029 A 
ATOM     44  N   UNL     1       1.473  10.659  12.773  1.00  0.00    -0.354 N 
ATOM     45  C   UNL     1       1.744   8.136  16.292  1.00  0.00     0.074 A 
ATOM     46  C   UNL     1       2.555   6.969  16.039  1.00  0.00     0.031 C 
ATOM     47  C   UNL     1       1.883  11.243  10.653  1.00  0.00     0.029 A 
ATOM     48  C   UNL     1       1.168  11.643  11.862  1.00  0.00     0.049 A 
ATOM     49  H   UNL     1       1.112  10.642  13.688  1.00  0.00     0.167 HD
ATOM     50  C   UNL     1       1.154   8.411  17.477  1.00  0.00     0.037 A 
ATOM     51  C   UNL     1       0.409  12.749  11.996  1.00  0.00     0.037 A 
ATOM     52  C   UNL     1       0.385   9.597  17.733  1.00  0.00     0.049 A 
ATOM     53  C   UNL     1      -0.223  13.039  13.332  1.00  0.00     0.074 A 
ATOM     54  C   UNL     1      -0.211   9.996  18.915  1.00  0.00     0.029 A 
ATOM     55  N   UNL     1       0.116  10.579  16.791  1.00  0.00    -0.354 N 
ATOM     56  N   UNL     1      -0.152  12.348  14.444  1.00  0.00    -0.248 NA
ATOM     57  C   UNL     1      -1.031  14.262  13.440  1.00  0.00     0.031 C 
ATOM     58  C   UNL     1      -0.876  11.201  18.680  1.00  0.00     0.029 A 
ATOM     59  C   UNL     1      -0.651  11.578  17.364  1.00  0.00     0.049 A 
ATOM     60  H   UNL     1       0.424  10.567  15.856  1.00  0.00     0.167 HD
ATOM     61  C   UNL     1      -0.876  13.064  15.387  1.00  0.00     0.074 A 
ATOM     62  C   UNL     1      -1.373  14.249  14.722  1.00  0.00     0.031 C 
ATOM     63  C   UNL     1      -1.109  12.763  16.688  1.00  0.00     0.037 A 
BRANCH  50  64
ATOM     64  C   UNL     1       1.345   7.440  18.604  1.00  0.00     0.064 A 
ATOM     65  C   UNL     1       0.264   6.697  19.099  1.00  0.00     0.173 A 
ATOM     66  C   UNL     1       2.582   7.315  19.254  1.00  0.00     0.173 A 
ATOM     67  F   UNL     1      -0.941   6.785  18.515  1.00  0.00    -0.203 F 
ATOM     68  C   UNL     1       0.409   5.882  20.218  1.00  0.00     0.198 A 
ATOM     69  C   UNL     1       2.730   6.477  20.355  1.00  0.00     0.198 A 
ATOM     70  F   UNL     1       3.650   7.996  18.811  1.00  0.00    -0.203 F 
ATOM     71  F   UNL     1      -0.648   5.212  20.699  1.00  0.00    -0.200 F 
ATOM     72  C   UNL     1       1.641   5.772  20.844  1.00  0.00     0.200 A 
ATOM     73  F   UNL     1       3.928   6.355  20.945  1.00  0.00    -0.200 F 
ATOM     74  F   UNL     1       1.780   4.986  21.921  1.00  0.00    -0.200 F 
ENDBRANCH  50  64
BRANCH  51  75
ATOM     75  C   UNL     1       0.255  13.687  10.851  1.00  0.00     0.064 A 
ATOM     76  C   UNL     1      -0.456  13.325   9.698  1.00  0.00     0.173 A 
ATOM     77  C   UNL     1       0.839  14.961  10.881  1.00  0.00     0.173 A 
ATOM     78  F   UNL     1      -1.029  12.115   9.613  1.00  0.00    -0.203 F 
ATOM     79  C   UNL     1      -0.564  14.195   8.614  1.00  0.00     0.198 A 
ATOM     80  C   UNL     1       0.706  15.841   9.808  1.00  0.00     0.198 A 
ATOM     81  F   UNL     1       1.516  15.363  11.967  1.00  0.00    -0.203 F 
ATOM     82  F   UNL     1      -1.222  13.810   7.511  1.00  0.00    -0.200 F 
ATOM     83  C   UNL     1       0.011  15.455   8.672  1.00  0.00     0.200 A 
ATOM     84  F   UNL     1       1.244  17.067   9.879  1.00  0.00    -0.200 F 
ATOM     85  F   UNL     1      -0.106  16.297   7.636  1.00  0.00    -0.200 F 
ENDBRANCH  51  75
BRANCH  63  86
ATOM     86  C   UNL     1      -1.908  13.734  17.504  1.00  0.00     0.064 A 
ATOM     87  C   UNL     1      -1.291  14.469  18.528  1.00  0.00     0.173 A 
ATOM     88  C   UNL     1      -3.299  13.828  17.366  1.00  0.00     0.173 A 
ATOM     89  F   UNL     1       0.037  14.399  18.705  1.00  0.00    -0.203 F 
ATOM     90  C   UNL     1      -2.045  15.242  19.405  1.00  0.00     0.198 A 
ATOM     91  C   UNL     1      -4.047  14.623  18.230  1.00  0.00     0.198 A 
ATOM     92  F   UNL     1      -3.930  13.149  16.397  1.00  0.00    -0.203 F 
ATOM     93  F   UNL     1      -1.443  15.894  20.409  1.00  0.00    -0.200 F 
ATOM     94  C   UNL     1      -3.422  15.317  19.256  1.00  0.00     0.200 A 
ATOM     95  F   UNL     1      -5.375  14.709  18.076  1.00  0.00    -0.200 F 
ATOM     96  F   UNL     1      -4.149  16.054  20.108  1.00  0.00    -0.200 F 
ENDBRANCH  63  86
ENDBRANCH  37  38
ENDBRANCH  29  32
ENDBRANCH  27  28
ENDBRANCH  26  27
ENDBRANCH  25  26
ENDBRANCH   1  25
TORSDOF 17
