REMARK SMILES Cc1cc(NC(=O)CCC(=O)NCCCCCCNC(=O)c2ccc(-c3c4nc(c(-c5c(F)c(F)c(F)c(F)c5F)c5ccc([nH]5)c(-c5c(F)c(F)c(F)c(F)c5F)c5nc(c(-c6c(F)c(F)c(F)c(F)c6F)c6ccc3[nH]6)C=C5)C=C4)cc2)ccc1S(=O)(=O)[O-]
REMARK SMILES IDX 14 1 13 2 12 3 10 4 11 5 9 7 8 8 6 9 5 10 7 12 4 13 1 14
REMARK SMILES IDX 2 15 3 16 87 17 86 18 85 19 88 20 89 21 90 22 91 23 15 24
REMARK SMILES IDX 16 25 17 26 18 27 19 28 20 29 21 31 22 32 23 33 84 34 24 35
REMARK SMILES IDX 83 36 25 37 26 38 27 39 77 40 28 41 82 42 76 43 78 44 29 45
REMARK SMILES IDX 81 46 75 47 74 48 30 50 62 51 42 52 61 53 43 54 46 55 60 56
REMARK SMILES IDX 79 57 44 58 45 59 59 61 80 62 47 63 31 64 32 65 40 66 33 67
REMARK SMILES IDX 34 68 38 69 41 70 35 71 36 72 39 73 37 74 63 75 64 76 72 77
REMARK SMILES IDX 65 78 66 79 70 80 73 81 67 82 68 83 71 84 69 85 48 86 49 87
REMARK SMILES IDX 57 88 50 89 51 90 55 91 58 92 52 93 53 94 56 95 54 96
REMARK H PARENT 12 6 5 11 19 30 78 49 46 60
REMARK Flexibility Score: inf
ROOT
ATOM      1  C   UNL     1      -3.328  -2.281  -0.756  1.00  0.00     0.021 C 
ENDROOT
BRANCH   1   2
ATOM      2  C   UNL     1      -2.311  -2.712  -1.812  1.00  0.00     0.116 C 
BRANCH   2   3
ATOM      3  N   UNL     1      -1.162  -1.830  -1.883  1.00  0.00    -0.356 N 
ATOM      4  C   UNL     1       0.165  -2.128  -1.831  1.00  0.00     0.220 C 
ATOM      5  O   UNL     1       0.983  -1.236  -2.058  1.00  0.00    -0.275 OA
ATOM      6  H   UNL     1      -1.374  -0.874  -1.984  1.00  0.00     0.163 HD
BRANCH   4   7
ATOM      7  C   UNL     1       0.620  -3.534  -1.520  1.00  0.00     0.110 C 
BRANCH   7   8
ATOM      8  C   UNL     1       0.815  -3.879  -0.049  1.00  0.00     0.110 C 
BRANCH   8   9
ATOM      9  C   UNL     1      -0.348  -3.613   0.883  1.00  0.00     0.224 C 
ATOM     10  N   UNL     1      -0.611  -2.404   1.456  1.00  0.00    -0.326 N 
ATOM     11  H   UNL     1      -1.350  -2.424   2.107  1.00  0.00     0.169 HD
ATOM     12  O   UNL     1      -1.163  -4.520   1.099  1.00  0.00    -0.275 OA
BRANCH  10  13
ATOM     13  C   UNL     1      -0.032  -1.137   1.296  1.00  0.00     0.041 A 
ATOM     14  C   UNL     1       3.247   0.401   0.226  1.00  0.00     0.046 C 
ATOM     15  C   UNL     1       1.807   0.350   0.647  1.00  0.00    -0.032 A 
ATOM     16  C   UNL     1       1.315  -0.916   1.030  1.00  0.00     0.030 A 
ATOM     17  C   UNL     1       0.896   1.413   0.573  1.00  0.00     0.057 A 
ATOM     18  C   UNL     1      -0.440   1.222   0.968  1.00  0.00     0.021 A 
ATOM     19  C   UNL     1      -0.894  -0.041   1.347  1.00  0.00     0.027 A 
BRANCH  17  20
ATOM     20  S   UNL     1       1.261   3.045  -0.033  1.00  0.00     0.124 S 
ATOM     21  O   UNL     1       0.651   3.168  -1.340  1.00  0.00    -0.237 OA
ATOM     22  O   UNL     1       0.940   3.974   1.029  1.00  0.00    -0.237 OA
ATOM     23  O   UNL     1       2.849   3.188  -0.236  1.00  0.00    -0.744 OA
ENDBRANCH  17  20
ENDBRANCH  10  13
ENDBRANCH   8   9
ENDBRANCH   7   8
ENDBRANCH   4   7
ENDBRANCH   2   3
ENDBRANCH   1   2
BRANCH   1  24
ATOM     24  C   UNL     1      -3.910  -0.874  -0.922  1.00  0.00     0.002 C 
BRANCH  24  25
ATOM     25  C   UNL     1      -4.667  -0.608  -2.227  1.00  0.00     0.002 C 
BRANCH  25  26
ATOM     26  C   UNL     1      -5.649  -1.694  -2.660  1.00  0.00     0.021 C 
BRANCH  26  27
ATOM     27  C   UNL     1      -6.758  -1.987  -1.661  1.00  0.00     0.116 C 
BRANCH  27  28
ATOM     28  N   UNL     1      -7.936  -1.158  -1.845  1.00  0.00    -0.352 N 
ATOM     29  C   UNL     1      -9.191  -1.260  -1.281  1.00  0.00     0.251 C 
ATOM     30  H   UNL     1      -7.821  -0.406  -2.469  1.00  0.00     0.163 HD
ATOM     31  O   UNL     1     -10.115  -0.603  -1.752  1.00  0.00    -0.269 OA
BRANCH  29  32
ATOM     32  C   UNL     1      -9.382  -1.978   0.006  1.00  0.00     0.039 A 
ATOM     33  C   UNL     1     -10.201  -1.341   0.953  1.00  0.00     0.014 A 
ATOM     34  C   UNL     1      -8.566  -3.033   0.395  1.00  0.00     0.014 A 
ATOM     35  C   UNL     1      -9.971  -1.547   2.306  1.00  0.00     0.010 A 
ATOM     36  C   UNL     1      -8.254  -3.161   1.727  1.00  0.00     0.010 A 
ATOM     37  C   UNL     1      -8.900  -2.354   2.667  1.00  0.00    -0.014 A 
BRANCH  37  38
ATOM     38  C   UNL     1      -8.307  -2.369   3.990  1.00  0.00     0.031 A 
ATOM     39  C   UNL     1      -8.591  -3.495   4.889  1.00  0.00     0.074 A 
ATOM     40  C   UNL     1      -7.369  -1.440   4.273  1.00  0.00     0.049 A 
ATOM     41  N   UNL     1      -8.384  -3.486   6.159  1.00  0.00    -0.248 NA
ATOM     42  C   UNL     1      -9.198  -4.731   4.414  1.00  0.00     0.031 C 
ATOM     43  C   UNL     1      -6.399  -1.450   5.362  1.00  0.00     0.029 A 
ATOM     44  N   UNL     1      -7.227  -0.169   3.691  1.00  0.00    -0.354 N 
ATOM     45  C   UNL     1      -8.533  -4.779   6.614  1.00  0.00     0.074 A 
ATOM     46  C   UNL     1      -9.147  -5.483   5.516  1.00  0.00     0.031 C 
ATOM     47  C   UNL     1      -5.974  -0.193   5.573  1.00  0.00     0.029 A 
ATOM     48  C   UNL     1      -6.785   0.675   4.735  1.00  0.00     0.049 A 
ATOM     49  H   UNL     1      -7.400   0.082   2.755  1.00  0.00     0.167 HD
ATOM     50  C   UNL     1      -7.966  -5.107   7.812  1.00  0.00     0.037 A 
ATOM     51  C   UNL     1      -7.590   1.673   5.207  1.00  0.00     0.037 A 
ATOM     52  C   UNL     1      -7.460  -3.900   8.475  1.00  0.00     0.049 A 
ATOM     53  C   UNL     1      -7.970   1.500   6.660  1.00  0.00     0.074 A 
ATOM     54  C   UNL     1      -6.194  -3.347   8.576  1.00  0.00     0.029 A 
ATOM     55  N   UNL     1      -8.355  -2.900   8.851  1.00  0.00    -0.354 N 
ATOM     56  N   UNL     1      -7.934   0.356   7.288  1.00  0.00    -0.248 NA
ATOM     57  C   UNL     1      -8.422   2.593   7.515  1.00  0.00     0.031 C 
ATOM     58  C   UNL     1      -6.339  -1.980   8.930  1.00  0.00     0.029 A 
ATOM     59  C   UNL     1      -7.689  -1.711   9.079  1.00  0.00     0.049 A 
ATOM     60  H   UNL     1      -9.328  -3.024   8.941  1.00  0.00     0.167 HD
ATOM     61  C   UNL     1      -8.341   0.532   8.584  1.00  0.00     0.074 A 
ATOM     62  C   UNL     1      -8.627   1.952   8.679  1.00  0.00     0.031 C 
ATOM     63  C   UNL     1      -8.413  -0.508   9.468  1.00  0.00     0.037 A 
BRANCH  50  64
ATOM     64  C   UNL     1      -7.581  -6.516   8.242  1.00  0.00     0.064 A 
ATOM     65  C   UNL     1      -6.593  -6.711   9.235  1.00  0.00     0.173 A 
ATOM     66  C   UNL     1      -8.059  -7.713   7.672  1.00  0.00     0.173 A 
ATOM     67  F   UNL     1      -6.111  -5.688   9.953  1.00  0.00    -0.203 F 
ATOM     68  C   UNL     1      -6.055  -7.968   9.536  1.00  0.00     0.198 A 
ATOM     69  C   UNL     1      -7.500  -8.966   7.947  1.00  0.00     0.198 A 
ATOM     70  F   UNL     1      -9.123  -7.741   6.869  1.00  0.00    -0.203 F 
ATOM     71  F   UNL     1      -5.101  -8.077  10.471  1.00  0.00    -0.200 F 
ATOM     72  C   UNL     1      -6.487  -9.093   8.868  1.00  0.00     0.200 A 
ATOM     73  F   UNL     1      -7.962 -10.051   7.307  1.00  0.00    -0.200 F 
ATOM     74  F   UNL     1      -5.952 -10.293   9.130  1.00  0.00    -0.200 F 
ENDBRANCH  50  64
BRANCH  51  75
ATOM     75  C   UNL     1      -8.461   2.256   4.147  1.00  0.00     0.064 A 
ATOM     76  C   UNL     1      -7.834   2.904   3.063  1.00  0.00     0.173 A 
ATOM     77  C   UNL     1      -9.785   1.838   3.970  1.00  0.00     0.173 A 
ATOM     78  F   UNL     1      -6.564   3.325   3.180  1.00  0.00    -0.203 F 
ATOM     79  C   UNL     1      -8.455   3.006   1.820  1.00  0.00     0.198 A 
ATOM     80  C   UNL     1     -10.411   1.959   2.725  1.00  0.00     0.198 A 
ATOM     81  F   UNL     1     -10.434   1.204   4.955  1.00  0.00    -0.203 F 
ATOM     82  F   UNL     1      -7.782   3.513   0.777  1.00  0.00    -0.200 F 
ATOM     83  C   UNL     1      -9.732   2.505   1.644  1.00  0.00     0.200 A 
ATOM     84  F   UNL     1     -11.641   1.456   2.547  1.00  0.00    -0.200 F 
ATOM     85  F   UNL     1     -10.295   2.512   0.427  1.00  0.00    -0.200 F 
ENDBRANCH  51  75
BRANCH  63  86
ATOM     86  C   UNL     1      -9.088  -0.476  10.818  1.00  0.00     0.064 A 
ATOM     87  C   UNL     1     -10.172   0.360  11.133  1.00  0.00     0.173 A 
ATOM     88  C   UNL     1      -8.752  -1.434  11.807  1.00  0.00     0.173 A 
ATOM     89  F   UNL     1     -10.665   1.229  10.240  1.00  0.00    -0.203 F 
ATOM     90  C   UNL     1     -10.829   0.286  12.364  1.00  0.00     0.198 A 
ATOM     91  C   UNL     1      -9.452  -1.548  13.006  1.00  0.00     0.198 A 
ATOM     92  F   UNL     1      -7.752  -2.309  11.626  1.00  0.00    -0.203 F 
ATOM     93  F   UNL     1     -11.830   1.137  12.632  1.00  0.00    -0.200 F 
ATOM     94  C   UNL     1     -10.480  -0.676  13.293  1.00  0.00     0.200 A 
ATOM     95  F   UNL     1      -9.137  -2.524  13.870  1.00  0.00    -0.200 F 
ATOM     96  F   UNL     1     -11.149  -0.778  14.449  1.00  0.00    -0.200 F 
ENDBRANCH  63  86
ENDBRANCH  37  38
ENDBRANCH  29  32
ENDBRANCH  27  28
ENDBRANCH  26  27
ENDBRANCH  25  26
ENDBRANCH  24  25
ENDBRANCH   1  24
TORSDOF 17
