REMARK SMILES C[C@@H](Sc1nc2ccccc2c(=O)n1N)C(=O)NCCCCCCNC(=O)c1ccc(-c2c3nc(c(-c4c(F)c(F)c(F)c(F)c4F)c4ccc([nH]4)c(-c4c(F)c(F)c(F)c(F)c4F)c4nc(c(-c5c(F)c(F)c(F)c(F)c5F)c5ccc2[nH]5)C=C4)C=C3)cc1
REMARK SMILES IDX 21 1 20 2 19 3 18 4 16 5 17 6 2 8 1 9 3 10 4 11 5 12 14 13
REMARK SMILES IDX 6 14 12 15 7 16 11 17 13 18 8 19 10 20 9 21 15 22 22 25
REMARK SMILES IDX 23 26 24 27 25 28 26 29 27 31 28 32 29 33 90 34 30 35 89 36
REMARK SMILES IDX 31 37 32 38 33 39 83 40 34 41 88 42 82 43 84 44 35 45 87 46
REMARK SMILES IDX 81 47 80 48 36 50 68 51 48 52 67 53 49 54 52 55 66 56 85 57
REMARK SMILES IDX 50 58 51 59 65 61 86 62 53 63 37 64 38 65 46 66 39 67 40 68
REMARK SMILES IDX 44 69 47 70 41 71 42 72 45 73 43 74 69 75 70 76 78 77 71 78
REMARK SMILES IDX 72 79 76 80 79 81 73 82 74 83 77 84 75 85 54 86 55 87 63 88
REMARK SMILES IDX 56 89 57 90 61 91 64 92 58 93 59 94 62 95 60 96
REMARK H PARENT 18 7 15 23 15 24 25 30 84 49 52 60
REMARK Flexibility Score: inf
ROOT
ATOM      1  C   UNL     1      -3.050   0.467   2.767  1.00  0.00     0.002 C 
ENDROOT
BRANCH   1   2
ATOM      2  C   UNL     1      -1.538   0.440   2.510  1.00  0.00     0.021 C 
BRANCH   2   3
ATOM      3  C   UNL     1      -1.030  -0.882   1.938  1.00  0.00     0.116 C 
BRANCH   3   4
ATOM      4  N   UNL     1      -1.486  -1.063   0.573  1.00  0.00    -0.355 N 
ATOM      5  C   UNL     1      -0.788  -1.259  -0.581  1.00  0.00     0.233 C 
ATOM      6  O   UNL     1      -1.445  -1.392  -1.619  1.00  0.00    -0.274 OA
ATOM      7  H   UNL     1      -2.464  -1.041   0.462  1.00  0.00     0.163 HD
BRANCH   5   8
ATOM      8  C   UNL     1       0.742  -1.317  -0.614  1.00  0.00     0.141 C 
ATOM      9  C   UNL     1       1.391   0.003  -0.213  1.00  0.00     0.030 C 
BRANCH   8  10
ATOM     10  S   UNL     1       1.278  -2.804   0.307  1.00  0.00    -0.073 SA
BRANCH  10  11
ATOM     11  C   UNL     1       3.013  -2.623   0.308  1.00  0.00     0.191 A 
ATOM     12  N   UNL     1       3.574  -2.394   1.452  1.00  0.00    -0.222 NA
ATOM     13  N   UNL     1       3.714  -2.810  -0.878  1.00  0.00    -0.202 N 
ATOM     14  C   UNL     1       4.974  -2.358   1.505  1.00  0.00     0.079 A 
ATOM     15  C   UNL     1       5.109  -2.790  -0.912  1.00  0.00     0.280 A 
ATOM     16  C   UNL     1       5.592  -2.162   2.742  1.00  0.00     0.029 A 
ATOM     17  C   UNL     1       5.777  -2.552   0.380  1.00  0.00     0.068 A 
ATOM     18  O   UNL     1       5.765  -2.981  -1.935  1.00  0.00    -0.267 OA
ATOM     19  C   UNL     1       6.986  -2.164   2.851  1.00  0.00     0.002 A 
ATOM     20  C   UNL     1       7.173  -2.551   0.476  1.00  0.00     0.016 A 
ATOM     21  C   UNL     1       7.776  -2.358   1.718  1.00  0.00     0.001 A 
BRANCH  13  22
ATOM     22  N   UNL     1       3.045  -3.048  -2.123  1.00  0.00    -0.334 N 
ATOM     23  H   UNL     1       2.062  -3.072  -2.157  1.00  0.00     0.178 HD
ATOM     24  H   UNL     1       3.570  -3.186  -2.945  1.00  0.00     0.178 HD
ENDBRANCH  13  22
ENDBRANCH  10  11
ENDBRANCH   8  10
ENDBRANCH   5   8
ENDBRANCH   3   4
ENDBRANCH   2   3
ENDBRANCH   1   2
BRANCH   1  25
ATOM     25  C   UNL     1      -3.566  -0.609   3.729  1.00  0.00     0.002 C 
BRANCH  25  26
ATOM     26  C   UNL     1      -2.862  -0.661   5.087  1.00  0.00     0.021 C 
BRANCH  26  27
ATOM     27  C   UNL     1      -2.898   0.643   5.876  1.00  0.00     0.116 C 
BRANCH  27  28
ATOM     28  N   UNL     1      -4.252   1.037   6.228  1.00  0.00    -0.352 N 
ATOM     29  C   UNL     1      -4.760   1.403   7.447  1.00  0.00     0.251 C 
ATOM     30  H   UNL     1      -4.897   1.042   5.484  1.00  0.00     0.163 HD
ATOM     31  O   UNL     1      -5.975   1.538   7.597  1.00  0.00    -0.269 OA
BRANCH  29  32
ATOM     32  C   UNL     1      -3.854   1.618   8.593  1.00  0.00     0.039 A 
ATOM     33  C   UNL     1      -4.198   1.077   9.835  1.00  0.00     0.014 A 
ATOM     34  C   UNL     1      -2.678   2.361   8.452  1.00  0.00     0.014 A 
ATOM     35  C   UNL     1      -3.336   1.234  10.922  1.00  0.00     0.010 A 
ATOM     36  C   UNL     1      -1.790   2.462   9.519  1.00  0.00     0.010 A 
ATOM     37  C   UNL     1      -2.112   1.903  10.765  1.00  0.00    -0.014 A 
BRANCH  37  38
ATOM     38  C   UNL     1      -1.157   2.028  11.895  1.00  0.00     0.031 A 
ATOM     39  C   UNL     1      -0.834   3.379  12.467  1.00  0.00     0.074 A 
ATOM     40  C   UNL     1      -0.532   0.930  12.361  1.00  0.00     0.049 A 
ATOM     41  N   UNL     1       0.023   3.698  13.405  1.00  0.00    -0.248 NA
ATOM     42  C   UNL     1      -1.548   4.529  11.891  1.00  0.00     0.031 C 
ATOM     43  C   UNL     1      -0.722  -0.430  11.854  1.00  0.00     0.029 A 
ATOM     44  N   UNL     1       0.401   0.785  13.357  1.00  0.00    -0.354 N 
ATOM     45  C   UNL     1      -0.037   5.081  13.516  1.00  0.00     0.074 A 
ATOM     46  C   UNL     1      -0.979   5.546  12.521  1.00  0.00     0.031 C 
ATOM     47  C   UNL     1       0.056  -1.272  12.552  1.00  0.00     0.029 A 
ATOM     48  C   UNL     1       0.824  -0.509  13.532  1.00  0.00     0.049 A 
ATOM     49  H   UNL     1       0.735   1.539  13.896  1.00  0.00     0.167 HD
ATOM     50  C   UNL     1       0.620   5.887  14.384  1.00  0.00     0.037 A 
ATOM     51  C   UNL     1       1.734  -1.022  14.382  1.00  0.00     0.037 A 
ATOM     52  C   UNL     1       1.532   5.417  15.395  1.00  0.00     0.049 A 
ATOM     53  C   UNL     1       2.436  -0.108  15.348  1.00  0.00     0.074 A 
ATOM     54  C   UNL     1       2.192   6.148  16.367  1.00  0.00     0.029 A 
ATOM     55  N   UNL     1       1.912   4.094  15.562  1.00  0.00    -0.354 N 
ATOM     56  N   UNL     1       2.321   1.190  15.490  1.00  0.00    -0.248 NA
ATOM     57  C   UNL     1       3.389  -0.731  16.277  1.00  0.00     0.031 C 
ATOM     58  C   UNL     1       3.005   5.273  17.095  1.00  0.00     0.029 A 
ATOM     59  C   UNL     1       2.814   3.990  16.608  1.00  0.00     0.049 A 
ATOM     60  H   UNL     1       1.589   3.340  15.017  1.00  0.00     0.167 HD
ATOM     61  C   UNL     1       3.163   1.535  16.537  1.00  0.00     0.074 A 
ATOM     62  C   UNL     1       3.773   0.308  17.005  1.00  0.00     0.031 C 
ATOM     63  C   UNL     1       3.410   2.760  17.064  1.00  0.00     0.037 A 
BRANCH  50  64
ATOM     64  C   UNL     1       0.375   7.364  14.284  1.00  0.00     0.064 A 
ATOM     65  C   UNL     1      -0.847   7.935  14.668  1.00  0.00     0.173 A 
ATOM     66  C   UNL     1       1.391   8.225  13.841  1.00  0.00     0.173 A 
ATOM     67  F   UNL     1      -1.855   7.155  15.088  1.00  0.00    -0.203 F 
ATOM     68  C   UNL     1      -1.053   9.310  14.587  1.00  0.00     0.198 A 
ATOM     69  C   UNL     1       1.192   9.602  13.789  1.00  0.00     0.198 A 
ATOM     70  F   UNL     1       2.581   7.731  13.467  1.00  0.00    -0.203 F 
ATOM     71  F   UNL     1      -2.244   9.828  14.917  1.00  0.00    -0.200 F 
ATOM     72  C   UNL     1      -0.031  10.143  14.156  1.00  0.00     0.200 A 
ATOM     73  F   UNL     1       2.185  10.406  13.384  1.00  0.00    -0.200 F 
ATOM     74  F   UNL     1      -0.227  11.467  14.088  1.00  0.00    -0.200 F 
ENDBRANCH  50  64
BRANCH  51  75
ATOM     75  C   UNL     1       2.012  -2.482  14.372  1.00  0.00     0.064 A 
ATOM     76  C   UNL     1       1.596  -3.301  15.430  1.00  0.00     0.173 A 
ATOM     77  C   UNL     1       2.692  -3.087  13.305  1.00  0.00     0.173 A 
ATOM     78  F   UNL     1       0.960  -2.764  16.481  1.00  0.00    -0.203 F 
ATOM     79  C   UNL     1       1.864  -4.668  15.430  1.00  0.00     0.198 A 
ATOM     80  C   UNL     1       2.937  -4.458  13.293  1.00  0.00     0.198 A 
ATOM     81  F   UNL     1       3.107  -2.347  12.266  1.00  0.00    -0.203 F 
ATOM     82  F   UNL     1       1.491  -5.421  16.473  1.00  0.00    -0.200 F 
ATOM     83  C   UNL     1       2.529  -5.247  14.359  1.00  0.00     0.200 A 
ATOM     84  F   UNL     1       3.567  -5.016  12.251  1.00  0.00    -0.200 F 
ATOM     85  F   UNL     1       2.781  -6.562  14.357  1.00  0.00    -0.200 F 
ENDBRANCH  51  75
BRANCH  63  86
ATOM     86  C   UNL     1       4.358   2.831  18.225  1.00  0.00     0.064 A 
ATOM     87  C   UNL     1       5.738   2.648  18.059  1.00  0.00     0.173 A 
ATOM     88  C   UNL     1       3.883   3.129  19.511  1.00  0.00     0.173 A 
ATOM     89  F   UNL     1       6.239   2.347  16.851  1.00  0.00    -0.203 F 
ATOM     90  C   UNL     1       6.606   2.737  19.144  1.00  0.00     0.198 A 
ATOM     91  C   UNL     1       4.757   3.245  20.588  1.00  0.00     0.198 A 
ATOM     92  F   UNL     1       2.572   3.320  19.721  1.00  0.00    -0.203 F 
ATOM     93  F   UNL     1       7.917   2.514  18.971  1.00  0.00    -0.200 F 
ATOM     94  C   UNL     1       6.117   3.043  20.405  1.00  0.00     0.200 A 
ATOM     95  F   UNL     1       4.284   3.554  21.803  1.00  0.00    -0.200 F 
ATOM     96  F   UNL     1       6.955   3.135  21.446  1.00  0.00    -0.200 F 
ENDBRANCH  63  86
ENDBRANCH  37  38
ENDBRANCH  29  32
ENDBRANCH  27  28
ENDBRANCH  26  27
ENDBRANCH  25  26
ENDBRANCH   1  25
TORSDOF 16
