REMARK SMILES COc1cccc(C[C@H](C(=O)NCCCCCCNC(=O)c2ccc(-c3c4nc(c(-c5c(F)c(F)c(F)c(F)c5F)c5ccc([nH]5)c(-c5c(F)c(F)c(F)c(F)c5F)c5nc(c(-c6c(F)c(F)c(F)c(F)c6F)c6ccc3[nH]6)C=C5)C=C4)cc2)[C@H]2CCCCC[C@@H]2O)c1
REMARK SMILES IDX 14 1 13 2 12 3 10 4 11 5 9 7 8 8 7 9 3 10 4 11 93 12 5 13
REMARK SMILES IDX 6 14 2 15 1 16 85 17 86 18 87 19 91 21 90 22 89 23 88 24
REMARK SMILES IDX 92 26 15 28 16 29 17 30 18 31 19 32 20 33 21 35 22 36 23 37
REMARK SMILES IDX 84 38 24 39 83 40 25 41 26 42 27 43 77 44 28 45 82 46 76 47
REMARK SMILES IDX 78 48 29 49 81 50 75 51 74 52 30 54 62 55 42 56 61 57 43 58
REMARK SMILES IDX 46 59 60 60 79 61 44 62 45 63 59 65 80 66 47 67 31 68 32 69
REMARK SMILES IDX 40 70 33 71 34 72 38 73 41 74 35 75 36 76 39 77 37 78 63 79
REMARK SMILES IDX 64 80 72 81 65 82 66 83 70 84 73 85 67 86 68 87 71 88 69 89
REMARK SMILES IDX 48 90 49 91 57 92 50 93 51 94 55 95 58 96 52 97 53 98 56 99
REMARK SMILES IDX 54 100
REMARK H PARENT 12 6 92 27 19 34 78 53 46 64
REMARK Flexibility Score: 90.00
ROOT
ATOM      1  C   UNL     1       6.109  -0.992  -4.468  1.00  0.00     0.021 C 
ENDROOT
BRANCH   1   2
ATOM      2  C   UNL     1       5.841  -1.796  -3.186  1.00  0.00     0.116 C 
BRANCH   2   3
ATOM      3  N   UNL     1       4.451  -2.206  -3.113  1.00  0.00    -0.356 N 
ATOM      4  C   UNL     1       3.790  -3.374  -3.293  1.00  0.00     0.223 C 
ATOM      5  O   UNL     1       2.574  -3.228  -3.472  1.00  0.00    -0.275 OA
ATOM      6  H   UNL     1       3.849  -1.463  -2.878  1.00  0.00     0.163 HD
BRANCH   4   7
ATOM      7  C   UNL     1       4.433  -4.798  -3.236  1.00  0.00     0.088 C 
BRANCH   7   8
ATOM      8  C   UNL     1       3.231  -5.795  -3.296  1.00  0.00     0.049 C 
BRANCH   8   9
ATOM      9  C   UNL     1       3.277  -7.201  -2.727  1.00  0.00    -0.044 A 
ATOM     10  C   UNL     1       2.112  -9.346  -2.492  1.00  0.00     0.119 A 
ATOM     11  C   UNL     1       3.223  -9.860  -1.827  1.00  0.00     0.046 A 
ATOM     12  C   UNL     1       2.151  -8.028  -2.952  1.00  0.00     0.050 A 
ATOM     13  C   UNL     1       4.327  -9.050  -1.566  1.00  0.00     0.004 A 
ATOM     14  C   UNL     1       4.335  -7.715  -1.976  1.00  0.00     0.004 A 
BRANCH  10  15
ATOM     15  O   UNL     1       1.069 -10.221  -2.618  1.00  0.00    -0.497 OA
ATOM     16  C   UNL     1      -0.090  -9.765  -3.303  1.00  0.00     0.278 C 
ENDBRANCH  10  15
ENDBRANCH   8   9
ENDBRANCH   7   8
BRANCH   7  17
ATOM     17  C   UNL     1       5.624  -5.022  -4.245  1.00  0.00     0.030 C 
BRANCH  17  18
ATOM     18  C   UNL     1       6.232  -6.438  -4.404  1.00  0.00     0.007 C 
BRANCH  18  19
ATOM     19  C   UNL     1       5.451  -7.457  -5.229  1.00  0.00     0.000 CG0
ATOM     20  G   UNL     1       5.731  -7.449  -6.727  1.00  0.00     0.000 G0
ENDBRANCH  18  19
ENDBRANCH  17  18
BRANCH  17  21
ATOM     21  C   UNL     1       5.511  -4.270  -5.589  1.00  0.00     0.118 C 
BRANCH  21  22
ATOM     22  C   UNL     1       4.982  -5.014  -6.814  1.00  0.00     0.032 C 
BRANCH  22  23
ATOM     23  C   UNL     1       5.926  -6.081  -7.359  1.00  0.00     0.003 C 
BRANCH  23  24
ATOM     24  C   UNL     1       5.731  -7.449  -6.727  1.00  0.00     0.000 CG0
ATOM     25  G   UNL     1       5.451  -7.457  -5.229  1.00  0.00     0.000 G0
ENDBRANCH  23  24
ENDBRANCH  22  23
ENDBRANCH  21  22
BRANCH  21  26
ATOM     26  O   UNL     1       6.827  -3.764  -5.880  1.00  0.00    -0.393 OA
ATOM     27  H   UNL     1       7.438  -4.506  -6.007  1.00  0.00     0.210 HD
ENDBRANCH  21  26
ENDBRANCH  17  21
ENDBRANCH   7  17
ENDBRANCH   4   7
ENDBRANCH   2   3
ENDBRANCH   1   2
BRANCH   1  28
ATOM     28  C   UNL     1       5.412   0.372  -4.548  1.00  0.00     0.002 C 
BRANCH  28  29
ATOM     29  C   UNL     1       5.901   1.410  -3.539  1.00  0.00     0.002 C 
BRANCH  29  30
ATOM     30  C   UNL     1       7.411   1.658  -3.545  1.00  0.00     0.021 C 
BRANCH  30  31
ATOM     31  C   UNL     1       8.007   2.024  -4.903  1.00  0.00     0.116 C 
BRANCH  31  32
ATOM     32  N   UNL     1       7.473   3.269  -5.425  1.00  0.00    -0.352 N 
ATOM     33  C   UNL     1       8.131   4.387  -5.870  1.00  0.00     0.251 C 
ATOM     34  H   UNL     1       6.490   3.318  -5.465  1.00  0.00     0.163 HD
ATOM     35  O   UNL     1       7.502   5.414  -6.106  1.00  0.00    -0.269 OA
BRANCH  33  36
ATOM     36  C   UNL     1       9.600   4.373  -6.053  1.00  0.00     0.039 A 
ATOM     37  C   UNL     1      10.332   5.487  -5.634  1.00  0.00     0.014 A 
ATOM     38  C   UNL     1      10.254   3.299  -6.666  1.00  0.00     0.014 A 
ATOM     39  C   UNL     1      11.719   5.506  -5.790  1.00  0.00     0.010 A 
ATOM     40  C   UNL     1      11.646   3.291  -6.761  1.00  0.00     0.010 A 
ATOM     41  C   UNL     1      12.392   4.398  -6.332  1.00  0.00    -0.014 A 
BRANCH  41  42
ATOM     42  C   UNL     1      13.874   4.407  -6.450  1.00  0.00     0.031 A 
ATOM     43  C   UNL     1      14.537   4.405  -7.801  1.00  0.00     0.074 A 
ATOM     44  C   UNL     1      14.625   4.412  -5.332  1.00  0.00     0.049 A 
ATOM     45  N   UNL     1      15.813   4.450  -8.096  1.00  0.00    -0.248 NA
ATOM     46  C   UNL     1      13.655   4.322  -8.975  1.00  0.00     0.031 C 
ATOM     47  C   UNL     1      14.104   4.354  -3.965  1.00  0.00     0.029 A 
ATOM     48  N   UNL     1      15.986   4.475  -5.165  1.00  0.00    -0.354 N 
ATOM     49  C   UNL     1      15.884   4.410  -9.482  1.00  0.00     0.074 A 
ATOM     50  C   UNL     1      14.529   4.270  -9.970  1.00  0.00     0.031 C 
ATOM     51  C   UNL     1      15.130   4.415  -3.100  1.00  0.00     0.029 A 
ATOM     52  C   UNL     1      16.380   4.493  -3.849  1.00  0.00     0.049 A 
ATOM     53  H   UNL     1      16.620   4.505  -5.918  1.00  0.00     0.167 HD
ATOM     54  C   UNL     1      16.976   4.515 -10.278  1.00  0.00     0.037 A 
ATOM     55  C   UNL     1      17.610   4.572  -3.309  1.00  0.00     0.037 A 
ATOM     56  C   UNL     1      18.324   4.663  -9.794  1.00  0.00     0.049 A 
ATOM     57  C   UNL     1      18.803   4.699  -4.218  1.00  0.00     0.074 A 
ATOM     58  C   UNL     1      19.495   4.792 -10.521  1.00  0.00     0.029 A 
ATOM     59  N   UNL     1      18.680   4.704  -8.454  1.00  0.00    -0.354 N 
ATOM     60  N   UNL     1      18.848   4.726  -5.528  1.00  0.00    -0.248 NA
ATOM     61  C   UNL     1      20.116   4.828  -3.571  1.00  0.00     0.031 C 
ATOM     62  C   UNL     1      20.563   4.882  -9.621  1.00  0.00     0.029 A 
ATOM     63  C   UNL     1      20.053   4.854  -8.334  1.00  0.00     0.049 A 
ATOM     64  H   UNL     1      18.051   4.638  -7.700  1.00  0.00     0.167 HD
ATOM     65  C   UNL     1      20.185   4.901  -5.860  1.00  0.00     0.074 A 
ATOM     66  C   UNL     1      20.914   5.005  -4.613  1.00  0.00     0.031 C 
ATOM     67  C   UNL     1      20.761   4.962  -7.085  1.00  0.00     0.037 A 
BRANCH  54  68
ATOM     68  C   UNL     1      16.756   4.502 -11.764  1.00  0.00     0.064 A 
ATOM     69  C   UNL     1      16.156   5.588 -12.420  1.00  0.00     0.173 A 
ATOM     70  C   UNL     1      17.198   3.426 -12.548  1.00  0.00     0.173 A 
ATOM     71  F   UNL     1      15.705   6.637 -11.715  1.00  0.00    -0.203 F 
ATOM     72  C   UNL     1      15.989   5.589 -13.802  1.00  0.00     0.198 A 
ATOM     73  C   UNL     1      17.055   3.443 -13.933  1.00  0.00     0.198 A 
ATOM     74  F   UNL     1      17.783   2.365 -11.972  1.00  0.00    -0.203 F 
ATOM     75  F   UNL     1      15.378   6.620 -14.401  1.00  0.00    -0.200 F 
ATOM     76  C   UNL     1      16.447   4.521 -14.558  1.00  0.00     0.200 A 
ATOM     77  F   UNL     1      17.509   2.416 -14.665  1.00  0.00    -0.200 F 
ATOM     78  F   UNL     1      16.298   4.529 -15.890  1.00  0.00    -0.200 F 
ENDBRANCH  54  68
BRANCH  55  79
ATOM     79  C   UNL     1      17.783   4.563  -1.832  1.00  0.00     0.064 A 
ATOM     80  C   UNL     1      18.241   5.699  -1.149  1.00  0.00     0.173 A 
ATOM     81  C   UNL     1      17.531   3.408  -1.078  1.00  0.00     0.173 A 
ATOM     82  F   UNL     1      18.515   6.823  -1.829  1.00  0.00    -0.203 F 
ATOM     83  C   UNL     1      18.477   5.669   0.224  1.00  0.00     0.198 A 
ATOM     84  C   UNL     1      17.735   3.389   0.300  1.00  0.00     0.198 A 
ATOM     85  F   UNL     1      17.084   2.296  -1.680  1.00  0.00    -0.203 F 
ATOM     86  F   UNL     1      18.977   6.749   0.839  1.00  0.00    -0.200 F 
ATOM     87  C   UNL     1      18.221   4.514   0.948  1.00  0.00     0.200 A 
ATOM     88  F   UNL     1      17.472   2.276   0.999  1.00  0.00    -0.200 F 
ATOM     89  F   UNL     1      18.454   4.483   2.267  1.00  0.00    -0.200 F 
ENDBRANCH  55  79
BRANCH  67  90
ATOM     90  C   UNL     1      22.246   5.183  -7.128  1.00  0.00     0.064 A 
ATOM     91  C   UNL     1      23.150   4.191  -6.719  1.00  0.00     0.173 A 
ATOM     92  C   UNL     1      22.770   6.403  -7.582  1.00  0.00     0.173 A 
ATOM     93  F   UNL     1      22.699   3.012  -6.264  1.00  0.00    -0.203 F 
ATOM     94  C   UNL     1      24.522   4.429  -6.720  1.00  0.00     0.198 A 
ATOM     95  C   UNL     1      24.144   6.625  -7.613  1.00  0.00     0.198 A 
ATOM     96  F   UNL     1      21.950   7.381  -7.993  1.00  0.00    -0.203 F 
ATOM     97  F   UNL     1      25.362   3.491  -6.260  1.00  0.00    -0.200 F 
ATOM     98  C   UNL     1      25.018   5.643  -7.170  1.00  0.00     0.200 A 
ATOM     99  F   UNL     1      24.622   7.794  -8.060  1.00  0.00    -0.200 F 
ATOM    100  F   UNL     1      26.338   5.872  -7.164  1.00  0.00    -0.200 F 
ENDBRANCH  67  90
ENDBRANCH  41  42
ENDBRANCH  33  36
ENDBRANCH  31  32
ENDBRANCH  30  31
ENDBRANCH  29  30
ENDBRANCH  28  29
ENDBRANCH   1  28
TORSDOF 18
