REMARK SMILES Cc1cc(C)c(C(N)=O)c(N[C@H]2C=C[C@H](C(=O)NCCCCCCNC(=O)c3ccc(-c4c5nc(c(-c6c(F)c(F)c(F)c(F)c6F)c6ccc([nH]6)c(-c6c(F)c(F)c(F)c(F)c6F)c6nc(c(-c7c(F)c(F)c(F)c(F)c7F)c7ccc4[nH]7)C=C6)C=C5)cc3)C2)n1
REMARK SMILES IDX 21 1 20 2 19 3 18 4 16 5 17 6 15 8 12 9 13 10 91 11 14 12
REMARK SMILES IDX 11 13 10 15 1 16 2 17 3 18 92 19 4 20 5 21 6 22 7 23 8 24
REMARK SMILES IDX 9 25 22 28 23 29 24 30 25 31 26 32 27 34 28 35 29 36 90 37
REMARK SMILES IDX 30 38 89 39 31 40 32 41 33 42 83 43 34 44 88 45 82 46 84 47
REMARK SMILES IDX 35 48 87 49 81 50 80 51 36 53 68 54 48 55 67 56 49 57 52 58
REMARK SMILES IDX 66 59 85 60 50 61 51 62 65 64 86 65 53 66 37 67 38 68 46 69
REMARK SMILES IDX 39 70 40 71 44 72 47 73 41 74 42 75 45 76 43 77 69 78 70 79
REMARK SMILES IDX 78 80 71 81 72 82 76 83 79 84 73 85 74 86 77 87 75 88 54 89
REMARK SMILES IDX 55 90 63 91 56 92 57 93 61 94 64 95 58 96 59 97 62 98 60 99
REMARK H PARENT 18 7 11 14 8 26 8 27 25 33 84 52 52 63
REMARK Flexibility Score: inf
ROOT
ATOM      1  C   UNL     1      -8.917  -3.554  -1.332  1.00  0.00     0.002 C 
ENDROOT
BRANCH   1   2
ATOM      2  C   UNL     1      -7.842  -2.482  -1.123  1.00  0.00     0.021 C 
BRANCH   2   3
ATOM      3  C   UNL     1      -6.614  -2.954  -0.353  1.00  0.00     0.116 C 
BRANCH   3   4
ATOM      4  N   UNL     1      -5.956  -4.063  -1.012  1.00  0.00    -0.356 N 
ATOM      5  C   UNL     1      -4.624  -4.253  -1.239  1.00  0.00     0.227 C 
ATOM      6  O   UNL     1      -4.266  -5.318  -1.741  1.00  0.00    -0.274 OA
ATOM      7  H   UNL     1      -6.550  -4.776  -1.341  1.00  0.00     0.163 HD
BRANCH   5   8
ATOM      8  C   UNL     1      -3.653  -3.141  -0.852  1.00  0.00     0.103 C 
ATOM      9  C   UNL     1      -1.377  -3.786  -0.227  1.00  0.00     0.104 C 
ATOM     10  C   UNL     1      -2.207  -3.503   0.977  1.00  0.00    -0.006 C 
ATOM     11  C   UNL     1      -2.245  -3.377  -1.421  1.00  0.00     0.046 C 
ATOM     12  C   UNL     1      -3.450  -3.145   0.639  1.00  0.00    -0.016 C 
BRANCH   9  13
ATOM     13  N   UNL     1      -0.096  -3.104  -0.193  1.00  0.00    -0.363 N 
ATOM     14  H   UNL     1       0.720  -3.651  -0.253  1.00  0.00     0.162 HD
BRANCH  13  15
ATOM     15  C   UNL     1       0.053  -1.721  -0.082  1.00  0.00     0.139 A 
ATOM     16  C   UNL     1      -2.276   1.135   0.067  1.00  0.00     0.067 C 
ATOM     17  C   UNL     1      -0.989   0.369   0.058  1.00  0.00     0.040 A 
ATOM     18  C   UNL     1       0.227   1.028   0.087  1.00  0.00     0.028 A 
ATOM     19  N   UNL     1      -1.073  -0.973  -0.010  1.00  0.00    -0.236 NA
ATOM     20  C   UNL     1       1.415   0.285   0.059  1.00  0.00    -0.033 A 
ATOM     21  C   UNL     1       2.700   1.065   0.089  1.00  0.00     0.045 C 
ATOM     22  C   UNL     1       1.329  -1.122  -0.033  1.00  0.00     0.084 A 
BRANCH  22  23
ATOM     23  C   UNL     1       2.561  -1.959  -0.137  1.00  0.00     0.252 C 
ATOM     24  N   UNL     1       2.539  -3.194   0.451  1.00  0.00    -0.365 N 
ATOM     25  O   UNL     1       3.566  -1.586  -0.738  1.00  0.00    -0.269 OA
ATOM     26  H   UNL     1       1.735  -3.495   0.932  1.00  0.00     0.159 HD
ATOM     27  H   UNL     1       3.327  -3.781   0.392  1.00  0.00     0.159 HD
ENDBRANCH  22  23
ENDBRANCH  13  15
ENDBRANCH   9  13
ENDBRANCH   5   8
ENDBRANCH   3   4
ENDBRANCH   2   3
ENDBRANCH   1   2
BRANCH   1  28
ATOM     28  C   UNL     1      -9.407  -4.246  -0.056  1.00  0.00     0.002 C 
BRANCH  28  29
ATOM     29  C   UNL     1      -9.928  -3.308   1.033  1.00  0.00     0.021 C 
BRANCH  29  30
ATOM     30  C   UNL     1     -11.027  -2.354   0.583  1.00  0.00     0.116 C 
BRANCH  30  31
ATOM     31  N   UNL     1     -12.215  -3.053   0.122  1.00  0.00    -0.352 N 
ATOM     32  C   UNL     1     -13.526  -2.870   0.483  1.00  0.00     0.251 C 
ATOM     33  H   UNL     1     -12.056  -3.759  -0.545  1.00  0.00     0.163 HD
ATOM     34  O   UNL     1     -14.386  -3.665   0.119  1.00  0.00    -0.269 OA
BRANCH  32  35
ATOM     35  C   UNL     1     -13.898  -1.722   1.338  1.00  0.00     0.039 A 
ATOM     36  C   UNL     1     -14.768  -1.936   2.409  1.00  0.00     0.014 A 
ATOM     37  C   UNL     1     -13.393  -0.444   1.086  1.00  0.00     0.014 A 
ATOM     38  C   UNL     1     -15.084  -0.879   3.264  1.00  0.00     0.010 A 
ATOM     39  C   UNL     1     -13.646   0.590   1.984  1.00  0.00     0.010 A 
ATOM     40  C   UNL     1     -14.498   0.384   3.079  1.00  0.00    -0.014 A 
BRANCH  40  41
ATOM     41  C   UNL     1     -14.766   1.499   4.024  1.00  0.00     0.031 A 
ATOM     42  C   UNL     1     -15.462   2.744   3.548  1.00  0.00     0.074 A 
ATOM     43  C   UNL     1     -14.332   1.412   5.296  1.00  0.00     0.049 A 
ATOM     44  N   UNL     1     -15.734   3.843   4.206  1.00  0.00    -0.248 NA
ATOM     45  C   UNL     1     -15.885   2.768   2.139  1.00  0.00     0.031 C 
ATOM     46  C   UNL     1     -13.604   0.276   5.864  1.00  0.00     0.029 A 
ATOM     47  N   UNL     1     -14.431   2.298   6.339  1.00  0.00    -0.354 N 
ATOM     48  C   UNL     1     -16.348   4.688   3.291  1.00  0.00     0.074 A 
ATOM     49  C   UNL     1     -16.356   4.000   2.018  1.00  0.00     0.031 C 
ATOM     50  C   UNL     1     -13.345   0.522   7.158  1.00  0.00     0.029 A 
ATOM     51  C   UNL     1     -13.849   1.849   7.500  1.00  0.00     0.049 A 
ATOM     52  H   UNL     1     -14.876   3.172   6.263  1.00  0.00     0.167 HD
ATOM     53  C   UNL     1     -16.880   5.917   3.500  1.00  0.00     0.037 A 
ATOM     54  C   UNL     1     -13.728   2.444   8.702  1.00  0.00     0.037 A 
ATOM     55  C   UNL     1     -16.886   6.589   4.773  1.00  0.00     0.049 A 
ATOM     56  C   UNL     1     -14.311   3.818   8.902  1.00  0.00     0.074 A 
ATOM     57  C   UNL     1     -17.448   7.811   5.101  1.00  0.00     0.029 A 
ATOM     58  N   UNL     1     -16.295   6.099   5.929  1.00  0.00    -0.354 N 
ATOM     59  N   UNL     1     -14.953   4.578   8.048  1.00  0.00    -0.248 NA
ATOM     60  C   UNL     1     -14.159   4.413  10.237  1.00  0.00     0.031 C 
ATOM     61  C   UNL     1     -17.149   8.085   6.439  1.00  0.00     0.029 A 
ATOM     62  C   UNL     1     -16.456   7.007   6.964  1.00  0.00     0.049 A 
ATOM     63  H   UNL     1     -15.830   5.234   6.003  1.00  0.00     0.167 HD
ATOM     64  C   UNL     1     -15.308   5.723   8.748  1.00  0.00     0.074 A 
ATOM     65  C   UNL     1     -14.824   5.551  10.102  1.00  0.00     0.031 C 
ATOM     66  C   UNL     1     -15.975   6.819   8.309  1.00  0.00     0.037 A 
BRANCH  53  67
ATOM     67  C   UNL     1     -17.500   6.616   2.324  1.00  0.00     0.064 A 
ATOM     68  C   UNL     1     -18.689   6.158   1.736  1.00  0.00     0.173 A 
ATOM     69  C   UNL     1     -16.921   7.783   1.803  1.00  0.00     0.173 A 
ATOM     70  F   UNL     1     -19.280   5.041   2.188  1.00  0.00    -0.203 F 
ATOM     71  C   UNL     1     -19.258   6.823   0.653  1.00  0.00     0.198 A 
ATOM     72  C   UNL     1     -17.511   8.465   0.742  1.00  0.00     0.198 A 
ATOM     73  F   UNL     1     -15.787   8.270   2.330  1.00  0.00    -0.203 F 
ATOM     74  F   UNL     1     -20.365   6.336   0.075  1.00  0.00    -0.200 F 
ATOM     75  C   UNL     1     -18.673   7.980   0.162  1.00  0.00     0.200 A 
ATOM     76  F   UNL     1     -16.952   9.592   0.278  1.00  0.00    -0.200 F 
ATOM     77  F   UNL     1     -19.226   8.625  -0.875  1.00  0.00    -0.200 F 
ENDBRANCH  53  67
BRANCH  54  78
ATOM     78  C   UNL     1     -13.041   1.739   9.817  1.00  0.00     0.064 A 
ATOM     79  C   UNL     1     -13.753   1.308  10.945  1.00  0.00     0.173 A 
ATOM     80  C   UNL     1     -11.661   1.492   9.784  1.00  0.00     0.173 A 
ATOM     81  F   UNL     1     -15.071   1.539  11.033  1.00  0.00    -0.203 F 
ATOM     82  C   UNL     1     -13.107   0.681  12.009  1.00  0.00     0.198 A 
ATOM     83  C   UNL     1     -11.021   0.836  10.834  1.00  0.00     0.198 A 
ATOM     84  F   UNL     1     -10.933   1.878   8.726  1.00  0.00    -0.203 F 
ATOM     85  F   UNL     1     -13.804   0.328  13.098  1.00  0.00    -0.200 F 
ATOM     86  C   UNL     1     -11.743   0.440  11.950  1.00  0.00     0.200 A 
ATOM     87  F   UNL     1      -9.706   0.590  10.766  1.00  0.00    -0.200 F 
ATOM     88  F   UNL     1     -11.123  -0.165  12.972  1.00  0.00    -0.200 F 
ENDBRANCH  54  78
BRANCH  66  89
ATOM     89  C   UNL     1     -16.258   7.902   9.311  1.00  0.00     0.064 A 
ATOM     90  C   UNL     1     -15.240   8.715   9.830  1.00  0.00     0.173 A 
ATOM     91  C   UNL     1     -17.575   8.153   9.730  1.00  0.00     0.173 A 
ATOM     92  F   UNL     1     -13.963   8.507   9.474  1.00  0.00    -0.203 F 
ATOM     93  C   UNL     1     -15.524   9.719  10.752  1.00  0.00     0.198 A 
ATOM     94  C   UNL     1     -17.860   9.180  10.625  1.00  0.00     0.198 A 
ATOM     95  F   UNL     1     -18.587   7.410   9.259  1.00  0.00    -0.203 F 
ATOM     96  F   UNL     1     -14.528  10.447  11.275  1.00  0.00    -0.200 F 
ATOM     97  C   UNL     1     -16.834   9.956  11.142  1.00  0.00     0.200 A 
ATOM     98  F   UNL     1     -19.128   9.418  10.987  1.00  0.00    -0.200 F 
ATOM     99  F   UNL     1     -17.107  10.928  12.023  1.00  0.00    -0.200 F 
ENDBRANCH  66  89
ENDBRANCH  40  41
ENDBRANCH  32  35
ENDBRANCH  30  31
ENDBRANCH  29  30
ENDBRANCH  28  29
ENDBRANCH   1  28
TORSDOF 16
