REMARK SMILES CC1=C(C)C[C@@H](C(=O)NCCCCCCNC(=O)c2ccc(-c3c4nc(c(-c5c(F)c(F)c(F)c(F)c5F)c5ccc([nH]5)c(-c5c(F)c(F)c(F)c(F)c5F)c5nc(c(-c6c(F)c(F)c(F)c(F)c6F)c6ccc3[nH]6)C=C5)C=C4)cc2)[C@@H](C(=O)NCC[NH+]2CCOCC2)C1
REMARK SMILES IDX 11 1 10 2 9 3 7 4 8 5 6 7 1 8 2 9 3 10 94 11 4 12 5 13 82 14
REMARK SMILES IDX 83 15 84 16 85 17 86 19 87 20 88 21 89 22 93 23 90 25 92 26
REMARK SMILES IDX 91 27 12 28 13 29 14 30 15 31 16 32 17 33 18 35 19 36 20 37
REMARK SMILES IDX 81 38 21 39 80 40 22 41 23 42 24 43 74 44 25 45 79 46 73 47
REMARK SMILES IDX 75 48 26 49 78 50 72 51 71 52 27 54 59 55 39 56 58 57 40 58
REMARK SMILES IDX 43 59 57 60 76 61 41 62 42 63 56 65 77 66 44 67 28 68 29 69
REMARK SMILES IDX 37 70 30 71 31 72 35 73 38 74 32 75 33 76 36 77 34 78 60 79
REMARK SMILES IDX 61 80 69 81 62 82 63 83 67 84 70 85 64 86 65 87 68 88 66 89
REMARK SMILES IDX 45 90 46 91 54 92 47 93 48 94 52 95 55 96 49 97 50 98 53 99
REMARK SMILES IDX 51 100
REMARK H PARENT 9 6 85 18 88 24 16 34 75 53 43 64
REMARK Flexibility Score: inf
ROOT
ATOM      1  C   UNL     1      -2.909   1.619  -0.797  1.00  0.00     0.021 C 
ENDROOT
BRANCH   1   2
ATOM      2  C   UNL     1      -2.546   0.376  -1.605  1.00  0.00     0.116 C 
BRANCH   2   3
ATOM      3  N   UNL     1      -2.835   0.484  -3.014  1.00  0.00    -0.356 N 
ATOM      4  C   UNL     1      -2.027   0.650  -4.091  1.00  0.00     0.224 C 
ATOM      5  O   UNL     1      -2.574   0.686  -5.200  1.00  0.00    -0.275 OA
ATOM      6  H   UNL     1      -3.793   0.427  -3.234  1.00  0.00     0.163 HD
BRANCH   4   7
ATOM      7  C   UNL     1      -0.497   0.716  -4.010  1.00  0.00     0.095 C 
ATOM      8  C   UNL     1       1.413   0.035  -0.064  1.00  0.00     0.039 C 
ATOM      9  C   UNL     1       0.955   0.167  -1.498  1.00  0.00    -0.074 C 
ATOM     10  C   UNL     1       0.599  -0.872  -2.281  1.00  0.00    -0.074 C 
ATOM     11  C   UNL     1       0.843   1.605  -1.957  1.00  0.00     0.045 C 
ATOM     12  C   UNL     1       0.616  -2.323  -1.865  1.00  0.00     0.039 C 
ATOM     13  C   UNL     1       0.091  -0.663  -3.687  1.00  0.00     0.045 C 
ATOM     14  C   UNL     1       0.191   1.913  -3.325  1.00  0.00     0.095 C 
BRANCH  14  15
ATOM     15  C   UNL     1      -0.694   3.155  -3.164  1.00  0.00     0.224 C 
ATOM     16  O   UNL     1      -1.912   3.175  -3.302  1.00  0.00    -0.275 OA
ATOM     17  N   UNL     1      -0.104   4.327  -2.776  1.00  0.00    -0.350 N 
ATOM     18  H   UNL     1      -0.362   4.721  -1.911  1.00  0.00     0.163 HD
BRANCH  17  19
ATOM     19  C   UNL     1       0.883   5.012  -3.584  1.00  0.00     0.177 C 
BRANCH  19  20
ATOM     20  C   UNL     1       0.352   5.433  -4.981  1.00  0.00     0.283 C 
BRANCH  20  21
ATOM     21  N   UNL     1      -0.646   6.529  -5.018  1.00  0.00    -0.330 N 
ATOM     22  C   UNL     1      -2.015   6.155  -4.575  1.00  0.00     0.291 C 
ATOM     23  C   UNL     1      -0.796   7.038  -6.411  1.00  0.00     0.291 C 
ATOM     24  H   UNL     1      -0.275   7.221  -4.367  1.00  0.00     0.348 HD
ATOM     25  C   UNL     1      -2.761   5.203  -5.527  1.00  0.00     0.221 C 
ATOM     26  C   UNL     1      -1.569   6.090  -7.351  1.00  0.00     0.221 C 
ATOM     27  O   UNL     1      -2.869   5.786  -6.833  1.00  0.00    -0.370 OA
ENDBRANCH  20  21
ENDBRANCH  19  20
ENDBRANCH  17  19
ENDBRANCH  14  15
ENDBRANCH   4   7
ENDBRANCH   2   3
ENDBRANCH   1   2
BRANCH   1  28
ATOM     28  C   UNL     1      -4.406   1.921  -0.755  1.00  0.00     0.002 C 
BRANCH  28  29
ATOM     29  C   UNL     1      -5.246   0.816  -0.111  1.00  0.00     0.002 C 
BRANCH  29  30
ATOM     30  C   UNL     1      -4.753   0.358   1.265  1.00  0.00     0.021 C 
BRANCH  30  31
ATOM     31  C   UNL     1      -4.602   1.479   2.288  1.00  0.00     0.116 C 
BRANCH  31  32
ATOM     32  N   UNL     1      -5.875   2.113   2.582  1.00  0.00    -0.352 N 
ATOM     33  C   UNL     1      -6.507   2.260   3.789  1.00  0.00     0.251 C 
ATOM     34  H   UNL     1      -6.350   2.489   1.806  1.00  0.00     0.163 HD
ATOM     35  O   UNL     1      -7.679   2.615   3.838  1.00  0.00    -0.269 OA
BRANCH  33  36
ATOM     36  C   UNL     1      -5.770   1.978   5.037  1.00  0.00     0.039 A 
ATOM     37  C   UNL     1      -6.394   1.220   6.031  1.00  0.00     0.014 A 
ATOM     38  C   UNL     1      -4.480   2.481   5.237  1.00  0.00     0.014 A 
ATOM     39  C   UNL     1      -5.708   0.932   7.211  1.00  0.00     0.010 A 
ATOM     40  C   UNL     1      -3.774   2.138   6.386  1.00  0.00     0.010 A 
ATOM     41  C   UNL     1      -4.385   1.370   7.388  1.00  0.00    -0.014 A 
BRANCH  41  42
ATOM     42  C   UNL     1      -3.635   1.045   8.626  1.00  0.00     0.031 A 
ATOM     43  C   UNL     1      -3.233   2.139   9.574  1.00  0.00     0.074 A 
ATOM     44  C   UNL     1      -3.276  -0.229   8.870  1.00  0.00     0.049 A 
ATOM     45  N   UNL     1      -2.540   2.062  10.682  1.00  0.00    -0.248 NA
ATOM     46  C   UNL     1      -3.641   3.507   9.217  1.00  0.00     0.031 C 
ATOM     47  C   UNL     1      -3.567  -1.370   8.000  1.00  0.00     0.029 A 
ATOM     48  N   UNL     1      -2.580  -0.778   9.918  1.00  0.00    -0.354 N 
ATOM     49  C   UNL     1      -2.419   3.366  11.144  1.00  0.00     0.074 A 
ATOM     50  C   UNL     1      -3.064   4.221  10.172  1.00  0.00     0.031 C 
ATOM     51  C   UNL     1      -3.073  -2.486   8.560  1.00  0.00     0.029 A 
ATOM     52  C   UNL     1      -2.405  -2.135   9.810  1.00  0.00     0.049 A 
ATOM     53  H   UNL     1      -2.239  -0.249  10.675  1.00  0.00     0.167 HD
ATOM     54  C   UNL     1      -1.843   3.806  12.288  1.00  0.00     0.037 A 
ATOM     55  C   UNL     1      -1.774  -2.999  10.628  1.00  0.00     0.037 A 
ATOM     56  C   UNL     1      -1.227   2.949  13.266  1.00  0.00     0.049 A 
ATOM     57  C   UNL     1      -1.149  -2.484  11.896  1.00  0.00     0.074 A 
ATOM     58  C   UNL     1      -0.669   3.290  14.486  1.00  0.00     0.029 A 
ATOM     59  N   UNL     1      -1.087   1.575  13.133  1.00  0.00    -0.354 N 
ATOM     60  N   UNL     1      -1.101  -1.258  12.357  1.00  0.00    -0.248 NA
ATOM     61  C   UNL     1      -0.498  -3.476  12.763  1.00  0.00     0.031 C 
ATOM     62  C   UNL     1      -0.154   2.129  15.072  1.00  0.00     0.029 A 
ATOM     63  C   UNL     1      -0.433   1.057  14.240  1.00  0.00     0.049 A 
ATOM     64  H   UNL     1      -1.404   1.046  12.366  1.00  0.00     0.167 HD
ATOM     65  C   UNL     1      -0.442  -1.334  13.576  1.00  0.00     0.074 A 
ATOM     66  C   UNL     1      -0.122  -2.730  13.791  1.00  0.00     0.031 C 
ATOM     67  C   UNL     1      -0.128  -0.337  14.440  1.00  0.00     0.037 A 
BRANCH  54  68
ATOM     68  C   UNL     1      -1.856   5.285  12.547  1.00  0.00     0.064 A 
ATOM     69  C   UNL     1      -3.042   5.967  12.859  1.00  0.00     0.173 A 
ATOM     70  C   UNL     1      -0.664   6.024  12.517  1.00  0.00     0.173 A 
ATOM     71  F   UNL     1      -4.211   5.309  12.889  1.00  0.00    -0.203 F 
ATOM     72  C   UNL     1      -3.039   7.338  13.102  1.00  0.00     0.198 A 
ATOM     73  C   UNL     1      -0.660   7.390  12.790  1.00  0.00     0.198 A 
ATOM     74  F   UNL     1       0.499   5.421  12.229  1.00  0.00    -0.203 F 
ATOM     75  F   UNL     1      -4.191   7.976  13.350  1.00  0.00    -0.200 F 
ATOM     76  C   UNL     1      -1.847   8.047  13.075  1.00  0.00     0.200 A 
ATOM     77  F   UNL     1       0.494   8.071  12.776  1.00  0.00    -0.200 F 
ATOM     78  F   UNL     1      -1.844   9.365  13.316  1.00  0.00    -0.200 F 
ENDBRANCH  54  68
BRANCH  55  79
ATOM     79  C   UNL     1      -1.728  -4.444  10.287  1.00  0.00     0.064 A 
ATOM     80  C   UNL     1      -2.458  -5.381  11.031  1.00  0.00     0.173 A 
ATOM     81  C   UNL     1      -0.957  -4.917   9.216  1.00  0.00     0.173 A 
ATOM     82  F   UNL     1      -3.194  -4.978  12.077  1.00  0.00    -0.203 F 
ATOM     83  C   UNL     1      -2.402  -6.740  10.730  1.00  0.00     0.198 A 
ATOM     84  C   UNL     1      -0.924  -6.273   8.898  1.00  0.00     0.198 A 
ATOM     85  F   UNL     1      -0.246  -4.060   8.469  1.00  0.00    -0.203 F 
ATOM     86  F   UNL     1      -3.074  -7.620  11.485  1.00  0.00    -0.200 F 
ATOM     87  C   UNL     1      -1.640  -7.185   9.660  1.00  0.00     0.200 A 
ATOM     88  F   UNL     1      -0.197  -6.697   7.855  1.00  0.00    -0.200 F 
ATOM     89  F   UNL     1      -1.589  -8.491   9.368  1.00  0.00    -0.200 F 
ENDBRANCH  55  79
BRANCH  67  90
ATOM     90  C   UNL     1       0.569  -0.726  15.711  1.00  0.00     0.064 A 
ATOM     91  C   UNL     1       1.909  -1.139  15.718  1.00  0.00     0.173 A 
ATOM     92  C   UNL     1      -0.104  -0.652  16.940  1.00  0.00     0.173 A 
ATOM     93  F   UNL     1       2.590  -1.241  14.567  1.00  0.00    -0.203 F 
ATOM     94  C   UNL     1       2.542  -1.492  16.907  1.00  0.00     0.198 A 
ATOM     95  C   UNL     1       0.541  -0.977  18.130  1.00  0.00     0.198 A 
ATOM     96  F   UNL     1      -1.385  -0.256  16.988  1.00  0.00    -0.203 F 
ATOM     97  F   UNL     1       3.807  -1.933  16.885  1.00  0.00    -0.200 F 
ATOM     98  C   UNL     1       1.860  -1.404  18.112  1.00  0.00     0.200 A 
ATOM     99  F   UNL     1      -0.115  -0.879  19.294  1.00  0.00    -0.200 F 
ATOM    100  F   UNL     1       2.472  -1.740  19.256  1.00  0.00    -0.200 F 
ENDBRANCH  67  90
ENDBRANCH  41  42
ENDBRANCH  33  36
ENDBRANCH  31  32
ENDBRANCH  30  31
ENDBRANCH  29  30
ENDBRANCH  28  29
ENDBRANCH   1  28
TORSDOF 17
