REMARK SMILES O=C(CCN/C(=[NH+]\S(=O)(=O)c1ccccc1)c1ccccc1)NCCCCCCNC(=O)c1ccc(-c2c3nc(c(-c4c(F)c(F)c(F)c(F)c4F)c4ccc([nH]4)c(-c4c(F)c(F)c(F)c(F)c4F)c4nc(c(-c5c(F)c(F)c(F)c(F)c5F)c5ccc2[nH]5)C=C4)C=C3)cc1
REMARK SMILES IDX 25 1 24 2 23 3 1 4 2 5 3 7 4 8 5 9 6 10 7 12 17 14 18 15
REMARK SMILES IDX 22 16 19 17 21 18 20 19 8 20 9 21 10 22 11 23 12 24 16 25
REMARK SMILES IDX 13 26 15 27 14 28 26 29 27 30 28 31 29 32 30 33 31 34 32 36
REMARK SMILES IDX 33 37 34 38 95 39 35 40 94 41 36 42 37 43 38 44 88 45 39 46
REMARK SMILES IDX 93 47 87 48 89 49 40 50 92 51 86 52 85 53 41 55 73 56 53 57
REMARK SMILES IDX 72 58 54 59 57 60 71 61 90 62 55 63 56 64 70 66 91 67 58 68
REMARK SMILES IDX 42 69 43 70 51 71 44 72 45 73 49 74 52 75 46 76 47 77 50 78
REMARK SMILES IDX 48 79 74 80 75 81 83 82 76 83 77 84 81 85 84 86 78 87 79 88
REMARK SMILES IDX 82 89 80 90 59 91 60 92 68 93 61 94 62 95 66 96 69 97 63 98
REMARK SMILES IDX 64 99 67 100 65 101
REMARK H PARENT 23 6 5 11 7 13 30 35 89 54 57 65
REMARK Flexibility Score: inf
ROOT
ATOM      1  C   UNL     1       2.197  -3.278   1.253  1.00  0.00     0.021 C 
ENDROOT
BRANCH   1   2
ATOM      2  C   UNL     1       1.881  -1.796   1.452  1.00  0.00     0.116 C 
BRANCH   2   3
ATOM      3  N   UNL     1       2.707  -0.942   0.623  1.00  0.00    -0.356 N 
ATOM      4  O   UNL     1       1.034   0.511   0.015  1.00  0.00    -0.275 OA
ATOM      5  C   UNL     1       2.205   0.151  -0.040  1.00  0.00     0.223 C 
ATOM      6  H   UNL     1       3.664  -1.153   0.530  1.00  0.00     0.163 HD
BRANCH   5   7
ATOM      7  C   UNL     1       3.236   0.917  -0.833  1.00  0.00     0.145 C 
BRANCH   7   8
ATOM      8  C   UNL     1       3.819   2.045   0.006  1.00  0.00     0.243 C 
BRANCH   8   9
ATOM      9  N   UNL     1       4.882   1.568   0.881  1.00  0.00    -0.273 N 
ATOM     10  C   UNL     1       6.248   1.583   0.659  1.00  0.00     0.290 C 
ATOM     11  H   UNL     1       4.591   1.186   1.741  1.00  0.00     0.305 HD
ATOM     12  N   UNL     1       7.116   0.769   1.183  1.00  0.00    -0.162 N 
ATOM     13  H   UNL     1       8.080   0.926   1.064  1.00  0.00     0.327 HD
BRANCH  10  14
ATOM     14  C   UNL     1       6.820   2.621  -0.251  1.00  0.00     0.064 A 
ATOM     15  C   UNL     1       7.705   2.236  -1.262  1.00  0.00     0.016 A 
ATOM     16  C   UNL     1       6.448   3.962  -0.110  1.00  0.00     0.016 A 
ATOM     17  C   UNL     1       8.185   3.191  -2.159  1.00  0.00     0.001 A 
ATOM     18  C   UNL     1       6.925   4.911  -1.014  1.00  0.00     0.001 A 
ATOM     19  C   UNL     1       7.787   4.523  -2.040  1.00  0.00     0.000 A 
ENDBRANCH  10  14
BRANCH  12  20
ATOM     20  S   UNL     1       6.596  -0.503   2.030  1.00  0.00     0.328 S 
ATOM     21  O   UNL     1       5.700  -0.053   3.080  1.00  0.00    -0.179 OA
ATOM     22  O   UNL     1       6.121  -1.486   1.071  1.00  0.00    -0.179 OA
BRANCH  20  23
ATOM     23  C   UNL     1       8.002  -1.212   2.857  1.00  0.00     0.109 A 
ATOM     24  C   UNL     1       8.198  -2.599   2.818  1.00  0.00     0.024 A 
ATOM     25  C   UNL     1       8.839  -0.398   3.623  1.00  0.00     0.024 A 
ATOM     26  C   UNL     1       9.213  -3.177   3.580  1.00  0.00     0.001 A 
ATOM     27  C   UNL     1       9.863  -0.984   4.372  1.00  0.00     0.001 A 
ATOM     28  C   UNL     1      10.042  -2.370   4.358  1.00  0.00     0.000 A 
ENDBRANCH  20  23
ENDBRANCH  12  20
ENDBRANCH   8   9
ENDBRANCH   7   8
ENDBRANCH   5   7
ENDBRANCH   2   3
ENDBRANCH   1   2
BRANCH   1  29
ATOM     29  C   UNL     1       3.664  -3.659   1.472  1.00  0.00     0.002 C 
BRANCH  29  30
ATOM     30  C   UNL     1       4.244  -3.233   2.822  1.00  0.00     0.002 C 
BRANCH  30  31
ATOM     31  C   UNL     1       3.668  -3.943   4.041  1.00  0.00     0.021 C 
BRANCH  31  32
ATOM     32  C   UNL     1       3.877  -5.450   4.041  1.00  0.00     0.116 C 
BRANCH  32  33
ATOM     33  N   UNL     1       5.281  -5.835   4.018  1.00  0.00    -0.352 N 
ATOM     34  C   UNL     1       5.881  -6.920   4.608  1.00  0.00     0.251 C 
ATOM     35  H   UNL     1       5.880  -5.238   3.513  1.00  0.00     0.163 HD
ATOM     36  O   UNL     1       7.100  -7.050   4.587  1.00  0.00    -0.269 OA
BRANCH  34  37
ATOM     37  C   UNL     1       5.040  -7.915   5.304  1.00  0.00     0.039 A 
ATOM     38  C   UNL     1       5.408  -8.334   6.585  1.00  0.00     0.014 A 
ATOM     39  C   UNL     1       3.879  -8.414   4.705  1.00  0.00     0.014 A 
ATOM     40  C   UNL     1       4.581  -9.210   7.290  1.00  0.00     0.010 A 
ATOM     41  C   UNL     1       3.021  -9.229   5.434  1.00  0.00     0.010 A 
ATOM     42  C   UNL     1       3.368  -9.641   6.730  1.00  0.00    -0.014 A 
BRANCH  42  43
ATOM     43  C   UNL     1       2.461 -10.556   7.463  1.00  0.00     0.031 A 
ATOM     44  C   UNL     1       2.221 -11.943   6.935  1.00  0.00     0.074 A 
ATOM     45  C   UNL     1       1.806 -10.123   8.556  1.00  0.00     0.049 A 
ATOM     46  N   UNL     1       1.390 -12.860   7.360  1.00  0.00    -0.248 NA
ATOM     47  C   UNL     1       3.000 -12.340   5.750  1.00  0.00     0.031 C 
ATOM     48  C   UNL     1       1.917  -8.783   9.136  1.00  0.00     0.029 A 
ATOM     49  N   UNL     1       0.903 -10.762   9.368  1.00  0.00    -0.354 N 
ATOM     50  C   UNL     1       1.534 -13.931   6.487  1.00  0.00     0.074 A 
ATOM     51  C   UNL     1       2.493 -13.534   5.480  1.00  0.00     0.031 C 
ATOM     52  C   UNL     1       1.122  -8.705  10.217  1.00  0.00     0.029 A 
ATOM     53  C   UNL     1       0.427  -9.977  10.389  1.00  0.00     0.049 A 
ATOM     54  H   UNL     1       0.622 -11.696   9.230  1.00  0.00     0.167 HD
ATOM     55  C   UNL     1       0.938 -15.145   6.535  1.00  0.00     0.037 A 
ATOM     56  C   UNL     1      -0.471 -10.257  11.352  1.00  0.00     0.037 A 
ATOM     57  C   UNL     1       0.007 -15.550   7.554  1.00  0.00     0.049 A 
ATOM     58  C   UNL     1      -1.084 -11.630  11.408  1.00  0.00     0.074 A 
ATOM     59  C   UNL     1      -0.647 -16.761   7.698  1.00  0.00     0.029 A 
ATOM     60  N   UNL     1      -0.388 -14.752   8.617  1.00  0.00    -0.354 N 
ATOM     61  N   UNL     1      -0.916 -12.645  10.596  1.00  0.00    -0.248 NA
ATOM     62  C   UNL     1      -2.000 -11.902  12.525  1.00  0.00     0.031 C 
ATOM     63  C   UNL     1      -1.448 -16.692   8.844  1.00  0.00     0.029 A 
ATOM     64  C   UNL     1      -1.266 -15.450   9.429  1.00  0.00     0.049 A 
ATOM     65  H   UNL     1      -0.088 -13.827   8.772  1.00  0.00     0.167 HD
ATOM     66  C   UNL     1      -1.675 -13.682  11.120  1.00  0.00     0.074 A 
ATOM     67  C   UNL     1      -2.297 -13.178  12.326  1.00  0.00     0.031 C 
ATOM     68  C   UNL     1      -1.845 -14.939  10.643  1.00  0.00     0.037 A 
BRANCH  55  69
ATOM     69  C   UNL     1       1.294 -16.131   5.464  1.00  0.00     0.064 A 
ATOM     70  C   UNL     1       2.551 -16.753   5.437  1.00  0.00     0.173 A 
ATOM     71  C   UNL     1       0.364 -16.482   4.474  1.00  0.00     0.173 A 
ATOM     72  F   UNL     1       3.480 -16.438   6.352  1.00  0.00    -0.203 F 
ATOM     73  C   UNL     1       2.872 -17.676   4.445  1.00  0.00     0.198 A 
ATOM     74  C   UNL     1       0.680 -17.425   3.499  1.00  0.00     0.198 A 
ATOM     75  F   UNL     1      -0.852 -15.917   4.457  1.00  0.00    -0.203 F 
ATOM     76  F   UNL     1       4.094 -18.225   4.415  1.00  0.00    -0.200 F 
ATOM     77  C   UNL     1       1.935 -18.016   3.482  1.00  0.00     0.200 A 
ATOM     78  F   UNL     1      -0.230 -17.761   2.574  1.00  0.00    -0.200 F 
ATOM     79  F   UNL     1       2.243 -18.909   2.532  1.00  0.00    -0.200 F 
ENDBRANCH  55  69
BRANCH  56  80
ATOM     80  C   UNL     1      -0.822  -9.229  12.365  1.00  0.00     0.064 A 
ATOM     81  C   UNL     1      -0.398  -9.357  13.695  1.00  0.00     0.173 A 
ATOM     82  C   UNL     1      -1.604  -8.114  12.033  1.00  0.00     0.173 A 
ATOM     83  F   UNL     1       0.335 -10.418  14.064  1.00  0.00    -0.203 F 
ATOM     84  C   UNL     1      -0.767  -8.425  14.662  1.00  0.00     0.198 A 
ATOM     85  C   UNL     1      -1.952  -7.168  12.995  1.00  0.00     0.198 A 
ATOM     86  F   UNL     1      -2.029  -7.944  10.773  1.00  0.00    -0.203 F 
ATOM     87  F   UNL     1      -0.392  -8.599  15.936  1.00  0.00    -0.200 F 
ATOM     88  C   UNL     1      -1.542  -7.329  14.310  1.00  0.00     0.200 A 
ATOM     89  F   UNL     1      -2.691  -6.105  12.650  1.00  0.00    -0.200 F 
ATOM     90  F   UNL     1      -1.901  -6.435  15.241  1.00  0.00    -0.200 F 
ENDBRANCH  56  80
BRANCH  68  91
ATOM     91  C   UNL     1      -2.687 -15.873  11.458  1.00  0.00     0.064 A 
ATOM     92  C   UNL     1      -4.084 -15.760  11.498  1.00  0.00     0.173 A 
ATOM     93  C   UNL     1      -2.087 -16.918  12.176  1.00  0.00     0.173 A 
ATOM     94  F   UNL     1      -4.700 -14.768  10.838  1.00  0.00    -0.203 F 
ATOM     95  C   UNL     1      -4.849 -16.648  12.249  1.00  0.00     0.198 A 
ATOM     96  C   UNL     1      -2.858 -17.818  12.906  1.00  0.00     0.198 A 
ATOM     97  F   UNL     1      -0.754 -17.070  12.163  1.00  0.00    -0.203 F 
ATOM     98  F   UNL     1      -6.180 -16.498  12.307  1.00  0.00    -0.200 F 
ATOM     99  C   UNL     1      -4.237 -17.678  12.947  1.00  0.00     0.200 A 
ATOM    100  F   UNL     1      -2.266 -18.818  13.573  1.00  0.00    -0.200 F 
ATOM    101  F   UNL     1      -4.977 -18.533  13.667  1.00  0.00    -0.200 F 
ENDBRANCH  68  91
ENDBRANCH  42  43
ENDBRANCH  34  37
ENDBRANCH  32  33
ENDBRANCH  31  32
ENDBRANCH  30  31
ENDBRANCH  29  30
ENDBRANCH   1  29
TORSDOF 18
