REMARK SMILES CCC[NH2+][C@@]1(C(=O)NCCCCCCNC(=O)c2ccc(-c3c4nc(c(-c5c(F)c(F)c(F)c(F)c5F)c5ccc([nH]5)c(-c5c(F)c(F)c(F)c(F)c5F)c5nc(c(-c6c(F)c(F)c(F)c(F)c6F)c6ccc3[nH]6)C=C5)C=C4)cc2)CC[C@@H](Sc2ccc(Cl)cc2)C1
REMARK SMILES IDX 11 1 10 2 9 3 8 4 6 5 7 6 5 8 81 9 92 10 82 11 83 12 4 13
REMARK SMILES IDX 3 16 2 17 1 18 84 19 85 20 86 21 91 22 87 23 90 24 88 25
REMARK SMILES IDX 89 26 12 27 13 28 14 29 15 30 16 31 17 33 18 34 19 35 80 36
REMARK SMILES IDX 20 37 79 38 21 39 22 40 23 41 73 42 24 43 78 44 72 45 74 46
REMARK SMILES IDX 25 47 77 48 71 49 70 50 26 52 58 53 38 54 57 55 39 56 42 57
REMARK SMILES IDX 56 58 75 59 40 60 41 61 55 63 76 64 43 65 27 66 28 67 36 68
REMARK SMILES IDX 29 69 30 70 34 71 37 72 31 73 32 74 35 75 33 76 59 77 60 78
REMARK SMILES IDX 68 79 61 80 62 81 66 82 69 83 63 84 64 85 67 86 65 87 44 88
REMARK SMILES IDX 45 89 53 90 46 91 47 92 51 93 54 94 48 95 49 96 52 97 50 98
REMARK H PARENT 8 7 4 14 4 15 15 32 74 51 42 62
REMARK Flexibility Score: inf
ROOT
ATOM      1  C   UNL     1      -0.727   1.837   9.201  1.00  0.00     0.002 C 
ENDROOT
BRANCH   1   2
ATOM      2  C   UNL     1       0.099   2.259   7.984  1.00  0.00     0.021 C 
BRANCH   2   3
ATOM      3  C   UNL     1       0.734   1.083   7.247  1.00  0.00     0.116 C 
BRANCH   3   4
ATOM      4  N   UNL     1      -0.143   0.558   6.235  1.00  0.00    -0.351 N 
ATOM      5  C   UNL     1      -0.100   0.561   4.878  1.00  0.00     0.281 C 
ATOM      6  O   UNL     1      -1.111   0.076   4.352  1.00  0.00    -0.268 OA
ATOM      7  H   UNL     1      -0.936   0.103   6.601  1.00  0.00     0.163 HD
BRANCH   5   8
ATOM      8  C   UNL     1       1.102   1.150   4.023  1.00  0.00     0.176 C 
ATOM      9  C   UNL     1       2.505   0.665   4.431  1.00  0.00     0.080 C 
ATOM     10  C   UNL     1       1.145   2.692   4.128  1.00  0.00     0.094 C 
ATOM     11  C   UNL     1       3.286   1.840   5.017  1.00  0.00     0.022 C 
ATOM     12  C   UNL     1       2.375   3.063   4.959  1.00  0.00     0.058 C 
BRANCH   8  13
ATOM     13  N   UNL     1       0.842   0.821   2.587  1.00  0.00    -0.334 N 
ATOM     14  H   UNL     1      -0.103   1.130   2.358  1.00  0.00     0.347 HD
ATOM     15  H   UNL     1       1.567   1.298   2.051  1.00  0.00     0.347 HD
BRANCH  13  16
ATOM     16  C   UNL     1       0.950  -0.601   2.242  1.00  0.00     0.261 C 
BRANCH  16  17
ATOM     17  C   UNL     1       0.305  -0.904   0.886  1.00  0.00     0.058 C 
ATOM     18  C   UNL     1       0.883  -0.092  -0.264  1.00  0.00     0.010 C 
ENDBRANCH  16  17
ENDBRANCH  13  16
ENDBRANCH   8  13
BRANCH  12  19
ATOM     19  S   UNL     1       3.181   4.643   4.473  1.00  0.00    -0.122 SA
BRANCH  19  20
ATOM     20  C   UNL     1       4.213   4.143   3.110  1.00  0.00     0.008 A 
ATOM     21  C   UNL     1       5.591   3.991   3.312  1.00  0.00     0.016 A 
ATOM     22  C   UNL     1       3.675   3.914   1.841  1.00  0.00     0.016 A 
ATOM     23  C   UNL     1       6.415   3.570   2.265  1.00  0.00     0.021 A 
ATOM     24  C   UNL     1       4.499   3.495   0.793  1.00  0.00     0.021 A 
ATOM     25  C   UNL     1       5.864   3.319   1.011  1.00  0.00     0.041 A 
ATOM     26  Cl  UNL     1       6.875   2.796  -0.278  1.00  0.00    -0.084 Cl
ENDBRANCH  19  20
ENDBRANCH  12  19
ENDBRANCH   5   8
ENDBRANCH   3   4
ENDBRANCH   2   3
ENDBRANCH   1   2
BRANCH   1  27
ATOM     27  C   UNL     1       0.047   1.034  10.255  1.00  0.00     0.002 C 
BRANCH  27  28
ATOM     28  C   UNL     1       1.353   1.678  10.730  1.00  0.00     0.021 C 
BRANCH  28  29
ATOM     29  C   UNL     1       1.180   3.058  11.355  1.00  0.00     0.116 C 
BRANCH  29  30
ATOM     30  N   UNL     1       0.298   3.015  12.511  1.00  0.00    -0.352 N 
ATOM     31  C   UNL     1       0.545   3.375  13.807  1.00  0.00     0.251 C 
ATOM     32  H   UNL     1      -0.610   2.679  12.334  1.00  0.00     0.163 HD
ATOM     33  O   UNL     1      -0.233   3.039  14.702  1.00  0.00    -0.269 OA
BRANCH  31  34
ATOM     34  C   UNL     1       1.746   4.163  14.139  1.00  0.00     0.039 A 
ATOM     35  C   UNL     1       2.486   3.828  15.275  1.00  0.00     0.014 A 
ATOM     36  C   UNL     1       2.124   5.252  13.346  1.00  0.00     0.014 A 
ATOM     37  C   UNL     1       3.631   4.558  15.594  1.00  0.00     0.010 A 
ATOM     38  C   UNL     1       3.305   5.931  13.623  1.00  0.00     0.010 A 
ATOM     39  C   UNL     1       4.063   5.599  14.755  1.00  0.00    -0.014 A 
BRANCH  39  40
ATOM     40  C   UNL     1       5.297   6.364  15.057  1.00  0.00     0.031 A 
ATOM     41  C   UNL     1       5.213   7.829  15.381  1.00  0.00     0.074 A 
ATOM     42  C   UNL     1       6.494   5.752  14.979  1.00  0.00     0.049 A 
ATOM     43  N   UNL     1       6.178   8.685  15.605  1.00  0.00    -0.248 NA
ATOM     44  C   UNL     1       3.866   8.418  15.434  1.00  0.00     0.031 C 
ATOM     45  C   UNL     1       6.703   4.346  14.631  1.00  0.00     0.029 A 
ATOM     46  N   UNL     1       7.762   6.238  15.176  1.00  0.00    -0.354 N 
ATOM     47  C   UNL     1       5.556   9.909  15.811  1.00  0.00     0.074 A 
ATOM     48  C   UNL     1       4.137   9.699  15.629  1.00  0.00     0.031 C 
ATOM     49  C   UNL     1       8.018   4.077  14.661  1.00  0.00     0.029 A 
ATOM     50  C   UNL     1       8.745   5.298  14.991  1.00  0.00     0.049 A 
ATOM     51  H   UNL     1       7.948   7.171  15.427  1.00  0.00     0.167 HD
ATOM     52  C   UNL     1       6.118  11.095  16.145  1.00  0.00     0.037 A 
ATOM     53  C   UNL     1      10.084   5.413  15.072  1.00  0.00     0.037 A 
ATOM     54  C   UNL     1       7.530  11.291  16.346  1.00  0.00     0.049 A 
ATOM     55  C   UNL     1      10.683   6.745  15.435  1.00  0.00     0.074 A 
ATOM     56  C   UNL     1       8.195  12.439  16.739  1.00  0.00     0.029 A 
ATOM     57  N   UNL     1       8.495  10.311  16.166  1.00  0.00    -0.354 N 
ATOM     58  N   UNL     1      10.082   7.881  15.693  1.00  0.00    -0.248 NA
ATOM     59  C   UNL     1      12.148   6.808  15.526  1.00  0.00     0.031 C 
ATOM     60  C   UNL     1       9.567  12.168  16.749  1.00  0.00     0.029 A 
ATOM     61  C   UNL     1       9.753  10.835  16.418  1.00  0.00     0.049 A 
ATOM     62  H   UNL     1       8.313   9.382  15.898  1.00  0.00     0.167 HD
ATOM     63  C   UNL     1      11.089   8.784  16.006  1.00  0.00     0.074 A 
ATOM     64  C   UNL     1      12.340   8.059  15.920  1.00  0.00     0.031 C 
ATOM     65  C   UNL     1      10.987  10.095  16.337  1.00  0.00     0.037 A 
BRANCH  52  66
ATOM     66  C   UNL     1       5.202  12.273  16.317  1.00  0.00     0.064 A 
ATOM     67  C   UNL     1       4.300  12.355  17.390  1.00  0.00     0.173 A 
ATOM     68  C   UNL     1       5.248  13.350  15.418  1.00  0.00     0.173 A 
ATOM     69  F   UNL     1       4.207  11.348  18.272  1.00  0.00    -0.203 F 
ATOM     70  C   UNL     1       3.456  13.453  17.536  1.00  0.00     0.198 A 
ATOM     71  C   UNL     1       4.426  14.461  15.587  1.00  0.00     0.198 A 
ATOM     72  F   UNL     1       6.096  13.327  14.379  1.00  0.00    -0.203 F 
ATOM     73  F   UNL     1       2.566  13.483  18.538  1.00  0.00    -0.200 F 
ATOM     74  C   UNL     1       3.526  14.508  16.640  1.00  0.00     0.200 A 
ATOM     75  F   UNL     1       4.505  15.487  14.727  1.00  0.00    -0.200 F 
ATOM     76  F   UNL     1       2.719  15.568  16.787  1.00  0.00    -0.200 F 
ENDBRANCH  52  66
BRANCH  53  77
ATOM     77  C   UNL     1      10.948   4.228  14.830  1.00  0.00     0.064 A 
ATOM     78  C   UNL     1      11.671   3.639  15.877  1.00  0.00     0.173 A 
ATOM     79  C   UNL     1      11.072   3.662  13.553  1.00  0.00     0.173 A 
ATOM     80  F   UNL     1      11.599   4.156  17.113  1.00  0.00    -0.203 F 
ATOM     81  C   UNL     1      12.504   2.546  15.652  1.00  0.00     0.198 A 
ATOM     82  C   UNL     1      11.882   2.550  13.335  1.00  0.00     0.198 A 
ATOM     83  F   UNL     1      10.396   4.182  12.518  1.00  0.00    -0.203 F 
ATOM     84  F   UNL     1      13.220   2.033  16.661  1.00  0.00    -0.200 F 
ATOM     85  C   UNL     1      12.604   1.998  14.382  1.00  0.00     0.200 A 
ATOM     86  F   UNL     1      11.964   2.013  12.109  1.00  0.00    -0.200 F 
ATOM     87  F   UNL     1      13.402   0.943  14.166  1.00  0.00    -0.200 F 
ENDBRANCH  53  77
BRANCH  65  88
ATOM     88  C   UNL     1      12.258  10.821  16.672  1.00  0.00     0.064 A 
ATOM     89  C   UNL     1      13.204  11.146  15.688  1.00  0.00     0.173 A 
ATOM     90  C   UNL     1      12.513  11.231  17.989  1.00  0.00     0.173 A 
ATOM     91  F   UNL     1      13.014  10.763  14.416  1.00  0.00    -0.203 F 
ATOM     92  C   UNL     1      14.370  11.831  16.017  1.00  0.00     0.198 A 
ATOM     93  C   UNL     1      13.665  11.944  18.308  1.00  0.00     0.198 A 
ATOM     94  F   UNL     1      11.637  10.951  18.966  1.00  0.00    -0.203 F 
ATOM     95  F   UNL     1      15.284  12.086  15.070  1.00  0.00    -0.200 F 
ATOM     96  C   UNL     1      14.596  12.236  17.324  1.00  0.00     0.200 A 
ATOM     97  F   UNL     1      13.873  12.348  19.569  1.00  0.00    -0.200 F 
ATOM     98  F   UNL     1      15.716  12.903  17.636  1.00  0.00    -0.200 F 
ENDBRANCH  65  88
ENDBRANCH  39  40
ENDBRANCH  31  34
ENDBRANCH  29  30
ENDBRANCH  28  29
ENDBRANCH  27  28
ENDBRANCH   1  27
TORSDOF 18
