REMARK SMILES COc1ccc([N+](=O)[O-])cc1C(=O)N[C@@H](Cc1c[nH]c2ccccc12)C(=O)NCCCCCCNC(=O)c1ccc(-c2c3nc(c(-c4c(F)c(F)c(F)c(F)c4F)c4ccc([nH]4)c(-c4c(F)c(F)c(F)c(F)c4F)c4nc(c(-c5c(F)c(F)c(F)c(F)c5F)c5ccc2[nH]5)C=C4)C=C3)cc1
REMARK SMILES IDX 31 1 30 2 29 3 28 4 26 5 27 6 15 8 14 9 12 10 13 11 11 13
REMARK SMILES IDX 3 14 4 15 5 16 10 17 6 18 2 19 1 20 7 21 8 22 9 23 16 24
REMARK SMILES IDX 17 25 18 26 25 27 19 28 20 29 24 30 21 32 23 33 22 34 32 35
REMARK SMILES IDX 33 36 34 37 35 38 36 39 37 41 38 42 39 43 100 44 40 45 99 46
REMARK SMILES IDX 41 47 42 48 43 49 93 50 44 51 98 52 92 53 94 54 45 55 97 56
REMARK SMILES IDX 91 57 90 58 46 60 78 61 58 62 77 63 59 64 62 65 76 66 95 67
REMARK SMILES IDX 60 68 61 69 75 71 96 72 63 73 47 74 48 75 56 76 49 77 50 78
REMARK SMILES IDX 54 79 57 80 51 81 52 82 55 83 53 84 79 85 80 86 88 87 81 88
REMARK SMILES IDX 82 89 86 90 89 91 83 92 84 93 87 94 85 95 64 96 65 97 73 98
REMARK SMILES IDX 66 99 67 100 71 101 74 102 68 103 69 104 72 105 70 106
REMARK H PARENT 28 7 14 12 19 31 35 40 94 59 62 70
REMARK Flexibility Score: inf
ROOT
ATOM      1  C   UNL     1       2.600   3.793   3.647  1.00  0.00     0.002 C 
ENDROOT
BRANCH   1   2
ATOM      2  C   UNL     1       2.886   2.546   2.814  1.00  0.00     0.021 C 
BRANCH   2   3
ATOM      3  C   UNL     1       1.938   1.356   3.023  1.00  0.00     0.116 C 
BRANCH   3   4
ATOM      4  N   UNL     1       1.233   0.979   1.800  1.00  0.00    -0.354 N 
ATOM      5  C   UNL     1       1.039  -0.349   1.455  1.00  0.00     0.242 C 
ATOM      6  O   UNL     1       0.046  -0.925   1.903  1.00  0.00    -0.273 OA
ATOM      7  H   UNL     1       0.888   1.685   1.207  1.00  0.00     0.163 HD
BRANCH   5   8
ATOM      8  C   UNL     1       2.089  -1.080   0.556  1.00  0.00     0.176 C 
BRANCH   8   9
ATOM      9  N   UNL     1       2.656  -0.113  -0.394  1.00  0.00    -0.340 N 
ATOM     10  C   UNL     1       2.659   0.028  -1.749  1.00  0.00     0.255 C 
ATOM     11  O   UNL     1       3.346   0.935  -2.225  1.00  0.00    -0.269 OA
ATOM     12  H   UNL     1       3.154   0.606   0.058  1.00  0.00     0.164 HD
BRANCH  10  13
ATOM     13  C   UNL     1       1.870  -0.792  -2.697  1.00  0.00     0.088 A 
ATOM     14  C   UNL     1       0.504  -1.062  -2.550  1.00  0.00     0.132 A 
ATOM     15  C   UNL     1      -0.220  -1.690  -3.575  1.00  0.00     0.054 A 
ATOM     16  C   UNL     1       0.386  -1.961  -4.801  1.00  0.00     0.089 A 
ATOM     17  C   UNL     1       2.483  -1.079  -3.934  1.00  0.00     0.103 A 
ATOM     18  C   UNL     1       1.734  -1.635  -4.984  1.00  0.00     0.270 A 
BRANCH  14  19
ATOM     19  O   UNL     1      -0.208  -0.710  -1.436  1.00  0.00    -0.496 OA
ATOM     20  C   UNL     1      -0.668   0.639  -1.542  1.00  0.00     0.278 C 
ENDBRANCH  14  19
BRANCH  18  21
ATOM     21  N   UNL     1       2.348  -1.813  -6.308  1.00  0.00     0.062 N 
ATOM     22  O   UNL     1       1.611  -2.170  -7.239  1.00  0.00    -0.258 OA
ATOM     23  O   UNL     1       3.559  -1.583  -6.419  1.00  0.00    -0.258 OA
ENDBRANCH  18  21
ENDBRANCH  10  13
ENDBRANCH   8   9
BRANCH   8  24
ATOM     24  C   UNL     1       3.151  -1.939   1.338  1.00  0.00     0.072 C 
BRANCH  24  25
ATOM     25  C   UNL     1       4.454  -1.250   1.695  1.00  0.00    -0.020 A 
ATOM     26  C   UNL     1       4.574  -0.036   2.334  1.00  0.00     0.087 A 
ATOM     27  C   UNL     1       5.751  -1.327   1.100  1.00  0.00     0.003 A 
ATOM     28  N   UNL     1       5.091   0.764   1.331  1.00  0.00    -0.361 N 
ATOM     29  C   UNL     1       5.990  -0.023   0.657  1.00  0.00     0.046 A 
ATOM     30  C   UNL     1       6.775  -2.270   0.914  1.00  0.00     0.010 A 
ATOM     31  H   UNL     1       4.862   1.702   1.140  1.00  0.00     0.166 HD
ATOM     32  C   UNL     1       7.029   0.356  -0.179  1.00  0.00     0.026 A 
ATOM     33  C   UNL     1       7.956  -1.840   0.278  1.00  0.00     0.001 A 
ATOM     34  C   UNL     1       8.049  -0.577  -0.317  1.00  0.00     0.002 A 
ENDBRANCH  24  25
ENDBRANCH   8  24
ENDBRANCH   5   8
ENDBRANCH   3   4
ENDBRANCH   2   3
ENDBRANCH   1   2
BRANCH   1  35
ATOM     35  C   UNL     1       2.566   3.574   5.163  1.00  0.00     0.002 C 
BRANCH  35  36
ATOM     36  C   UNL     1       3.759   2.827   5.773  1.00  0.00     0.021 C 
BRANCH  36  37
ATOM     37  C   UNL     1       5.124   3.478   5.561  1.00  0.00     0.116 C 
BRANCH  37  38
ATOM     38  N   UNL     1       5.181   4.817   6.121  1.00  0.00    -0.352 N 
ATOM     39  C   UNL     1       5.951   5.317   7.140  1.00  0.00     0.251 C 
ATOM     40  H   UNL     1       4.571   5.468   5.703  1.00  0.00     0.163 HD
ATOM     41  O   UNL     1       5.678   6.405   7.634  1.00  0.00    -0.269 OA
BRANCH  39  42
ATOM     42  C   UNL     1       7.111   4.554   7.650  1.00  0.00     0.039 A 
ATOM     43  C   UNL     1       7.335   4.511   9.029  1.00  0.00     0.014 A 
ATOM     44  C   UNL     1       8.008   3.934   6.776  1.00  0.00     0.014 A 
ATOM     45  C   UNL     1       8.431   3.808   9.534  1.00  0.00     0.010 A 
ATOM     46  C   UNL     1       9.065   3.180   7.283  1.00  0.00     0.010 A 
ATOM     47  C   UNL     1       9.292   3.116   8.666  1.00  0.00    -0.014 A 
BRANCH  47  48
ATOM     48  C   UNL     1      10.429   2.322   9.195  1.00  0.00     0.031 A 
ATOM     49  C   UNL     1      11.846   2.723   8.888  1.00  0.00     0.074 A 
ATOM     50  C   UNL     1      10.181   1.204   9.904  1.00  0.00     0.049 A 
ATOM     51  N   UNL     1      12.965   2.131   9.222  1.00  0.00    -0.248 NA
ATOM     52  C   UNL     1      12.030   3.935   8.075  1.00  0.00     0.031 C 
ATOM     53  C   UNL     1       8.850   0.681  10.216  1.00  0.00     0.029 A 
ATOM     54  N   UNL     1      11.037   0.298  10.480  1.00  0.00    -0.354 N 
ATOM     55  C   UNL     1      13.980   2.885   8.649  1.00  0.00     0.074 A 
ATOM     56  C   UNL     1      13.345   3.953   7.907  1.00  0.00     0.031 C 
ATOM     57  C   UNL     1       8.978  -0.444  10.938  1.00  0.00     0.029 A 
ATOM     58  C   UNL     1      10.396  -0.739  11.113  1.00  0.00     0.049 A 
ATOM     59  H   UNL     1      12.017   0.384  10.444  1.00  0.00     0.167 HD
ATOM     60  C   UNL     1      15.319   2.713   8.749  1.00  0.00     0.037 A 
ATOM     61  C   UNL     1      10.897  -1.812  11.753  1.00  0.00     0.037 A 
ATOM     62  C   UNL     1      15.945   1.668   9.517  1.00  0.00     0.049 A 
ATOM     63  C   UNL     1      12.390  -1.966  11.868  1.00  0.00     0.074 A 
ATOM     64  C   UNL     1      17.294   1.459   9.751  1.00  0.00     0.029 A 
ATOM     65  N   UNL     1      15.264   0.653  10.171  1.00  0.00    -0.354 N 
ATOM     66  N   UNL     1      13.339  -1.195  11.396  1.00  0.00    -0.248 NA
ATOM     67  C   UNL     1      12.880  -3.133  12.613  1.00  0.00     0.031 C 
ATOM     68  C   UNL     1      17.430   0.289  10.505  1.00  0.00     0.029 A 
ATOM     69  C   UNL     1      16.166  -0.202  10.786  1.00  0.00     0.049 A 
ATOM     70  H   UNL     1      14.285   0.553  10.195  1.00  0.00     0.167 HD
ATOM     71  C   UNL     1      14.535  -1.768  11.806  1.00  0.00     0.074 A 
ATOM     72  C   UNL     1      14.191  -2.940  12.583  1.00  0.00     0.031 C 
ATOM     73  C   UNL     1      15.805  -1.363  11.558  1.00  0.00     0.037 A 
BRANCH  60  74
ATOM     74  C   UNL     1      16.207   3.677   8.016  1.00  0.00     0.064 A 
ATOM     75  C   UNL     1      16.344   5.012   8.425  1.00  0.00     0.173 A 
ATOM     76  C   UNL     1      16.976   3.244   6.925  1.00  0.00     0.173 A 
ATOM     77  F   UNL     1      15.624   5.479   9.457  1.00  0.00    -0.203 F 
ATOM     78  C   UNL     1      17.199   5.883   7.756  1.00  0.00     0.198 A 
ATOM     79  C   UNL     1      17.852   4.111   6.276  1.00  0.00     0.198 A 
ATOM     80  F   UNL     1      16.889   1.976   6.496  1.00  0.00    -0.203 F 
ATOM     81  F   UNL     1      17.282   7.165   8.140  1.00  0.00    -0.200 F 
ATOM     82  C   UNL     1      17.959   5.430   6.688  1.00  0.00     0.200 A 
ATOM     83  F   UNL     1      18.596   3.667   5.253  1.00  0.00    -0.200 F 
ATOM     84  F   UNL     1      18.791   6.267   6.053  1.00  0.00    -0.200 F 
ENDBRANCH  60  74
BRANCH  61  85
ATOM     85  C   UNL     1       9.979  -2.818  12.350  1.00  0.00     0.064 A 
ATOM     86  C   UNL     1       9.870  -2.962  13.740  1.00  0.00     0.173 A 
ATOM     87  C   UNL     1       9.201  -3.661  11.543  1.00  0.00     0.173 A 
ATOM     88  F   UNL     1      10.608  -2.192  14.553  1.00  0.00    -0.203 F 
ATOM     89  C   UNL     1       9.037  -3.929  14.300  1.00  0.00     0.198 A 
ATOM     90  C   UNL     1       8.345  -4.606  12.105  1.00  0.00     0.198 A 
ATOM     91  F   UNL     1       9.263  -3.558  10.207  1.00  0.00    -0.203 F 
ATOM     92  F   UNL     1       8.991  -4.080  15.630  1.00  0.00    -0.200 F 
ATOM     93  C   UNL     1       8.272  -4.747  13.482  1.00  0.00     0.200 A 
ATOM     94  F   UNL     1       7.596  -5.383  11.312  1.00  0.00    -0.200 F 
ATOM     95  F   UNL     1       7.470  -5.675  14.021  1.00  0.00    -0.200 F 
ENDBRANCH  61  85
BRANCH  73  96
ATOM     96  C   UNL     1      16.914  -2.181  12.154  1.00  0.00     0.064 A 
ATOM     97  C   UNL     1      17.225  -3.461  11.671  1.00  0.00     0.173 A 
ATOM     98  C   UNL     1      17.694  -1.665  13.200  1.00  0.00     0.173 A 
ATOM     99  F   UNL     1      16.498  -4.005  10.683  1.00  0.00    -0.203 F 
ATOM    100  C   UNL     1      18.258  -4.205  12.234  1.00  0.00     0.198 A 
ATOM    101  C   UNL     1      18.746  -2.399  13.738  1.00  0.00     0.198 A 
ATOM    102  F   UNL     1      17.442  -0.443  13.692  1.00  0.00    -0.203 F 
ATOM    103  F   UNL     1      18.503  -5.447  11.793  1.00  0.00    -0.200 F 
ATOM    104  C   UNL     1      19.021  -3.672  13.262  1.00  0.00     0.200 A 
ATOM    105  F   UNL     1      19.492  -1.877  14.721  1.00  0.00    -0.200 F 
ATOM    106  F   UNL     1      20.019  -4.388  13.798  1.00  0.00    -0.200 F 
ENDBRANCH  73  96
ENDBRANCH  47  48
ENDBRANCH  39  42
ENDBRANCH  37  38
ENDBRANCH  36  37
ENDBRANCH  35  36
ENDBRANCH   1  35
TORSDOF 19
