REMARK SMILES COC(=O)c1ccc2c(c1)=N[C@H](c1cn(CCC(=O)NCCCCCCNC(=O)c3ccc(-c4c5nc(c(-c6c(F)c(F)c(F)c(F)c6F)c6ccc([nH]6)c(-c6c(F)c(F)c(F)c(F)c6F)c6nc(c(-c7c(F)c(F)c(F)c(F)c7F)c7ccc4[nH]7)C=C6)C=C5)cc3)c3ccccc13)N=2
REMARK SMILES IDX 22 1 21 2 20 3 18 4 19 5 17 7 16 8 15 9 13 10 14 11 98 12
REMARK SMILES IDX 93 13 97 14 94 15 96 16 95 17 12 18 5 19 6 20 10 21 7 22
REMARK SMILES IDX 9 23 8 24 11 25 99 26 3 27 4 28 2 29 1 30 23 31 24 32 25 33
REMARK SMILES IDX 26 34 27 35 28 36 29 38 30 39 31 40 92 41 32 42 91 43 33 44
REMARK SMILES IDX 34 45 35 46 85 47 36 48 90 49 84 50 86 51 37 52 89 53 83 54
REMARK SMILES IDX 82 55 38 57 70 58 50 59 69 60 51 61 54 62 68 63 87 64 52 65
REMARK SMILES IDX 53 66 67 68 88 69 55 70 39 71 40 72 48 73 41 74 42 75 46 76
REMARK SMILES IDX 49 77 43 78 44 79 47 80 45 81 71 82 72 83 80 84 73 85 74 86
REMARK SMILES IDX 78 87 81 88 75 89 76 90 79 91 77 92 56 93 57 94 65 95 58 96
REMARK SMILES IDX 59 97 63 98 66 99 60 100 61 101 64 102 62 103
REMARK H PARENT 20 6 27 37 86 56 54 67
REMARK Flexibility Score: inf
ROOT
ATOM      1  C   UNL     1      -2.410 -10.489  -3.565  1.00  0.00     0.021 C 
ENDROOT
BRANCH   1   2
ATOM      2  C   UNL     1      -1.708 -11.590  -4.391  1.00  0.00     0.116 C 
BRANCH   2   3
ATOM      3  N   UNL     1      -1.722 -11.412  -5.836  1.00  0.00    -0.356 N 
ATOM      4  C   UNL     1      -0.733 -11.341  -6.774  1.00  0.00     0.221 C 
ATOM      5  O   UNL     1      -1.079 -11.326  -7.959  1.00  0.00    -0.275 OA
ATOM      6  H   UNL     1      -2.628 -11.326  -6.213  1.00  0.00     0.163 HD
BRANCH   4   7
ATOM      7  C   UNL     1       0.742 -11.359  -6.412  1.00  0.00     0.122 C 
BRANCH   7   8
ATOM      8  C   UNL     1       1.544 -10.221  -7.096  1.00  0.00     0.132 C 
BRANCH   8   9
ATOM      9  N   UNL     1       1.538  -8.939  -6.369  1.00  0.00    -0.347 N 
ATOM     10  C   UNL     1       0.629  -8.431  -4.414  1.00  0.00     0.024 A 
ATOM     11  C   UNL     1       1.795  -8.914  -5.017  1.00  0.00     0.094 A 
ATOM     12  C   UNL     1      -0.309  -8.299  -5.509  1.00  0.00     0.007 A 
ATOM     13  C   UNL     1       0.568  -7.974  -6.535  1.00  0.00     0.048 A 
ATOM     14  C   UNL     1      -1.629  -7.898  -5.734  1.00  0.00     0.011 A 
ATOM     15  C   UNL     1       0.435  -6.739  -7.184  1.00  0.00     0.027 A 
ATOM     16  C   UNL     1      -1.889  -6.780  -6.518  1.00  0.00     0.001 A 
ATOM     17  C   UNL     1      -0.821  -6.111  -7.091  1.00  0.00     0.002 A 
BRANCH  10  18
ATOM     18  C   UNL     1       0.587  -8.052  -2.961  1.00  0.00     0.255 C 
ATOM     19  C   UNL     1       0.841  -3.814  -1.401  1.00  0.00     0.062 A 
ATOM     20  C   UNL     1      -0.514  -4.151  -0.988  1.00  0.00     0.018 A 
ATOM     21  C   UNL     1       1.649  -4.712  -1.994  1.00  0.00     0.046 A 
ATOM     22  C   UNL     1      -1.110  -5.310  -1.299  1.00  0.00     0.031 A 
ATOM     23  C   UNL     1       1.100  -6.043  -2.277  1.00  0.00     0.087 A 
ATOM     24  C   UNL     1      -0.329  -6.311  -2.036  1.00  0.00     0.086 A 
ATOM     25  N   UNL     1       1.704  -7.079  -2.735  1.00  0.00    -0.252 NA
ATOM     26  N   UNL     1      -0.690  -7.464  -2.482  1.00  0.00    -0.252 NA
BRANCH  19  27
ATOM     27  C   UNL     1       1.380  -2.436  -1.231  1.00  0.00     0.337 C 
ATOM     28  O   UNL     1       2.316  -1.977  -1.890  1.00  0.00    -0.246 OA
BRANCH  27  29
ATOM     29  O   UNL     1       0.689  -1.770  -0.277  1.00  0.00    -0.465 OA
ATOM     30  C   UNL     1       1.068  -0.403  -0.111  1.00  0.00     0.282 C 
ENDBRANCH  27  29
ENDBRANCH  19  27
ENDBRANCH  10  18
ENDBRANCH   8   9
ENDBRANCH   7   8
ENDBRANCH   4   7
ENDBRANCH   2   3
ENDBRANCH   1   2
BRANCH   1  31
ATOM     31  C   UNL     1      -3.768  -9.973  -4.075  1.00  0.00     0.002 C 
BRANCH  31  32
ATOM     32  C   UNL     1      -4.849  -9.741  -3.024  1.00  0.00     0.002 C 
BRANCH  32  33
ATOM     33  C   UNL     1      -4.439  -8.885  -1.830  1.00  0.00     0.021 C 
BRANCH  33  34
ATOM     34  C   UNL     1      -3.823  -7.523  -2.154  1.00  0.00     0.116 C 
BRANCH  34  35
ATOM     35  N   UNL     1      -4.709  -6.412  -2.473  1.00  0.00    -0.352 N 
ATOM     36  C   UNL     1      -5.537  -5.627  -1.710  1.00  0.00     0.251 C 
ATOM     37  H   UNL     1      -4.716  -6.177  -3.429  1.00  0.00     0.163 HD
ATOM     38  O   UNL     1      -6.016  -4.604  -2.194  1.00  0.00    -0.269 OA
BRANCH  36  39
ATOM     39  C   UNL     1      -5.977  -6.058  -0.371  1.00  0.00     0.039 A 
ATOM     40  C   UNL     1      -5.163  -6.775   0.497  1.00  0.00     0.014 A 
ATOM     41  C   UNL     1      -7.324  -5.835  -0.049  1.00  0.00     0.014 A 
ATOM     42  C   UNL     1      -5.747  -7.518   1.500  1.00  0.00     0.010 A 
ATOM     43  C   UNL     1      -7.891  -6.488   1.032  1.00  0.00     0.010 A 
ATOM     44  C   UNL     1      -7.123  -7.411   1.736  1.00  0.00    -0.014 A 
BRANCH  44  45
ATOM     45  C   UNL     1      -7.665  -8.214   2.826  1.00  0.00     0.031 A 
ATOM     46  C   UNL     1      -6.899  -8.087   4.101  1.00  0.00     0.074 A 
ATOM     47  C   UNL     1      -8.787  -8.952   2.719  1.00  0.00     0.049 A 
ATOM     48  N   UNL     1      -6.313  -9.022   4.778  1.00  0.00    -0.248 NA
ATOM     49  C   UNL     1      -6.598  -6.726   4.577  1.00  0.00     0.031 C 
ATOM     50  C   UNL     1      -9.746  -9.013   1.615  1.00  0.00     0.029 A 
ATOM     51  N   UNL     1      -9.359  -9.756   3.656  1.00  0.00    -0.354 N 
ATOM     52  C   UNL     1      -5.696  -8.387   5.854  1.00  0.00     0.074 A 
ATOM     53  C   UNL     1      -5.777  -6.975   5.596  1.00  0.00     0.031 C 
ATOM     54  C   UNL     1     -10.887  -9.598   2.046  1.00  0.00     0.029 A 
ATOM     55  C   UNL     1     -10.688 -10.067   3.405  1.00  0.00     0.049 A 
ATOM     56  H   UNL     1      -8.871 -10.088   4.444  1.00  0.00     0.167 HD
ATOM     57  C   UNL     1      -5.340  -9.073   6.975  1.00  0.00     0.037 A 
ATOM     58  C   UNL     1     -11.565 -10.584   4.302  1.00  0.00     0.037 A 
ATOM     59  C   UNL     1      -5.176 -10.474   6.690  1.00  0.00     0.049 A 
ATOM     60  C   UNL     1     -10.759 -11.232   5.373  1.00  0.00     0.074 A 
ATOM     61  C   UNL     1      -4.328 -11.195   5.871  1.00  0.00     0.029 A 
ATOM     62  N   UNL     1      -6.193 -11.337   7.018  1.00  0.00    -0.354 N 
ATOM     63  N   UNL     1     -10.036 -12.303   5.181  1.00  0.00    -0.248 NA
ATOM     64  C   UNL     1     -10.377 -10.415   6.518  1.00  0.00     0.031 C 
ATOM     65  C   UNL     1      -5.130 -12.251   5.349  1.00  0.00     0.029 A 
ATOM     66  C   UNL     1      -6.394 -12.147   5.931  1.00  0.00     0.049 A 
ATOM     67  H   UNL     1      -6.684 -11.368   7.871  1.00  0.00     0.167 HD
ATOM     68  C   UNL     1      -8.874 -12.078   5.904  1.00  0.00     0.074 A 
ATOM     69  C   UNL     1      -9.168 -10.929   6.758  1.00  0.00     0.031 C 
ATOM     70  C   UNL     1      -7.689 -12.647   5.539  1.00  0.00     0.037 A 
BRANCH  57  71
ATOM     71  C   UNL     1      -5.517  -8.538   8.379  1.00  0.00     0.064 A 
ATOM     72  C   UNL     1      -5.160  -9.359   9.469  1.00  0.00     0.173 A 
ATOM     73  C   UNL     1      -6.301  -7.410   8.708  1.00  0.00     0.173 A 
ATOM     74  F   UNL     1      -4.405 -10.454   9.287  1.00  0.00    -0.203 F 
ATOM     75  C   UNL     1      -5.655  -9.137  10.757  1.00  0.00     0.198 A 
ATOM     76  C   UNL     1      -6.753  -7.166  10.003  1.00  0.00     0.198 A 
ATOM     77  F   UNL     1      -6.752  -6.551   7.790  1.00  0.00    -0.203 F 
ATOM     78  F   UNL     1      -5.403 -10.026  11.727  1.00  0.00    -0.200 F 
ATOM     79  C   UNL     1      -6.465  -8.049  11.019  1.00  0.00     0.200 A 
ATOM     80  F   UNL     1      -7.544  -6.108  10.233  1.00  0.00    -0.200 F 
ATOM     81  F   UNL     1      -7.003  -7.875  12.233  1.00  0.00    -0.200 F 
ENDBRANCH  57  71
BRANCH  58  82
ATOM     82  C   UNL     1     -12.997 -10.223   4.470  1.00  0.00     0.064 A 
ATOM     83  C   UNL     1     -13.838 -10.967   5.314  1.00  0.00     0.173 A 
ATOM     84  C   UNL     1     -13.511  -8.990   4.016  1.00  0.00     0.173 A 
ATOM     85  F   UNL     1     -13.415 -12.129   5.834  1.00  0.00    -0.203 F 
ATOM     86  C   UNL     1     -15.101 -10.497   5.697  1.00  0.00     0.198 A 
ATOM     87  C   UNL     1     -14.774  -8.528   4.389  1.00  0.00     0.198 A 
ATOM     88  F   UNL     1     -12.767  -8.158   3.275  1.00  0.00    -0.203 F 
ATOM     89  F   UNL     1     -15.847 -11.207   6.554  1.00  0.00    -0.200 F 
ATOM     90  C   UNL     1     -15.564  -9.274   5.241  1.00  0.00     0.200 A 
ATOM     91  F   UNL     1     -15.192  -7.326   3.966  1.00  0.00    -0.200 F 
ATOM     92  F   UNL     1     -16.747  -8.797   5.652  1.00  0.00    -0.200 F 
ENDBRANCH  58  82
BRANCH  70  93
ATOM     93  C   UNL     1      -7.693 -13.684   4.451  1.00  0.00     0.064 A 
ATOM     94  C   UNL     1      -8.045 -13.406   3.119  1.00  0.00     0.173 A 
ATOM     95  C   UNL     1      -7.110 -14.930   4.717  1.00  0.00     0.173 A 
ATOM     96  F   UNL     1      -8.513 -12.203   2.766  1.00  0.00    -0.203 F 
ATOM     97  C   UNL     1      -7.837 -14.340   2.105  1.00  0.00     0.198 A 
ATOM     98  C   UNL     1      -6.870 -15.847   3.697  1.00  0.00     0.198 A 
ATOM     99  F   UNL     1      -6.700 -15.227   5.960  1.00  0.00    -0.203 F 
ATOM    100  F   UNL     1      -8.166 -14.043   0.839  1.00  0.00    -0.200 F 
ATOM    101  C   UNL     1      -7.236 -15.554   2.394  1.00  0.00     0.200 A 
ATOM    102  F   UNL     1      -6.237 -16.996   3.972  1.00  0.00    -0.200 F 
ATOM    103  F   UNL     1      -6.974 -16.425   1.409  1.00  0.00    -0.200 F 
ENDBRANCH  70  93
ENDBRANCH  44  45
ENDBRANCH  36  39
ENDBRANCH  34  35
ENDBRANCH  33  34
ENDBRANCH  32  33
ENDBRANCH  31  32
ENDBRANCH   1  31
TORSDOF 18
