REMARK SMILES O=C(/C=C/N[C@@H](Cc1c[nH]c2ccccc12)C(=O)NCCCCCCNC(=O)c1ccc(-c2c3nc(c(-c4c(F)c(F)c(F)c(F)c4F)c4ccc([nH]4)c(-c4c(F)c(F)c(F)c(F)c4F)c4nc(c(-c5c(F)c(F)c(F)c(F)c5F)c5ccc2[nH]5)C=C4)C=C3)cc1)c1ccccc1
REMARK SMILES IDX 21 1 20 2 19 3 17 4 18 5 6 7 5 8 4 10 3 11 2 12 1 13 92 14
REMARK SMILES IDX 93 15 97 16 94 17 96 18 95 19 7 20 8 21 9 22 16 23 10 24
REMARK SMILES IDX 11 25 15 26 12 28 14 29 13 30 22 31 23 32 24 33 25 34 26 35
REMARK SMILES IDX 27 36 28 38 29 39 30 40 91 41 31 42 90 43 32 44 33 45 34 46
REMARK SMILES IDX 84 47 35 48 89 49 83 50 85 51 36 52 88 53 82 54 81 55 37 57
REMARK SMILES IDX 69 58 49 59 68 60 50 61 53 62 67 63 86 64 51 65 52 66 66 68
REMARK SMILES IDX 87 69 54 70 38 71 39 72 47 73 40 74 41 75 45 76 48 77 42 78
REMARK SMILES IDX 43 79 46 80 44 81 70 82 71 83 79 84 72 85 73 86 77 87 80 88
REMARK SMILES IDX 74 89 75 90 78 91 76 92 55 93 56 94 64 95 57 96 58 97 62 98
REMARK SMILES IDX 65 99 59 100 60 101 63 102 61 103
REMARK H PARENT 19 6 5 9 10 27 26 37 85 56 53 67
REMARK Flexibility Score: inf
ROOT
ATOM      1  C   UNL     1       4.455  -5.907   2.125  1.00  0.00     0.021 C 
ENDROOT
BRANCH   1   2
ATOM      2  C   UNL     1       5.476  -4.839   2.490  1.00  0.00     0.116 C 
BRANCH   2   3
ATOM      3  N   UNL     1       6.353  -4.469   1.402  1.00  0.00    -0.354 N 
ATOM      4  C   UNL     1       6.999  -3.290   1.160  1.00  0.00     0.242 C 
ATOM      5  O   UNL     1       7.916  -3.328   0.328  1.00  0.00    -0.273 OA
ATOM      6  H   UNL     1       6.509  -5.175   0.734  1.00  0.00     0.163 HD
BRANCH   4   7
ATOM      7  C   UNL     1       6.654  -1.953   1.864  1.00  0.00     0.173 C 
BRANCH   7   8
ATOM      8  N   UNL     1       5.206  -1.685   1.928  1.00  0.00    -0.379 N 
ATOM      9  H   UNL     1       4.704  -2.102   2.664  1.00  0.00     0.160 HD
BRANCH   8  10
ATOM     10  C   UNL     1       4.498  -0.903   1.048  1.00  0.00     0.082 C 
ATOM     11  C   UNL     1       3.176  -0.933   0.846  1.00  0.00     0.070 C 
BRANCH  11  12
ATOM     12  C   UNL     1       2.394  -0.046  -0.060  1.00  0.00     0.187 C 
ATOM     13  O   UNL     1       1.169  -0.134  -0.084  1.00  0.00    -0.289 OA
BRANCH  12  14
ATOM     14  C   UNL     1       3.066   0.999  -0.860  1.00  0.00     0.022 A 
ATOM     15  C   UNL     1       4.104   0.695  -1.747  1.00  0.00     0.012 A 
ATOM     16  C   UNL     1       2.622   2.318  -0.721  1.00  0.00     0.012 A 
ATOM     17  C   UNL     1       4.741   1.725  -2.442  1.00  0.00     0.001 A 
ATOM     18  C   UNL     1       3.258   3.342  -1.422  1.00  0.00     0.001 A 
ATOM     19  C   UNL     1       4.324   3.046  -2.272  1.00  0.00     0.000 A 
ENDBRANCH  12  14
ENDBRANCH  11  12
ENDBRANCH   8  10
ENDBRANCH   7   8
BRANCH   7  20
ATOM     20  C   UNL     1       7.389  -1.702   3.191  1.00  0.00     0.072 C 
BRANCH  20  21
ATOM     21  C   UNL     1       7.207  -2.710   4.284  1.00  0.00    -0.020 A 
ATOM     22  C   UNL     1       7.965  -3.853   4.464  1.00  0.00     0.087 A 
ATOM     23  C   UNL     1       6.269  -2.667   5.367  1.00  0.00     0.003 A 
ATOM     24  N   UNL     1       7.461  -4.544   5.532  1.00  0.00    -0.361 N 
ATOM     25  C   UNL     1       6.410  -3.854   6.089  1.00  0.00     0.046 A 
ATOM     26  C   UNL     1       5.303  -1.734   5.797  1.00  0.00     0.010 A 
ATOM     27  H   UNL     1       7.801  -5.410   5.855  1.00  0.00     0.166 HD
ATOM     28  C   UNL     1       5.594  -4.184   7.177  1.00  0.00     0.026 A 
ATOM     29  C   UNL     1       4.508  -2.029   6.912  1.00  0.00     0.001 A 
ATOM     30  C   UNL     1       4.641  -3.245   7.579  1.00  0.00     0.002 A 
ENDBRANCH  20  21
ENDBRANCH   7  20
ENDBRANCH   4   7
ENDBRANCH   2   3
ENDBRANCH   1   2
BRANCH   1  31
ATOM     31  C   UNL     1       5.033  -7.323   2.022  1.00  0.00     0.002 C 
BRANCH  31  32
ATOM     32  C   UNL     1       5.850  -7.807   3.229  1.00  0.00     0.002 C 
BRANCH  32  33
ATOM     33  C   UNL     1       5.173  -7.663   4.595  1.00  0.00     0.021 C 
BRANCH  33  34
ATOM     34  C   UNL     1       3.815  -8.342   4.718  1.00  0.00     0.116 C 
BRANCH  34  35
ATOM     35  N   UNL     1       3.883  -9.767   4.446  1.00  0.00    -0.352 N 
ATOM     36  C   UNL     1       3.376 -10.823   5.160  1.00  0.00     0.251 C 
ATOM     37  H   UNL     1       4.367 -10.013   3.625  1.00  0.00     0.163 HD
ATOM     38  O   UNL     1       3.683 -11.970   4.858  1.00  0.00    -0.269 OA
BRANCH  36  39
ATOM     39  C   UNL     1       2.477 -10.580   6.308  1.00  0.00     0.039 A 
ATOM     40  C   UNL     1       2.645 -11.350   7.462  1.00  0.00     0.014 A 
ATOM     41  C   UNL     1       1.461  -9.621   6.247  1.00  0.00     0.014 A 
ATOM     42  C   UNL     1       1.828 -11.124   8.571  1.00  0.00     0.010 A 
ATOM     43  C   UNL     1       0.701  -9.343   7.380  1.00  0.00     0.010 A 
ATOM     44  C   UNL     1       0.870 -10.097   8.550  1.00  0.00    -0.014 A 
BRANCH  44  45
ATOM     45  C   UNL     1       0.039  -9.807   9.745  1.00  0.00     0.031 A 
ATOM     46  C   UNL     1      -1.453  -9.990   9.694  1.00  0.00     0.074 A 
ATOM     47  C   UNL     1       0.625  -9.335  10.862  1.00  0.00     0.049 A 
ATOM     48  N   UNL     1      -2.348  -9.755  10.621  1.00  0.00    -0.248 NA
ATOM     49  C   UNL     1      -2.019 -10.477   8.427  1.00  0.00     0.031 C 
ATOM     50  C   UNL     1       2.057  -9.070  11.016  1.00  0.00     0.029 A 
ATOM     51  N   UNL     1       0.091  -8.987  12.077  1.00  0.00    -0.354 N 
ATOM     52  C   UNL     1      -3.576 -10.055  10.046  1.00  0.00     0.074 A 
ATOM     53  C   UNL     1      -3.320 -10.433   8.674  1.00  0.00     0.031 C 
ATOM     54  C   UNL     1       2.291  -8.628  12.262  1.00  0.00     0.029 A 
ATOM     55  C   UNL     1       1.024  -8.538  12.980  1.00  0.00     0.049 A 
ATOM     56  H   UNL     1      -0.870  -9.053  12.282  1.00  0.00     0.167 HD
ATOM     57  C   UNL     1      -4.803 -10.040  10.620  1.00  0.00     0.037 A 
ATOM     58  C   UNL     1       0.872  -8.097  14.244  1.00  0.00     0.037 A 
ATOM     59  C   UNL     1      -5.049  -9.682  11.992  1.00  0.00     0.049 A 
ATOM     60  C   UNL     1      -0.505  -8.079  14.851  1.00  0.00     0.074 A 
ATOM     61  C   UNL     1      -6.247  -9.691  12.685  1.00  0.00     0.029 A 
ATOM     62  N   UNL     1      -4.078  -9.242  12.880  1.00  0.00    -0.354 N 
ATOM     63  N   UNL     1      -1.649  -8.439  14.322  1.00  0.00    -0.248 NA
ATOM     64  C   UNL     1      -0.610  -7.603  16.237  1.00  0.00     0.031 C 
ATOM     65  C   UNL     1      -6.012  -9.202  13.973  1.00  0.00     0.029 A 
ATOM     66  C   UNL     1      -4.656  -8.950  14.106  1.00  0.00     0.049 A 
ATOM     67  H   UNL     1      -3.120  -9.150  12.671  1.00  0.00     0.167 HD
ATOM     68  C   UNL     1      -2.603  -8.262  15.316  1.00  0.00     0.074 A 
ATOM     69  C   UNL     1      -1.899  -7.782  16.487  1.00  0.00     0.031 C 
ATOM     70  C   UNL     1      -3.940  -8.478  15.264  1.00  0.00     0.037 A 
BRANCH  57  71
ATOM     71  C   UNL     1      -5.978 -10.424   9.764  1.00  0.00     0.064 A 
ATOM     72  C   UNL     1      -6.164 -11.739   9.312  1.00  0.00     0.173 A 
ATOM     73  C   UNL     1      -6.955  -9.473   9.431  1.00  0.00     0.173 A 
ATOM     74  F   UNL     1      -5.255 -12.685   9.593  1.00  0.00    -0.203 F 
ATOM     75  C   UNL     1      -7.267 -12.082   8.534  1.00  0.00     0.198 A 
ATOM     76  C   UNL     1      -8.075  -9.827   8.682  1.00  0.00     0.198 A 
ATOM     77  F   UNL     1      -6.832  -8.202   9.842  1.00  0.00    -0.203 F 
ATOM     78  F   UNL     1      -7.396 -13.333   8.072  1.00  0.00    -0.200 F 
ATOM     79  C   UNL     1      -8.226 -11.128   8.227  1.00  0.00     0.200 A 
ATOM     80  F   UNL     1      -9.008  -8.908   8.400  1.00  0.00    -0.200 F 
ATOM     81  F   UNL     1      -9.293 -11.462   7.489  1.00  0.00    -0.200 F 
ENDBRANCH  57  71
BRANCH  58  82
ATOM     82  C   UNL     1       2.056  -7.651  15.025  1.00  0.00     0.064 A 
ATOM     83  C   UNL     1       2.499  -8.374  16.142  1.00  0.00     0.173 A 
ATOM     84  C   UNL     1       2.761  -6.488  14.682  1.00  0.00     0.173 A 
ATOM     85  F   UNL     1       1.848  -9.483  16.522  1.00  0.00    -0.203 F 
ATOM     86  C   UNL     1       3.582  -7.936  16.901  1.00  0.00     0.198 A 
ATOM     87  C   UNL     1       3.865  -6.069  15.422  1.00  0.00     0.198 A 
ATOM     88  F   UNL     1       2.385  -5.763  13.618  1.00  0.00    -0.203 F 
ATOM     89  F   UNL     1       3.949  -8.617  17.995  1.00  0.00    -0.200 F 
ATOM     90  C   UNL     1       4.268  -6.787  16.537  1.00  0.00     0.200 A 
ATOM     91  F   UNL     1       4.535  -4.968  15.056  1.00  0.00    -0.200 F 
ATOM     92  F   UNL     1       5.311  -6.368  17.266  1.00  0.00    -0.200 F 
ENDBRANCH  58  82
BRANCH  70  93
ATOM     93  C   UNL     1      -4.726  -8.234  16.522  1.00  0.00     0.064 A 
ATOM     94  C   UNL     1      -4.934  -6.942  17.026  1.00  0.00     0.173 A 
ATOM     95  C   UNL     1      -5.307  -9.309  17.213  1.00  0.00     0.173 A 
ATOM     96  F   UNL     1      -4.388  -5.881  16.411  1.00  0.00    -0.203 F 
ATOM     97  C   UNL     1      -5.665  -6.738  18.193  1.00  0.00     0.198 A 
ATOM     98  C   UNL     1      -6.068  -9.098  18.358  1.00  0.00     0.198 A 
ATOM     99  F   UNL     1      -5.147 -10.565  16.769  1.00  0.00    -0.203 F 
ATOM    100  F   UNL     1      -5.802  -5.500  18.688  1.00  0.00    -0.200 F 
ATOM    101  C   UNL     1      -6.239  -7.814  18.853  1.00  0.00     0.200 A 
ATOM    102  F   UNL     1      -6.636 -10.138  18.985  1.00  0.00    -0.200 F 
ATOM    103  F   UNL     1      -6.948  -7.615  19.972  1.00  0.00    -0.200 F 
ENDBRANCH  70  93
ENDBRANCH  44  45
ENDBRANCH  36  39
ENDBRANCH  34  35
ENDBRANCH  33  34
ENDBRANCH  32  33
ENDBRANCH  31  32
ENDBRANCH   1  31
TORSDOF 19
