REMARK SMILES CCN(Cc1ccccn1)C(=O)N1CCC[C@H](C(=O)NCCCCCCNC(=O)c2ccc(-c3c4nc(c(-c5c(F)c(F)c(F)c(F)c5F)c5ccc([nH]5)c(-c5c(F)c(F)c(F)c(F)c5F)c5nc(c(-c6c(F)c(F)c(F)c(F)c6F)c6ccc3[nH]6)C=C5)C=C4)cc2)C1
REMARK SMILES IDX 22 1 21 2 20 3 18 4 19 5 17 7 13 8 14 9 93 10 15 11 16 12
REMARK SMILES IDX 11 13 12 14 3 15 2 16 1 17 4 18 5 19 6 20 10 21 7 22 9 23
REMARK SMILES IDX 8 24 23 25 24 26 25 27 26 28 27 29 28 30 29 32 30 33 31 34
REMARK SMILES IDX 92 35 32 36 91 37 33 38 34 39 35 40 85 41 36 42 90 43 84 44
REMARK SMILES IDX 86 45 37 46 89 47 83 48 82 49 38 51 70 52 50 53 69 54 51 55
REMARK SMILES IDX 54 56 68 57 87 58 52 59 53 60 67 62 88 63 55 64 39 65 40 66
REMARK SMILES IDX 48 67 41 68 42 69 46 70 49 71 43 72 44 73 47 74 45 75 71 76
REMARK SMILES IDX 72 77 80 78 73 79 74 80 78 81 81 82 75 83 76 84 79 85 77 86
REMARK SMILES IDX 56 87 57 88 65 89 58 90 59 91 63 92 66 93 60 94 61 95 64 96
REMARK SMILES IDX 62 97
REMARK H PARENT 20 6 27 31 86 50 54 61
REMARK Flexibility Score: inf
ROOT
ATOM      1  C   UNL     1       6.283  -1.665   2.781  1.00  0.00     0.021 C 
ENDROOT
BRANCH   1   2
ATOM      2  C   UNL     1       4.840  -1.750   3.257  1.00  0.00     0.116 C 
BRANCH   2   3
ATOM      3  N   UNL     1       4.689  -2.580   4.425  1.00  0.00    -0.356 N 
ATOM      4  C   UNL     1       4.151  -2.289   5.635  1.00  0.00     0.224 C 
ATOM      5  O   UNL     1       4.029  -3.229   6.429  1.00  0.00    -0.275 OA
ATOM      6  H   UNL     1       5.028  -3.500   4.330  1.00  0.00     0.163 HD
BRANCH   4   7
ATOM      7  C   UNL     1       3.698  -0.884   6.050  1.00  0.00     0.098 C 
ATOM      8  N   UNL     1       2.726   0.587   4.218  1.00  0.00    -0.324 N 
ATOM      9  C   UNL     1       3.692   1.644   4.497  1.00  0.00     0.121 C 
ATOM     10  C   UNL     1       2.485  -0.371   5.285  1.00  0.00     0.134 C 
ATOM     11  C   UNL     1       4.993   1.151   5.134  1.00  0.00     0.022 C 
ATOM     12  C   UNL     1       4.793   0.153   6.271  1.00  0.00     0.017 C 
BRANCH   8  13
ATOM     13  C   UNL     1       2.249   0.396   2.929  1.00  0.00     0.320 C 
ATOM     14  O   UNL     1       2.959   0.681   1.962  1.00  0.00    -0.248 OA
BRANCH  13  15
ATOM     15  N   UNL     1       0.985  -0.154   2.771  1.00  0.00    -0.319 N 
BRANCH  15  16
ATOM     16  C   UNL     1       0.682  -0.890   1.542  1.00  0.00     0.118 C 
ATOM     17  C   UNL     1       0.651  -0.029   0.284  1.00  0.00     0.027 C 
ENDBRANCH  15  16
BRANCH  15  18
ATOM     18  C   UNL     1      -0.170   0.178   3.635  1.00  0.00     0.177 C 
BRANCH  18  19
ATOM     19  C   UNL     1      -0.463  -0.824   4.744  1.00  0.00     0.060 A 
ATOM     20  C   UNL     1      -0.645  -0.359   6.051  1.00  0.00     0.026 A 
ATOM     21  N   UNL     1      -0.360  -2.149   4.462  1.00  0.00    -0.259 NA
ATOM     22  C   UNL     1      -0.564  -1.265   7.107  1.00  0.00     0.004 A 
ATOM     23  C   UNL     1      -0.308  -3.007   5.508  1.00  0.00     0.111 A 
ATOM     24  C   UNL     1      -0.369  -2.612   6.833  1.00  0.00     0.020 A 
ENDBRANCH  18  19
ENDBRANCH  15  18
ENDBRANCH  13  15
ENDBRANCH   8  13
ENDBRANCH   4   7
ENDBRANCH   2   3
ENDBRANCH   1   2
BRANCH   1  25
ATOM     25  C   UNL     1       6.582  -2.577   1.593  1.00  0.00     0.002 C 
BRANCH  25  26
ATOM     26  C   UNL     1       5.729  -2.310   0.344  1.00  0.00     0.002 C 
BRANCH  26  27
ATOM     27  C   UNL     1       5.739  -0.866  -0.164  1.00  0.00     0.021 C 
BRANCH  27  28
ATOM     28  C   UNL     1       7.126  -0.303  -0.455  1.00  0.00     0.116 C 
BRANCH  28  29
ATOM     29  N   UNL     1       7.872  -1.143  -1.380  1.00  0.00    -0.352 N 
ATOM     30  C   UNL     1       8.448  -0.825  -2.582  1.00  0.00     0.251 C 
ATOM     31  H   UNL     1       7.978  -2.081  -1.100  1.00  0.00     0.163 HD
ATOM     32  O   UNL     1       8.850  -1.707  -3.332  1.00  0.00    -0.269 OA
BRANCH  30  33
ATOM     33  C   UNL     1       8.583   0.591  -2.972  1.00  0.00     0.039 A 
ATOM     34  C   UNL     1       8.265   0.968  -4.279  1.00  0.00     0.014 A 
ATOM     35  C   UNL     1       9.041   1.539  -2.053  1.00  0.00     0.014 A 
ATOM     36  C   UNL     1       8.359   2.309  -4.651  1.00  0.00     0.010 A 
ATOM     37  C   UNL     1       9.063   2.884  -2.403  1.00  0.00     0.010 A 
ATOM     38  C   UNL     1       8.731   3.280  -3.708  1.00  0.00    -0.014 A 
BRANCH  38  39
ATOM     39  C   UNL     1       8.797   4.718  -4.062  1.00  0.00     0.031 A 
ATOM     40  C   UNL     1      10.113   5.441  -4.010  1.00  0.00     0.074 A 
ATOM     41  C   UNL     1       7.664   5.385  -4.352  1.00  0.00     0.049 A 
ATOM     42  N   UNL     1      10.367   6.715  -4.173  1.00  0.00    -0.248 NA
ATOM     43  C   UNL     1      11.300   4.627  -3.704  1.00  0.00     0.031 C 
ATOM     44  C   UNL     1       6.324   4.797  -4.395  1.00  0.00     0.029 A 
ATOM     45  N   UNL     1       7.456   6.709  -4.648  1.00  0.00    -0.354 N 
ATOM     46  C   UNL     1      11.734   6.855  -3.972  1.00  0.00     0.074 A 
ATOM     47  C   UNL     1      12.247   5.549  -3.622  1.00  0.00     0.031 C 
ATOM     48  C   UNL     1       5.436   5.752  -4.715  1.00  0.00     0.029 A 
ATOM     49  C   UNL     1       6.136   7.025  -4.854  1.00  0.00     0.049 A 
ATOM     50  H   UNL     1       8.184   7.369  -4.707  1.00  0.00     0.167 HD
ATOM     51  C   UNL     1      12.493   7.970  -4.090  1.00  0.00     0.037 A 
ATOM     52  C   UNL     1       5.556   8.213  -5.109  1.00  0.00     0.037 A 
ATOM     53  C   UNL     1      11.975   9.261  -4.460  1.00  0.00     0.049 A 
ATOM     54  C   UNL     1       6.420   9.440  -5.218  1.00  0.00     0.074 A 
ATOM     55  C   UNL     1      12.666  10.443  -4.658  1.00  0.00     0.029 A 
ATOM     56  N   UNL     1      10.634   9.539  -4.682  1.00  0.00    -0.354 N 
ATOM     57  N   UNL     1       7.720   9.553  -5.086  1.00  0.00    -0.248 NA
ATOM     58  C   UNL     1       5.737  10.706  -5.519  1.00  0.00     0.031 C 
ATOM     59  C   UNL     1      11.738  11.448  -4.948  1.00  0.00     0.029 A 
ATOM     60  C   UNL     1      10.475  10.880  -4.994  1.00  0.00     0.049 A 
ATOM     61  H   UNL     1       9.904   8.881  -4.627  1.00  0.00     0.167 HD
ATOM     62  C   UNL     1       8.014  10.889  -5.322  1.00  0.00     0.074 A 
ATOM     63  C   UNL     1       6.758  11.546  -5.615  1.00  0.00     0.031 C 
ATOM     64  C   UNL     1       9.217  11.514  -5.299  1.00  0.00     0.037 A 
BRANCH  51  65
ATOM     65  C   UNL     1      13.964   7.843  -3.814  1.00  0.00     0.064 A 
ATOM     66  C   UNL     1      14.815   7.120  -4.665  1.00  0.00     0.173 A 
ATOM     67  C   UNL     1      14.538   8.479  -2.703  1.00  0.00     0.173 A 
ATOM     68  F   UNL     1      14.318   6.483  -5.736  1.00  0.00    -0.203 F 
ATOM     69  C   UNL     1      16.177   7.013  -4.397  1.00  0.00     0.198 A 
ATOM     70  C   UNL     1      15.906   8.399  -2.457  1.00  0.00     0.198 A 
ATOM     71  F   UNL     1      13.773   9.188  -1.859  1.00  0.00    -0.203 F 
ATOM     72  F   UNL     1      16.960   6.273  -5.194  1.00  0.00    -0.200 F 
ATOM     73  C   UNL     1      16.723   7.659  -3.298  1.00  0.00     0.200 A 
ATOM     74  F   UNL     1      16.434   9.037  -1.403  1.00  0.00    -0.200 F 
ATOM     75  F   UNL     1      18.035   7.563  -3.045  1.00  0.00    -0.200 F 
ENDBRANCH  51  65
BRANCH  52  76
ATOM     76  C   UNL     1       4.083   8.296  -5.298  1.00  0.00     0.064 A 
ATOM     77  C   UNL     1       3.535   8.598  -6.552  1.00  0.00     0.173 A 
ATOM     78  C   UNL     1       3.196   8.083  -4.233  1.00  0.00     0.173 A 
ATOM     79  F   UNL     1       4.343   8.830  -7.598  1.00  0.00    -0.203 F 
ATOM     80  C   UNL     1       2.157   8.708  -6.729  1.00  0.00     0.198 A 
ATOM     81  C   UNL     1       1.817   8.162  -4.418  1.00  0.00     0.198 A 
ATOM     82  F   UNL     1       3.668   7.787  -3.013  1.00  0.00    -0.203 F 
ATOM     83  F   UNL     1       1.663   9.050  -7.926  1.00  0.00    -0.200 F 
ATOM     84  C   UNL     1       1.299   8.485  -5.663  1.00  0.00     0.200 A 
ATOM     85  F   UNL     1       0.991   7.931  -3.388  1.00  0.00    -0.200 F 
ATOM     86  F   UNL     1      -0.026   8.589  -5.833  1.00  0.00    -0.200 F 
ENDBRANCH  52  76
BRANCH  64  87
ATOM     87  C   UNL     1       9.243  12.973  -5.653  1.00  0.00     0.064 A 
ATOM     88  C   UNL     1       8.723  13.953  -4.796  1.00  0.00     0.173 A 
ATOM     89  C   UNL     1       9.843  13.398  -6.849  1.00  0.00     0.173 A 
ATOM     90  F   UNL     1       8.127  13.599  -3.647  1.00  0.00    -0.203 F 
ATOM     91  C   UNL     1       8.779  15.303  -5.135  1.00  0.00     0.198 A 
ATOM     92  C   UNL     1       9.927  14.750  -7.169  1.00  0.00     0.198 A 
ATOM     93  F   UNL     1      10.363  12.501  -7.701  1.00  0.00    -0.203 F 
ATOM     94  F   UNL     1       8.232  16.218  -4.324  1.00  0.00    -0.200 F 
ATOM     95  C   UNL     1       9.389  15.700  -6.316  1.00  0.00     0.200 A 
ATOM     96  F   UNL     1      10.532  15.132  -8.302  1.00  0.00    -0.200 F 
ATOM     97  F   UNL     1       9.452  17.000  -6.634  1.00  0.00    -0.200 F 
ENDBRANCH  64  87
ENDBRANCH  38  39
ENDBRANCH  30  33
ENDBRANCH  28  29
ENDBRANCH  27  28
ENDBRANCH  26  27
ENDBRANCH  25  26
ENDBRANCH   1  25
TORSDOF 18
