REMARK SMILES C[C@@H]1[C@@H](C(=O)NCCCCCCNC(=O)c2ccc(-c3c4nc(c(-c5c(F)c(F)c(F)c(F)c5F)c5ccc([nH]5)c(-c5c(F)c(F)c(F)c(F)c5F)c5nc(c(-c6c(F)c(F)c(F)c(F)c6F)c6ccc3[nH]6)C=C5)C=C4)cc2)CCN1C(=O)N1CCCCC1
REMARK SMILES IDX 10 1 9 2 8 3 7 4 6 5 4 6 5 7 3 9 1 10 2 11 81 12 79 13 80 14
REMARK SMILES IDX 82 15 83 16 84 17 85 18 89 19 86 20 88 21 87 22 11 23 12 24
REMARK SMILES IDX 13 25 14 26 15 28 16 29 17 30 78 31 18 32 77 33 19 34 20 35
REMARK SMILES IDX 21 36 71 37 22 38 76 39 70 40 72 41 23 42 75 43 69 44 68 45
REMARK SMILES IDX 24 47 56 48 36 49 55 50 37 51 40 52 54 53 73 54 38 55 39 56
REMARK SMILES IDX 53 58 74 59 41 60 25 61 26 62 34 63 27 64 28 65 32 66 35 67
REMARK SMILES IDX 29 68 30 69 33 70 31 71 57 72 58 73 66 74 59 75 60 76 64 77
REMARK SMILES IDX 67 78 61 79 62 80 65 81 63 82 42 83 43 84 51 85 44 86 45 87
REMARK SMILES IDX 49 88 52 89 46 90 47 91 50 92 48 93
REMARK H PARENT 6 8 13 27 72 46 40 57
REMARK Flexibility Score: inf
ROOT
ATOM      1  C   UNL     1      -5.042   3.411  -2.587  1.00  0.00     0.002 C 
ENDROOT
BRANCH   1   2
ATOM      2  C   UNL     1      -3.765   4.247  -2.698  1.00  0.00     0.002 C 
BRANCH   2   3
ATOM      3  C   UNL     1      -2.838   4.242  -1.478  1.00  0.00     0.021 C 
BRANCH   3   4
ATOM      4  C   UNL     1      -2.440   2.868  -0.947  1.00  0.00     0.116 C 
BRANCH   4   5
ATOM      5  N   UNL     1      -1.747   2.056  -1.925  1.00  0.00    -0.356 N 
ATOM      6  C   UNL     1      -0.772   1.117  -1.735  1.00  0.00     0.225 C 
ATOM      7  O   UNL     1      -0.357   0.522  -2.728  1.00  0.00    -0.275 OA
ATOM      8  H   UNL     1      -2.016   2.200  -2.861  1.00  0.00     0.163 HD
BRANCH   6   9
ATOM      9  C   UNL     1      -0.186   0.920  -0.340  1.00  0.00     0.102 C 
ATOM     10  C   UNL     1       1.957   0.219   0.745  1.00  0.00     0.032 C 
ATOM     11  C   UNL     1       0.921  -0.165  -0.320  1.00  0.00     0.096 C 
ATOM     12  N   UNL     1       0.188  -1.409  -0.000  1.00  0.00    -0.321 N 
ATOM     13  C   UNL     1      -1.182   0.389   0.695  1.00  0.00     0.037 C 
ATOM     14  C   UNL     1      -1.147  -1.111   0.483  1.00  0.00     0.122 C 
BRANCH  12  15
ATOM     15  C   UNL     1       0.374  -2.655  -0.577  1.00  0.00     0.320 C 
ATOM     16  O   UNL     1      -0.554  -3.460  -0.684  1.00  0.00    -0.248 OA
ATOM     17  N   UNL     1       1.620  -2.938  -1.085  1.00  0.00    -0.325 N 
ATOM     18  C   UNL     1       1.717  -3.750  -2.291  1.00  0.00     0.121 C 
ATOM     19  C   UNL     1       2.810  -2.877  -0.251  1.00  0.00     0.121 C 
ATOM     20  C   UNL     1       2.219  -5.158  -1.990  1.00  0.00     0.022 C 
ATOM     21  C   UNL     1       3.377  -4.268   0.044  1.00  0.00     0.022 C 
ATOM     22  C   UNL     1       3.539  -5.099  -1.225  1.00  0.00     0.004 C 
ENDBRANCH  12  15
ENDBRANCH   6   9
ENDBRANCH   4   5
ENDBRANCH   3   4
ENDBRANCH   2   3
ENDBRANCH   1   2
BRANCH   1  23
ATOM     23  C   UNL     1      -5.938   3.696  -1.381  1.00  0.00     0.021 C 
BRANCH  23  24
ATOM     24  C   UNL     1      -6.334   5.154  -1.169  1.00  0.00     0.116 C 
BRANCH  24  25
ATOM     25  N   UNL     1      -7.050   5.723  -2.295  1.00  0.00    -0.352 N 
ATOM     26  C   UNL     1      -8.181   6.499  -2.320  1.00  0.00     0.251 C 
ATOM     27  H   UNL     1      -6.663   5.522  -3.178  1.00  0.00     0.163 HD
ATOM     28  O   UNL     1      -8.688   6.800  -3.397  1.00  0.00    -0.269 OA
BRANCH  26  29
ATOM     29  C   UNL     1      -8.820   6.955  -1.063  1.00  0.00     0.039 A 
ATOM     30  C   UNL     1     -10.216   6.922  -0.981  1.00  0.00     0.014 A 
ATOM     31  C   UNL     1      -8.074   7.447   0.012  1.00  0.00     0.014 A 
ATOM     32  C   UNL     1     -10.858   7.332   0.190  1.00  0.00     0.010 A 
ATOM     33  C   UNL     1      -8.711   7.796   1.204  1.00  0.00     0.010 A 
ATOM     34  C   UNL     1     -10.110   7.748   1.302  1.00  0.00    -0.014 A 
BRANCH  34  35
ATOM     35  C   UNL     1     -10.783   8.146   2.566  1.00  0.00     0.031 A 
ATOM     36  C   UNL     1     -10.723   9.570   3.044  1.00  0.00     0.074 A 
ATOM     37  C   UNL     1     -11.420   7.216   3.304  1.00  0.00     0.049 A 
ATOM     38  N   UNL     1     -11.225  10.101   4.131  1.00  0.00    -0.248 NA
ATOM     39  C   UNL     1      -9.980  10.520   2.202  1.00  0.00     0.031 C 
ATOM     40  C   UNL     1     -11.512   5.794   2.973  1.00  0.00     0.029 A 
ATOM     41  N   UNL     1     -12.106   7.328   4.487  1.00  0.00    -0.354 N 
ATOM     42  C   UNL     1     -10.851  11.438   4.108  1.00  0.00     0.074 A 
ATOM     43  C   UNL     1     -10.038  11.629   2.926  1.00  0.00     0.031 C 
ATOM     44  C   UNL     1     -12.233   5.169   3.917  1.00  0.00     0.029 A 
ATOM     45  C   UNL     1     -12.630   6.140   4.934  1.00  0.00     0.049 A 
ATOM     46  H   UNL     1     -12.212   8.179   4.970  1.00  0.00     0.167 HD
ATOM     47  C   UNL     1     -11.175  12.423   4.979  1.00  0.00     0.037 A 
ATOM     48  C   UNL     1     -13.350   5.864   6.038  1.00  0.00     0.037 A 
ATOM     49  C   UNL     1     -12.009  12.242   6.139  1.00  0.00     0.049 A 
ATOM     50  C   UNL     1     -13.702   6.978   6.986  1.00  0.00     0.074 A 
ATOM     51  C   UNL     1     -12.446  13.191   7.046  1.00  0.00     0.029 A 
ATOM     52  N   UNL     1     -12.533  11.025   6.550  1.00  0.00    -0.354 N 
ATOM     53  N   UNL     1     -13.399   8.251   6.916  1.00  0.00    -0.248 NA
ATOM     54  C   UNL     1     -14.503   6.616   8.164  1.00  0.00     0.031 C 
ATOM     55  C   UNL     1     -13.203  12.544   8.028  1.00  0.00     0.029 A 
ATOM     56  C   UNL     1     -13.272  11.197   7.710  1.00  0.00     0.049 A 
ATOM     57  H   UNL     1     -12.399  10.167   6.087  1.00  0.00     0.167 HD
ATOM     58  C   UNL     1     -13.990   8.845   8.023  1.00  0.00     0.074 A 
ATOM     59  C   UNL     1     -14.684   7.796   8.741  1.00  0.00     0.031 C 
ATOM     60  C   UNL     1     -13.959  10.143   8.411  1.00  0.00     0.037 A 
BRANCH  47  61
ATOM     61  C   UNL     1     -10.632  13.796   4.707  1.00  0.00     0.064 A 
ATOM     62  C   UNL     1     -11.110  14.577   3.645  1.00  0.00     0.173 A 
ATOM     63  C   UNL     1      -9.649  14.351   5.540  1.00  0.00     0.173 A 
ATOM     64  F   UNL     1     -12.041  14.086   2.812  1.00  0.00    -0.203 F 
ATOM     65  C   UNL     1     -10.605  15.853   3.410  1.00  0.00     0.198 A 
ATOM     66  C   UNL     1      -9.167  15.639   5.319  1.00  0.00     0.198 A 
ATOM     67  F   UNL     1      -9.162  13.649   6.574  1.00  0.00    -0.203 F 
ATOM     68  F   UNL     1     -11.045  16.563   2.361  1.00  0.00    -0.200 F 
ATOM     69  C   UNL     1      -9.639  16.385   4.250  1.00  0.00     0.200 A 
ATOM     70  F   UNL     1      -8.241  16.156   6.139  1.00  0.00    -0.200 F 
ATOM     71  F   UNL     1      -9.159  17.616   4.026  1.00  0.00    -0.200 F 
ENDBRANCH  47  61
BRANCH  48  72
ATOM     72  C   UNL     1     -13.815   4.477   6.292  1.00  0.00     0.064 A 
ATOM     73  C   UNL     1     -15.171   4.141   6.176  1.00  0.00     0.173 A 
ATOM     74  C   UNL     1     -12.919   3.463   6.659  1.00  0.00     0.173 A 
ATOM     75  F   UNL     1     -16.067   5.083   5.849  1.00  0.00    -0.203 F 
ATOM     76  C   UNL     1     -15.616   2.846   6.435  1.00  0.00     0.198 A 
ATOM     77  C   UNL     1     -13.362   2.163   6.894  1.00  0.00     0.198 A 
ATOM     78  F   UNL     1     -11.611   3.733   6.780  1.00  0.00    -0.203 F 
ATOM     79  F   UNL     1     -16.923   2.562   6.359  1.00  0.00    -0.200 F 
ATOM     80  C   UNL     1     -14.711   1.857   6.789  1.00  0.00     0.200 A 
ATOM     81  F   UNL     1     -12.483   1.207   7.224  1.00  0.00    -0.200 F 
ATOM     82  F   UNL     1     -15.139   0.612   7.036  1.00  0.00    -0.200 F 
ENDBRANCH  48  72
BRANCH  60  83
ATOM     83  C   UNL     1     -14.715  10.505   9.655  1.00  0.00     0.064 A 
ATOM     84  C   UNL     1     -14.250  10.143  10.927  1.00  0.00     0.173 A 
ATOM     85  C   UNL     1     -15.900  11.253   9.575  1.00  0.00     0.173 A 
ATOM     86  F   UNL     1     -13.130   9.414  11.054  1.00  0.00    -0.203 F 
ATOM     87  C   UNL     1     -14.956  10.495  12.074  1.00  0.00     0.198 A 
ATOM     88  C   UNL     1     -16.589  11.626  10.725  1.00  0.00     0.198 A 
ATOM     89  F   UNL     1     -16.383  11.629   8.382  1.00  0.00    -0.203 F 
ATOM     90  F   UNL     1     -14.517  10.099  13.277  1.00  0.00    -0.200 F 
ATOM     91  C   UNL     1     -16.121  11.241  11.973  1.00  0.00     0.200 A 
ATOM     92  F   UNL     1     -17.708  12.357  10.627  1.00  0.00    -0.200 F 
ATOM     93  F   UNL     1     -16.797  11.583  13.078  1.00  0.00    -0.200 F 
ENDBRANCH  60  83
ENDBRANCH  34  35
ENDBRANCH  26  29
ENDBRANCH  24  25
ENDBRANCH  23  24
ENDBRANCH   1  23
TORSDOF 14
