REMARK SMILES C[C@]1(Cn2c(=O)[nH]c3cc(C(=O)NCCCCCCNC(=O)c4ccc(-c5c6nc(c(-c7c(F)c(F)c(F)c(F)c7F)c7ccc([nH]7)c(-c7c(F)c(F)c(F)c(F)c7F)c7nc(c(-c8c(F)c(F)c(F)c(F)c8F)c8ccc5[nH]8)C=C7)C=C6)cc4)ccc32)CCCO1
REMARK SMILES IDX 16 1 15 2 14 3 13 4 11 5 12 6 10 8 4 9 5 10 88 11 6 12 7 13
REMARK SMILES IDX 8 14 87 15 9 17 86 18 3 19 2 20 1 21 89 22 92 23 90 24 91 25
REMARK SMILES IDX 17 26 18 27 19 28 20 29 21 30 22 32 23 33 24 34 85 35 25 36
REMARK SMILES IDX 84 37 26 38 27 39 28 40 78 41 29 42 83 43 77 44 79 45 30 46
REMARK SMILES IDX 82 47 76 48 75 49 31 51 63 52 43 53 62 54 44 55 47 56 61 57
REMARK SMILES IDX 80 58 45 59 46 60 60 62 81 63 48 64 32 65 33 66 41 67 34 68
REMARK SMILES IDX 35 69 39 70 42 71 36 72 37 73 40 74 38 75 64 76 65 77 73 78
REMARK SMILES IDX 66 79 67 80 71 81 74 82 68 83 69 84 72 85 70 86 49 87 50 88
REMARK SMILES IDX 58 89 51 90 52 91 56 92 59 93 53 94 54 95 57 96 55 97
REMARK H PARENT 13 7 7 16 20 31 79 50 47 61
REMARK Flexibility Score: inf
ROOT
ATOM      1  C   UNL     1       1.156  -5.377  -7.668  1.00  0.00     0.002 C 
ENDROOT
BRANCH   1   2
ATOM      2  C   UNL     1       1.202  -4.437  -6.456  1.00  0.00     0.021 C 
BRANCH   2   3
ATOM      3  C   UNL     1      -0.185  -4.027  -5.952  1.00  0.00     0.116 C 
BRANCH   3   4
ATOM      4  N   UNL     1      -0.724  -5.045  -5.069  1.00  0.00    -0.352 N 
ATOM      5  C   UNL     1      -0.828  -5.143  -3.705  1.00  0.00     0.251 C 
ATOM      6  O   UNL     1      -1.383  -6.142  -3.247  1.00  0.00    -0.269 OA
ATOM      7  H   UNL     1      -1.090  -5.825  -5.546  1.00  0.00     0.163 HD
BRANCH   5   8
ATOM      8  C   UNL     1      -0.363  -4.087  -2.760  1.00  0.00     0.042 A 
ATOM      9  N   UNL     1       0.329  -1.107   0.051  1.00  0.00    -0.289 N 
ATOM     10  C   UNL     1      -0.532  -1.548   1.077  1.00  0.00     0.326 A 
ATOM     11  C   UNL     1       0.289  -2.046  -0.989  1.00  0.00     0.069 A 
ATOM     12  O   UNL     1      -0.742  -1.017   2.163  1.00  0.00    -0.248 OA
ATOM     13  N   UNL     1      -1.132  -2.729   0.620  1.00  0.00    -0.306 N 
ATOM     14  C   UNL     1      -0.654  -3.013  -0.654  1.00  0.00     0.067 A 
ATOM     15  C   UNL     1       1.002  -2.133  -2.161  1.00  0.00     0.029 A 
ATOM     16  H   UNL     1      -1.785  -3.270   1.120  1.00  0.00     0.171 HD
ATOM     17  C   UNL     1      -1.007  -4.033  -1.509  1.00  0.00     0.042 A 
ATOM     18  C   UNL     1       0.682  -3.178  -3.039  1.00  0.00     0.016 A 
BRANCH   9  19
ATOM     19  C   UNL     1       1.097   0.119   0.079  1.00  0.00     0.162 C 
BRANCH  19  20
ATOM     20  C   UNL     1       0.487   1.323  -0.688  1.00  0.00     0.083 C 
ATOM     21  C   UNL     1       0.581   1.154  -2.212  1.00  0.00     0.044 C 
ATOM     22  C   UNL     1      -0.930   1.681  -0.246  1.00  0.00     0.039 C 
ATOM     23  O   UNL     1       1.267   2.505  -0.375  1.00  0.00    -0.373 OA
ATOM     24  C   UNL     1      -1.022   3.150  -0.589  1.00  0.00     0.031 C 
ATOM     25  C   UNL     1       0.387   3.642  -0.322  1.00  0.00     0.161 C 
ENDBRANCH  19  20
ENDBRANCH   9  19
ENDBRANCH   5   8
ENDBRANCH   3   4
ENDBRANCH   2   3
ENDBRANCH   1   2
BRANCH   1  26
ATOM     26  C   UNL     1       0.600  -4.748  -8.951  1.00  0.00     0.002 C 
BRANCH  26  27
ATOM     27  C   UNL     1       1.334  -3.493  -9.441  1.00  0.00     0.021 C 
BRANCH  27  28
ATOM     28  C   UNL     1       2.819  -3.709  -9.737  1.00  0.00     0.116 C 
BRANCH  28  29
ATOM     29  N   UNL     1       3.059  -4.748 -10.718  1.00  0.00    -0.352 N 
ATOM     30  C   UNL     1       3.080  -4.812 -12.082  1.00  0.00     0.251 C 
ATOM     31  H   UNL     1       3.256  -5.617 -10.300  1.00  0.00     0.163 HD
ATOM     32  O   UNL     1       3.390  -5.904 -12.566  1.00  0.00    -0.269 OA
BRANCH  30  33
ATOM     33  C   UNL     1       2.714  -3.706 -13.010  1.00  0.00     0.039 A 
ATOM     34  C   UNL     1       2.365  -2.410 -12.636  1.00  0.00     0.014 A 
ATOM     35  C   UNL     1       2.681  -4.037 -14.381  1.00  0.00     0.014 A 
ATOM     36  C   UNL     1       1.907  -1.505 -13.590  1.00  0.00     0.010 A 
ATOM     37  C   UNL     1       2.245  -3.129 -15.342  1.00  0.00     0.010 A 
ATOM     38  C   UNL     1       1.814  -1.874 -14.939  1.00  0.00    -0.014 A 
BRANCH  38  39
ATOM     39  C   UNL     1       1.359  -0.854 -15.883  1.00  0.00     0.031 A 
ATOM     40  C   UNL     1       2.192   0.377 -15.889  1.00  0.00     0.074 A 
ATOM     41  C   UNL     1       0.313  -0.984 -16.727  1.00  0.00     0.049 A 
ATOM     42  N   UNL     1       1.849   1.556 -15.487  1.00  0.00    -0.248 NA
ATOM     43  C   UNL     1       3.606   0.264 -16.277  1.00  0.00     0.031 C 
ATOM     44  C   UNL     1      -0.413  -2.208 -17.069  1.00  0.00     0.029 A 
ATOM     45  N   UNL     1      -0.281  -0.041 -17.524  1.00  0.00    -0.354 N 
ATOM     46  C   UNL     1       2.937   2.382 -15.753  1.00  0.00     0.074 A 
ATOM     47  C   UNL     1       4.033   1.517 -16.103  1.00  0.00     0.031 C 
ATOM     48  C   UNL     1      -1.187  -1.983 -18.156  1.00  0.00     0.029 A 
ATOM     49  C   UNL     1      -1.145  -0.566 -18.477  1.00  0.00     0.049 A 
ATOM     50  H   UNL     1      -0.112   0.924 -17.430  1.00  0.00     0.167 HD
ATOM     51  C   UNL     1       2.761   3.721 -15.918  1.00  0.00     0.037 A 
ATOM     52  C   UNL     1      -1.768   0.110 -19.473  1.00  0.00     0.037 A 
ATOM     53  C   UNL     1       1.479   4.149 -15.427  1.00  0.00     0.049 A 
ATOM     54  C   UNL     1      -1.875   1.530 -19.071  1.00  0.00     0.074 A 
ATOM     55  C   UNL     1       0.926   4.534 -14.227  1.00  0.00     0.029 A 
ATOM     56  N   UNL     1       0.447   3.869 -16.276  1.00  0.00    -0.354 N 
ATOM     57  N   UNL     1      -2.618   1.950 -18.085  1.00  0.00    -0.248 NA
ATOM     58  C   UNL     1      -0.925   2.503 -19.603  1.00  0.00     0.031 C 
ATOM     59  C   UNL     1      -0.488   4.380 -14.360  1.00  0.00     0.029 A 
ATOM     60  C   UNL     1      -0.766   3.932 -15.646  1.00  0.00     0.049 A 
ATOM     61  H   UNL     1       0.562   3.649 -17.229  1.00  0.00     0.167 HD
ATOM     62  C   UNL     1      -1.948   3.056 -17.613  1.00  0.00     0.074 A 
ATOM     63  C   UNL     1      -1.040   3.457 -18.677  1.00  0.00     0.031 C 
ATOM     64  C   UNL     1      -1.915   3.336 -16.281  1.00  0.00     0.037 A 
BRANCH  51  65
ATOM     65  C   UNL     1       3.510   4.558 -16.930  1.00  0.00     0.064 A 
ATOM     66  C   UNL     1       3.373   5.962 -16.911  1.00  0.00     0.173 A 
ATOM     67  C   UNL     1       4.089   4.021 -18.100  1.00  0.00     0.173 A 
ATOM     68  F   UNL     1       2.796   6.578 -15.868  1.00  0.00    -0.203 F 
ATOM     69  C   UNL     1       3.754   6.757 -17.997  1.00  0.00     0.198 A 
ATOM     70  C   UNL     1       4.515   4.821 -19.160  1.00  0.00     0.198 A 
ATOM     71  F   UNL     1       4.158   2.701 -18.313  1.00  0.00    -0.203 F 
ATOM     72  F   UNL     1       3.511   8.075 -17.978  1.00  0.00    -0.200 F 
ATOM     73  C   UNL     1       4.326   6.186 -19.120  1.00  0.00     0.200 A 
ATOM     74  F   UNL     1       5.036   4.245 -20.252  1.00  0.00    -0.200 F 
ATOM     75  F   UNL     1       4.650   6.939 -20.179  1.00  0.00    -0.200 F 
ENDBRANCH  51  65
BRANCH  52  76
ATOM     76  C   UNL     1      -2.041  -0.312 -20.868  1.00  0.00     0.064 A 
ATOM     77  C   UNL     1      -2.930   0.419 -21.677  1.00  0.00     0.173 A 
ATOM     78  C   UNL     1      -1.189  -1.216 -21.529  1.00  0.00     0.173 A 
ATOM     79  F   UNL     1      -3.759   1.318 -21.127  1.00  0.00    -0.203 F 
ATOM     80  C   UNL     1      -2.914   0.307 -23.070  1.00  0.00     0.198 A 
ATOM     81  C   UNL     1      -1.179  -1.331 -22.920  1.00  0.00     0.198 A 
ATOM     82  F   UNL     1      -0.275  -1.920 -20.846  1.00  0.00    -0.203 F 
ATOM     83  F   UNL     1      -3.711   1.089 -23.812  1.00  0.00    -0.200 F 
ATOM     84  C   UNL     1      -2.024  -0.552 -23.691  1.00  0.00     0.200 A 
ATOM     85  F   UNL     1      -0.292  -2.142 -23.513  1.00  0.00    -0.200 F 
ATOM     86  F   UNL     1      -1.947  -0.596 -25.028  1.00  0.00    -0.200 F 
ENDBRANCH  52  76
BRANCH  64  87
ATOM     87  C   UNL     1      -3.040   2.838 -15.437  1.00  0.00     0.064 A 
ATOM     88  C   UNL     1      -3.291   1.485 -15.161  1.00  0.00     0.173 A 
ATOM     89  C   UNL     1      -3.871   3.792 -14.835  1.00  0.00     0.173 A 
ATOM     90  F   UNL     1      -2.497   0.523 -15.650  1.00  0.00    -0.203 F 
ATOM     91  C   UNL     1      -4.350   1.108 -14.336  1.00  0.00     0.198 A 
ATOM     92  C   UNL     1      -4.906   3.415 -13.987  1.00  0.00     0.198 A 
ATOM     93  F   UNL     1      -3.655   5.100 -15.045  1.00  0.00    -0.203 F 
ATOM     94  F   UNL     1      -4.584  -0.190 -14.091  1.00  0.00    -0.200 F 
ATOM     95  C   UNL     1      -5.151   2.074 -13.744  1.00  0.00     0.200 A 
ATOM     96  F   UNL     1      -5.652   4.354 -13.389  1.00  0.00    -0.200 F 
ATOM     97  F   UNL     1      -6.146   1.713 -12.922  1.00  0.00    -0.200 F 
ENDBRANCH  64  87
ENDBRANCH  38  39
ENDBRANCH  30  33
ENDBRANCH  28  29
ENDBRANCH  27  28
ENDBRANCH  26  27
ENDBRANCH   1  26
TORSDOF 15
