REMARK SMILES CCc1ccsc1CNC(=O)N1[C@@H]2CC[C@H]1[C@H](C(=O)NCCCCCCNC(=O)c1ccc(-c3c4nc(c(-c5c(F)c(F)c(F)c(F)c5F)c5ccc([nH]5)c(-c5c(F)c(F)c(F)c(F)c5F)c5nc(c(-c6c(F)c(F)c(F)c(F)c6F)c6ccc3[nH]6)C=C5)C=C4)cc1)C2
REMARK SMILES IDX 22 1 21 2 20 3 18 4 19 5 17 7 12 8 13 9 16 10 14 11 93 12
REMARK SMILES IDX 15 13 10 14 9 15 11 17 8 18 7 19 3 20 4 21 5 22 6 23 2 24
REMARK SMILES IDX 1 25 23 26 24 27 25 28 26 29 27 30 28 31 29 33 30 34 31 35
REMARK SMILES IDX 92 36 32 37 91 38 33 39 34 40 35 41 85 42 36 43 90 44 84 45
REMARK SMILES IDX 86 46 37 47 89 48 83 49 82 50 38 52 70 53 50 54 69 55 51 56
REMARK SMILES IDX 54 57 68 58 87 59 52 60 53 61 67 63 88 64 55 65 39 66 40 67
REMARK SMILES IDX 48 68 41 69 42 70 46 71 49 72 43 73 44 74 47 75 45 76 71 77
REMARK SMILES IDX 72 78 80 79 73 80 74 81 78 82 81 83 75 84 76 85 79 86 77 87
REMARK SMILES IDX 56 88 57 89 65 90 58 91 59 92 63 93 66 94 60 95 61 96 64 97
REMARK SMILES IDX 62 98
REMARK H PARENT 20 6 9 16 27 32 86 51 54 62
REMARK Flexibility Score: inf
ROOT
ATOM      1  C   UNL     1      -0.853   2.602  -0.118  1.00  0.00     0.021 C 
ENDROOT
BRANCH   1   2
ATOM      2  C   UNL     1       0.340   3.355   0.498  1.00  0.00     0.116 C 
BRANCH   2   3
ATOM      3  N   UNL     1       1.724   2.936   0.578  1.00  0.00    -0.356 N 
ATOM      4  C   UNL     1       2.742   3.469   1.343  1.00  0.00     0.225 C 
ATOM      5  O   UNL     1       3.835   2.889   1.281  1.00  0.00    -0.275 OA
ATOM      6  H   UNL     1       1.972   2.170   0.012  1.00  0.00     0.163 HD
BRANCH   4   7
ATOM      7  C   UNL     1       2.636   4.736   2.231  1.00  0.00     0.103 C 
ATOM      8  N   UNL     1       0.833   4.708   3.654  1.00  0.00    -0.318 N 
ATOM      9  C   UNL     1       1.910   5.029   4.546  1.00  0.00     0.088 C 
ATOM     10  C   UNL     1       1.274   5.420   2.461  1.00  0.00     0.099 C 
ATOM     11  C   UNL     1       1.875   6.576   4.467  1.00  0.00     0.027 C 
ATOM     12  C   UNL     1       3.107   4.512   3.728  1.00  0.00     0.040 C 
ATOM     13  C   UNL     1       1.558   6.839   2.986  1.00  0.00     0.028 C 
BRANCH   8  14
ATOM     14  C   UNL     1      -0.142   3.769   3.784  1.00  0.00     0.318 C 
ATOM     15  N   UNL     1       0.218   2.513   4.225  1.00  0.00    -0.333 N 
ATOM     16  H   UNL     1      -0.094   2.194   5.103  1.00  0.00     0.165 HD
ATOM     17  O   UNL     1      -1.298   3.975   3.418  1.00  0.00    -0.249 OA
BRANCH  15  18
ATOM     18  C   UNL     1       1.067   1.648   3.394  1.00  0.00     0.165 C 
BRANCH  18  19
ATOM     19  C   UNL     1       1.304   0.232   3.862  1.00  0.00     0.027 A 
ATOM     20  C   UNL     1       1.422  -0.984   3.158  1.00  0.00    -0.033 A 
ATOM     21  C   UNL     1       1.874  -2.027   4.043  1.00  0.00     0.016 A 
ATOM     22  C   UNL     1       2.062  -1.612   5.333  1.00  0.00     0.065 A 
ATOM     23  S   UNL     1       1.680   0.028   5.534  1.00  0.00    -0.147 S 
BRANCH  20  24
ATOM     24  C   UNL     1       1.152  -1.377   1.712  1.00  0.00     0.033 C 
ATOM     25  C   UNL     1       1.756  -0.535   0.615  1.00  0.00     0.009 C 
ENDBRANCH  20  24
ENDBRANCH  18  19
ENDBRANCH  15  18
ENDBRANCH   8  14
ENDBRANCH   4   7
ENDBRANCH   2   3
ENDBRANCH   1   2
BRANCH   1  26
ATOM     26  C   UNL     1      -1.326   1.150   0.082  1.00  0.00     0.002 C 
BRANCH  26  27
ATOM     27  C   UNL     1      -1.657   0.477   1.420  1.00  0.00     0.002 C 
BRANCH  27  28
ATOM     28  C   UNL     1      -2.798   0.946   2.308  1.00  0.00     0.021 C 
BRANCH  28  29
ATOM     29  C   UNL     1      -4.184   0.871   1.694  1.00  0.00     0.116 C 
BRANCH  29  30
ATOM     30  N   UNL     1      -4.523  -0.451   1.173  1.00  0.00    -0.352 N 
ATOM     31  C   UNL     1      -5.651  -1.219   1.363  1.00  0.00     0.251 C 
ATOM     32  H   UNL     1      -3.837  -0.856   0.594  1.00  0.00     0.163 HD
ATOM     33  O   UNL     1      -5.694  -2.369   0.955  1.00  0.00    -0.269 OA
BRANCH  31  34
ATOM     34  C   UNL     1      -6.809  -0.643   2.079  1.00  0.00     0.039 A 
ATOM     35  C   UNL     1      -7.517  -1.430   2.992  1.00  0.00     0.014 A 
ATOM     36  C   UNL     1      -7.182   0.682   1.859  1.00  0.00     0.014 A 
ATOM     37  C   UNL     1      -8.552  -0.857   3.733  1.00  0.00     0.010 A 
ATOM     38  C   UNL     1      -8.120   1.282   2.683  1.00  0.00     0.010 A 
ATOM     39  C   UNL     1      -8.833   0.514   3.613  1.00  0.00    -0.014 A 
BRANCH  39  40
ATOM     40  C   UNL     1      -9.891   1.167   4.421  1.00  0.00     0.031 A 
ATOM     41  C   UNL     1     -11.049   1.836   3.730  1.00  0.00     0.074 A 
ATOM     42  C   UNL     1      -9.771   1.214   5.762  1.00  0.00     0.049 A 
ATOM     43  N   UNL     1     -12.045   2.512   4.246  1.00  0.00    -0.248 NA
ATOM     44  C   UNL     1     -11.072   1.776   2.258  1.00  0.00     0.031 C 
ATOM     45  C   UNL     1      -8.652   0.665   6.532  1.00  0.00     0.029 A 
ATOM     46  N   UNL     1     -10.597   1.750   6.716  1.00  0.00    -0.354 N 
ATOM     47  C   UNL     1     -12.792   2.964   3.165  1.00  0.00     0.074 A 
ATOM     48  C   UNL     1     -12.096   2.561   1.966  1.00  0.00     0.031 C 
ATOM     49  C   UNL     1      -8.883   0.854   7.841  1.00  0.00     0.029 A 
ATOM     50  C   UNL     1     -10.142   1.573   8.001  1.00  0.00     0.049 A 
ATOM     51  H   UNL     1     -11.436   2.219   6.502  1.00  0.00     0.167 HD
ATOM     52  C   UNL     1     -13.975   3.621   3.174  1.00  0.00     0.037 A 
ATOM     53  C   UNL     1     -10.687   1.950   9.173  1.00  0.00     0.037 A 
ATOM     54  C   UNL     1     -14.675   3.986   4.375  1.00  0.00     0.049 A 
ATOM     55  C   UNL     1     -12.009   2.672   9.153  1.00  0.00     0.074 A 
ATOM     56  C   UNL     1     -15.908   4.598   4.505  1.00  0.00     0.029 A 
ATOM     57  N   UNL     1     -14.197   3.765   5.660  1.00  0.00    -0.354 N 
ATOM     58  N   UNL     1     -12.749   3.019   8.127  1.00  0.00    -0.248 NA
ATOM     59  C   UNL     1     -12.576   3.044  10.455  1.00  0.00     0.031 C 
ATOM     60  C   UNL     1     -16.153   4.796   5.867  1.00  0.00     0.029 A 
ATOM     61  C   UNL     1     -15.102   4.250   6.588  1.00  0.00     0.049 A 
ATOM     62  H   UNL     1     -13.342   3.329   5.878  1.00  0.00     0.167 HD
ATOM     63  C   UNL     1     -13.880   3.623   8.659  1.00  0.00     0.074 A 
ATOM     64  C   UNL     1     -13.739   3.570  10.100  1.00  0.00     0.031 C 
ATOM     65  C   UNL     1     -14.939   4.176   8.018  1.00  0.00     0.037 A 
BRANCH  52  66
ATOM     66  C   UNL     1     -14.591   3.966   1.847  1.00  0.00     0.064 A 
ATOM     67  C   UNL     1     -15.079   2.975   0.981  1.00  0.00     0.173 A 
ATOM     68  C   UNL     1     -14.726   5.305   1.450  1.00  0.00     0.173 A 
ATOM     69  F   UNL     1     -14.963   1.678   1.304  1.00  0.00    -0.203 F 
ATOM     70  C   UNL     1     -15.650   3.308  -0.244  1.00  0.00     0.198 A 
ATOM     71  C   UNL     1     -15.330   5.636   0.239  1.00  0.00     0.198 A 
ATOM     72  F   UNL     1     -14.279   6.294   2.238  1.00  0.00    -0.203 F 
ATOM     73  F   UNL     1     -16.058   2.341  -1.077  1.00  0.00    -0.200 F 
ATOM     74  C   UNL     1     -15.784   4.639  -0.610  1.00  0.00     0.200 A 
ATOM     75  F   UNL     1     -15.470   6.924  -0.107  1.00  0.00    -0.200 F 
ATOM     76  F   UNL     1     -16.344   4.959  -1.784  1.00  0.00    -0.200 F 
ENDBRANCH  52  66
BRANCH  53  77
ATOM     77  C   UNL     1     -10.010   1.626  10.457  1.00  0.00     0.064 A 
ATOM     78  C   UNL     1     -10.582   0.725  11.367  1.00  0.00     0.173 A 
ATOM     79  C   UNL     1      -8.792   2.223  10.814  1.00  0.00     0.173 A 
ATOM     80  F   UNL     1     -11.754   0.139  11.082  1.00  0.00    -0.203 F 
ATOM     81  C   UNL     1      -9.981   0.461  12.597  1.00  0.00     0.198 A 
ATOM     82  C   UNL     1      -8.174   1.932  12.029  1.00  0.00     0.198 A 
ATOM     83  F   UNL     1      -8.195   3.086   9.979  1.00  0.00    -0.203 F 
ATOM     84  F   UNL     1     -10.582  -0.357  13.472  1.00  0.00    -0.200 F 
ATOM     85  C   UNL     1      -8.775   1.061  12.925  1.00  0.00     0.200 A 
ATOM     86  F   UNL     1      -7.000   2.501  12.335  1.00  0.00    -0.200 F 
ATOM     87  F   UNL     1      -8.199   0.809  14.108  1.00  0.00    -0.200 F 
ENDBRANCH  53  77
BRANCH  65  88
ATOM     88  C   UNL     1     -16.041   4.732   8.873  1.00  0.00     0.064 A 
ATOM     89  C   UNL     1     -15.864   5.891   9.643  1.00  0.00     0.173 A 
ATOM     90  C   UNL     1     -17.299   4.111   8.898  1.00  0.00     0.173 A 
ATOM     91  F   UNL     1     -14.676   6.514   9.662  1.00  0.00    -0.203 F 
ATOM     92  C   UNL     1     -16.894   6.386  10.437  1.00  0.00     0.198 A 
ATOM     93  C   UNL     1     -18.339   4.631   9.663  1.00  0.00     0.198 A 
ATOM     94  F   UNL     1     -17.524   3.007   8.171  1.00  0.00    -0.203 F 
ATOM     95  F   UNL     1     -16.683   7.458  11.212  1.00  0.00    -0.200 F 
ATOM     96  C   UNL     1     -18.132   5.761  10.440  1.00  0.00     0.200 A 
ATOM     97  F   UNL     1     -19.540   4.037   9.650  1.00  0.00    -0.200 F 
ATOM     98  F   UNL     1     -19.125   6.242  11.200  1.00  0.00    -0.200 F 
ENDBRANCH  65  88
ENDBRANCH  39  40
ENDBRANCH  31  34
ENDBRANCH  29  30
ENDBRANCH  28  29
ENDBRANCH  27  28
ENDBRANCH  26  27
ENDBRANCH   1  26
TORSDOF 17
