REMARK SMILES O=C(NCCCCCCNC(=O)[C@H]1C[NH2+]CCN1c1ncc(C(F)(F)F)cc1Cl)c1ccc(-c2c3nc(c(-c4c(F)c(F)c(F)c(F)c4F)c4ccc([nH]4)c(-c4c(F)c(F)c(F)c(F)c4F)c4nc(c(-c5c(F)c(F)c(F)c(F)c5F)c5ccc2[nH]5)C=C4)C=C3)cc1
REMARK SMILES IDX 6 1 5 2 4 3 3 4 1 5 2 6 30 8 31 9 92 10 32 11 91 12 33 13
REMARK SMILES IDX 34 14 35 15 85 16 36 17 90 18 84 19 86 20 37 21 89 22 83 23
REMARK SMILES IDX 82 24 38 26 70 27 50 28 69 29 51 30 54 31 68 32 87 33 52 34
REMARK SMILES IDX 53 35 67 37 88 38 55 39 39 40 40 41 48 42 41 43 42 44 46 45
REMARK SMILES IDX 49 46 43 47 44 48 47 49 45 50 71 51 72 52 80 53 73 54 74 55
REMARK SMILES IDX 78 56 81 57 75 58 76 59 79 60 77 61 56 62 57 63 65 64 58 65
REMARK SMILES IDX 59 66 63 67 66 68 60 69 61 70 64 71 62 72 7 73 8 74 9 75
REMARK SMILES IDX 10 76 11 77 12 79 13 80 14 81 18 82 15 83 17 84 16 85 19 88
REMARK SMILES IDX 20 89 28 90 21 91 27 92 29 93 22 94 23 95 24 96 25 97 26 98
REMARK H PARENT 3 7 86 25 54 36 10 78 15 86 15 87
REMARK Flexibility Score: inf
ROOT
ATOM      1  C   UNL     1       7.518   7.681  -0.672  1.00  0.00     0.002 C 
ENDROOT
BRANCH   1   2
ATOM      2  C   UNL     1       6.873   8.985  -1.139  1.00  0.00     0.021 C 
BRANCH   2   3
ATOM      3  C   UNL     1       5.406   9.142  -0.768  1.00  0.00     0.116 C 
BRANCH   3   4
ATOM      4  N   UNL     1       5.189   9.278   0.663  1.00  0.00    -0.352 N 
ATOM      5  O   UNL     1       4.371  10.238   2.542  1.00  0.00    -0.269 OA
ATOM      6  C   UNL     1       4.357  10.155   1.318  1.00  0.00     0.251 C 
ATOM      7  H   UNL     1       5.703   8.665   1.236  1.00  0.00     0.163 HD
BRANCH   6   8
ATOM      8  C   UNL     1       3.459  11.027   0.527  1.00  0.00     0.039 A 
ATOM      9  C   UNL     1       2.712  10.498  -0.527  1.00  0.00     0.014 A 
ATOM     10  C   UNL     1       3.381  12.389   0.831  1.00  0.00     0.014 A 
ATOM     11  C   UNL     1       2.003  11.350  -1.363  1.00  0.00     0.010 A 
ATOM     12  C   UNL     1       2.592  13.233   0.042  1.00  0.00     0.010 A 
ATOM     13  C   UNL     1       1.919  12.724  -1.078  1.00  0.00    -0.014 A 
BRANCH  13  14
ATOM     14  C   UNL     1       1.048  13.572  -1.931  1.00  0.00     0.031 A 
ATOM     15  C   UNL     1       1.613  14.658  -2.801  1.00  0.00     0.074 A 
ATOM     16  C   UNL     1      -0.271  13.297  -1.958  1.00  0.00     0.049 A 
ATOM     17  N   UNL     1       0.992  15.428  -3.660  1.00  0.00    -0.248 NA
ATOM     18  C   UNL     1       3.055  14.924  -2.694  1.00  0.00     0.031 C 
ATOM     19  C   UNL     1      -0.931  12.283  -1.132  1.00  0.00     0.029 A 
ATOM     20  N   UNL     1      -1.284  13.814  -2.722  1.00  0.00    -0.354 N 
ATOM     21  C   UNL     1       1.959  16.273  -4.187  1.00  0.00     0.074 A 
ATOM     22  C   UNL     1       3.208  15.941  -3.532  1.00  0.00     0.031 C 
ATOM     23  C   UNL     1      -2.223  12.207  -1.478  1.00  0.00     0.029 A 
ATOM     24  C   UNL     1      -2.496  13.205  -2.505  1.00  0.00     0.049 A 
ATOM     25  H   UNL     1      -1.156  14.549  -3.364  1.00  0.00     0.167 HD
ATOM     26  C   UNL     1       1.816  17.231  -5.135  1.00  0.00     0.037 A 
ATOM     27  C   UNL     1      -3.697  13.429  -3.066  1.00  0.00     0.037 A 
ATOM     28  C   UNL     1       0.572  17.550  -5.789  1.00  0.00     0.049 A 
ATOM     29  C   UNL     1      -3.818  14.485  -4.124  1.00  0.00     0.074 A 
ATOM     30  C   UNL     1       0.327  18.499  -6.767  1.00  0.00     0.029 A 
ATOM     31  N   UNL     1      -0.640  16.925  -5.530  1.00  0.00    -0.354 N 
ATOM     32  N   UNL     1      -2.889  15.262  -4.625  1.00  0.00    -0.248 NA
ATOM     33  C   UNL     1      -5.155  14.697  -4.694  1.00  0.00     0.031 C 
ATOM     34  C   UNL     1      -1.038  18.470  -7.077  1.00  0.00     0.029 A 
ATOM     35  C   UNL     1      -1.636  17.475  -6.322  1.00  0.00     0.049 A 
ATOM     36  H   UNL     1      -0.773  16.199  -4.879  1.00  0.00     0.167 HD
ATOM     37  C   UNL     1      -3.526  16.057  -5.566  1.00  0.00     0.074 A 
ATOM     38  C   UNL     1      -4.913  15.639  -5.595  1.00  0.00     0.031 C 
ATOM     39  C   UNL     1      -3.013  17.054  -6.326  1.00  0.00     0.037 A 
BRANCH  26  40
ATOM     40  C   UNL     1       3.036  18.012  -5.530  1.00  0.00     0.064 A 
ATOM     41  C   UNL     1       4.045  17.445  -6.322  1.00  0.00     0.173 A 
ATOM     42  C   UNL     1       3.163  19.364  -5.174  1.00  0.00     0.173 A 
ATOM     43  F   UNL     1       3.976  16.154  -6.680  1.00  0.00    -0.203 F 
ATOM     44  C   UNL     1       5.142  18.198  -6.733  1.00  0.00     0.198 A 
ATOM     45  C   UNL     1       4.250  20.120  -5.606  1.00  0.00     0.198 A 
ATOM     46  F   UNL     1       2.223  19.957  -4.423  1.00  0.00    -0.203 F 
ATOM     47  F   UNL     1       6.109  17.627  -7.465  1.00  0.00    -0.200 F 
ATOM     48  C   UNL     1       5.240  19.536  -6.382  1.00  0.00     0.200 A 
ATOM     49  F   UNL     1       4.337  21.416  -5.276  1.00  0.00    -0.200 F 
ATOM     50  F   UNL     1       6.290  20.263  -6.790  1.00  0.00    -0.200 F 
ENDBRANCH  26  40
BRANCH  27  51
ATOM     51  C   UNL     1      -4.873  12.635  -2.629  1.00  0.00     0.064 A 
ATOM     52  C   UNL     1      -5.477  11.702  -3.483  1.00  0.00     0.173 A 
ATOM     53  C   UNL     1      -5.407  12.783  -1.341  1.00  0.00     0.173 A 
ATOM     54  F   UNL     1      -5.012  11.537  -4.730  1.00  0.00    -0.203 F 
ATOM     55  C   UNL     1      -6.581  10.960  -3.070  1.00  0.00     0.198 A 
ATOM     56  C   UNL     1      -6.491  12.019  -0.918  1.00  0.00     0.198 A 
ATOM     57  F   UNL     1      -4.859  13.657  -0.483  1.00  0.00    -0.203 F 
ATOM     58  F   UNL     1      -7.167  10.106  -3.920  1.00  0.00    -0.200 F 
ATOM     59  C   UNL     1      -7.083  11.114  -1.786  1.00  0.00     0.200 A 
ATOM     60  F   UNL     1      -6.959  12.156   0.330  1.00  0.00    -0.200 F 
ATOM     61  F   UNL     1      -8.139  10.393  -1.386  1.00  0.00    -0.200 F 
ENDBRANCH  27  51
BRANCH  39  62
ATOM     62  C   UNL     1      -3.966  17.754  -7.248  1.00  0.00     0.064 A 
ATOM     63  C   UNL     1      -4.943  18.633  -6.755  1.00  0.00     0.173 A 
ATOM     64  C   UNL     1      -3.905  17.544  -8.633  1.00  0.00     0.173 A 
ATOM     65  F   UNL     1      -5.051  18.851  -5.436  1.00  0.00    -0.203 F 
ATOM     66  C   UNL     1      -5.846  19.251  -7.615  1.00  0.00     0.198 A 
ATOM     67  C   UNL     1      -4.794  18.185  -9.492  1.00  0.00     0.198 A 
ATOM     68  F   UNL     1      -2.987  16.716  -9.152  1.00  0.00    -0.203 F 
ATOM     69  F   UNL     1      -6.807  20.041  -7.117  1.00  0.00    -0.200 F 
ATOM     70  C   UNL     1      -5.769  19.029  -8.982  1.00  0.00     0.200 A 
ATOM     71  F   UNL     1      -4.714  17.976 -10.813  1.00  0.00    -0.200 F 
ATOM     72  F   UNL     1      -6.644  19.619  -9.807  1.00  0.00    -0.200 F 
ENDBRANCH  39  62
ENDBRANCH  13  14
ENDBRANCH   6   8
ENDBRANCH   3   4
ENDBRANCH   2   3
ENDBRANCH   1   2
BRANCH   1  73
ATOM     73  C   UNL     1       6.808   6.399  -1.118  1.00  0.00     0.002 C 
BRANCH  73  74
ATOM     74  C   UNL     1       6.537   6.275  -2.624  1.00  0.00     0.021 C 
BRANCH  74  75
ATOM     75  C   UNL     1       7.772   6.417  -3.513  1.00  0.00     0.116 C 
BRANCH  75  76
ATOM     76  N   UNL     1       8.742   5.384  -3.220  1.00  0.00    -0.354 N 
ATOM     77  C   UNL     1       9.408   4.529  -4.052  1.00  0.00     0.248 C 
ATOM     78  H   UNL     1       8.959   5.280  -2.266  1.00  0.00     0.163 HD
ATOM     79  O   UNL     1      10.204   3.758  -3.509  1.00  0.00    -0.272 OA
BRANCH  77  80
ATOM     80  C   UNL     1       9.227   4.643  -5.585  1.00  0.00     0.228 C 
ATOM     81  C   UNL     1      10.195   5.749  -6.087  1.00  0.00     0.296 C 
ATOM     82  N   UNL     1       9.527   3.391  -6.303  1.00  0.00    -0.333 N 
ATOM     83  N   UNL     1      11.632   5.375  -6.041  1.00  0.00    -0.343 N 
ATOM     84  C   UNL     1      10.914   2.934  -6.318  1.00  0.00     0.180 C 
ATOM     85  C   UNL     1      11.827   4.102  -6.776  1.00  0.00     0.282 C 
ATOM     86  H   UNL     1      11.923   5.257  -5.070  1.00  0.00     0.346 HD
ATOM     87  H   UNL     1      12.192   6.110  -6.473  1.00  0.00     0.346 HD
BRANCH  82  88
ATOM     88  C   UNL     1       8.543   2.566  -6.791  1.00  0.00     0.148 A 
ATOM     89  N   UNL     1       8.521   1.294  -6.326  1.00  0.00    -0.237 NA
ATOM     90  C   UNL     1       7.631   2.972  -7.782  1.00  0.00     0.084 A 
ATOM     91  C   UNL     1       7.589   0.434  -6.806  1.00  0.00     0.126 A 
ATOM     92  C   UNL     1       6.691   2.063  -8.275  1.00  0.00     0.039 A 
ATOM     93  Cl  UNL     1       7.670   4.535  -8.522  1.00  0.00    -0.080 Cl
ATOM     94  C   UNL     1       6.660   0.760  -7.779  1.00  0.00     0.075 A 
BRANCH  94  95
ATOM     95  C   UNL     1       5.681  -0.262  -8.262  1.00  0.00     0.417 C 
ATOM     96  F   UNL     1       6.282  -1.410  -8.676  1.00  0.00    -0.166 F 
ATOM     97  F   UNL     1       4.794  -0.627  -7.298  1.00  0.00    -0.166 F 
ATOM     98  F   UNL     1       4.931   0.166  -9.315  1.00  0.00    -0.166 F 
ENDBRANCH  94  95
ENDBRANCH  82  88
ENDBRANCH  77  80
ENDBRANCH  75  76
ENDBRANCH  74  75
ENDBRANCH  73  74
ENDBRANCH   1  73
TORSDOF 15
