REMARK SMILES Cc1ccn2c([C@@H]3C[C@H]3C(=O)NCCCCCCNC(=O)c3ccc(-c4c5nc(c(-c6c(F)c(F)c(F)c(F)c6F)c6ccc([nH]6)c(-c6c(F)c(F)c(F)c(F)c6F)c6nc(c(-c7c(F)c(F)c(F)c(F)c7F)c7ccc4[nH]7)C=C6)C=C5)cc3)nnc2c1
REMARK SMILES IDX 16 1 15 2 14 3 13 4 12 5 10 6 11 7 9 9 7 10 8 11 6 12 1 13
REMARK SMILES IDX 2 14 3 15 88 16 4 17 87 18 5 19 86 20 85 21 17 22 18 23
REMARK SMILES IDX 19 24 20 25 21 27 22 28 23 29 84 30 24 31 83 32 25 33 26 34
REMARK SMILES IDX 27 35 77 36 28 37 82 38 76 39 78 40 29 41 81 42 75 43 74 44
REMARK SMILES IDX 30 46 62 47 42 48 61 49 43 50 46 51 60 52 79 53 44 54 45 55
REMARK SMILES IDX 59 57 80 58 47 59 31 60 32 61 40 62 33 63 34 64 38 65 41 66
REMARK SMILES IDX 35 67 36 68 39 69 37 70 63 71 64 72 72 73 65 74 66 75 70 76
REMARK SMILES IDX 73 77 67 78 68 79 71 80 69 81 48 82 49 83 57 84 50 85 51 86
REMARK SMILES IDX 55 87 58 88 52 89 53 90 56 91 54 92
REMARK H PARENT 12 8 19 26 78 45 46 56
REMARK Flexibility Score: inf
ROOT
ATOM      1  C   UNL     1      -3.637  -7.149   9.302  1.00  0.00     0.002 C 
ENDROOT
BRANCH   1   2
ATOM      2  C   UNL     1      -4.144  -6.172   8.235  1.00  0.00     0.002 C 
BRANCH   2   3
ATOM      3  C   UNL     1      -3.311  -4.890   8.093  1.00  0.00     0.021 C 
BRANCH   3   4
ATOM      4  C   UNL     1      -1.845  -5.149   7.754  1.00  0.00     0.116 C 
BRANCH   4   5
ATOM      5  N   UNL     1      -1.747  -5.775   6.456  1.00  0.00    -0.356 N 
ATOM      6  C   UNL     1      -1.308  -5.339   5.253  1.00  0.00     0.223 C 
ATOM      7  O   UNL     1      -1.592  -6.023   4.262  1.00  0.00    -0.275 OA
ATOM      8  H   UNL     1      -2.063  -6.707   6.445  1.00  0.00     0.163 HD
BRANCH   6   9
ATOM      9  C   UNL     1      -0.469  -4.146   5.031  1.00  0.00     0.090 C 
ATOM     10  C   UNL     1      -0.720  -2.784   5.628  1.00  0.00     0.071 C 
ATOM     11  C   UNL     1       0.531  -3.566   5.977  1.00  0.00     0.026 C 
BRANCH  10  12
ATOM     12  C   UNL     1      -0.606  -1.495   4.815  1.00  0.00     0.141 A 
ATOM     13  C   UNL     1       0.929   0.384  -0.234  1.00  0.00     0.044 C 
ATOM     14  C   UNL     1       0.570  -0.111   1.133  1.00  0.00    -0.046 A 
ATOM     15  C   UNL     1       0.863  -1.512   1.406  1.00  0.00     0.022 A 
ATOM     16  C   UNL     1       0.004   0.667   2.080  1.00  0.00     0.053 A 
ATOM     17  C   UNL     1       0.556  -2.029   2.606  1.00  0.00     0.095 A 
ATOM     18  C   UNL     1      -0.351   0.109   3.341  1.00  0.00     0.161 A 
ATOM     19  N   UNL     1      -0.072  -1.236   3.566  1.00  0.00    -0.286 N 
ATOM     20  N   UNL     1      -0.952   0.623   4.390  1.00  0.00    -0.130 NA
ATOM     21  N   UNL     1      -1.133  -0.386   5.301  1.00  0.00    -0.134 NA
ENDBRANCH  10  12
ENDBRANCH   6   9
ENDBRANCH   4   5
ENDBRANCH   3   4
ENDBRANCH   2   3
ENDBRANCH   1   2
BRANCH   1  22
ATOM     22  C   UNL     1      -3.454  -6.532  10.695  1.00  0.00     0.021 C 
BRANCH  22  23
ATOM     23  C   UNL     1      -4.678  -5.756  11.181  1.00  0.00     0.116 C 
BRANCH  23  24
ATOM     24  N   UNL     1      -5.866  -6.575  11.267  1.00  0.00    -0.352 N 
ATOM     25  C   UNL     1      -6.397  -7.399  12.213  1.00  0.00     0.251 C 
ATOM     26  H   UNL     1      -6.420  -6.527  10.454  1.00  0.00     0.163 HD
ATOM     27  O   UNL     1      -7.484  -7.915  11.943  1.00  0.00    -0.269 OA
BRANCH  25  28
ATOM     28  C   UNL     1      -5.727  -7.768  13.487  1.00  0.00     0.039 A 
ATOM     29  C   UNL     1      -4.559  -7.196  13.993  1.00  0.00     0.014 A 
ATOM     30  C   UNL     1      -6.320  -8.830  14.193  1.00  0.00     0.014 A 
ATOM     31  C   UNL     1      -3.921  -7.755  15.090  1.00  0.00     0.010 A 
ATOM     32  C   UNL     1      -5.706  -9.373  15.309  1.00  0.00     0.010 A 
ATOM     33  C   UNL     1      -4.471  -8.875  15.710  1.00  0.00    -0.014 A 
BRANCH  33  34
ATOM     34  C   UNL     1      -3.753  -9.457  16.835  1.00  0.00     0.031 A 
ATOM     35  C   UNL     1      -3.592  -8.550  18.011  1.00  0.00     0.074 A 
ATOM     36  C   UNL     1      -3.380 -10.752  16.833  1.00  0.00     0.049 A 
ATOM     37  N   UNL     1      -2.504  -8.197  18.618  1.00  0.00    -0.248 NA
ATOM     38  C   UNL     1      -4.800  -7.864  18.506  1.00  0.00     0.031 C 
ATOM     39  C   UNL     1      -3.703 -11.787  15.844  1.00  0.00     0.029 A 
ATOM     40  N   UNL     1      -2.706 -11.451  17.785  1.00  0.00    -0.354 N 
ATOM     41  C   UNL     1      -2.902  -7.373  19.671  1.00  0.00     0.074 A 
ATOM     42  C   UNL     1      -4.303  -7.103  19.481  1.00  0.00     0.031 C 
ATOM     43  C   UNL     1      -3.442 -13.006  16.368  1.00  0.00     0.029 A 
ATOM     44  C   UNL     1      -2.806 -12.831  17.661  1.00  0.00     0.049 A 
ATOM     45  H   UNL     1      -2.191 -11.016  18.502  1.00  0.00     0.167 HD
ATOM     46  C   UNL     1      -2.100  -7.132  20.743  1.00  0.00     0.037 A 
ATOM     47  C   UNL     1      -2.458 -13.747  18.599  1.00  0.00     0.037 A 
ATOM     48  C   UNL     1      -0.721  -7.396  20.450  1.00  0.00     0.049 A 
ATOM     49  C   UNL     1      -1.550 -13.070  19.556  1.00  0.00     0.074 A 
ATOM     50  C   UNL     1       0.214  -6.839  19.601  1.00  0.00     0.029 A 
ATOM     51  N   UNL     1      -0.199  -8.604  20.835  1.00  0.00    -0.354 N 
ATOM     52  N   UNL     1      -0.348 -12.664  19.256  1.00  0.00    -0.248 NA
ATOM     53  C   UNL     1      -2.151 -12.445  20.724  1.00  0.00     0.031 C 
ATOM     54  C   UNL     1       0.998  -7.938  19.142  1.00  0.00     0.029 A 
ATOM     55  C   UNL     1       0.530  -9.087  19.780  1.00  0.00     0.049 A 
ATOM     56  H   UNL     1      -0.324  -9.043  21.708  1.00  0.00     0.167 HD
ATOM     57  C   UNL     1      -0.208 -11.458  19.924  1.00  0.00     0.074 A 
ATOM     58  C   UNL     1      -1.317 -11.414  20.874  1.00  0.00     0.031 C 
ATOM     59  C   UNL     1       0.625 -10.488  19.449  1.00  0.00     0.037 A 
BRANCH  46  60
ATOM     60  C   UNL     1      -2.613  -6.980  22.151  1.00  0.00     0.064 A 
ATOM     61  C   UNL     1      -1.757  -6.512  23.167  1.00  0.00     0.173 A 
ATOM     62  C   UNL     1      -3.825  -7.556  22.590  1.00  0.00     0.173 A 
ATOM     63  F   UNL     1      -0.564  -5.981  22.863  1.00  0.00    -0.203 F 
ATOM     64  C   UNL     1      -2.074  -6.659  24.521  1.00  0.00     0.198 A 
ATOM     65  C   UNL     1      -4.160  -7.654  23.938  1.00  0.00     0.198 A 
ATOM     66  F   UNL     1      -4.674  -8.148  21.740  1.00  0.00    -0.203 F 
ATOM     67  F   UNL     1      -1.182  -6.302  25.456  1.00  0.00    -0.200 F 
ATOM     68  C   UNL     1      -3.274  -7.231  24.905  1.00  0.00     0.200 A 
ATOM     69  F   UNL     1      -5.316  -8.235  24.289  1.00  0.00    -0.200 F 
ATOM     70  F   UNL     1      -3.554  -7.422  26.201  1.00  0.00    -0.200 F 
ENDBRANCH  46  60
BRANCH  47  71
ATOM     71  C   UNL     1      -3.139 -15.021  18.938  1.00  0.00     0.064 A 
ATOM     72  C   UNL     1      -2.507 -15.976  19.752  1.00  0.00     0.173 A 
ATOM     73  C   UNL     1      -4.523 -15.191  18.733  1.00  0.00     0.173 A 
ATOM     74  F   UNL     1      -1.200 -15.865  20.030  1.00  0.00    -0.203 F 
ATOM     75  C   UNL     1      -3.223 -17.014  20.358  1.00  0.00     0.198 A 
ATOM     76  C   UNL     1      -5.235 -16.231  19.333  1.00  0.00     0.198 A 
ATOM     77  F   UNL     1      -5.231 -14.294  18.032  1.00  0.00    -0.203 F 
ATOM     78  F   UNL     1      -2.599 -17.863  21.186  1.00  0.00    -0.200 F 
ATOM     79  C   UNL     1      -4.589 -17.132  20.159  1.00  0.00     0.200 A 
ATOM     80  F   UNL     1      -6.562 -16.312  19.162  1.00  0.00    -0.200 F 
ATOM     81  F   UNL     1      -5.288 -18.082  20.796  1.00  0.00    -0.200 F 
ENDBRANCH  47  71
BRANCH  59  82
ATOM     82  C   UNL     1       1.546 -10.856  18.320  1.00  0.00     0.064 A 
ATOM     83  C   UNL     1       1.103 -11.197  17.029  1.00  0.00     0.173 A 
ATOM     84  C   UNL     1       2.925 -10.707  18.509  1.00  0.00     0.173 A 
ATOM     85  F   UNL     1      -0.203 -11.261  16.743  1.00  0.00    -0.203 F 
ATOM     86  C   UNL     1       2.004 -11.413  15.988  1.00  0.00     0.198 A 
ATOM     87  C   UNL     1       3.821 -10.889  17.459  1.00  0.00     0.198 A 
ATOM     88  F   UNL     1       3.400 -10.327  19.705  1.00  0.00    -0.203 F 
ATOM     89  F   UNL     1       1.556 -11.739  14.766  1.00  0.00    -0.200 F 
ATOM     90  C   UNL     1       3.362 -11.250  16.202  1.00  0.00     0.200 A 
ATOM     91  F   UNL     1       5.129 -10.679  17.658  1.00  0.00    -0.200 F 
ATOM     92  F   UNL     1       4.227 -11.408  15.190  1.00  0.00    -0.200 F 
ENDBRANCH  59  82
ENDBRANCH  33  34
ENDBRANCH  25  28
ENDBRANCH  23  24
ENDBRANCH  22  23
ENDBRANCH   1  22
TORSDOF 14
