REMARK SMILES O=C(COc1ccc(Br)cc1/C=N/Nc1ncccc1[N+](=O)[O-])NCCCCCCNC(=O)c1ccc(-c2c3nc(c(-c4c(F)c(F)c(F)c(F)c4F)c4ccc([nH]4)c(-c4c(F)c(F)c(F)c(F)c4F)c4nc(c(-c5c(F)c(F)c(F)c(F)c5F)c5ccc2[nH]5)C=C4)C=C3)cc1
REMARK SMILES IDX 25 1 24 2 1 3 2 4 3 6 4 7 5 8 6 9 11 10 7 11 10 12 8 13 9 14
REMARK SMILES IDX 12 15 13 16 14 17 15 19 16 20 20 21 17 22 19 23 18 24 21 25
REMARK SMILES IDX 22 26 23 27 26 28 27 29 28 30 29 31 30 32 31 33 32 34 33 36
REMARK SMILES IDX 34 37 35 38 96 39 36 40 95 41 37 42 38 43 39 44 89 45 40 46
REMARK SMILES IDX 94 47 88 48 90 49 41 50 93 51 87 52 86 53 42 55 74 56 54 57
REMARK SMILES IDX 73 58 55 59 58 60 72 61 91 62 56 63 57 64 71 66 92 67 59 68
REMARK SMILES IDX 43 69 44 70 52 71 45 72 46 73 50 74 53 75 47 76 48 77 51 78
REMARK SMILES IDX 49 79 75 80 76 81 84 82 77 83 78 84 82 85 85 86 79 87 80 88
REMARK SMILES IDX 83 89 81 90 60 91 61 92 69 93 62 94 63 95 67 96 70 97 64 98
REMARK SMILES IDX 65 99 68 100 66 101
REMARK H PARENT 24 5 14 18 31 35 90 54 58 65
REMARK Flexibility Score: inf
ROOT
ATOM      1  C   UNL     1       2.088  -0.136   2.389  1.00  0.00     0.116 C 
ENDROOT
BRANCH   1   2
ATOM      2  N   UNL     1       2.739   0.051   1.110  1.00  0.00    -0.353 N 
ATOM      3  O   UNL     1       0.988  -0.683  -0.184  1.00  0.00    -0.271 OA
ATOM      4  C   UNL     1       2.094  -0.160  -0.091  1.00  0.00     0.257 C 
ATOM      5  H   UNL     1       3.680   0.340   1.097  1.00  0.00     0.163 HD
BRANCH   4   6
ATOM      6  C   UNL     1       2.877   0.338  -1.310  1.00  0.00     0.329 C 
BRANCH   6   7
ATOM      7  O   UNL     1       3.739   1.457  -1.058  1.00  0.00    -0.483 OA
BRANCH   7   8
ATOM      8  C   UNL     1       3.106   2.671  -1.158  1.00  0.00     0.129 A 
ATOM      9  C   UNL     1       2.063   3.015  -0.291  1.00  0.00     0.048 A 
ATOM     10  C   UNL     1       3.566   3.625  -2.075  1.00  0.00     0.038 A 
ATOM     11  C   UNL     1       1.478   4.282  -0.349  1.00  0.00     0.019 A 
ATOM     12  C   UNL     1       2.972   4.893  -2.144  1.00  0.00     0.029 A 
ATOM     13  C   UNL     1       1.936   5.215  -1.274  1.00  0.00     0.018 A 
ATOM     14  Br  UNL     1       1.169   6.941  -1.317  1.00  0.00    -0.051 Br
BRANCH  10  15
ATOM     15  C   UNL     1       4.700   3.329  -2.969  1.00  0.00     0.145 C 
ATOM     16  N   UNL     1       4.838   3.952  -4.101  1.00  0.00    -0.181 NA
BRANCH  16  17
ATOM     17  N   UNL     1       5.933   3.661  -4.844  1.00  0.00    -0.256 N 
ATOM     18  H   UNL     1       6.448   4.425  -5.190  1.00  0.00     0.192 HD
BRANCH  17  19
ATOM     19  C   UNL     1       6.406   2.390  -5.168  1.00  0.00     0.225 A 
ATOM     20  N   UNL     1       7.758   2.321  -5.276  1.00  0.00    -0.232 NA
ATOM     21  C   UNL     1       5.640   1.238  -5.291  1.00  0.00     0.313 A 
ATOM     22  C   UNL     1       8.338   1.107  -5.427  1.00  0.00     0.114 A 
ATOM     23  C   UNL     1       6.248  -0.017  -5.429  1.00  0.00     0.091 A 
ATOM     24  C   UNL     1       7.633  -0.081  -5.483  1.00  0.00     0.027 A 
BRANCH  21  25
ATOM     25  N   UNL     1       4.202   1.298  -5.334  1.00  0.00     0.066 N 
ATOM     26  O   UNL     1       3.677   1.889  -6.286  1.00  0.00    -0.258 OA
ATOM     27  O   UNL     1       3.596   0.652  -4.464  1.00  0.00    -0.258 OA
ENDBRANCH  21  25
ENDBRANCH  17  19
ENDBRANCH  16  17
ENDBRANCH  10  15
ENDBRANCH   7   8
ENDBRANCH   6   7
ENDBRANCH   4   6
ENDBRANCH   1   2
BRANCH   1  28
ATOM     28  C   UNL     1       2.658  -1.314   3.169  1.00  0.00     0.021 C 
BRANCH  28  29
ATOM     29  C   UNL     1       4.154  -1.202   3.485  1.00  0.00     0.002 C 
BRANCH  29  30
ATOM     30  C   UNL     1       4.571   0.041   4.278  1.00  0.00     0.002 C 
BRANCH  30  31
ATOM     31  C   UNL     1       3.868   0.228   5.624  1.00  0.00     0.021 C 
BRANCH  31  32
ATOM     32  C   UNL     1       4.015  -0.940   6.594  1.00  0.00     0.116 C 
BRANCH  32  33
ATOM     33  N   UNL     1       5.396  -1.170   6.987  1.00  0.00    -0.352 N 
ATOM     34  C   UNL     1       5.937  -1.296   8.243  1.00  0.00     0.251 C 
ATOM     35  H   UNL     1       6.038  -1.247   6.244  1.00  0.00     0.163 HD
ATOM     36  O   UNL     1       7.157  -1.324   8.390  1.00  0.00    -0.269 OA
BRANCH  34  37
ATOM     37  C   UNL     1       5.054  -1.370   9.426  1.00  0.00     0.039 A 
ATOM     38  C   UNL     1       5.377  -0.618  10.559  1.00  0.00     0.014 A 
ATOM     39  C   UNL     1       3.913  -2.177   9.424  1.00  0.00     0.014 A 
ATOM     40  C   UNL     1       4.521  -0.624  11.662  1.00  0.00     0.010 A 
ATOM     41  C   UNL     1       3.021  -2.121  10.492  1.00  0.00     0.010 A 
ATOM     42  C   UNL     1       3.316  -1.345  11.623  1.00  0.00    -0.014 A 
BRANCH  42  43
ATOM     43  C   UNL     1       2.351  -1.294  12.752  1.00  0.00     0.031 A 
ATOM     44  C   UNL     1       2.023  -2.541  13.527  1.00  0.00     0.074 A 
ATOM     45  C   UNL     1       1.724  -0.138  13.041  1.00  0.00     0.049 A 
ATOM     46  N   UNL     1       1.165  -2.710  14.502  1.00  0.00    -0.248 NA
ATOM     47  C   UNL     1       2.734  -3.768  13.136  1.00  0.00     0.031 C 
ATOM     48  C   UNL     1       1.923   1.130  12.337  1.00  0.00     0.029 A 
ATOM     49  N   UNL     1       0.783   0.158  13.997  1.00  0.00    -0.354 N 
ATOM     50  C   UNL     1       1.227  -4.058  14.831  1.00  0.00     0.074 A 
ATOM     51  C   UNL     1       2.160  -4.674  13.913  1.00  0.00     0.031 C 
ATOM     52  C   UNL     1       1.151   2.072  12.902  1.00  0.00     0.029 A 
ATOM     53  C   UNL     1       0.370   1.468  13.976  1.00  0.00     0.049 A 
ATOM     54  H   UNL     1       0.438  -0.506  14.637  1.00  0.00     0.167 HD
ATOM     55  C   UNL     1       0.582  -4.717  15.823  1.00  0.00     0.037 A 
ATOM     56  C   UNL     1      -0.543   2.107  14.733  1.00  0.00     0.037 A 
ATOM     57  C   UNL     1      -0.336  -4.097  16.743  1.00  0.00     0.049 A 
ATOM     58  C   UNL     1      -1.268   1.344  15.809  1.00  0.00     0.074 A 
ATOM     59  C   UNL     1      -0.998  -4.665  17.817  1.00  0.00     0.029 A 
ATOM     60  N   UNL     1      -0.729  -2.767  16.692  1.00  0.00    -0.354 N 
ATOM     61  N   UNL     1      -1.146   0.087  16.160  1.00  0.00    -0.248 NA
ATOM     62  C   UNL     1      -2.255   2.093  16.600  1.00  0.00     0.031 C 
ATOM     63  C   UNL     1      -1.836  -3.696  18.378  1.00  0.00     0.029 A 
ATOM     64  C   UNL     1      -1.648  -2.505  17.696  1.00  0.00     0.049 A 
ATOM     65  H   UNL     1      -0.404  -2.106  16.038  1.00  0.00     0.167 HD
ATOM     66  C   UNL     1      -2.012  -0.097  17.230  1.00  0.00     0.074 A 
ATOM     67  C   UNL     1      -2.642   1.182  17.481  1.00  0.00     0.031 C 
ATOM     68  C   UNL     1      -2.262  -1.224  17.941  1.00  0.00     0.037 A 
BRANCH  55  69
ATOM     69  C   UNL     1       0.843  -6.191  15.962  1.00  0.00     0.064 A 
ATOM     70  C   UNL     1       2.091  -6.684  16.373  1.00  0.00     0.173 A 
ATOM     71  C   UNL     1      -0.177  -7.122  15.710  1.00  0.00     0.173 A 
ATOM     72  F   UNL     1       3.104  -5.839  16.619  1.00  0.00    -0.203 F 
ATOM     73  C   UNL     1       2.319  -8.053  16.491  1.00  0.00     0.198 A 
ATOM     74  C   UNL     1       0.044  -8.488  15.863  1.00  0.00     0.198 A 
ATOM     75  F   UNL     1      -1.392  -6.707  15.322  1.00  0.00    -0.203 F 
ATOM     76  F   UNL     1       3.536  -8.501  16.828  1.00  0.00    -0.200 F 
ATOM     77  C   UNL     1       1.294  -8.953  16.243  1.00  0.00     0.200 A 
ATOM     78  F   UNL     1      -0.952  -9.356  15.639  1.00  0.00    -0.200 F 
ATOM     79  F   UNL     1       1.513 -10.270  16.363  1.00  0.00    -0.200 F 
ENDBRANCH  55  69
BRANCH  56  80
ATOM     80  C   UNL     1      -0.810   3.554  14.516  1.00  0.00     0.064 A 
ATOM     81  C   UNL     1      -0.454   4.504  15.485  1.00  0.00     0.173 A 
ATOM     82  C   UNL     1      -1.434   4.018  13.349  1.00  0.00     0.173 A 
ATOM     83  F   UNL     1       0.127   4.109  16.627  1.00  0.00    -0.203 F 
ATOM     84  C   UNL     1      -0.735   5.857  15.305  1.00  0.00     0.198 A 
ATOM     85  C   UNL     1      -1.686   5.375  13.156  1.00  0.00     0.198 A 
ATOM     86  F   UNL     1      -1.791   3.152  12.388  1.00  0.00    -0.203 F 
ATOM     87  F   UNL     1      -0.432   6.735  16.271  1.00  0.00    -0.200 F 
ATOM     88  C   UNL     1      -1.346   6.292  14.139  1.00  0.00     0.200 A 
ATOM     89  F   UNL     1      -2.261   5.793  12.020  1.00  0.00    -0.200 F 
ATOM     90  F   UNL     1      -1.614   7.593  13.966  1.00  0.00    -0.200 F 
ENDBRANCH  56  80
BRANCH  68  91
ATOM     91  C   UNL     1      -3.226  -1.117  19.089  1.00  0.00     0.064 A 
ATOM     92  C   UNL     1      -4.600  -0.924  18.887  1.00  0.00     0.173 A 
ATOM     93  C   UNL     1      -2.770  -1.247  20.410  1.00  0.00     0.173 A 
ATOM     94  F   UNL     1      -5.086  -0.778  17.645  1.00  0.00    -0.203 F 
ATOM     95  C   UNL     1      -5.477  -0.835  19.965  1.00  0.00     0.198 A 
ATOM     96  C   UNL     1      -3.655  -1.194  21.484  1.00  0.00     0.198 A 
ATOM     97  F   UNL     1      -1.466  -1.441  20.661  1.00  0.00    -0.203 F 
ATOM     98  F   UNL     1      -6.778  -0.595  19.749  1.00  0.00    -0.200 F 
ATOM     99  C   UNL     1      -5.006  -0.979  21.261  1.00  0.00     0.200 A 
ATOM    100  F   UNL     1      -3.199  -1.350  22.734  1.00  0.00    -0.200 F 
ATOM    101  F   UNL     1      -5.853  -0.902  22.296  1.00  0.00    -0.200 F 
ENDBRANCH  68  91
ENDBRANCH  42  43
ENDBRANCH  34  37
ENDBRANCH  32  33
ENDBRANCH  31  32
ENDBRANCH  30  31
ENDBRANCH  29  30
ENDBRANCH  28  29
ENDBRANCH   1  28
TORSDOF 19
