REMARK SMILES CC(C)(O)C#Cc1ccc(C(=O)N[C@@H](CCC(N)=O)C(=O)NCCCCCCNC(=O)c2ccc(-c3c4nc(c(-c5c(F)c(F)c(F)c(F)c5F)c5ccc([nH]5)c(-c5c(F)c(F)c(F)c(F)c5F)c5nc(c(-c6c(F)c(F)c(F)c(F)c6F)c6ccc3[nH]6)C=C5)C=C4)cc2)s1
REMARK SMILES IDX 24 1 23 2 22 3 20 4 21 5 14 7 13 8 11 9 12 10 10 12 7 13
REMARK SMILES IDX 8 14 95 15 9 16 6 17 5 18 2 19 1 20 3 21 4 22 15 24 16 25
REMARK SMILES IDX 17 26 18 27 19 28 25 31 26 32 27 33 28 34 29 35 30 36 31 38
REMARK SMILES IDX 32 39 33 40 94 41 34 42 93 43 35 44 36 45 37 46 87 47 38 48
REMARK SMILES IDX 92 49 86 50 88 51 39 52 91 53 85 54 84 55 40 57 72 58 52 59
REMARK SMILES IDX 71 60 53 61 56 62 70 63 89 64 54 65 55 66 69 68 90 69 57 70
REMARK SMILES IDX 41 71 42 72 50 73 43 74 44 75 48 76 51 77 45 78 46 79 49 80
REMARK SMILES IDX 47 81 73 82 74 83 82 84 75 85 76 86 80 87 83 88 77 89 78 90
REMARK SMILES IDX 81 91 79 92 58 93 59 94 67 95 60 96 61 97 65 98 68 99 62 100
REMARK SMILES IDX 63 101 66 102 64 103
REMARK H PARENT 22 6 13 11 4 23 18 29 18 30 29 37 88 56 56 67
REMARK Flexibility Score: inf
ROOT
ATOM      1  C   UNL     1       6.009  -6.160  -9.688  1.00  0.00     0.021 C 
ENDROOT
BRANCH   1   2
ATOM      2  C   UNL     1       4.738  -5.950  -8.881  1.00  0.00     0.116 C 
BRANCH   2   3
ATOM      3  N   UNL     1       4.997  -5.468  -7.549  1.00  0.00    -0.354 N 
ATOM      4  C   UNL     1       4.220  -4.788  -6.669  1.00  0.00     0.242 C 
ATOM      5  O   UNL     1       4.664  -4.670  -5.521  1.00  0.00    -0.273 OA
ATOM      6  H   UNL     1       5.902  -5.668  -7.216  1.00  0.00     0.163 HD
BRANCH   4   7
ATOM      7  C   UNL     1       2.829  -4.222  -7.026  1.00  0.00     0.172 C 
BRANCH   7   8
ATOM      8  N   UNL     1       2.787  -3.380  -8.237  1.00  0.00    -0.340 N 
ATOM      9  C   UNL     1       2.651  -2.010  -8.356  1.00  0.00     0.262 C 
ATOM     10  O   UNL     1       2.935  -1.522  -9.450  1.00  0.00    -0.268 OA
ATOM     11  H   UNL     1       2.867  -3.868  -9.089  1.00  0.00     0.164 HD
BRANCH   9  12
ATOM     12  C   UNL     1       2.263  -1.208  -7.217  1.00  0.00     0.093 A 
ATOM     13  C   UNL     1       1.652  -0.678  -4.939  1.00  0.00     0.078 A 
ATOM     14  C   UNL     1       2.362   0.357  -5.504  1.00  0.00     0.030 A 
ATOM     15  S   UNL     1       1.005  -1.683  -6.152  1.00  0.00    -0.121 S 
ATOM     16  C   UNL     1       2.698   0.059  -6.863  1.00  0.00     0.027 A 
BRANCH  13  17
ATOM     17  C   UNL     1       1.373  -0.881  -3.567  1.00  0.00    -0.053 C 
ATOM     18  C   UNL     1       0.939  -1.025  -2.346  1.00  0.00    -0.063 C 
BRANCH  18  19
ATOM     19  C   UNL     1       0.432  -1.192  -0.923  1.00  0.00     0.120 C 
ATOM     20  C   UNL     1       0.913  -0.027  -0.062  1.00  0.00     0.056 C 
ATOM     21  C   UNL     1       0.905  -2.531  -0.360  1.00  0.00     0.056 C 
BRANCH  19  22
ATOM     22  O   UNL     1      -0.992  -1.182  -0.957  1.00  0.00    -0.378 OA
ATOM     23  H   UNL     1      -1.339  -1.288  -0.057  1.00  0.00     0.212 HD
ENDBRANCH  19  22
ENDBRANCH  18  19
ENDBRANCH  13  17
ENDBRANCH   9  12
ENDBRANCH   7   8
BRANCH   7  24
ATOM     24  C   UNL     1       1.610  -5.162  -6.935  1.00  0.00     0.045 C 
BRANCH  24  25
ATOM     25  C   UNL     1       1.644  -6.492  -7.682  1.00  0.00     0.102 C 
BRANCH  25  26
ATOM     26  C   UNL     1       2.376  -7.582  -6.927  1.00  0.00     0.217 C 
ATOM     27  N   UNL     1       2.433  -8.783  -7.569  1.00  0.00    -0.370 N 
ATOM     28  O   UNL     1       2.895  -7.441  -5.830  1.00  0.00    -0.275 OA
ATOM     29  H   UNL     1       2.013  -8.888  -8.453  1.00  0.00     0.159 HD
ATOM     30  H   UNL     1       2.895  -9.544  -7.150  1.00  0.00     0.159 HD
ENDBRANCH  25  26
ENDBRANCH  24  25
ENDBRANCH   7  24
ENDBRANCH   4   7
ENDBRANCH   2   3
ENDBRANCH   1   2
BRANCH   1  31
ATOM     31  C   UNL     1       6.914  -7.270  -9.151  1.00  0.00     0.002 C 
BRANCH  31  32
ATOM     32  C   UNL     1       6.274  -8.641  -8.900  1.00  0.00     0.002 C 
BRANCH  32  33
ATOM     33  C   UNL     1       5.359  -9.242  -9.977  1.00  0.00     0.021 C 
BRANCH  33  34
ATOM     34  C   UNL     1       5.959  -9.414 -11.365  1.00  0.00     0.116 C 
BRANCH  34  35
ATOM     35  N   UNL     1       7.170 -10.223 -11.376  1.00  0.00    -0.352 N 
ATOM     36  C   UNL     1       8.168 -10.262 -12.328  1.00  0.00     0.251 C 
ATOM     37  H   UNL     1       7.293 -10.820 -10.603  1.00  0.00     0.163 HD
ATOM     38  O   UNL     1       8.935 -11.214 -12.395  1.00  0.00    -0.269 OA
BRANCH  36  39
ATOM     39  C   UNL     1       8.286  -9.147 -13.286  1.00  0.00     0.039 A 
ATOM     40  C   UNL     1       8.477  -9.387 -14.644  1.00  0.00     0.014 A 
ATOM     41  C   UNL     1       8.153  -7.843 -12.817  1.00  0.00     0.014 A 
ATOM     42  C   UNL     1       8.428  -8.311 -15.529  1.00  0.00     0.010 A 
ATOM     43  C   UNL     1       7.972  -6.800 -13.698  1.00  0.00     0.010 A 
ATOM     44  C   UNL     1       8.139  -7.016 -15.059  1.00  0.00    -0.014 A 
BRANCH  44  45
ATOM     45  C   UNL     1       7.953  -5.922 -16.013  1.00  0.00     0.031 A 
ATOM     46  C   UNL     1       7.041  -6.207 -17.153  1.00  0.00     0.074 A 
ATOM     47  C   UNL     1       8.428  -4.666 -15.871  1.00  0.00     0.049 A 
ATOM     48  N   UNL     1       7.371  -6.393 -18.388  1.00  0.00    -0.248 NA
ATOM     49  C   UNL     1       5.605  -6.375 -16.887  1.00  0.00     0.031 C 
ATOM     50  C   UNL     1       9.045  -4.054 -14.689  1.00  0.00     0.029 A 
ATOM     51  N   UNL     1       8.387  -3.631 -16.765  1.00  0.00    -0.354 N 
ATOM     52  C   UNL     1       6.178  -6.516 -19.094  1.00  0.00     0.074 A 
ATOM     53  C   UNL     1       5.134  -6.639 -18.110  1.00  0.00     0.031 C 
ATOM     54  C   UNL     1       9.111  -2.716 -14.855  1.00  0.00     0.029 A 
ATOM     55  C   UNL     1       8.744  -2.408 -16.224  1.00  0.00     0.049 A 
ATOM     56  H   UNL     1       8.126  -3.745 -17.707  1.00  0.00     0.167 HD
ATOM     57  C   UNL     1       6.135  -6.256 -20.431  1.00  0.00     0.037 A 
ATOM     58  C   UNL     1       8.778  -1.209 -16.846  1.00  0.00     0.037 A 
ATOM     59  C   UNL     1       7.458  -6.107 -20.979  1.00  0.00     0.049 A 
ATOM     60  C   UNL     1       8.960  -1.438 -18.295  1.00  0.00     0.074 A 
ATOM     61  C   UNL     1       8.464  -6.920 -21.446  1.00  0.00     0.029 A 
ATOM     62  N   UNL     1       7.994  -4.866 -20.783  1.00  0.00    -0.354 N 
ATOM     63  N   UNL     1      10.037  -1.962 -18.815  1.00  0.00    -0.248 NA
ATOM     64  C   UNL     1       7.816  -1.340 -19.195  1.00  0.00     0.031 C 
ATOM     65  C   UNL     1       9.665  -6.147 -21.392  1.00  0.00     0.029 A 
ATOM     66  C   UNL     1       9.357  -4.881 -20.902  1.00  0.00     0.049 A 
ATOM     67  H   UNL     1       7.465  -4.061 -20.581  1.00  0.00     0.167 HD
ATOM     68  C   UNL     1       9.582  -2.628 -19.932  1.00  0.00     0.074 A 
ATOM     69  C   UNL     1       8.275  -2.060 -20.222  1.00  0.00     0.031 C 
ATOM     70  C   UNL     1      10.133  -3.815 -20.314  1.00  0.00     0.037 A 
BRANCH  57  71
ATOM     71  C   UNL     1       4.957  -5.679 -21.181  1.00  0.00     0.064 A 
ATOM     72  C   UNL     1       4.993  -5.641 -22.592  1.00  0.00     0.173 A 
ATOM     73  C   UNL     1       3.973  -4.871 -20.575  1.00  0.00     0.173 A 
ATOM     74  F   UNL     1       5.904  -6.355 -23.271  1.00  0.00    -0.203 F 
ATOM     75  C   UNL     1       4.151  -4.806 -23.332  1.00  0.00     0.198 A 
ATOM     76  C   UNL     1       3.099  -4.078 -21.321  1.00  0.00     0.198 A 
ATOM     77  F   UNL     1       3.898  -4.727 -19.247  1.00  0.00    -0.203 F 
ATOM     78  F   UNL     1       4.300  -4.715 -24.661  1.00  0.00    -0.200 F 
ATOM     79  C   UNL     1       3.207  -4.022 -22.695  1.00  0.00     0.200 A 
ATOM     80  F   UNL     1       2.206  -3.306 -20.686  1.00  0.00    -0.200 F 
ATOM     81  F   UNL     1       2.437  -3.180 -23.396  1.00  0.00    -0.200 F 
ENDBRANCH  57  71
BRANCH  58  82
ATOM     82  C   UNL     1       8.502   0.121 -16.268  1.00  0.00     0.064 A 
ATOM     83  C   UNL     1       8.958   1.292 -16.889  1.00  0.00     0.173 A 
ATOM     84  C   UNL     1       7.548   0.274 -15.244  1.00  0.00     0.173 A 
ATOM     85  F   UNL     1       9.843   1.222 -17.894  1.00  0.00    -0.203 F 
ATOM     86  C   UNL     1       8.454   2.546 -16.535  1.00  0.00     0.198 A 
ATOM     87  C   UNL     1       7.052   1.527 -14.887  1.00  0.00     0.198 A 
ATOM     88  F   UNL     1       7.012  -0.797 -14.640  1.00  0.00    -0.203 F 
ATOM     89  F   UNL     1       8.859   3.638 -17.198  1.00  0.00    -0.200 F 
ATOM     90  C   UNL     1       7.492   2.660 -15.545  1.00  0.00     0.200 A 
ATOM     91  F   UNL     1       6.098   1.622 -13.950  1.00  0.00    -0.200 F 
ATOM     92  F   UNL     1       6.958   3.855 -15.255  1.00  0.00    -0.200 F 
ENDBRANCH  58  82
BRANCH  70  93
ATOM     93  C   UNL     1      11.551  -4.079 -19.924  1.00  0.00     0.064 A 
ATOM     94  C   UNL     1      11.992  -4.255 -18.604  1.00  0.00     0.173 A 
ATOM     95  C   UNL     1      12.499  -4.202 -20.948  1.00  0.00     0.173 A 
ATOM     96  F   UNL     1      11.130  -4.228 -17.579  1.00  0.00    -0.203 F 
ATOM     97  C   UNL     1      13.337  -4.496 -18.323  1.00  0.00     0.198 A 
ATOM     98  C   UNL     1      13.834  -4.477 -20.669  1.00  0.00     0.198 A 
ATOM     99  F   UNL     1      12.123  -4.080 -22.232  1.00  0.00    -0.203 F 
ATOM    100  F   UNL     1      13.744  -4.634 -17.053  1.00  0.00    -0.200 F 
ATOM    101  C   UNL     1      14.255  -4.610 -19.356  1.00  0.00     0.200 A 
ATOM    102  F   UNL     1      14.709  -4.623 -21.673  1.00  0.00    -0.200 F 
ATOM    103  F   UNL     1      15.543  -4.865 -19.088  1.00  0.00    -0.200 F 
ENDBRANCH  70  93
ENDBRANCH  44  45
ENDBRANCH  36  39
ENDBRANCH  34  35
ENDBRANCH  33  34
ENDBRANCH  32  33
ENDBRANCH  31  32
ENDBRANCH   1  31
TORSDOF 21
