REMARK SMILES COc1ccc(C(=O)N[C@H](C(=O)NCCCCCCNC(=O)c2ccc(-c3c4nc(c(-c5c(F)c(F)c(F)c(F)c5F)c5ccc([nH]5)c(-c5c(F)c(F)c(F)c(F)c5F)c5nc(c(-c6c(F)c(F)c(F)c(F)c6F)c6ccc3[nH]6)C=C5)C=C4)cc2)C2=C(C)N=N[C@H]2C)c(F)c1F
REMARK SMILES IDX 16 1 15 2 14 3 13 4 11 5 12 6 10 8 9 9 7 10 8 11 6 13 3 14
REMARK SMILES IDX 4 15 95 16 5 17 93 18 96 19 94 20 2 21 1 22 86 23 87 24
REMARK SMILES IDX 91 25 88 26 89 27 90 28 92 29 17 30 18 31 19 32 20 33 21 34
REMARK SMILES IDX 22 36 23 37 24 38 85 39 25 40 84 41 26 42 27 43 28 44 78 45
REMARK SMILES IDX 29 46 83 47 77 48 79 49 30 50 82 51 76 52 75 53 31 55 63 56
REMARK SMILES IDX 43 57 62 58 44 59 47 60 61 61 80 62 45 63 46 64 60 66 81 67
REMARK SMILES IDX 48 68 32 69 33 70 41 71 34 72 35 73 39 74 42 75 36 76 37 77
REMARK SMILES IDX 40 78 38 79 64 80 65 81 73 82 66 83 67 84 71 85 74 86 68 87
REMARK SMILES IDX 69 88 72 89 70 90 49 91 50 92 58 93 51 94 52 95 56 96 59 97
REMARK SMILES IDX 53 98 54 99 57 100 55 101
REMARK H PARENT 13 7 9 12 20 35 79 54 47 65
REMARK Flexibility Score: inf
ROOT
ATOM      1  C   UNL     1       2.294  -9.009  -6.059  1.00  0.00     0.002 C 
ENDROOT
BRANCH   1   2
ATOM      2  C   UNL     1       0.916  -8.439  -5.717  1.00  0.00     0.021 C 
BRANCH   2   3
ATOM      3  C   UNL     1       0.522  -8.538  -4.250  1.00  0.00     0.116 C 
BRANCH   3   4
ATOM      4  N   UNL     1       1.303  -7.661  -3.411  1.00  0.00    -0.354 N 
ATOM      5  C   UNL     1       1.052  -7.162  -2.173  1.00  0.00     0.247 C 
ATOM      6  O   UNL     1       1.955  -6.474  -1.675  1.00  0.00    -0.272 OA
ATOM      7  H   UNL     1       2.160  -7.377  -3.801  1.00  0.00     0.163 HD
BRANCH   5   8
ATOM      8  C   UNL     1      -0.232  -7.477  -1.342  1.00  0.00     0.202 C 
BRANCH   8   9
ATOM      9  N   UNL     1      -1.492  -7.885  -2.026  1.00  0.00    -0.336 N 
ATOM     10  C   UNL     1      -2.199  -8.975  -2.466  1.00  0.00     0.255 C 
ATOM     11  O   UNL     1      -3.120  -8.739  -3.254  1.00  0.00    -0.269 OA
ATOM     12  H   UNL     1      -2.005  -7.073  -2.243  1.00  0.00     0.165 HD
BRANCH  10  13
ATOM     13  C   UNL     1      -2.015 -10.381  -2.059  1.00  0.00     0.078 A 
ATOM     14  C   UNL     1      -1.807 -12.981  -1.003  1.00  0.00     0.157 A 
ATOM     15  C   UNL     1      -2.914 -12.629  -1.775  1.00  0.00     0.050 A 
ATOM     16  C   UNL     1      -0.796 -12.048  -0.820  1.00  0.00     0.201 A 
ATOM     17  C   UNL     1      -3.031 -11.325  -2.281  1.00  0.00     0.021 A 
ATOM     18  C   UNL     1      -0.863 -10.824  -1.462  1.00  0.00     0.175 A 
ATOM     19  F   UNL     1       0.271 -12.320  -0.055  1.00  0.00    -0.200 F 
ATOM     20  F   UNL     1       0.266 -10.160  -1.686  1.00  0.00    -0.203 F 
BRANCH  14  21
ATOM     21  O   UNL     1      -1.794 -14.239  -0.475  1.00  0.00    -0.494 OA
ATOM     22  C   UNL     1      -0.544 -14.921  -0.589  1.00  0.00     0.278 C 
ENDBRANCH  14  21
ENDBRANCH  10  13
ENDBRANCH   8   9
BRANCH   8  23
ATOM     23  C   UNL     1       0.059  -8.098  -0.005  1.00  0.00     0.011 C 
ATOM     24  C   UNL     1       1.013  -8.927   0.463  1.00  0.00     0.064 C 
ATOM     25  C   UNL     1      -0.634  -7.633   1.238  1.00  0.00     0.156 C 
ATOM     26  C   UNL     1       2.203  -9.545  -0.203  1.00  0.00     0.069 C 
ATOM     27  N   UNL     1       0.826  -9.240   1.789  1.00  0.00    -0.160 NA
ATOM     28  N   UNL     1      -0.153  -8.602   2.255  1.00  0.00    -0.181 NA
ATOM     29  C   UNL     1      -0.148  -6.253   1.696  1.00  0.00     0.040 C 
ENDBRANCH   8  23
ENDBRANCH   5   8
ENDBRANCH   3   4
ENDBRANCH   2   3
ENDBRANCH   1   2
BRANCH   1  30
ATOM     30  C   UNL     1       2.507 -10.486  -5.713  1.00  0.00     0.002 C 
BRANCH  30  31
ATOM     31  C   UNL     1       1.437 -11.448  -6.230  1.00  0.00     0.021 C 
BRANCH  31  32
ATOM     32  C   UNL     1       1.121 -11.333  -7.717  1.00  0.00     0.116 C 
BRANCH  32  33
ATOM     33  N   UNL     1       2.284 -11.557  -8.556  1.00  0.00    -0.352 N 
ATOM     34  C   UNL     1       2.409 -12.346  -9.674  1.00  0.00     0.251 C 
ATOM     35  H   UNL     1       3.099 -11.076  -8.286  1.00  0.00     0.163 HD
ATOM     36  O   UNL     1       3.504 -12.537 -10.179  1.00  0.00    -0.269 OA
BRANCH  34  37
ATOM     37  C   UNL     1       1.207 -12.988 -10.250  1.00  0.00     0.039 A 
ATOM     38  C   UNL     1       1.277 -14.335 -10.611  1.00  0.00     0.014 A 
ATOM     39  C   UNL     1       0.022 -12.270 -10.431  1.00  0.00     0.014 A 
ATOM     40  C   UNL     1       0.141 -14.977 -11.105  1.00  0.00     0.010 A 
ATOM     41  C   UNL     1      -1.130 -12.930 -10.848  1.00  0.00     0.010 A 
ATOM     42  C   UNL     1      -1.079 -14.288 -11.197  1.00  0.00    -0.014 A 
BRANCH  42  43
ATOM     43  C   UNL     1      -2.312 -14.973 -11.658  1.00  0.00     0.031 A 
ATOM     44  C   UNL     1      -2.991 -14.537 -12.925  1.00  0.00     0.074 A 
ATOM     45  C   UNL     1      -2.849 -15.951 -10.904  1.00  0.00     0.049 A 
ATOM     46  N   UNL     1      -4.100 -14.978 -13.462  1.00  0.00    -0.248 NA
ATOM     47  C   UNL     1      -2.355 -13.444 -13.676  1.00  0.00     0.031 C 
ATOM     48  C   UNL     1      -2.306 -16.427  -9.632  1.00  0.00     0.029 A 
ATOM     49  N   UNL     1      -3.974 -16.715 -11.093  1.00  0.00    -0.354 N 
ATOM     50  C   UNL     1      -4.300 -14.208 -14.600  1.00  0.00     0.074 A 
ATOM     51  C   UNL     1      -3.231 -13.236 -14.647  1.00  0.00     0.031 C 
ATOM     52  C   UNL     1      -3.080 -17.420  -9.168  1.00  0.00     0.029 A 
ATOM     53  C   UNL     1      -4.197 -17.623 -10.087  1.00  0.00     0.049 A 
ATOM     54  H   UNL     1      -4.564 -16.621 -11.875  1.00  0.00     0.167 HD
ATOM     55  C   UNL     1      -5.274 -14.322 -15.533  1.00  0.00     0.037 A 
ATOM     56  C   UNL     1      -5.193 -18.514  -9.918  1.00  0.00     0.037 A 
ATOM     57  C   UNL     1      -6.317 -15.313 -15.491  1.00  0.00     0.049 A 
ATOM     58  C   UNL     1      -6.268 -18.620 -10.964  1.00  0.00     0.074 A 
ATOM     59  C   UNL     1      -7.307 -15.558 -16.427  1.00  0.00     0.029 A 
ATOM     60  N   UNL     1      -6.510 -16.218 -14.457  1.00  0.00    -0.354 N 
ATOM     61  N   UNL     1      -6.407 -17.936 -12.074  1.00  0.00    -0.248 NA
ATOM     62  C   UNL     1      -7.320 -19.620 -10.740  1.00  0.00     0.031 C 
ATOM     63  C   UNL     1      -8.136 -16.567 -15.929  1.00  0.00     0.029 A 
ATOM     64  C   UNL     1      -7.625 -16.998 -14.714  1.00  0.00     0.049 A 
ATOM     65  H   UNL     1      -5.939 -16.293 -13.658  1.00  0.00     0.167 HD
ATOM     66  C   UNL     1      -7.549 -18.431 -12.689  1.00  0.00     0.074 A 
ATOM     67  C   UNL     1      -8.056 -19.487 -11.836  1.00  0.00     0.031 C 
ATOM     68  C   UNL     1      -8.123 -18.043 -13.854  1.00  0.00     0.037 A 
BRANCH  55  69
ATOM     69  C   UNL     1      -5.260 -13.357 -16.684  1.00  0.00     0.064 A 
ATOM     70  C   UNL     1      -6.292 -12.418 -16.837  1.00  0.00     0.173 A 
ATOM     71  C   UNL     1      -4.261 -13.396 -17.669  1.00  0.00     0.173 A 
ATOM     72  F   UNL     1      -7.276 -12.340 -15.928  1.00  0.00    -0.203 F 
ATOM     73  C   UNL     1      -6.329 -11.563 -17.935  1.00  0.00     0.198 A 
ATOM     74  C   UNL     1      -4.283 -12.516 -18.748  1.00  0.00     0.198 A 
ATOM     75  F   UNL     1      -3.246 -14.267 -17.568  1.00  0.00    -0.203 F 
ATOM     76  F   UNL     1      -7.343 -10.698 -18.075  1.00  0.00    -0.200 F 
ATOM     77  C   UNL     1      -5.321 -11.608 -18.886  1.00  0.00     0.200 A 
ATOM     78  F   UNL     1      -3.292 -12.543 -19.651  1.00  0.00    -0.200 F 
ATOM     79  F   UNL     1      -5.349 -10.773 -19.934  1.00  0.00    -0.200 F 
ENDBRANCH  55  69
BRANCH  56  80
ATOM     80  C   UNL     1      -5.181 -19.395  -8.722  1.00  0.00     0.064 A 
ATOM     81  C   UNL     1      -5.392 -18.879  -7.434  1.00  0.00     0.173 A 
ATOM     82  C   UNL     1      -4.888 -20.760  -8.836  1.00  0.00     0.173 A 
ATOM     83  F   UNL     1      -5.668 -17.576  -7.270  1.00  0.00    -0.203 F 
ATOM     84  C   UNL     1      -5.278 -19.688  -6.306  1.00  0.00     0.198 A 
ATOM     85  C   UNL     1      -4.801 -21.575  -7.709  1.00  0.00     0.198 A 
ATOM     86  F   UNL     1      -4.696 -21.304 -10.047  1.00  0.00    -0.203 F 
ATOM     87  F   UNL     1      -5.434 -19.158  -5.085  1.00  0.00    -0.200 F 
ATOM     88  C   UNL     1      -4.984 -21.036  -6.444  1.00  0.00     0.200 A 
ATOM     89  F   UNL     1      -4.537 -22.881  -7.848  1.00  0.00    -0.200 F 
ATOM     90  F   UNL     1      -4.872 -21.814  -5.359  1.00  0.00    -0.200 F 
ENDBRANCH  56  80
BRANCH  68  91
ATOM     91  C   UNL     1      -9.368 -18.759 -14.293  1.00  0.00     0.064 A 
ATOM     92  C   UNL     1      -9.353 -19.578 -15.434  1.00  0.00     0.173 A 
ATOM     93  C   UNL     1     -10.595 -18.560 -13.645  1.00  0.00     0.173 A 
ATOM     94  F   UNL     1      -8.207 -19.793 -16.097  1.00  0.00    -0.203 F 
ATOM     95  C   UNL     1     -10.525 -20.149 -15.922  1.00  0.00     0.198 A 
ATOM     96  C   UNL     1     -11.760 -19.160 -14.118  1.00  0.00     0.198 A 
ATOM     97  F   UNL     1     -10.661 -17.797 -12.544  1.00  0.00    -0.203 F 
ATOM     98  F   UNL     1     -10.493 -20.888 -17.040  1.00  0.00    -0.200 F 
ATOM     99  C   UNL     1     -11.726 -19.942 -15.262  1.00  0.00     0.200 A 
ATOM    100  F   UNL     1     -12.916 -18.979 -13.465  1.00  0.00    -0.200 F 
ATOM    101  F   UNL     1     -12.853 -20.497 -15.730  1.00  0.00    -0.200 F 
ENDBRANCH  68  91
ENDBRANCH  42  43
ENDBRANCH  34  37
ENDBRANCH  32  33
ENDBRANCH  31  32
ENDBRANCH  30  31
ENDBRANCH   1  30
TORSDOF 17
