REMARK SMILES CCC(CC)(CC(=O)NNC(=O)c1cc(C)oc1C)C(=O)NCCCCCCNC(=O)c1ccc(-c2c3nc(c(-c4c(F)c(F)c(F)c(F)c4F)c4ccc([nH]4)c(-c4c(F)c(F)c(F)c(F)c4F)c4nc(c(-c5c(F)c(F)c(F)c(F)c5F)c5ccc2[nH]5)C=C4)C=C3)cc1
REMARK SMILES IDX 24 1 23 2 22 3 20 4 21 5 3 7 2 8 1 9 4 10 5 11 6 12 7 13
REMARK SMILES IDX 8 14 9 15 10 17 11 18 12 20 13 21 14 22 18 23 15 24 17 25
REMARK SMILES IDX 19 26 16 27 25 28 26 29 27 30 28 31 29 32 30 33 31 35 32 36
REMARK SMILES IDX 33 37 94 38 34 39 93 40 35 41 36 42 37 43 87 44 38 45 92 46
REMARK SMILES IDX 86 47 88 48 39 49 91 50 85 51 84 52 40 54 72 55 52 56 71 57
REMARK SMILES IDX 53 58 56 59 70 60 89 61 54 62 55 63 69 65 90 66 57 67 41 68
REMARK SMILES IDX 42 69 50 70 43 71 44 72 48 73 51 74 45 75 46 76 49 77 47 78
REMARK SMILES IDX 73 79 74 80 82 81 75 82 76 83 80 84 83 85 77 86 78 87 81 88
REMARK SMILES IDX 79 89 58 90 59 91 67 92 60 93 61 94 65 95 68 96 62 97 63 98
REMARK SMILES IDX 66 99 64 100
REMARK H PARENT 22 6 9 16 10 19 29 34 88 53 56 64
REMARK Flexibility Score: inf
ROOT
ATOM      1  C   UNL     1       3.164  -0.828  -5.940  1.00  0.00     0.021 C 
ENDROOT
BRANCH   1   2
ATOM      2  C   UNL     1       2.559  -1.321  -4.626  1.00  0.00     0.116 C 
BRANCH   2   3
ATOM      3  N   UNL     1       3.016  -0.568  -3.476  1.00  0.00    -0.356 N 
ATOM      4  C   UNL     1       2.387  -0.051  -2.390  1.00  0.00     0.226 C 
ATOM      5  O   UNL     1       3.117   0.552  -1.596  1.00  0.00    -0.274 OA
ATOM      6  H   UNL     1       3.986  -0.396  -3.484  1.00  0.00     0.163 HD
BRANCH   4   7
ATOM      7  C   UNL     1       0.856  -0.170  -2.140  1.00  0.00     0.057 C 
BRANCH   7   8
ATOM      8  C   UNL     1       0.538   0.479  -0.744  1.00  0.00     0.014 C 
ATOM      9  C   UNL     1       1.008  -0.298   0.487  1.00  0.00     0.005 C 
ENDBRANCH   7   8
BRANCH   7  10
ATOM     10  C   UNL     1       0.417  -1.666  -2.136  1.00  0.00     0.014 C 
ATOM     11  C   UNL     1      -1.068  -1.916  -1.880  1.00  0.00     0.005 C 
ENDBRANCH   7  10
BRANCH   7  12
ATOM     12  C   UNL     1       0.071   0.632  -3.217  1.00  0.00     0.118 C 
BRANCH  12  13
ATOM     13  C   UNL     1       0.650   1.998  -3.557  1.00  0.00     0.239 C 
ATOM     14  O   UNL     1       1.543   2.113  -4.399  1.00  0.00    -0.273 OA
ATOM     15  N   UNL     1       0.153   3.124  -2.953  1.00  0.00    -0.267 N 
ATOM     16  H   UNL     1       0.562   3.986  -3.196  1.00  0.00     0.191 HD
BRANCH  15  17
ATOM     17  N   UNL     1      -0.885   3.147  -2.022  1.00  0.00    -0.263 N 
ATOM     18  C   UNL     1      -0.955   4.019  -0.951  1.00  0.00     0.273 C 
ATOM     19  H   UNL     1      -1.618   2.499  -2.135  1.00  0.00     0.191 HD
ATOM     20  O   UNL     1      -1.674   3.733   0.004  1.00  0.00    -0.267 OA
BRANCH  18  21
ATOM     21  C   UNL     1      -0.201   5.258  -1.008  1.00  0.00     0.082 A 
ATOM     22  C   UNL     1      -0.058   6.186  -2.084  1.00  0.00     0.059 A 
ATOM     23  C   UNL     1       0.465   5.831   0.061  1.00  0.00     0.113 A 
ATOM     24  C   UNL     1       0.689   7.239  -1.604  1.00  0.00     0.101 A 
ATOM     25  O   UNL     1       1.016   7.022  -0.303  1.00  0.00    -0.466 OA
ATOM     26  C   UNL     1       0.680   5.423   1.466  1.00  0.00     0.088 C 
ATOM     27  C   UNL     1       1.151   8.512  -2.190  1.00  0.00     0.087 C 
ENDBRANCH  18  21
ENDBRANCH  15  17
ENDBRANCH  12  13
ENDBRANCH   7  12
ENDBRANCH   4   7
ENDBRANCH   2   3
ENDBRANCH   1   2
BRANCH   1  28
ATOM     28  C   UNL     1       4.683  -0.976  -6.083  1.00  0.00     0.002 C 
BRANCH  28  29
ATOM     29  C   UNL     1       5.253  -2.384  -5.889  1.00  0.00     0.002 C 
BRANCH  29  30
ATOM     30  C   UNL     1       4.612  -3.503  -6.717  1.00  0.00     0.021 C 
BRANCH  30  31
ATOM     31  C   UNL     1       4.541  -3.271  -8.225  1.00  0.00     0.116 C 
BRANCH  31  32
ATOM     32  N   UNL     1       5.843  -3.170  -8.855  1.00  0.00    -0.352 N 
ATOM     33  C   UNL     1       6.232  -3.582 -10.107  1.00  0.00     0.251 C 
ATOM     34  H   UNL     1       6.547  -2.748  -8.310  1.00  0.00     0.163 HD
ATOM     35  O   UNL     1       7.409  -3.498 -10.445  1.00  0.00    -0.269 OA
BRANCH  33  36
ATOM     36  C   UNL     1       5.245  -4.165 -11.047  1.00  0.00     0.039 A 
ATOM     37  C   UNL     1       5.585  -5.345 -11.719  1.00  0.00     0.014 A 
ATOM     38  C   UNL     1       4.017  -3.547 -11.300  1.00  0.00     0.014 A 
ATOM     39  C   UNL     1       4.672  -5.940 -12.595  1.00  0.00     0.010 A 
ATOM     40  C   UNL     1       3.095  -4.154 -12.156  1.00  0.00     0.010 A 
ATOM     41  C   UNL     1       3.413  -5.359 -12.802  1.00  0.00    -0.014 A 
BRANCH  41  42
ATOM     42  C   UNL     1       2.409  -6.006 -13.679  1.00  0.00     0.031 A 
ATOM     43  C   UNL     1       2.117  -5.449 -15.040  1.00  0.00     0.074 A 
ATOM     44  C   UNL     1       1.711  -7.062 -13.223  1.00  0.00     0.049 A 
ATOM     45  N   UNL     1       1.190  -5.801 -15.895  1.00  0.00    -0.248 NA
ATOM     46  C   UNL     1       2.970  -4.340 -15.495  1.00  0.00     0.031 C 
ATOM     47  C   UNL     1       1.883  -7.686 -11.911  1.00  0.00     0.029 A 
ATOM     48  N   UNL     1       0.703  -7.785 -13.809  1.00  0.00    -0.354 N 
ATOM     49  C   UNL     1       1.322  -4.936 -16.971  1.00  0.00     0.074 A 
ATOM     50  C   UNL     1       2.428  -4.050 -16.670  1.00  0.00     0.031 C 
ATOM     51  C   UNL     1       1.008  -8.699 -11.791  1.00  0.00     0.029 A 
ATOM     52  C   UNL     1       0.204  -8.780 -13.008  1.00  0.00     0.049 A 
ATOM     53  H   UNL     1       0.370  -7.607 -14.719  1.00  0.00     0.167 HD
ATOM     54  C   UNL     1       0.582  -4.881 -18.103  1.00  0.00     0.037 A 
ATOM     55  C   UNL     1      -0.799  -9.650 -13.224  1.00  0.00     0.037 A 
ATOM     56  C   UNL     1      -0.490  -5.781 -18.432  1.00  0.00     0.049 A 
ATOM     57  C   UNL     1      -1.560  -9.611 -14.517  1.00  0.00     0.074 A 
ATOM     58  C   UNL     1      -1.272  -5.816 -19.574  1.00  0.00     0.029 A 
ATOM     59  N   UNL     1      -0.924  -6.815 -17.619  1.00  0.00    -0.354 N 
ATOM     60  N   UNL     1      -1.426  -8.787 -15.525  1.00  0.00    -0.248 NA
ATOM     61  C   UNL     1      -2.614 -10.620 -14.697  1.00  0.00     0.031 C 
ATOM     62  C   UNL     1      -2.183  -6.872 -19.451  1.00  0.00     0.029 A 
ATOM     63  C   UNL     1      -1.961  -7.496 -18.234  1.00  0.00     0.049 A 
ATOM     64  H   UNL     1      -0.550  -7.034 -16.734  1.00  0.00     0.167 HD
ATOM     65  C   UNL     1      -2.373  -9.176 -16.460  1.00  0.00     0.074 A 
ATOM     66  C   UNL     1      -3.072 -10.316 -15.905  1.00  0.00     0.031 C 
ATOM     67  C   UNL     1      -2.640  -8.631 -17.670  1.00  0.00     0.037 A 
BRANCH  54  68
ATOM     68  C   UNL     1       0.902  -3.789 -19.071  1.00  0.00     0.064 A 
ATOM     69  C   UNL     1       1.909  -3.940 -20.032  1.00  0.00     0.173 A 
ATOM     70  C   UNL     1       0.170  -2.594 -19.055  1.00  0.00     0.173 A 
ATOM     71  F   UNL     1       2.640  -5.064 -20.073  1.00  0.00    -0.203 F 
ATOM     72  C   UNL     1       2.178  -2.924 -20.945  1.00  0.00     0.198 A 
ATOM     73  C   UNL     1       0.437  -1.583 -19.973  1.00  0.00     0.198 A 
ATOM     74  F   UNL     1      -0.800  -2.408 -18.147  1.00  0.00    -0.203 F 
ATOM     75  F   UNL     1       3.156  -3.077 -21.848  1.00  0.00    -0.200 F 
ATOM     76  C   UNL     1       1.441  -1.748 -20.916  1.00  0.00     0.200 A 
ATOM     77  F   UNL     1      -0.273  -0.447 -19.944  1.00  0.00    -0.200 F 
ATOM     78  F   UNL     1       1.703  -0.770 -21.795  1.00  0.00    -0.200 F 
ENDBRANCH  54  68
BRANCH  55  79
ATOM     79  C   UNL     1      -1.142 -10.639 -12.178  1.00  0.00     0.064 A 
ATOM     80  C   UNL     1      -0.654 -11.950 -12.245  1.00  0.00     0.173 A 
ATOM     81  C   UNL     1      -1.951 -10.288 -11.090  1.00  0.00     0.173 A 
ATOM     82  F   UNL     1       0.108 -12.328 -13.281  1.00  0.00    -0.203 F 
ATOM     83  C   UNL     1      -0.965 -12.879 -11.256  1.00  0.00     0.198 A 
ATOM     84  C   UNL     1      -2.255 -11.216 -10.097  1.00  0.00     0.198 A 
ATOM     85  F   UNL     1      -2.440  -9.043 -10.992  1.00  0.00    -0.203 F 
ATOM     86  F   UNL     1      -0.500 -14.133 -11.346  1.00  0.00    -0.200 F 
ATOM     87  C   UNL     1      -1.763 -12.511 -10.181  1.00  0.00     0.200 A 
ATOM     88  F   UNL     1      -3.023 -10.857  -9.060  1.00  0.00    -0.200 F 
ATOM     89  F   UNL     1      -2.062 -13.405  -9.229  1.00  0.00    -0.200 F 
ENDBRANCH  55  79
BRANCH  67  90
ATOM     90  C   UNL     1      -3.728  -9.265 -18.475  1.00  0.00     0.064 A 
ATOM     91  C   UNL     1      -5.066  -8.893 -18.296  1.00  0.00     0.173 A 
ATOM     92  C   UNL     1      -3.428 -10.226 -19.450  1.00  0.00     0.173 A 
ATOM     93  F   UNL     1      -5.396  -7.987 -17.363  1.00  0.00    -0.203 F 
ATOM     94  C   UNL     1      -6.073  -9.466 -19.067  1.00  0.00     0.198 A 
ATOM     95  C   UNL     1      -4.437 -10.794 -20.222  1.00  0.00     0.198 A 
ATOM     96  F   UNL     1      -2.159 -10.615 -19.646  1.00  0.00    -0.203 F 
ATOM     97  F   UNL     1      -7.350  -9.109 -18.873  1.00  0.00    -0.200 F 
ATOM     98  C   UNL     1      -5.757 -10.414 -20.031  1.00  0.00     0.200 A 
ATOM     99  F   UNL     1      -4.133 -11.713 -21.149  1.00  0.00    -0.200 F 
ATOM    100  F   UNL     1      -6.729 -10.968 -20.770  1.00  0.00    -0.200 F 
ENDBRANCH  67  90
ENDBRANCH  41  42
ENDBRANCH  33  36
ENDBRANCH  31  32
ENDBRANCH  30  31
ENDBRANCH  29  30
ENDBRANCH  28  29
ENDBRANCH   1  28
TORSDOF 19
