REMARK SMILES Cc1ccc(C#N)cc1Nc1cc(C)c(N)c(C(=O)NCCCCCCNC(=O)c2ccc(-c3c4nc(c(-c5c(F)c(F)c(F)c(F)c5F)c5ccc([nH]5)c(-c5c(F)c(F)c(F)c(F)c5F)c5nc(c(-c6c(F)c(F)c(F)c(F)c6F)c6ccc3[nH]6)C=C5)C=C4)cc2)c1
REMARK SMILES IDX 23 1 22 2 21 3 20 4 18 5 19 6 17 8 11 9 12 10 93 11 13 12
REMARK SMILES IDX 14 13 15 14 10 15 9 17 1 18 2 19 3 20 4 21 8 22 5 23 6 24
REMARK SMILES IDX 7 25 16 26 24 29 25 30 26 31 27 32 28 33 29 35 30 36 31 37
REMARK SMILES IDX 92 38 32 39 91 40 33 41 34 42 35 43 85 44 36 45 90 46 84 47
REMARK SMILES IDX 86 48 37 49 89 50 83 51 82 52 38 54 70 55 50 56 69 57 51 58
REMARK SMILES IDX 54 59 68 60 87 61 52 62 53 63 67 65 88 66 55 67 39 68 40 69
REMARK SMILES IDX 48 70 41 71 42 72 46 73 49 74 43 75 44 76 47 77 45 78 71 79
REMARK SMILES IDX 72 80 80 81 73 82 74 83 78 84 81 85 75 86 76 87 79 88 77 89
REMARK SMILES IDX 56 90 57 91 65 92 58 93 59 94 63 95 66 96 60 97 61 98 64 99
REMARK SMILES IDX 62 100
REMARK H PARENT 20 7 10 16 16 27 16 28 27 34 86 53 54 64
REMARK Flexibility Score: inf
ROOT
ATOM      1  C   UNL     1       6.560   3.748   4.397  1.00  0.00     0.002 C 
ENDROOT
BRANCH   1   2
ATOM      2  C   UNL     1       5.503   3.507   3.308  1.00  0.00     0.021 C 
BRANCH   2   3
ATOM      3  C   UNL     1       4.222   4.305   3.564  1.00  0.00     0.116 C 
BRANCH   3   4
ATOM      4  N   UNL     1       4.421   5.674   3.138  1.00  0.00    -0.352 N 
ATOM      5  C   UNL     1       4.137   6.384   2.000  1.00  0.00     0.253 C 
ATOM      6  O   UNL     1       4.586   7.535   1.981  1.00  0.00    -0.269 OA
ATOM      7  H   UNL     1       4.864   6.223   3.824  1.00  0.00     0.163 HD
BRANCH   5   8
ATOM      8  C   UNL     1       3.275   5.885   0.869  1.00  0.00     0.065 A 
ATOM      9  C   UNL     1       1.997   4.082  -0.174  1.00  0.00     0.040 A 
ATOM     10  C   UNL     1       1.423   4.999  -1.046  1.00  0.00     0.031 A 
ATOM     11  C   UNL     1       2.981   4.527   0.708  1.00  0.00     0.042 A 
ATOM     12  C   UNL     1       1.790   6.358  -1.018  1.00  0.00    -0.025 A 
ATOM     13  C   UNL     1       1.179   7.247  -2.068  1.00  0.00     0.047 C 
ATOM     14  C   UNL     1       2.679   6.823  -0.022  1.00  0.00     0.047 A 
BRANCH   9  15
ATOM     15  N   UNL     1       1.511   2.765  -0.084  1.00  0.00    -0.355 N 
ATOM     16  H   UNL     1       1.675   2.186  -0.863  1.00  0.00     0.167 HD
BRANCH  15  17
ATOM     17  C   UNL     1       0.811   2.174   1.000  1.00  0.00     0.043 A 
ATOM     18  C   UNL     1       1.047  -0.122  -0.076  1.00  0.00     0.046 C 
ATOM     19  C   UNL     1       0.565   0.784   1.024  1.00  0.00    -0.027 A 
ATOM     20  C   UNL     1      -0.135   0.213   2.104  1.00  0.00     0.007 A 
ATOM     21  C   UNL     1      -0.583   1.000   3.164  1.00  0.00     0.020 A 
ATOM     22  C   UNL     1       0.383   2.943   2.100  1.00  0.00     0.045 A 
ATOM     23  C   UNL     1      -0.320   2.368   3.166  1.00  0.00     0.054 A 
BRANCH  23  24
ATOM     24  C   UNL     1      -0.780   3.183   4.254  1.00  0.00     0.099 C 
ATOM     25  N   UNL     1      -1.149   3.832   5.139  1.00  0.00    -0.192 NA
ENDBRANCH  23  24
ENDBRANCH  15  17
ENDBRANCH   9  15
BRANCH  14  26
ATOM     26  N   UNL     1       3.053   8.168   0.002  1.00  0.00    -0.398 N 
ATOM     27  H   UNL     1       2.633   8.806  -0.619  1.00  0.00     0.156 HD
ATOM     28  H   UNL     1       3.735   8.478   0.640  1.00  0.00     0.156 HD
ENDBRANCH  14  26
ENDBRANCH   5   8
ENDBRANCH   3   4
ENDBRANCH   2   3
ENDBRANCH   1   2
BRANCH   1  29
ATOM     29  C   UNL     1       6.104   3.364   5.811  1.00  0.00     0.002 C 
BRANCH  29  30
ATOM     30  C   UNL     1       5.583   1.933   5.932  1.00  0.00     0.021 C 
BRANCH  30  31
ATOM     31  C   UNL     1       6.636   0.885   5.603  1.00  0.00     0.116 C 
BRANCH  31  32
ATOM     32  N   UNL     1       7.732   0.903   6.564  1.00  0.00    -0.352 N 
ATOM     33  C   UNL     1       8.186  -0.106   7.377  1.00  0.00     0.251 C 
ATOM     34  H   UNL     1       8.214   1.758   6.640  1.00  0.00     0.163 HD
ATOM     35  O   UNL     1       8.966   0.126   8.294  1.00  0.00    -0.269 OA
BRANCH  33  36
ATOM     36  C   UNL     1       7.689  -1.475   7.146  1.00  0.00     0.039 A 
ATOM     37  C   UNL     1       7.603  -1.971   5.845  1.00  0.00     0.014 A 
ATOM     38  C   UNL     1       7.233  -2.232   8.226  1.00  0.00     0.014 A 
ATOM     39  C   UNL     1       6.870  -3.123   5.603  1.00  0.00     0.010 A 
ATOM     40  C   UNL     1       6.597  -3.452   7.987  1.00  0.00     0.010 A 
ATOM     41  C   UNL     1       6.354  -3.875   6.670  1.00  0.00    -0.014 A 
BRANCH  41  42
ATOM     42  C   UNL     1       5.541  -5.085   6.383  1.00  0.00     0.031 A 
ATOM     43  C   UNL     1       4.102  -5.164   6.820  1.00  0.00     0.074 A 
ATOM     44  C   UNL     1       6.089  -6.094   5.679  1.00  0.00     0.049 A 
ATOM     45  N   UNL     1       3.248  -6.147   6.673  1.00  0.00    -0.248 NA
ATOM     46  C   UNL     1       3.545  -3.993   7.516  1.00  0.00     0.031 C 
ATOM     47  C   UNL     1       7.465  -6.121   5.178  1.00  0.00     0.029 A 
ATOM     48  N   UNL     1       5.556  -7.282   5.246  1.00  0.00    -0.354 N 
ATOM     49  C   UNL     1       2.070  -5.722   7.272  1.00  0.00     0.074 A 
ATOM     50  C   UNL     1       2.323  -4.407   7.818  1.00  0.00     0.031 C 
ATOM     51  C   UNL     1       7.655  -7.243   4.471  1.00  0.00     0.029 A 
ATOM     52  C   UNL     1       6.444  -8.053   4.537  1.00  0.00     0.049 A 
ATOM     53  H   UNL     1       4.628  -7.555   5.426  1.00  0.00     0.167 HD
ATOM     54  C   UNL     1       0.881  -6.367   7.343  1.00  0.00     0.037 A 
ATOM     55  C   UNL     1       6.311  -9.289   4.020  1.00  0.00     0.037 A 
ATOM     56  C   UNL     1       0.629  -7.667   6.776  1.00  0.00     0.049 A 
ATOM     57  C   UNL     1       5.000 -10.008   4.178  1.00  0.00     0.074 A 
ATOM     58  C   UNL     1      -0.551  -8.389   6.775  1.00  0.00     0.029 A 
ATOM     59  N   UNL     1       1.571  -8.440   6.114  1.00  0.00    -0.354 N 
ATOM     60  N   UNL     1       3.886  -9.585   4.723  1.00  0.00    -0.248 NA
ATOM     61  C   UNL     1       4.929 -11.377   3.651  1.00  0.00     0.031 C 
ATOM     62  C   UNL     1      -0.307  -9.625   6.172  1.00  0.00     0.029 A 
ATOM     63  C   UNL     1       1.006  -9.646   5.731  1.00  0.00     0.049 A 
ATOM     64  H   UNL     1       2.503  -8.172   5.941  1.00  0.00     0.167 HD
ATOM     65  C   UNL     1       2.978 -10.626   4.591  1.00  0.00     0.074 A 
ATOM     66  C   UNL     1       3.662 -11.689   3.885  1.00  0.00     0.031 C 
ATOM     67  C   UNL     1       1.695 -10.696   5.023  1.00  0.00     0.037 A 
BRANCH  54  68
ATOM     68  C   UNL     1      -0.253  -5.690   8.061  1.00  0.00     0.064 A 
ATOM     69  C   UNL     1      -0.901  -4.569   7.523  1.00  0.00     0.173 A 
ATOM     70  C   UNL     1      -0.762  -6.231   9.252  1.00  0.00     0.173 A 
ATOM     71  F   UNL     1      -0.451  -4.005   6.391  1.00  0.00    -0.203 F 
ATOM     72  C   UNL     1      -2.011  -4.010   8.154  1.00  0.00     0.198 A 
ATOM     73  C   UNL     1      -1.891  -5.691   9.863  1.00  0.00     0.198 A 
ATOM     74  F   UNL     1      -0.186  -7.309   9.806  1.00  0.00    -0.203 F 
ATOM     75  F   UNL     1      -2.596  -2.922   7.635  1.00  0.00    -0.200 F 
ATOM     76  C   UNL     1      -2.513  -4.579   9.315  1.00  0.00     0.200 A 
ATOM     77  F   UNL     1      -2.387  -6.256  10.972  1.00  0.00    -0.200 F 
ATOM     78  F   UNL     1      -3.598  -4.058   9.904  1.00  0.00    -0.200 F 
ENDBRANCH  54  68
BRANCH  55  79
ATOM     79  C   UNL     1       7.458  -9.922   3.317  1.00  0.00     0.064 A 
ATOM     80  C   UNL     1       7.400 -10.198   1.945  1.00  0.00     0.173 A 
ATOM     81  C   UNL     1       8.642 -10.249   3.998  1.00  0.00     0.173 A 
ATOM     82  F   UNL     1       6.285  -9.921   1.253  1.00  0.00    -0.203 F 
ATOM     83  C   UNL     1       8.474 -10.789   1.284  1.00  0.00     0.198 A 
ATOM     84  C   UNL     1       9.729 -10.805   3.328  1.00  0.00     0.198 A 
ATOM     85  F   UNL     1       8.752 -10.003   5.312  1.00  0.00    -0.203 F 
ATOM     86  F   UNL     1       8.375 -11.083  -0.020  1.00  0.00    -0.200 F 
ATOM     87  C   UNL     1       9.641 -11.082   1.973  1.00  0.00     0.200 A 
ATOM     88  F   UNL     1      10.861 -11.065   3.995  1.00  0.00    -0.200 F 
ATOM     89  F   UNL     1      10.679 -11.637   1.333  1.00  0.00    -0.200 F 
ENDBRANCH  55  79
BRANCH  67  90
ATOM     90  C   UNL     1       0.930 -11.957   4.735  1.00  0.00     0.064 A 
ATOM     91  C   UNL     1       1.236 -13.165   5.380  1.00  0.00     0.173 A 
ATOM     92  C   UNL     1      -0.167 -11.941   3.859  1.00  0.00     0.173 A 
ATOM     93  F   UNL     1       2.282 -13.237   6.217  1.00  0.00    -0.203 F 
ATOM     94  C   UNL     1       0.484 -14.312   5.144  1.00  0.00     0.198 A 
ATOM     95  C   UNL     1      -0.939 -13.081   3.655  1.00  0.00     0.198 A 
ATOM     96  F   UNL     1      -0.509 -10.810   3.223  1.00  0.00    -0.203 F 
ATOM     97  F   UNL     1       0.823 -15.465   5.737  1.00  0.00    -0.200 F 
ATOM     98  C   UNL     1      -0.609 -14.267   4.292  1.00  0.00     0.200 A 
ATOM     99  F   UNL     1      -2.009 -13.028   2.849  1.00  0.00    -0.200 F 
ATOM    100  F   UNL     1      -1.344 -15.368   4.083  1.00  0.00    -0.200 F 
ENDBRANCH  67  90
ENDBRANCH  41  42
ENDBRANCH  33  36
ENDBRANCH  31  32
ENDBRANCH  30  31
ENDBRANCH  29  30
ENDBRANCH   1  29
TORSDOF 17
