REMARK SMILES CCC[NH2+]CC(=O)N1[C@@H](C(=O)NCCCCCCNC(=O)c2ccc(-c3c4nc(c(-c5c(F)c(F)c(F)c(F)c5F)c5ccc([nH]5)c(-c5c(F)c(F)c(F)c(F)c5F)c5nc(c(-c6c(F)c(F)c(F)c(F)c6F)c6ccc3[nH]6)C=C5)C=C4)cc2)CC[C@@H]2CCCC[C@@H]21
REMARK SMILES IDX 14 1 13 2 12 3 10 4 11 5 9 7 8 8 92 9 85 10 87 11 91 12
REMARK SMILES IDX 86 13 88 14 90 15 89 16 6 17 7 18 5 19 4 20 3 23 2 24 1 25
REMARK SMILES IDX 15 26 16 27 17 28 18 29 19 30 20 31 21 33 22 34 23 35 84 36
REMARK SMILES IDX 24 37 83 38 25 39 26 40 27 41 77 42 28 43 82 44 76 45 78 46
REMARK SMILES IDX 29 47 81 48 75 49 74 50 30 52 62 53 42 54 61 55 43 56 46 57
REMARK SMILES IDX 60 58 79 59 44 60 45 61 59 63 80 64 47 65 31 66 32 67 40 68
REMARK SMILES IDX 33 69 34 70 38 71 41 72 35 73 36 74 39 75 37 76 63 77 64 78
REMARK SMILES IDX 72 79 65 80 66 81 70 82 73 83 67 84 68 85 71 86 69 87 48 88
REMARK SMILES IDX 49 89 57 90 50 91 51 92 55 93 58 94 52 95 53 96 56 97 54 98
REMARK H PARENT 12 6 4 21 4 22 19 32 78 51 46 62
REMARK Flexibility Score: inf
ROOT
ATOM      1  C   UNL     1       3.892   1.344   1.604  1.00  0.00     0.021 C 
ENDROOT
BRANCH   1   2
ATOM      2  C   UNL     1       3.482  -0.108   1.843  1.00  0.00     0.116 C 
BRANCH   2   3
ATOM      3  N   UNL     1       2.504  -0.451   0.830  1.00  0.00    -0.354 N 
ATOM      4  C   UNL     1       2.561  -1.389  -0.147  1.00  0.00     0.242 C 
ATOM      5  O   UNL     1       2.007  -1.138  -1.222  1.00  0.00    -0.273 OA
ATOM      6  H   UNL     1       1.674   0.078   0.855  1.00  0.00     0.163 HD
BRANCH   4   7
ATOM      7  C   UNL     1       3.387  -2.659   0.007  1.00  0.00     0.175 C 
ATOM      8  N   UNL     1       3.573  -3.220   1.359  1.00  0.00    -0.323 N 
ATOM      9  C   UNL     1       4.636  -4.245   1.489  1.00  0.00     0.089 C 
ATOM     10  C   UNL     1       4.730  -2.223  -0.623  1.00  0.00     0.036 C 
ATOM     11  C   UNL     1       5.964  -3.800   0.867  1.00  0.00     0.012 C 
ATOM     12  C   UNL     1       4.151  -5.632   0.988  1.00  0.00     0.025 C 
ATOM     13  C   UNL     1       5.793  -3.290  -0.565  1.00  0.00     0.008 C 
ATOM     14  C   UNL     1       6.966  -4.951   0.932  1.00  0.00     0.006 C 
ATOM     15  C   UNL     1       5.058  -6.418   0.032  1.00  0.00     0.002 C 
ATOM     16  C   UNL     1       6.557  -6.117   0.046  1.00  0.00     0.000 C 
BRANCH   8  17
ATOM     17  C   UNL     1       2.646  -3.180   2.407  1.00  0.00     0.278 C 
ATOM     18  O   UNL     1       3.062  -3.135   3.573  1.00  0.00    -0.268 OA
BRANCH  17  19
ATOM     19  C   UNL     1       1.133  -3.386   2.162  1.00  0.00     0.362 C 
BRANCH  19  20
ATOM     20  N   UNL     1       0.353  -2.205   1.736  1.00  0.00    -0.338 N 
ATOM     21  H   UNL     1      -0.344  -1.990   2.449  1.00  0.00     0.346 HD
ATOM     22  H   UNL     1       0.992  -1.419   1.615  1.00  0.00     0.346 HD
BRANCH  20  23
ATOM     23  C   UNL     1      -0.324  -2.460   0.463  1.00  0.00     0.260 C 
BRANCH  23  24
ATOM     24  C   UNL     1      -1.185  -1.331  -0.135  1.00  0.00     0.058 C 
ATOM     25  C   UNL     1      -0.708   0.109  -0.029  1.00  0.00     0.010 C 
ENDBRANCH  23  24
ENDBRANCH  20  23
ENDBRANCH  19  20
ENDBRANCH  17  19
ENDBRANCH   8  17
ENDBRANCH   4   7
ENDBRANCH   2   3
ENDBRANCH   1   2
BRANCH   1  26
ATOM     26  C   UNL     1       2.743   2.342   1.839  1.00  0.00     0.002 C 
BRANCH  26  27
ATOM     27  C   UNL     1       2.169   2.318   3.258  1.00  0.00     0.002 C 
BRANCH  27  28
ATOM     28  C   UNL     1       3.218   2.517   4.351  1.00  0.00     0.021 C 
BRANCH  28  29
ATOM     29  C   UNL     1       4.088   3.749   4.148  1.00  0.00     0.116 C 
BRANCH  29  30
ATOM     30  N   UNL     1       3.313   4.977   4.173  1.00  0.00    -0.352 N 
ATOM     31  C   UNL     1       3.609   6.155   4.815  1.00  0.00     0.251 C 
ATOM     32  H   UNL     1       2.469   4.963   3.667  1.00  0.00     0.163 HD
ATOM     33  O   UNL     1       2.789   7.051   4.897  1.00  0.00    -0.269 OA
BRANCH  31  34
ATOM     34  C   UNL     1       4.943   6.299   5.433  1.00  0.00     0.039 A 
ATOM     35  C   UNL     1       5.025   6.724   6.759  1.00  0.00     0.014 A 
ATOM     36  C   UNL     1       6.098   5.973   4.715  1.00  0.00     0.014 A 
ATOM     37  C   UNL     1       6.270   6.777   7.385  1.00  0.00     0.010 A 
ATOM     38  C   UNL     1       7.327   5.953   5.364  1.00  0.00     0.010 A 
ATOM     39  C   UNL     1       7.427   6.362   6.702  1.00  0.00    -0.014 A 
BRANCH  39  40
ATOM     40  C   UNL     1       8.750   6.359   7.374  1.00  0.00     0.031 A 
ATOM     41  C   UNL     1       9.849   7.254   6.871  1.00  0.00     0.074 A 
ATOM     42  C   UNL     1       8.976   5.511   8.396  1.00  0.00     0.049 A 
ATOM     43  N   UNL     1      11.087   7.353   7.283  1.00  0.00    -0.248 NA
ATOM     44  C   UNL     1       9.525   8.135   5.737  1.00  0.00     0.031 C 
ATOM     45  C   UNL     1       8.005   4.557   8.936  1.00  0.00     0.029 A 
ATOM     46  N   UNL     1      10.101   5.302   9.155  1.00  0.00    -0.354 N 
ATOM     47  C   UNL     1      11.690   8.286   6.449  1.00  0.00     0.074 A 
ATOM     48  C   UNL     1      10.699   8.694   5.479  1.00  0.00     0.031 C 
ATOM     49  C   UNL     1       8.569   3.879   9.949  1.00  0.00     0.029 A 
ATOM     50  C   UNL     1       9.952   4.319  10.104  1.00  0.00     0.049 A 
ATOM     51  H   UNL     1      10.935   5.810   9.032  1.00  0.00     0.167 HD
ATOM     52  C   UNL     1      12.952   8.771   6.503  1.00  0.00     0.037 A 
ATOM     53  C   UNL     1      10.838   3.820  10.987  1.00  0.00     0.037 A 
ATOM     54  C   UNL     1      13.920   8.394   7.499  1.00  0.00     0.049 A 
ATOM     55  C   UNL     1      12.232   4.390  11.026  1.00  0.00     0.074 A 
ATOM     56  C   UNL     1      15.194   8.900   7.694  1.00  0.00     0.029 A 
ATOM     57  N   UNL     1      13.724   7.418   8.463  1.00  0.00    -0.354 N 
ATOM     58  N   UNL     1      12.759   5.342  10.295  1.00  0.00    -0.248 NA
ATOM     59  C   UNL     1      13.153   3.822  12.021  1.00  0.00     0.031 C 
ATOM     60  C   UNL     1      15.791   8.187   8.736  1.00  0.00     0.029 A 
ATOM     61  C   UNL     1      14.867   7.282   9.234  1.00  0.00     0.049 A 
ATOM     62  H   UNL     1      12.896   6.899   8.582  1.00  0.00     0.167 HD
ATOM     63  C   UNL     1      14.055   5.510  10.764  1.00  0.00     0.074 A 
ATOM     64  C   UNL     1      14.230   4.575  11.854  1.00  0.00     0.031 C 
ATOM     65  C   UNL     1      15.017   6.360  10.329  1.00  0.00     0.037 A 
BRANCH  52  66
ATOM     66  C   UNL     1      13.374   9.767   5.464  1.00  0.00     0.064 A 
ATOM     67  C   UNL     1      12.889  11.083   5.462  1.00  0.00     0.173 A 
ATOM     68  C   UNL     1      14.347   9.424   4.512  1.00  0.00     0.173 A 
ATOM     69  F   UNL     1      11.950  11.459   6.343  1.00  0.00    -0.203 F 
ATOM     70  C   UNL     1      13.356  12.016   4.539  1.00  0.00     0.198 A 
ATOM     71  C   UNL     1      14.832  10.367   3.611  1.00  0.00     0.198 A 
ATOM     72  F   UNL     1      14.846   8.179   4.474  1.00  0.00    -0.203 F 
ATOM     73  F   UNL     1      12.858  13.260   4.537  1.00  0.00    -0.200 F 
ATOM     74  C   UNL     1      14.335  11.661   3.623  1.00  0.00     0.200 A 
ATOM     75  F   UNL     1      15.790  10.025   2.737  1.00  0.00    -0.200 F 
ATOM     76  F   UNL     1      14.801  12.567   2.753  1.00  0.00    -0.200 F 
ENDBRANCH  52  66
BRANCH  53  77
ATOM     77  C   UNL     1      10.447   2.718  11.908  1.00  0.00     0.064 A 
ATOM     78  C   UNL     1      10.393   2.918  13.295  1.00  0.00     0.173 A 
ATOM     79  C   UNL     1      10.172   1.429  11.426  1.00  0.00     0.173 A 
ATOM     80  F   UNL     1      10.667   4.126  13.809  1.00  0.00    -0.203 F 
ATOM     81  C   UNL     1      10.124   1.863  14.166  1.00  0.00     0.198 A 
ATOM     82  C   UNL     1       9.867   0.384  12.296  1.00  0.00     0.198 A 
ATOM     83  F   UNL     1      10.203   1.183  10.108  1.00  0.00    -0.203 F 
ATOM     84  F   UNL     1      10.154   2.067  15.490  1.00  0.00    -0.200 F 
ATOM     85  C   UNL     1       9.859   0.598  13.666  1.00  0.00     0.200 A 
ATOM     86  F   UNL     1       9.597  -0.834  11.807  1.00  0.00    -0.200 F 
ATOM     87  F   UNL     1       9.612  -0.418  14.503  1.00  0.00    -0.200 F 
ENDBRANCH  53  77
BRANCH  65  88
ATOM     88  C   UNL     1      16.328   6.355  11.062  1.00  0.00     0.064 A 
ATOM     89  C   UNL     1      17.223   5.280  10.967  1.00  0.00     0.173 A 
ATOM     90  C   UNL     1      16.709   7.462  11.836  1.00  0.00     0.173 A 
ATOM     91  F   UNL     1      16.900   4.193  10.251  1.00  0.00    -0.203 F 
ATOM     92  C   UNL     1      18.439   5.301  11.646  1.00  0.00     0.198 A 
ATOM     93  C   UNL     1      17.940   7.494  12.484  1.00  0.00     0.198 A 
ATOM     94  F   UNL     1      15.893   8.520  11.952  1.00  0.00    -0.203 F 
ATOM     95  F   UNL     1      19.256   4.240  11.584  1.00  0.00    -0.200 F 
ATOM     96  C   UNL     1      18.800   6.410  12.395  1.00  0.00     0.200 A 
ATOM     97  F   UNL     1      18.294   8.575  13.193  1.00  0.00    -0.200 F 
ATOM     98  F   UNL     1      19.975   6.432  13.039  1.00  0.00    -0.200 F 
ENDBRANCH  65  88
ENDBRANCH  39  40
ENDBRANCH  31  34
ENDBRANCH  29  30
ENDBRANCH  28  29
ENDBRANCH  27  28
ENDBRANCH  26  27
ENDBRANCH   1  26
TORSDOF 18
