REMARK SMILES CC[C@@H]1CCc2c(sc(NC(=O)COCC(=O)NCCCCCCNC(=O)c3ccc(-c4c5nc(c(-c6c(F)c(F)c(F)c(F)c6F)c6ccc([nH]6)c(-c6c(F)c(F)c(F)c(F)c6F)c6nc(c(-c7c(F)c(F)c(F)c(F)c7F)c7ccc4[nH]7)C=C6)C=C5)cc3)c2C(N)=O)C1
REMARK SMILES IDX 20 1 19 2 18 3 16 4 17 5 15 7 14 8 13 9 11 10 10 11 12 13
REMARK SMILES IDX 9 14 3 15 4 16 95 17 5 18 7 19 6 20 8 21 91 22 2 23 1 24
REMARK SMILES IDX 92 25 93 26 94 27 21 30 22 31 23 32 24 33 25 34 26 35 27 37
REMARK SMILES IDX 28 38 29 39 90 40 30 41 89 42 31 43 32 44 33 45 83 46 34 47
REMARK SMILES IDX 88 48 82 49 84 50 35 51 87 52 81 53 80 54 36 56 68 57 48 58
REMARK SMILES IDX 67 59 49 60 52 61 66 62 85 63 50 64 51 65 65 67 86 68 53 69
REMARK SMILES IDX 37 70 38 71 46 72 39 73 40 74 44 75 47 76 41 77 42 78 45 79
REMARK SMILES IDX 43 80 69 81 70 82 78 83 71 84 72 85 76 86 79 87 73 88 74 89
REMARK SMILES IDX 77 90 75 91 54 92 55 93 63 94 56 95 57 96 61 97 64 98 58 99
REMARK SMILES IDX 59 100 62 101 60 102
REMARK H PARENT 18 6 10 12 93 28 93 29 25 36 84 55 52 66
REMARK Flexibility Score: inf
ROOT
ATOM      1  C   UNL     1       4.277   4.652   2.587  1.00  0.00     0.021 C 
ENDROOT
BRANCH   1   2
ATOM      2  C   UNL     1       3.695   5.019   1.222  1.00  0.00     0.116 C 
BRANCH   2   3
ATOM      3  N   UNL     1       4.610   5.830   0.438  1.00  0.00    -0.354 N 
ATOM      4  C   UNL     1       5.198   5.532  -0.759  1.00  0.00     0.246 C 
ATOM      5  O   UNL     1       5.969   6.344  -1.268  1.00  0.00    -0.272 OA
ATOM      6  H   UNL     1       4.835   6.710   0.818  1.00  0.00     0.163 HD
BRANCH   4   7
ATOM      7  C   UNL     1       4.881   4.195  -1.426  1.00  0.00     0.260 C 
BRANCH   7   8
ATOM      8  O   UNL     1       5.374   3.107  -0.660  1.00  0.00    -0.362 OA
BRANCH   8   9
ATOM      9  C   UNL     1       6.712   2.774  -0.962  1.00  0.00     0.261 C 
BRANCH   9  10
ATOM     10  C   UNL     1       6.848   1.679  -1.999  1.00  0.00     0.251 C 
ATOM     11  N   UNL     1       6.082   0.565  -2.046  1.00  0.00    -0.315 N 
ATOM     12  H   UNL     1       6.311   0.007  -2.824  1.00  0.00     0.170 HD
ATOM     13  O   UNL     1       7.718   1.784  -2.875  1.00  0.00    -0.272 OA
BRANCH  11  14
ATOM     14  C   UNL     1       5.072  -0.005  -1.305  1.00  0.00     0.108 A 
ATOM     15  C   UNL     1       0.917  -2.405  -0.572  1.00  0.00    -0.006 C 
ATOM     16  C   UNL     1       1.374  -2.266   0.896  1.00  0.00     0.009 C 
ATOM     17  C   UNL     1       2.140  -2.615  -1.491  1.00  0.00     0.050 C 
ATOM     18  C   UNL     1       2.435  -1.178   1.163  1.00  0.00     0.038 C 
ATOM     19  C   UNL     1       3.207  -1.618  -1.190  1.00  0.00     0.011 A 
ATOM     20  C   UNL     1       3.348  -0.923  -0.012  1.00  0.00    -0.019 A 
ATOM     21  S   UNL     1       4.427  -1.263  -2.293  1.00  0.00    -0.122 S 
ATOM     22  C   UNL     1       4.405   0.087  -0.090  1.00  0.00     0.077 A 
BRANCH  15  23
ATOM     23  C   UNL     1      -0.055  -1.312  -1.084  1.00  0.00     0.000 C 
ATOM     24  C   UNL     1       0.139   0.117  -0.602  1.00  0.00     0.004 C 
ENDBRANCH  15  23
BRANCH  22  25
ATOM     25  C   UNL     1       4.623   1.003   1.024  1.00  0.00     0.251 C 
ATOM     26  N   UNL     1       5.898   1.066   1.505  1.00  0.00    -0.365 N 
ATOM     27  O   UNL     1       3.720   1.595   1.596  1.00  0.00    -0.269 OA
ATOM     28  H   UNL     1       6.623   0.589   1.042  1.00  0.00     0.159 HD
ATOM     29  H   UNL     1       6.092   1.590   2.316  1.00  0.00     0.159 HD
ENDBRANCH  22  25
ENDBRANCH  11  14
ENDBRANCH   9  10
ENDBRANCH   8   9
ENDBRANCH   7   8
ENDBRANCH   4   7
ENDBRANCH   2   3
ENDBRANCH   1   2
BRANCH   1  30
ATOM     30  C   UNL     1       4.679   5.845   3.463  1.00  0.00     0.002 C 
BRANCH  30  31
ATOM     31  C   UNL     1       3.587   6.891   3.696  1.00  0.00     0.002 C 
BRANCH  31  32
ATOM     32  C   UNL     1       2.301   6.365   4.336  1.00  0.00     0.021 C 
BRANCH  32  33
ATOM     33  C   UNL     1       2.484   5.675   5.683  1.00  0.00     0.116 C 
BRANCH  33  34
ATOM     34  N   UNL     1       3.041   6.560   6.694  1.00  0.00    -0.352 N 
ATOM     35  C   UNL     1       2.593   6.832   7.963  1.00  0.00     0.251 C 
ATOM     36  H   UNL     1       3.862   7.035   6.430  1.00  0.00     0.163 HD
ATOM     37  O   UNL     1       3.111   7.728   8.623  1.00  0.00    -0.269 OA
BRANCH  35  38
ATOM     38  C   UNL     1       1.469   6.058   8.533  1.00  0.00     0.039 A 
ATOM     39  C   UNL     1       0.458   6.741   9.215  1.00  0.00     0.014 A 
ATOM     40  C   UNL     1       1.416   4.668   8.409  1.00  0.00     0.014 A 
ATOM     41  C   UNL     1      -0.636   6.036   9.721  1.00  0.00     0.010 A 
ATOM     42  C   UNL     1       0.291   3.975   8.849  1.00  0.00     0.010 A 
ATOM     43  C   UNL     1      -0.742   4.651   9.516  1.00  0.00    -0.014 A 
BRANCH  43  44
ATOM     44  C   UNL     1      -1.919   3.888  10.003  1.00  0.00     0.031 A 
ATOM     45  C   UNL     1      -1.749   2.838  11.066  1.00  0.00     0.074 A 
ATOM     46  C   UNL     1      -3.128   4.095   9.448  1.00  0.00     0.049 A 
ATOM     47  N   UNL     1      -2.636   2.022  11.576  1.00  0.00    -0.248 NA
ATOM     48  C   UNL     1      -0.392   2.665  11.607  1.00  0.00     0.031 C 
ATOM     49  C   UNL     1      -3.415   5.056   8.383  1.00  0.00     0.029 A 
ATOM     50  N   UNL     1      -4.340   3.503   9.699  1.00  0.00    -0.354 N 
ATOM     51  C   UNL     1      -1.944   1.233  12.485  1.00  0.00     0.074 A 
ATOM     52  C   UNL     1      -0.553   1.627  12.413  1.00  0.00     0.031 C 
ATOM     53  C   UNL     1      -4.725   5.009   8.091  1.00  0.00     0.029 A 
ATOM     54  C   UNL     1      -5.361   3.990   8.921  1.00  0.00     0.049 A 
ATOM     55  H   UNL     1      -4.466   2.796  10.372  1.00  0.00     0.167 HD
ATOM     56  C   UNL     1      -2.427   0.284  13.323  1.00  0.00     0.037 A 
ATOM     57  C   UNL     1      -6.663   3.650   8.880  1.00  0.00     0.037 A 
ATOM     58  C   UNL     1      -3.814  -0.093  13.405  1.00  0.00     0.049 A 
ATOM     59  C   UNL     1      -7.174   2.580   9.807  1.00  0.00     0.074 A 
ATOM     60  C   UNL     1      -4.412  -1.010  14.251  1.00  0.00     0.029 A 
ATOM     61  N   UNL     1      -4.821   0.428  12.604  1.00  0.00    -0.354 N 
ATOM     62  N   UNL     1      -6.522   1.881  10.704  1.00  0.00    -0.248 NA
ATOM     63  C   UNL     1      -8.604   2.258   9.718  1.00  0.00     0.031 C 
ATOM     64  C   UNL     1      -5.774  -1.076  13.933  1.00  0.00     0.029 A 
ATOM     65  C   UNL     1      -6.034  -0.162  12.924  1.00  0.00     0.049 A 
ATOM     66  H   UNL     1      -4.693   1.116  11.912  1.00  0.00     0.167 HD
ATOM     67  C   UNL     1      -7.466   1.062  11.310  1.00  0.00     0.074 A 
ATOM     68  C   UNL     1      -8.738   1.358  10.683  1.00  0.00     0.031 C 
ATOM     69  C   UNL     1      -7.294   0.151  12.299  1.00  0.00     0.037 A 
BRANCH  56  70
ATOM     70  C   UNL     1      -1.439  -0.411  14.216  1.00  0.00     0.064 A 
ATOM     71  C   UNL     1      -0.795   0.262  15.266  1.00  0.00     0.173 A 
ATOM     72  C   UNL     1      -1.136  -1.768  14.026  1.00  0.00     0.173 A 
ATOM     73  F   UNL     1      -1.039   1.563  15.484  1.00  0.00    -0.203 F 
ATOM     74  C   UNL     1       0.146  -0.384  16.063  1.00  0.00     0.198 A 
ATOM     75  C   UNL     1      -0.220  -2.420  14.847  1.00  0.00     0.198 A 
ATOM     76  F   UNL     1      -1.728  -2.463  13.042  1.00  0.00    -0.203 F 
ATOM     77  F   UNL     1       0.795   0.298  17.017  1.00  0.00    -0.200 F 
ATOM     78  C   UNL     1       0.429  -1.726  15.857  1.00  0.00     0.200 A 
ATOM     79  F   UNL     1       0.043  -3.720  14.655  1.00  0.00    -0.200 F 
ATOM     80  F   UNL     1       1.336  -2.346  16.624  1.00  0.00    -0.200 F 
ENDBRANCH  56  70
BRANCH  57  81
ATOM     81  C   UNL     1      -7.585   4.363   7.959  1.00  0.00     0.064 A 
ATOM     82  C   UNL     1      -8.549   5.250   8.459  1.00  0.00     0.173 A 
ATOM     83  C   UNL     1      -7.519   4.185   6.570  1.00  0.00     0.173 A 
ATOM     84  F   UNL     1      -8.664   5.437   9.782  1.00  0.00    -0.203 F 
ATOM     85  C   UNL     1      -9.423   5.920   7.605  1.00  0.00     0.198 A 
ATOM     86  C   UNL     1      -8.376   4.875   5.715  1.00  0.00     0.198 A 
ATOM     87  F   UNL     1      -6.611   3.350   6.043  1.00  0.00    -0.203 F 
ATOM     88  F   UNL     1     -10.361   6.731   8.112  1.00  0.00    -0.200 F 
ATOM     89  C   UNL     1      -9.331   5.737   6.234  1.00  0.00     0.200 A 
ATOM     90  F   UNL     1      -8.276   4.706   4.390  1.00  0.00    -0.200 F 
ATOM     91  F   UNL     1     -10.167   6.386   5.412  1.00  0.00    -0.200 F 
ENDBRANCH  57  81
BRANCH  69  92
ATOM     92  C   UNL     1      -8.518  -0.561  12.798  1.00  0.00     0.064 A 
ATOM     93  C   UNL     1      -9.170  -1.537  12.031  1.00  0.00     0.173 A 
ATOM     94  C   UNL     1      -9.022  -0.287  14.079  1.00  0.00     0.173 A 
ATOM     95  F   UNL     1      -8.737  -1.824  10.794  1.00  0.00    -0.203 F 
ATOM     96  C   UNL     1     -10.298  -2.193  12.518  1.00  0.00     0.198 A 
ATOM     97  C   UNL     1     -10.131  -0.967  14.574  1.00  0.00     0.198 A 
ATOM     98  F   UNL     1      -8.431   0.633  14.856  1.00  0.00    -0.203 F 
ATOM     99  F   UNL     1     -10.934  -3.087  11.748  1.00  0.00    -0.200 F 
ATOM    100  C   UNL     1     -10.772  -1.913  13.791  1.00  0.00     0.200 A 
ATOM    101  F   UNL     1     -10.579  -0.705  15.810  1.00  0.00    -0.200 F 
ATOM    102  F   UNL     1     -11.854  -2.551  14.259  1.00  0.00    -0.200 F 
ENDBRANCH  69  92
ENDBRANCH  43  44
ENDBRANCH  35  38
ENDBRANCH  33  34
ENDBRANCH  32  33
ENDBRANCH  31  32
ENDBRANCH  30  31
ENDBRANCH   1  30
TORSDOF 19
