REMARK SMILES CCc1ccc(C(=O)N[C@@H](CC(C)C)C(=O)NCCCCCCNC(=O)c2ccc(-c3c4nc(c(-c5c(F)c(F)c(F)c(F)c5F)c5ccc([nH]5)c(-c5c(F)c(F)c(F)c(F)c5F)c5nc(c(-c6c(F)c(F)c(F)c(F)c6F)c6ccc3[nH]6)C=C5)C=C4)cc2)cc1
REMARK SMILES IDX 20 1 19 2 18 3 17 4 15 5 16 6 10 8 9 9 7 10 8 11 6 13 3 14
REMARK SMILES IDX 4 15 91 16 5 17 90 18 2 19 1 20 11 21 12 22 13 23 14 24
REMARK SMILES IDX 21 25 22 26 23 27 24 28 25 29 26 31 27 32 28 33 89 34 29 35
REMARK SMILES IDX 88 36 30 37 31 38 32 39 82 40 33 41 87 42 81 43 83 44 34 45
REMARK SMILES IDX 86 46 80 47 79 48 35 50 67 51 47 52 66 53 48 54 51 55 65 56
REMARK SMILES IDX 84 57 49 58 50 59 64 61 85 62 52 63 36 64 37 65 45 66 38 67
REMARK SMILES IDX 39 68 43 69 46 70 40 71 41 72 44 73 42 74 68 75 69 76 77 77
REMARK SMILES IDX 70 78 71 79 75 80 78 81 72 82 73 83 76 84 74 85 53 86 54 87
REMARK SMILES IDX 62 88 55 89 56 90 60 91 63 92 57 93 58 94 61 95 59 96
REMARK H PARENT 17 7 9 12 24 30 83 49 51 60
REMARK Flexibility Score: inf
ROOT
ATOM      1  C   UNL     1       4.601  10.556   2.787  1.00  0.00     0.002 C 
ENDROOT
BRANCH   1   2
ATOM      2  C   UNL     1       3.998   9.543   3.766  1.00  0.00     0.021 C 
BRANCH   2   3
ATOM      3  C   UNL     1       2.744   8.840   3.265  1.00  0.00     0.116 C 
BRANCH   3   4
ATOM      4  N   UNL     1       2.978   8.033   2.090  1.00  0.00    -0.354 N 
ATOM      5  C   UNL     1       2.207   7.092   1.486  1.00  0.00     0.242 C 
ATOM      6  O   UNL     1       2.481   6.847   0.304  1.00  0.00    -0.273 OA
ATOM      7  H   UNL     1       3.846   8.192   1.653  1.00  0.00     0.163 HD
BRANCH   5   8
ATOM      8  C   UNL     1       0.960   6.442   2.129  1.00  0.00     0.171 C 
BRANCH   8   9
ATOM      9  N   UNL     1       1.087   6.038   3.534  1.00  0.00    -0.340 N 
ATOM     10  C   UNL     1       1.228   4.803   4.122  1.00  0.00     0.251 C 
ATOM     11  O   UNL     1       1.555   4.779   5.310  1.00  0.00    -0.269 OA
ATOM     12  H   UNL     1       1.067   6.787   4.172  1.00  0.00     0.164 HD
BRANCH  10  13
ATOM     13  C   UNL     1       1.003   3.513   3.408  1.00  0.00     0.039 A 
ATOM     14  C   UNL     1       0.673   1.010   2.131  1.00  0.00    -0.048 A 
ATOM     15  C   UNL     1       1.501   1.131   3.252  1.00  0.00     0.004 A 
ATOM     16  C   UNL     1      -0.035   2.136   1.697  1.00  0.00     0.004 A 
ATOM     17  C   UNL     1       1.670   2.372   3.879  1.00  0.00     0.014 A 
ATOM     18  C   UNL     1       0.100   3.363   2.354  1.00  0.00     0.014 A 
BRANCH  14  19
ATOM     19  C   UNL     1       0.507  -0.311   1.421  1.00  0.00     0.032 C 
ATOM     20  C   UNL     1       1.046  -0.285  -0.004  1.00  0.00     0.009 C 
ENDBRANCH  14  19
ENDBRANCH  10  13
ENDBRANCH   8   9
BRANCH   8  21
ATOM     21  C   UNL     1      -0.395   7.146   1.878  1.00  0.00     0.038 C 
BRANCH  21  22
ATOM     22  C   UNL     1      -0.509   8.644   2.218  1.00  0.00    -0.015 C 
ATOM     23  C   UNL     1      -0.029   9.527   1.060  1.00  0.00     0.007 C 
ATOM     24  C   UNL     1      -1.957   9.032   2.540  1.00  0.00     0.007 C 
ENDBRANCH  21  22
ENDBRANCH   8  21
ENDBRANCH   5   8
ENDBRANCH   3   4
ENDBRANCH   2   3
ENDBRANCH   1   2
BRANCH   1  25
ATOM     25  C   UNL     1       3.637  11.601   2.214  1.00  0.00     0.002 C 
BRANCH  25  26
ATOM     26  C   UNL     1       2.839  12.411   3.238  1.00  0.00     0.021 C 
BRANCH  26  27
ATOM     27  C   UNL     1       3.660  13.034   4.358  1.00  0.00     0.116 C 
BRANCH  27  28
ATOM     28  N   UNL     1       4.744  13.865   3.869  1.00  0.00    -0.352 N 
ATOM     29  C   UNL     1       5.193  15.071   4.337  1.00  0.00     0.251 C 
ATOM     30  H   UNL     1       5.227  13.510   3.087  1.00  0.00     0.163 HD
ATOM     31  O   UNL     1       6.053  15.691   3.713  1.00  0.00    -0.269 OA
BRANCH  29  32
ATOM     32  C   UNL     1       4.622  15.647   5.571  1.00  0.00     0.039 A 
ATOM     33  C   UNL     1       4.318  17.010   5.585  1.00  0.00     0.014 A 
ATOM     34  C   UNL     1       4.390  14.864   6.706  1.00  0.00     0.014 A 
ATOM     35  C   UNL     1       3.741  17.577   6.720  1.00  0.00     0.010 A 
ATOM     36  C   UNL     1       3.737  15.413   7.807  1.00  0.00     0.010 A 
ATOM     37  C   UNL     1       3.416  16.777   7.829  1.00  0.00    -0.014 A 
BRANCH  37  38
ATOM     38  C   UNL     1       2.738  17.372   9.007  1.00  0.00     0.031 A 
ATOM     39  C   UNL     1       3.422  17.412  10.345  1.00  0.00     0.074 A 
ATOM     40  C   UNL     1       1.492  17.864   8.869  1.00  0.00     0.049 A 
ATOM     41  N   UNL     1       3.000  17.927  11.474  1.00  0.00    -0.248 NA
ATOM     42  C   UNL     1       4.742  16.770  10.437  1.00  0.00     0.031 C 
ATOM     43  C   UNL     1       0.703  17.827   7.636  1.00  0.00     0.029 A 
ATOM     44  N   UNL     1       0.673  18.497   9.768  1.00  0.00    -0.354 N 
ATOM     45  C   UNL     1       3.999  17.669  12.403  1.00  0.00     0.074 A 
ATOM     46  C   UNL     1       5.016  16.894  11.727  1.00  0.00     0.031 C 
ATOM     47  C   UNL     1      -0.466  18.451   7.843  1.00  0.00     0.029 A 
ATOM     48  C   UNL     1      -0.526  18.899   9.231  1.00  0.00     0.049 A 
ATOM     49  H   UNL     1       0.920  18.650  10.709  1.00  0.00     0.167 HD
ATOM     50  C   UNL     1       4.075  18.068  13.696  1.00  0.00     0.037 A 
ATOM     51  C   UNL     1      -1.555  19.559   9.794  1.00  0.00     0.037 A 
ATOM     52  C   UNL     1       3.061  18.846  14.362  1.00  0.00     0.049 A 
ATOM     53  C   UNL     1      -1.447  19.985  11.233  1.00  0.00     0.074 A 
ATOM     54  C   UNL     1       3.062  19.343  15.653  1.00  0.00     0.029 A 
ATOM     55  N   UNL     1       1.858  19.233  13.788  1.00  0.00    -0.354 N 
ATOM     56  N   UNL     1      -0.462  19.807  12.080  1.00  0.00    -0.248 NA
ATOM     57  C   UNL     1      -2.591  20.719  11.788  1.00  0.00     0.031 C 
ATOM     58  C   UNL     1       1.836  19.978  15.880  1.00  0.00     0.029 A 
ATOM     59  C   UNL     1       1.098  19.939  14.708  1.00  0.00     0.049 A 
ATOM     60  H   UNL     1       1.585  19.035  12.863  1.00  0.00     0.167 HD
ATOM     61  C   UNL     1      -0.855  20.428  13.258  1.00  0.00     0.074 A 
ATOM     62  C   UNL     1      -2.156  21.012  13.004  1.00  0.00     0.031 C 
ATOM     63  C   UNL     1      -0.200  20.507  14.444  1.00  0.00     0.037 A 
BRANCH  50  64
ATOM     64  C   UNL     1       5.296  17.666  14.476  1.00  0.00     0.064 A 
ATOM     65  C   UNL     1       6.566  18.186  14.179  1.00  0.00     0.173 A 
ATOM     66  C   UNL     1       5.192  16.772  15.553  1.00  0.00     0.173 A 
ATOM     67  F   UNL     1       6.726  19.036  13.153  1.00  0.00    -0.203 F 
ATOM     68  C   UNL     1       7.689  17.799  14.907  1.00  0.00     0.198 A 
ATOM     69  C   UNL     1       6.312  16.415  16.301  1.00  0.00     0.198 A 
ATOM     70  F   UNL     1       4.003  16.247  15.885  1.00  0.00    -0.203 F 
ATOM     71  F   UNL     1       8.899  18.264  14.566  1.00  0.00    -0.200 F 
ATOM     72  C   UNL     1       7.560  16.920  15.971  1.00  0.00     0.200 A 
ATOM     73  F   UNL     1       6.183  15.577  17.339  1.00  0.00    -0.200 F 
ATOM     74  F   UNL     1       8.640  16.555  16.675  1.00  0.00    -0.200 F 
ENDBRANCH  50  64
BRANCH  51  75
ATOM     75  C   UNL     1      -2.760  19.887   8.987  1.00  0.00     0.064 A 
ATOM     76  C   UNL     1      -3.072  21.214   8.661  1.00  0.00     0.173 A 
ATOM     77  C   UNL     1      -3.627  18.883   8.531  1.00  0.00     0.173 A 
ATOM     78  F   UNL     1      -2.284  22.212   9.088  1.00  0.00    -0.203 F 
ATOM     79  C   UNL     1      -4.219  21.527   7.934  1.00  0.00     0.198 A 
ATOM     80  C   UNL     1      -4.755  19.194   7.776  1.00  0.00     0.198 A 
ATOM     81  F   UNL     1      -3.370  17.596   8.808  1.00  0.00    -0.203 F 
ATOM     82  F   UNL     1      -4.521  22.808   7.683  1.00  0.00    -0.200 F 
ATOM     83  C   UNL     1      -5.056  20.516   7.487  1.00  0.00     0.200 A 
ATOM     84  F   UNL     1      -5.551  18.213   7.330  1.00  0.00    -0.200 F 
ATOM     85  F   UNL     1      -6.157  20.817   6.784  1.00  0.00    -0.200 F 
ENDBRANCH  51  75
BRANCH  63  86
ATOM     86  C   UNL     1      -0.874  21.281  15.543  1.00  0.00     0.064 A 
ATOM     87  C   UNL     1      -2.054  20.826  16.153  1.00  0.00     0.173 A 
ATOM     88  C   UNL     1      -0.334  22.497  15.990  1.00  0.00     0.173 A 
ATOM     89  F   UNL     1      -2.620  19.677  15.756  1.00  0.00    -0.203 F 
ATOM     90  C   UNL     1      -2.694  21.584  17.131  1.00  0.00     0.198 A 
ATOM     91  C   UNL     1      -0.954  23.232  16.996  1.00  0.00     0.198 A 
ATOM     92  F   UNL     1       0.798  22.974  15.451  1.00  0.00    -0.203 F 
ATOM     93  F   UNL     1      -3.860  21.167  17.642  1.00  0.00    -0.200 F 
ATOM     94  C   UNL     1      -2.141  22.783  17.554  1.00  0.00     0.200 A 
ATOM     95  F   UNL     1      -0.409  24.381  17.417  1.00  0.00    -0.200 F 
ATOM     96  F   UNL     1      -2.760  23.514  18.492  1.00  0.00    -0.200 F 
ENDBRANCH  63  86
ENDBRANCH  37  38
ENDBRANCH  29  32
ENDBRANCH  27  28
ENDBRANCH  26  27
ENDBRANCH  25  26
ENDBRANCH   1  25
TORSDOF 18
