REMARK SMILES CCS(=O)(=O)N[C@H]1C=C[C@@H](C(=O)NCCCCCCNC(=O)c2ccc(-c3c4nc(c(-c5c(F)c(F)c(F)c(F)c5F)c5ccc([nH]5)c(-c5c(F)c(F)c(F)c(F)c5F)c5nc(c(-c6c(F)c(F)c(F)c(F)c6F)c6ccc3[nH]6)C=C5)C=C4)cc2)C1
REMARK SMILES IDX 16 1 15 2 14 3 13 4 11 5 12 6 10 8 7 9 8 10 86 11 9 12 6 13
REMARK SMILES IDX 3 15 4 16 5 17 2 18 1 19 17 20 18 21 19 22 20 23 21 24 22 26
REMARK SMILES IDX 23 27 24 28 85 29 25 30 84 31 26 32 27 33 28 34 78 35 29 36
REMARK SMILES IDX 83 37 77 38 79 39 30 40 82 41 76 42 75 43 31 45 63 46 43 47
REMARK SMILES IDX 62 48 44 49 47 50 61 51 80 52 45 53 46 54 60 56 81 57 48 58
REMARK SMILES IDX 32 59 33 60 41 61 34 62 35 63 39 64 42 65 36 66 37 67 40 68
REMARK SMILES IDX 38 69 64 70 65 71 73 72 66 73 67 74 71 75 74 76 68 77 69 78
REMARK SMILES IDX 72 79 70 80 49 81 50 82 58 83 51 84 52 85 56 86 59 87 53 88
REMARK SMILES IDX 54 89 57 90 55 91
REMARK H PARENT 13 7 6 14 20 25 79 44 47 55
REMARK Flexibility Score: inf
ROOT
ATOM      1  C   UNL     1      -1.586  -4.525  -2.719  1.00  0.00     0.002 C 
ENDROOT
BRANCH   1   2
ATOM      2  C   UNL     1      -0.225  -3.844  -2.556  1.00  0.00     0.021 C 
BRANCH   2   3
ATOM      3  C   UNL     1      -0.045  -3.135  -1.214  1.00  0.00     0.116 C 
BRANCH   3   4
ATOM      4  N   UNL     1       0.486  -4.018  -0.209  1.00  0.00    -0.356 N 
ATOM      5  C   UNL     1       1.700  -4.024   0.395  1.00  0.00     0.226 C 
ATOM      6  O   UNL     1       1.851  -4.854   1.301  1.00  0.00    -0.274 OA
ATOM      7  H   UNL     1      -0.128  -4.728   0.087  1.00  0.00     0.163 HD
BRANCH   5   8
ATOM      8  C   UNL     1       2.833  -3.025   0.096  1.00  0.00     0.103 C 
ATOM      9  C   UNL     1       3.583  -1.083  -1.187  1.00  0.00     0.093 C 
ATOM     10  C   UNL     1       3.141  -0.698   0.173  1.00  0.00    -0.011 C 
ATOM     11  C   UNL     1       3.182  -2.558  -1.332  1.00  0.00     0.042 C 
ATOM     12  C   UNL     1       2.686  -1.746   0.869  1.00  0.00    -0.016 C 
BRANCH   9  13
ATOM     13  N   UNL     1       3.141  -0.106  -2.176  1.00  0.00    -0.208 NA
ATOM     14  H   UNL     1       3.400   0.789  -1.762  1.00  0.00     0.141 HD
BRANCH  13  15
ATOM     15  S   UNL     1       1.667   0.191  -2.849  1.00  0.00     0.211 S 
ATOM     16  O   UNL     1       1.000  -1.050  -3.136  1.00  0.00    -0.212 OA
ATOM     17  O   UNL     1       1.986   1.074  -3.957  1.00  0.00    -0.212 OA
BRANCH  15  18
ATOM     18  C   UNL     1       0.661   1.175  -1.734  1.00  0.00     0.150 C 
ATOM     19  C   UNL     1       0.334   0.616  -0.371  1.00  0.00     0.022 C 
ENDBRANCH  15  18
ENDBRANCH  13  15
ENDBRANCH   9  13
ENDBRANCH   5   8
ENDBRANCH   3   4
ENDBRANCH   2   3
ENDBRANCH   1   2
BRANCH   1  20
ATOM     20  C   UNL     1      -2.801  -3.599  -2.573  1.00  0.00     0.002 C 
BRANCH  20  21
ATOM     21  C   UNL     1      -2.786  -2.334  -3.438  1.00  0.00     0.021 C 
BRANCH  21  22
ATOM     22  C   UNL     1      -2.692  -2.584  -4.941  1.00  0.00     0.116 C 
BRANCH  22  23
ATOM     23  N   UNL     1      -3.808  -3.380  -5.432  1.00  0.00    -0.352 N 
ATOM     24  C   UNL     1      -4.757  -3.082  -6.377  1.00  0.00     0.251 C 
ATOM     25  H   UNL     1      -3.896  -4.271  -5.021  1.00  0.00     0.163 HD
ATOM     26  O   UNL     1      -5.746  -3.797  -6.505  1.00  0.00    -0.269 OA
BRANCH  24  27
ATOM     27  C   UNL     1      -4.597  -1.892  -7.238  1.00  0.00     0.039 A 
ATOM     28  C   UNL     1      -5.707  -1.078  -7.485  1.00  0.00     0.014 A 
ATOM     29  C   UNL     1      -3.365  -1.593  -7.822  1.00  0.00     0.014 A 
ATOM     30  C   UNL     1      -5.564   0.073  -8.265  1.00  0.00     0.010 A 
ATOM     31  C   UNL     1      -3.207  -0.410  -8.539  1.00  0.00     0.010 A 
ATOM     32  C   UNL     1      -4.305   0.435  -8.768  1.00  0.00    -0.014 A 
BRANCH  32  33
ATOM     33  C   UNL     1      -4.098   1.684  -9.545  1.00  0.00     0.031 A 
ATOM     34  C   UNL     1      -3.639   1.603 -10.975  1.00  0.00     0.074 A 
ATOM     35  C   UNL     1      -4.239   2.883  -8.945  1.00  0.00     0.049 A 
ATOM     36  N   UNL     1      -3.239   2.560 -11.774  1.00  0.00    -0.248 NA
ATOM     37  C   UNL     1      -3.604   0.262 -11.581  1.00  0.00     0.031 C 
ATOM     38  C   UNL     1      -4.663   3.092  -7.560  1.00  0.00     0.029 A 
ATOM     39  N   UNL     1      -4.011   4.153  -9.417  1.00  0.00    -0.354 N 
ATOM     40  C   UNL     1      -2.897   1.937 -12.967  1.00  0.00     0.074 A 
ATOM     41  C   UNL     1      -3.085   0.516 -12.774  1.00  0.00     0.031 C 
ATOM     42  C   UNL     1      -4.665   4.408  -7.294  1.00  0.00     0.029 A 
ATOM     43  C   UNL     1      -4.190   5.133  -8.469  1.00  0.00     0.049 A 
ATOM     44  H   UNL     1      -3.745   4.343 -10.345  1.00  0.00     0.167 HD
ATOM     45  C   UNL     1      -2.485   2.503 -14.125  1.00  0.00     0.037 A 
ATOM     46  C   UNL     1      -3.964   6.460  -8.532  1.00  0.00     0.037 A 
ATOM     47  C   UNL     1      -2.308   3.919 -14.315  1.00  0.00     0.049 A 
ATOM     48  C   UNL     1      -3.449   7.056  -9.818  1.00  0.00     0.074 A 
ATOM     49  C   UNL     1      -1.907   4.592 -15.456  1.00  0.00     0.029 A 
ATOM     50  N   UNL     1      -2.525   4.879 -13.338  1.00  0.00    -0.354 N 
ATOM     51  N   UNL     1      -3.164   6.462 -10.951  1.00  0.00    -0.248 NA
ATOM     52  C   UNL     1      -3.227   8.510  -9.838  1.00  0.00     0.031 C 
ATOM     53  C   UNL     1      -1.835   5.954 -15.156  1.00  0.00     0.029 A 
ATOM     54  C   UNL     1      -2.256   6.137 -13.849  1.00  0.00     0.049 A 
ATOM     55  H   UNL     1      -2.824   4.693 -12.418  1.00  0.00     0.167 HD
ATOM     56  C   UNL     1      -2.783   7.470 -11.827  1.00  0.00     0.074 A 
ATOM     57  C   UNL     1      -2.872   8.715 -11.098  1.00  0.00     0.031 C 
ATOM     58  C   UNL     1      -2.398   7.372 -13.122  1.00  0.00     0.037 A 
BRANCH  45  59
ATOM     59  C   UNL     1      -2.207   1.598 -15.290  1.00  0.00     0.064 A 
ATOM     60  C   UNL     1      -3.244   0.936 -15.964  1.00  0.00     0.173 A 
ATOM     61  C   UNL     1      -0.903   1.451 -15.787  1.00  0.00     0.173 A 
ATOM     62  F   UNL     1      -4.507   1.037 -15.525  1.00  0.00    -0.203 F 
ATOM     63  C   UNL     1      -2.984   0.147 -17.081  1.00  0.00     0.198 A 
ATOM     64  C   UNL     1      -0.650   0.688 -16.923  1.00  0.00     0.198 A 
ATOM     65  F   UNL     1       0.125   2.070 -15.185  1.00  0.00    -0.203 F 
ATOM     66  F   UNL     1      -3.986  -0.504 -17.687  1.00  0.00    -0.200 F 
ATOM     67  C   UNL     1      -1.690   0.033 -17.567  1.00  0.00     0.200 A 
ATOM     68  F   UNL     1       0.598   0.594 -17.402  1.00  0.00    -0.200 F 
ATOM     69  F   UNL     1      -1.444  -0.710 -18.655  1.00  0.00    -0.200 F 
ENDBRANCH  45  59
BRANCH  46  70
ATOM     70  C   UNL     1      -4.205   7.325  -7.345  1.00  0.00     0.064 A 
ATOM     71  C   UNL     1      -5.194   8.320  -7.364  1.00  0.00     0.173 A 
ATOM     72  C   UNL     1      -3.418   7.216  -6.188  1.00  0.00     0.173 A 
ATOM     73  F   UNL     1      -5.962   8.479  -8.452  1.00  0.00    -0.203 F 
ATOM     74  C   UNL     1      -5.355   9.199  -6.294  1.00  0.00     0.198 A 
ATOM     75  C   UNL     1      -3.607   8.070  -5.103  1.00  0.00     0.198 A 
ATOM     76  F   UNL     1      -2.463   6.278  -6.110  1.00  0.00    -0.203 F 
ATOM     77  F   UNL     1      -6.256  10.187  -6.373  1.00  0.00    -0.200 F 
ATOM     78  C   UNL     1      -4.563   9.072  -5.164  1.00  0.00     0.200 A 
ATOM     79  F   UNL     1      -2.851   7.932  -4.005  1.00  0.00    -0.200 F 
ATOM     80  F   UNL     1      -4.711   9.923  -4.140  1.00  0.00    -0.200 F 
ENDBRANCH  46  70
BRANCH  58  81
ATOM     81  C   UNL     1      -2.129   8.644 -13.874  1.00  0.00     0.064 A 
ATOM     82  C   UNL     1      -0.989   9.423 -13.637  1.00  0.00     0.173 A 
ATOM     83  C   UNL     1      -2.993   9.038 -14.909  1.00  0.00     0.173 A 
ATOM     84  F   UNL     1      -0.140   9.097 -12.651  1.00  0.00    -0.203 F 
ATOM     85  C   UNL     1      -0.729  10.558 -14.401  1.00  0.00     0.198 A 
ATOM     86  C   UNL     1      -2.713  10.154 -15.691  1.00  0.00     0.198 A 
ATOM     87  F   UNL     1      -4.095   8.322 -15.180  1.00  0.00    -0.203 F 
ATOM     88  F   UNL     1       0.349  11.309 -14.135  1.00  0.00    -0.200 F 
ATOM     89  C   UNL     1      -1.583  10.915 -15.434  1.00  0.00     0.200 A 
ATOM     90  F   UNL     1      -3.530  10.485 -16.700  1.00  0.00    -0.200 F 
ATOM     91  F   UNL     1      -1.318  11.995 -16.182  1.00  0.00    -0.200 F 
ENDBRANCH  58  81
ENDBRANCH  32  33
ENDBRANCH  24  27
ENDBRANCH  22  23
ENDBRANCH  21  22
ENDBRANCH  20  21
ENDBRANCH   1  20
TORSDOF 16
