REMARK SMILES C[NH+]1CCC(C(=O)N2C[C@@H](C(=O)NCCCCCCNC(=O)c3ccc(-c4c5nc(c(-c6c(F)c(F)c(F)c(F)c6F)c6ccc([nH]6)c(-c6c(F)c(F)c(F)c(F)c6F)c6nc(c(-c7c(F)c(F)c(F)c(F)c7F)c7ccc4[nH]7)C=C6)C=C5)cc3)[C@H](c3ccc4c(c3)OCO4)C2)CC1
REMARK SMILES IDX 16 1 15 2 14 3 13 4 11 5 12 6 10 8 8 9 9 10 96 11 86 12 6 13
REMARK SMILES IDX 7 14 5 15 1 16 2 17 3 18 98 19 4 21 97 22 87 23 88 24 92 25
REMARK SMILES IDX 89 26 91 27 90 28 93 29 95 30 94 31 17 32 18 33 19 34 20 35
REMARK SMILES IDX 21 36 22 38 23 39 24 40 85 41 25 42 84 43 26 44 27 45 28 46
REMARK SMILES IDX 78 47 29 48 83 49 77 50 79 51 30 52 82 53 76 54 75 55 31 57
REMARK SMILES IDX 63 58 43 59 62 60 44 61 47 62 61 63 80 64 45 65 46 66 60 68
REMARK SMILES IDX 81 69 48 70 32 71 33 72 41 73 34 74 35 75 39 76 42 77 36 78
REMARK SMILES IDX 37 79 40 80 38 81 64 82 65 83 73 84 66 85 67 86 71 87 74 88
REMARK SMILES IDX 68 89 69 90 72 91 70 92 49 93 50 94 58 95 51 96 52 97 56 98
REMARK SMILES IDX 59 99 53 100 54 101 57 102 55 103
REMARK H PARENT 13 7 2 20 20 37 79 56 47 67
REMARK Flexibility Score: inf
ROOT
ATOM      1  C   UNL     1       0.288  -0.004   8.382  1.00  0.00     0.002 C 
ENDROOT
BRANCH   1   2
ATOM      2  C   UNL     1       0.260   0.597   6.971  1.00  0.00     0.021 C 
BRANCH   2   3
ATOM      3  C   UNL     1       1.621   0.734   6.292  1.00  0.00     0.116 C 
BRANCH   3   4
ATOM      4  N   UNL     1       2.278  -0.544   6.076  1.00  0.00    -0.356 N 
ATOM      5  C   UNL     1       3.021  -0.980   5.019  1.00  0.00     0.225 C 
ATOM      6  O   UNL     1       3.589  -2.069   5.117  1.00  0.00    -0.275 OA
ATOM      7  H   UNL     1       2.171  -1.196   6.806  1.00  0.00     0.163 HD
BRANCH   5   8
ATOM      8  C   UNL     1       3.131  -0.134   3.770  1.00  0.00     0.107 C 
ATOM      9  N   UNL     1       3.630  -0.075   1.519  1.00  0.00    -0.341 N 
ATOM     10  C   UNL     1       3.194  -1.010   2.534  1.00  0.00     0.133 C 
ATOM     11  C   UNL     1       4.600   0.847   2.107  1.00  0.00     0.128 C 
ATOM     12  C   UNL     1       4.458   0.652   3.638  1.00  0.00     0.053 C 
BRANCH   9  13
ATOM     13  C   UNL     1       3.283   0.036   0.198  1.00  0.00     0.226 C 
ATOM     14  O   UNL     1       4.094   0.505  -0.611  1.00  0.00    -0.275 OA
BRANCH  13  15
ATOM     15  C   UNL     1       1.819  -0.100  -0.241  1.00  0.00     0.090 C 
ATOM     16  C   UNL     1      -2.477   0.036  -0.239  1.00  0.00     0.332 C 
ATOM     17  N   UNL     1      -1.068  -0.029   0.141  1.00  0.00    -0.337 N 
ATOM     18  C   UNL     1      -0.362   1.188  -0.276  1.00  0.00     0.262 C 
ATOM     19  C   UNL     1      -0.426  -1.226  -0.427  1.00  0.00     0.262 C 
ATOM     20  H   UNL     1      -1.015  -0.096   1.157  1.00  0.00     0.347 HD
ATOM     21  C   UNL     1       1.081   1.167   0.219  1.00  0.00     0.075 C 
ATOM     22  C   UNL     1       1.003  -1.339   0.112  1.00  0.00     0.075 C 
ENDBRANCH  13  15
ENDBRANCH   9  13
BRANCH  12  23
ATOM     23  C   UNL     1       4.449   1.878   4.527  1.00  0.00    -0.038 A 
ATOM     24  C   UNL     1       3.819   3.090   4.159  1.00  0.00     0.008 A 
ATOM     25  C   UNL     1       4.946   1.737   5.838  1.00  0.00     0.054 A 
ATOM     26  C   UNL     1       3.644   4.125   5.087  1.00  0.00     0.051 A 
ATOM     27  C   UNL     1       4.719   2.753   6.739  1.00  0.00     0.166 A 
ATOM     28  C   UNL     1       4.075   3.911   6.377  1.00  0.00     0.165 A 
ATOM     29  O   UNL     1       4.997   2.706   8.069  1.00  0.00    -0.454 OA
ATOM     30  O   UNL     1       3.873   4.739   7.437  1.00  0.00    -0.454 OA
ATOM     31  C   UNL     1       4.310   3.890   8.518  1.00  0.00     0.468 C 
ENDBRANCH  12  23
ENDBRANCH   5   8
ENDBRANCH   3   4
ENDBRANCH   2   3
ENDBRANCH   1   2
BRANCH   1  32
ATOM     32  C   UNL     1       1.204   0.692   9.394  1.00  0.00     0.002 C 
BRANCH  32  33
ATOM     33  C   UNL     1       0.974   2.193   9.571  1.00  0.00     0.021 C 
BRANCH  33  34
ATOM     34  C   UNL     1      -0.418   2.592  10.044  1.00  0.00     0.116 C 
BRANCH  34  35
ATOM     35  N   UNL     1      -0.673   2.192  11.419  1.00  0.00    -0.352 N 
ATOM     36  C   UNL     1      -1.000   2.952  12.513  1.00  0.00     0.251 C 
ATOM     37  H   UNL     1      -0.598   1.226  11.591  1.00  0.00     0.163 HD
ATOM     38  O   UNL     1      -0.994   2.438  13.634  1.00  0.00    -0.269 OA
BRANCH  36  39
ATOM     39  C   UNL     1      -1.339   4.388  12.377  1.00  0.00     0.039 A 
ATOM     40  C   UNL     1      -0.888   5.283  13.352  1.00  0.00     0.014 A 
ATOM     41  C   UNL     1      -2.121   4.858  11.319  1.00  0.00     0.014 A 
ATOM     42  C   UNL     1      -1.170   6.648  13.235  1.00  0.00     0.010 A 
ATOM     43  C   UNL     1      -2.326   6.227  11.155  1.00  0.00     0.010 A 
ATOM     44  C   UNL     1      -1.862   7.138  12.116  1.00  0.00    -0.014 A 
BRANCH  44  45
ATOM     45  C   UNL     1      -2.125   8.592  11.943  1.00  0.00     0.031 A 
ATOM     46  C   UNL     1      -3.541   9.104  11.893  1.00  0.00     0.074 A 
ATOM     47  C   UNL     1      -1.096   9.444  11.762  1.00  0.00     0.049 A 
ATOM     48  N   UNL     1      -3.976  10.318  11.664  1.00  0.00    -0.248 NA
ATOM     49  C   UNL     1      -4.613   8.116  12.099  1.00  0.00     0.031 C 
ATOM     50  C   UNL     1       0.319   9.068  11.734  1.00  0.00     0.029 A 
ATOM     51  N   UNL     1      -1.080  10.801  11.549  1.00  0.00    -0.354 N 
ATOM     52  C   UNL     1      -5.363  10.232  11.671  1.00  0.00     0.074 A 
ATOM     53  C   UNL     1      -5.701   8.843  11.885  1.00  0.00     0.031 C 
ATOM     54  C   UNL     1       1.063  10.166  11.529  1.00  0.00     0.029 A 
ATOM     55  C   UNL     1       0.181  11.318  11.371  1.00  0.00     0.049 A 
ATOM     56  H   UNL     1      -1.896  11.352  11.526  1.00  0.00     0.167 HD
ATOM     57  C   UNL     1      -6.271  11.227  11.532  1.00  0.00     0.037 A 
ATOM     58  C   UNL     1       0.580  12.575  11.097  1.00  0.00     0.037 A 
ATOM     59  C   UNL     1      -5.933  12.616  11.371  1.00  0.00     0.049 A 
ATOM     60  C   UNL     1      -0.455  13.663  10.970  1.00  0.00     0.074 A 
ATOM     61  C   UNL     1      -6.783  13.708  11.316  1.00  0.00     0.029 A 
ATOM     62  N   UNL     1      -4.643  13.106  11.238  1.00  0.00    -0.354 N 
ATOM     63  N   UNL     1      -1.759  13.581  11.068  1.00  0.00    -0.248 NA
ATOM     64  C   UNL     1       0.040  15.022  10.704  1.00  0.00     0.031 C 
ATOM     65  C   UNL     1      -6.011  14.852  11.095  1.00  0.00     0.029 A 
ATOM     66  C   UNL     1      -4.677  14.481  11.072  1.00  0.00     0.049 A 
ATOM     67  H   UNL     1      -3.825  12.558  11.259  1.00  0.00     0.167 HD
ATOM     68  C   UNL     1      -2.236  14.875  10.908  1.00  0.00     0.074 A 
ATOM     69  C   UNL     1      -1.082  15.727  10.725  1.00  0.00     0.031 C 
ATOM     70  C   UNL     1      -3.517  15.318  10.908  1.00  0.00     0.037 A 
BRANCH  57  71
ATOM     71  C   UNL     1      -7.728  10.863  11.555  1.00  0.00     0.064 A 
ATOM     72  C   UNL     1      -8.370  10.461  12.735  1.00  0.00     0.173 A 
ATOM     73  C   UNL     1      -8.509  11.001  10.397  1.00  0.00     0.173 A 
ATOM     74  F   UNL     1      -7.668  10.305  13.867  1.00  0.00    -0.203 F 
ATOM     75  C   UNL     1      -9.738  10.197  12.752  1.00  0.00     0.198 A 
ATOM     76  C   UNL     1      -9.881  10.764  10.424  1.00  0.00     0.198 A 
ATOM     77  F   UNL     1      -7.945  11.388   9.243  1.00  0.00    -0.203 F 
ATOM     78  F   UNL     1     -10.324   9.783  13.884  1.00  0.00    -0.200 F 
ATOM     79  C   UNL     1     -10.493  10.359  11.600  1.00  0.00     0.200 A 
ATOM     80  F   UNL     1     -10.611  10.936   9.314  1.00  0.00    -0.200 F 
ATOM     81  F   UNL     1     -11.812  10.124  11.624  1.00  0.00    -0.200 F 
ENDBRANCH  57  71
BRANCH  58  82
ATOM     82  C   UNL     1       2.025  12.884  10.919  1.00  0.00     0.064 A 
ATOM     83  C   UNL     1       2.709  13.699  11.832  1.00  0.00     0.173 A 
ATOM     84  C   UNL     1       2.741  12.404   9.813  1.00  0.00     0.173 A 
ATOM     85  F   UNL     1       2.064  14.200  12.896  1.00  0.00    -0.203 F 
ATOM     86  C   UNL     1       4.042  14.052  11.626  1.00  0.00     0.198 A 
ATOM     87  C   UNL     1       4.083  12.729   9.626  1.00  0.00     0.198 A 
ATOM     88  F   UNL     1       2.137  11.615   8.912  1.00  0.00    -0.203 F 
ATOM     89  F   UNL     1       4.651  14.887  12.479  1.00  0.00    -0.200 F 
ATOM     90  C   UNL     1       4.729  13.564  10.525  1.00  0.00     0.200 A 
ATOM     91  F   UNL     1       4.747  12.243   8.568  1.00  0.00    -0.200 F 
ATOM     92  F   UNL     1       6.008  13.909  10.324  1.00  0.00    -0.200 F 
ENDBRANCH  58  82
BRANCH  70  93
ATOM     93  C   UNL     1      -3.739  16.794  10.750  1.00  0.00     0.064 A 
ATOM     94  C   UNL     1      -3.517  17.447   9.528  1.00  0.00     0.173 A 
ATOM     95  C   UNL     1      -4.221  17.557  11.824  1.00  0.00     0.173 A 
ATOM     96  F   UNL     1      -3.042  16.764   8.475  1.00  0.00    -0.203 F 
ATOM     97  C   UNL     1      -3.744  18.814   9.396  1.00  0.00     0.198 A 
ATOM     98  C   UNL     1      -4.479  18.917  11.679  1.00  0.00     0.198 A 
ATOM     99  F   UNL     1      -4.459  16.979  13.012  1.00  0.00    -0.203 F 
ATOM    100  F   UNL     1      -3.478  19.426   8.234  1.00  0.00    -0.200 F 
ATOM    101  C   UNL     1      -4.233  19.546  10.469  1.00  0.00     0.200 A 
ATOM    102  F   UNL     1      -4.967  19.619  12.711  1.00  0.00    -0.200 F 
ATOM    103  F   UNL     1      -4.460  20.860  10.336  1.00  0.00    -0.200 F 
ENDBRANCH  70  93
ENDBRANCH  44  45
ENDBRANCH  36  39
ENDBRANCH  34  35
ENDBRANCH  33  34
ENDBRANCH  32  33
ENDBRANCH   1  32
TORSDOF 16
