REMARK SMILES O=C(NCCCCCCNC(=O)c1ccc(N2C(=O)/C(=C/C3=c4ccccc4=NC3)SC2=S)cc1O)c1ccc(-c2c3nc(c(-c4c(F)c(F)c(F)c(F)c4F)c4ccc([nH]4)c(-c4c(F)c(F)c(F)c(F)c4F)c4nc(c(-c5c(F)c(F)c(F)c(F)c5F)c5ccc2[nH]5)C=C4)C=C3)cc1
REMARK SMILES IDX 6 1 5 2 4 3 3 4 1 5 2 6 37 8 38 9 99 10 39 11 98 12 40 13
REMARK SMILES IDX 41 14 42 15 92 16 43 17 97 18 91 19 93 20 44 21 96 22 90 23
REMARK SMILES IDX 89 24 45 26 77 27 57 28 76 29 58 30 61 31 75 32 94 33 59 34
REMARK SMILES IDX 60 35 74 37 95 38 62 39 46 40 47 41 55 42 48 43 49 44 53 45
REMARK SMILES IDX 56 46 50 47 51 48 54 49 52 50 78 51 79 52 87 53 80 54 81 55
REMARK SMILES IDX 85 56 88 57 82 58 83 59 86 60 84 61 63 62 64 63 72 64 65 65
REMARK SMILES IDX 66 66 70 67 73 68 67 69 68 70 71 71 69 72 7 73 8 74 9 75
REMARK SMILES IDX 10 76 11 77 12 79 13 80 14 81 35 82 15 83 34 84 16 85 36 86
REMARK SMILES IDX 17 88 18 89 32 90 19 91 20 92 31 93 33 94 21 95 22 96 23 97
REMARK SMILES IDX 30 98 24 99 28 100 29 101 25 102 27 103 26 104
REMARK H PARENT 3 7 93 25 61 36 10 78 36 87
REMARK Flexibility Score: inf
ROOT
ATOM      1  C   UNL     1       4.321  -3.752  -0.255  1.00  0.00     0.002 C 
ENDROOT
BRANCH   1   2
ATOM      2  C   UNL     1       4.826  -2.512   0.482  1.00  0.00     0.021 C 
BRANCH   2   3
ATOM      3  C   UNL     1       4.571  -1.195  -0.239  1.00  0.00     0.116 C 
BRANCH   3   4
ATOM      4  N   UNL     1       3.155  -0.941  -0.428  1.00  0.00    -0.352 N 
ATOM      5  O   UNL     1       1.168   0.058  -0.094  1.00  0.00    -0.269 OA
ATOM      6  C   UNL     1       2.392   0.117  -0.012  1.00  0.00     0.251 C 
ATOM      7  H   UNL     1       2.670  -1.634  -0.931  1.00  0.00     0.163 HD
BRANCH   6   8
ATOM      8  C   UNL     1       3.029   1.335   0.535  1.00  0.00     0.039 A 
ATOM      9  C   UNL     1       2.401   2.003   1.589  1.00  0.00     0.014 A 
ATOM     10  C   UNL     1       4.194   1.863  -0.029  1.00  0.00     0.014 A 
ATOM     11  C   UNL     1       2.936   3.198   2.071  1.00  0.00     0.010 A 
ATOM     12  C   UNL     1       4.781   3.000   0.515  1.00  0.00     0.010 A 
ATOM     13  C   UNL     1       4.129   3.708   1.534  1.00  0.00    -0.014 A 
BRANCH  13  14
ATOM     14  C   UNL     1       4.636   5.043   1.939  1.00  0.00     0.031 A 
ATOM     15  C   UNL     1       4.675   6.157   0.926  1.00  0.00     0.074 A 
ATOM     16  C   UNL     1       5.059   5.260   3.197  1.00  0.00     0.049 A 
ATOM     17  N   UNL     1       5.101   7.387   1.060  1.00  0.00    -0.248 NA
ATOM     18  C   UNL     1       4.195   5.837  -0.429  1.00  0.00     0.031 C 
ATOM     19  C   UNL     1       5.088   4.258   4.261  1.00  0.00     0.029 A 
ATOM     20  N   UNL     1       5.538   6.398   3.795  1.00  0.00    -0.354 N 
ATOM     21  C   UNL     1       4.952   7.974  -0.190  1.00  0.00     0.074 A 
ATOM     22  C   UNL     1       4.471   6.950  -1.088  1.00  0.00     0.031 C 
ATOM     23  C   UNL     1       5.521   4.836   5.393  1.00  0.00     0.029 A 
ATOM     24  C   UNL     1       5.837   6.237   5.125  1.00  0.00     0.049 A 
ATOM     25  H   UNL     1       5.656   7.250   3.315  1.00  0.00     0.167 HD
ATOM     26  C   UNL     1       5.157   9.263  -0.549  1.00  0.00     0.037 A 
ATOM     27  C   UNL     1       6.309   7.121   6.025  1.00  0.00     0.037 A 
ATOM     28  C   UNL     1       5.597  10.289   0.357  1.00  0.00     0.049 A 
ATOM     29  C   UNL     1       6.567   8.540   5.596  1.00  0.00     0.074 A 
ATOM     30  C   UNL     1       5.780  11.636   0.108  1.00  0.00     0.029 A 
ATOM     31  N   UNL     1       5.920  10.077   1.689  1.00  0.00    -0.354 N 
ATOM     32  N   UNL     1       6.370   9.100   4.427  1.00  0.00    -0.248 NA
ATOM     33  C   UNL     1       7.115   9.451   6.611  1.00  0.00     0.031 C 
ATOM     34  C   UNL     1       6.270  12.230   1.274  1.00  0.00     0.029 A 
ATOM     35  C   UNL     1       6.339  11.265   2.266  1.00  0.00     0.049 A 
ATOM     36  H   UNL     1       5.861   9.212   2.155  1.00  0.00     0.167 HD
ATOM     37  C   UNL     1       6.756  10.426   4.566  1.00  0.00     0.074 A 
ATOM     38  C   UNL     1       7.179  10.595   5.941  1.00  0.00     0.031 C 
ATOM     39  C   UNL     1       6.765  11.413   3.636  1.00  0.00     0.037 A 
BRANCH  26  40
ATOM     40  C   UNL     1       4.899   9.635  -1.982  1.00  0.00     0.064 A 
ATOM     41  C   UNL     1       3.602   9.637  -2.520  1.00  0.00     0.173 A 
ATOM     42  C   UNL     1       5.956  10.020  -2.820  1.00  0.00     0.173 A 
ATOM     43  F   UNL     1       2.557   9.265  -1.766  1.00  0.00    -0.203 F 
ATOM     44  C   UNL     1       3.379   9.976  -3.852  1.00  0.00     0.198 A 
ATOM     45  C   UNL     1       5.724  10.393  -4.141  1.00  0.00     0.198 A 
ATOM     46  F   UNL     1       7.215  10.040  -2.356  1.00  0.00    -0.203 F 
ATOM     47  F   UNL     1       2.140   9.913  -4.359  1.00  0.00    -0.200 F 
ATOM     48  C   UNL     1       4.438  10.362  -4.659  1.00  0.00     0.200 A 
ATOM     49  F   UNL     1       6.748  10.780  -4.916  1.00  0.00    -0.200 F 
ATOM     50  F   UNL     1       4.221  10.695  -5.938  1.00  0.00    -0.200 F 
ENDBRANCH  26  40
BRANCH  27  51
ATOM     51  C   UNL     1       6.527   6.685   7.428  1.00  0.00     0.064 A 
ATOM     52  C   UNL     1       5.689   7.135   8.457  1.00  0.00     0.173 A 
ATOM     53  C   UNL     1       7.540   5.773   7.762  1.00  0.00     0.173 A 
ATOM     54  F   UNL     1       4.721   8.023   8.191  1.00  0.00    -0.203 F 
ATOM     55  C   UNL     1       5.853   6.686   9.767  1.00  0.00     0.198 A 
ATOM     56  C   UNL     1       7.686   5.305   9.067  1.00  0.00     0.198 A 
ATOM     57  F   UNL     1       8.367   5.310   6.813  1.00  0.00    -0.203 F 
ATOM     58  F   UNL     1       5.051   7.149  10.736  1.00  0.00    -0.200 F 
ATOM     59  C   UNL     1       6.843   5.764  10.068  1.00  0.00     0.200 A 
ATOM     60  F   UNL     1       8.633   4.401   9.350  1.00  0.00    -0.200 F 
ATOM     61  F   UNL     1       6.986   5.316  11.323  1.00  0.00    -0.200 F 
ENDBRANCH  27  51
BRANCH  39  62
ATOM     62  C   UNL     1       7.258  12.767   4.057  1.00  0.00     0.064 A 
ATOM     63  C   UNL     1       8.620  13.005   4.291  1.00  0.00     0.173 A 
ATOM     64  C   UNL     1       6.378  13.858   4.130  1.00  0.00     0.173 A 
ATOM     65  F   UNL     1       9.500  11.992   4.245  1.00  0.00    -0.203 F 
ATOM     66  C   UNL     1       9.082  14.283   4.589  1.00  0.00     0.198 A 
ATOM     67  C   UNL     1       6.848  15.141   4.397  1.00  0.00     0.198 A 
ATOM     68  F   UNL     1       5.067  13.686   3.904  1.00  0.00    -0.203 F 
ATOM     69  F   UNL     1      10.385  14.482   4.835  1.00  0.00    -0.200 F 
ATOM     70  C   UNL     1       8.199  15.352   4.628  1.00  0.00     0.200 A 
ATOM     71  F   UNL     1       5.996  16.175   4.415  1.00  0.00    -0.200 F 
ATOM     72  F   UNL     1       8.650  16.586   4.890  1.00  0.00    -0.200 F 
ENDBRANCH  39  62
ENDBRANCH  13  14
ENDBRANCH   6   8
ENDBRANCH   3   4
ENDBRANCH   2   3
ENDBRANCH   1   2
BRANCH   1  73
ATOM     73  C   UNL     1       4.821  -3.903  -1.695  1.00  0.00     0.002 C 
BRANCH  73  74
ATOM     74  C   UNL     1       6.342  -3.845  -1.867  1.00  0.00     0.021 C 
BRANCH  74  75
ATOM     75  C   UNL     1       7.113  -4.854  -1.025  1.00  0.00     0.116 C 
BRANCH  75  76
ATOM     76  N   UNL     1       6.795  -6.220  -1.395  1.00  0.00    -0.352 N 
ATOM     77  C   UNL     1       7.663  -7.250  -1.646  1.00  0.00     0.255 C 
ATOM     78  H   UNL     1       5.837  -6.432  -1.476  1.00  0.00     0.163 HD
ATOM     79  O   UNL     1       7.250  -8.332  -2.055  1.00  0.00    -0.269 OA
BRANCH  77  80
ATOM     80  C   UNL     1       9.113  -7.034  -1.490  1.00  0.00     0.081 A 
ATOM     81  C   UNL     1       9.918  -7.206  -2.620  1.00  0.00     0.020 A 
ATOM     82  C   UNL     1       9.690  -6.669  -0.271  1.00  0.00     0.130 A 
ATOM     83  C   UNL     1      11.295  -6.984  -2.536  1.00  0.00     0.028 A 
ATOM     84  C   UNL     1      11.065  -6.457  -0.187  1.00  0.00     0.073 A 
ATOM     85  C   UNL     1      11.885  -6.629  -1.314  1.00  0.00     0.054 A 
BRANCH  82  86
ATOM     86  O   UNL     1       8.916  -6.495   0.842  1.00  0.00    -0.507 OA
ATOM     87  H   UNL     1       7.990  -6.635   0.796  1.00  0.00     0.293 HD
ENDBRANCH  82  86
BRANCH  85  88
ATOM     88  N   UNL     1      13.294  -6.425  -1.219  1.00  0.00    -0.261 N 
ATOM     89  C   UNL     1      13.947  -5.644  -2.173  1.00  0.00     0.270 C 
ATOM     90  C   UNL     1      14.088  -6.958  -0.210  1.00  0.00     0.152 C 
ATOM     91  O   UNL     1      13.456  -5.074  -3.136  1.00  0.00    -0.268 OA
ATOM     92  C   UNL     1      15.393  -5.527  -1.831  1.00  0.00     0.081 C 
ATOM     93  S   UNL     1      15.736  -6.370  -0.378  1.00  0.00    -0.054 SA
ATOM     94  S   UNL     1      13.712  -8.071   0.983  1.00  0.00    -0.051 S 
ATOM     95  C   UNL     1      16.250  -4.808  -2.569  1.00  0.00     0.027 C 
BRANCH  95  96
ATOM     96  C   UNL     1      17.659  -4.649  -2.307  1.00  0.00    -0.016 C 
ATOM     97  C   UNL     1      18.288  -3.522  -1.984  1.00  0.00     0.005 A 
ATOM     98  C   UNL     1      18.629  -5.796  -2.370  1.00  0.00     0.179 C 
ATOM     99  C   UNL     1      17.907  -2.160  -1.786  1.00  0.00     0.011 A 
ATOM    100  C   UNL     1      19.682  -3.969  -1.809  1.00  0.00     0.065 A 
ATOM    101  N   UNL     1      19.951  -5.221  -2.017  1.00  0.00    -0.280 NA
ATOM    102  C   UNL     1      18.849  -1.273  -1.425  1.00  0.00     0.001 A 
ATOM    103  C   UNL     1      20.657  -2.937  -1.401  1.00  0.00     0.028 A 
ATOM    104  C   UNL     1      20.233  -1.674  -1.225  1.00  0.00     0.002 A 
ENDBRANCH  95  96
ENDBRANCH  85  88
ENDBRANCH  77  80
ENDBRANCH  75  76
ENDBRANCH  74  75
ENDBRANCH  73  74
ENDBRANCH   1  73
TORSDOF 16
