REMARK SMILES COc1ccc(-c2nc(SCC(=O)NCCCCCCNC(=O)c3ccc(-c4c5nc(c(-c6c(F)c(F)c(F)c(F)c6F)c6ccc([nH]6)c(-c6c(F)c(F)c(F)c(F)c6F)c6nc(c(-c7c(F)c(F)c(F)c(F)c7F)c7ccc4[nH]7)C=C6)C=C5)cc3)[nH]c2C)cc1
REMARK SMILES IDX 16 1 15 2 14 3 12 4 13 5 11 7 10 8 9 9 7 10 8 11 88 12 87 13
REMARK SMILES IDX 89 14 6 16 3 17 4 18 91 19 5 20 90 21 2 22 1 23 17 24 18 25
REMARK SMILES IDX 19 26 20 27 21 28 22 29 23 31 24 32 25 33 86 34 26 35 85 36
REMARK SMILES IDX 27 37 28 38 29 39 79 40 30 41 84 42 78 43 80 44 31 45 83 46
REMARK SMILES IDX 77 47 76 48 32 50 64 51 44 52 63 53 45 54 48 55 62 56 81 57
REMARK SMILES IDX 46 58 47 59 61 61 82 62 49 63 33 64 34 65 42 66 35 67 36 68
REMARK SMILES IDX 40 69 43 70 37 71 38 72 41 73 39 74 65 75 66 76 74 77 67 78
REMARK SMILES IDX 68 79 72 80 75 81 69 82 70 83 73 84 71 85 50 86 51 87 59 88
REMARK SMILES IDX 52 89 53 90 57 91 60 92 54 93 55 94 58 95 56 96
REMARK H PARENT 14 6 87 15 21 30 80 49 48 60
REMARK Flexibility Score: inf
ROOT
ATOM      1  C   UNL     1      -0.426   9.354  -6.232  1.00  0.00     0.021 C 
ENDROOT
BRANCH   1   2
ATOM      2  C   UNL     1      -0.787  10.041  -4.913  1.00  0.00     0.116 C 
BRANCH   2   3
ATOM      3  N   UNL     1      -1.233   9.073  -3.933  1.00  0.00    -0.355 N 
ATOM      4  C   UNL     1      -0.622   8.612  -2.804  1.00  0.00     0.230 C 
ATOM      5  O   UNL     1      -1.247   7.784  -2.134  1.00  0.00    -0.274 OA
ATOM      6  H   UNL     1      -2.120   8.686  -4.110  1.00  0.00     0.163 HD
BRANCH   4   7
ATOM      7  C   UNL     1       0.678   9.217  -2.303  1.00  0.00     0.178 C 
BRANCH   7   8
ATOM      8  S   UNL     1       2.084   9.091  -3.440  1.00  0.00    -0.078 SA
BRANCH   8   9
ATOM      9  C   UNL     1       2.303   7.395  -3.558  1.00  0.00     0.166 A 
ATOM     10  C   UNL     1       2.239   5.281  -3.338  1.00  0.00     0.092 A 
ATOM     11  N   UNL     1       1.643   6.455  -2.939  1.00  0.00    -0.222 NA
ATOM     12  C   UNL     1       3.255   5.523  -4.247  1.00  0.00     0.040 A 
ATOM     13  N   UNL     1       3.275   6.893  -4.367  1.00  0.00    -0.337 N 
ATOM     14  C   UNL     1       4.181   4.658  -5.010  1.00  0.00     0.067 C 
ATOM     15  H   UNL     1       3.885   7.416  -4.936  1.00  0.00     0.168 HD
BRANCH  10  16
ATOM     16  C   UNL     1       1.819   3.994  -2.828  1.00  0.00     0.002 A 
ATOM     17  C   UNL     1       0.969   1.552  -1.749  1.00  0.00     0.118 A 
ATOM     18  C   UNL     1       0.056   2.390  -2.390  1.00  0.00     0.047 A 
ATOM     19  C   UNL     1       2.313   1.918  -1.671  1.00  0.00     0.047 A 
ATOM     20  C   UNL     1       0.475   3.617  -2.911  1.00  0.00     0.014 A 
ATOM     21  C   UNL     1       2.736   3.138  -2.206  1.00  0.00     0.014 A 
BRANCH  17  22
ATOM     22  O   UNL     1       0.473   0.370  -1.269  1.00  0.00    -0.497 OA
ATOM     23  C   UNL     1       0.958   0.031   0.028  1.00  0.00     0.278 C 
ENDBRANCH  17  22
ENDBRANCH  10  16
ENDBRANCH   8   9
ENDBRANCH   7   8
ENDBRANCH   4   7
ENDBRANCH   2   3
ENDBRANCH   1   2
BRANCH   1  24
ATOM     24  C   UNL     1      -1.623   8.710  -6.947  1.00  0.00     0.002 C 
BRANCH  24  25
ATOM     25  C   UNL     1      -2.772   9.665  -7.286  1.00  0.00     0.002 C 
BRANCH  25  26
ATOM     26  C   UNL     1      -2.372  10.892  -8.105  1.00  0.00     0.021 C 
BRANCH  26  27
ATOM     27  C   UNL     1      -1.744  10.570  -9.456  1.00  0.00     0.116 C 
BRANCH  27  28
ATOM     28  N   UNL     1      -2.688   9.942 -10.368  1.00  0.00    -0.352 N 
ATOM     29  C   UNL     1      -2.997  10.291 -11.660  1.00  0.00     0.251 C 
ATOM     30  H   UNL     1      -3.170   9.162 -10.011  1.00  0.00     0.163 HD
ATOM     31  O   UNL     1      -3.943   9.769 -12.241  1.00  0.00    -0.269 OA
BRANCH  29  32
ATOM     32  C   UNL     1      -2.191  11.324 -12.342  1.00  0.00     0.039 A 
ATOM     33  C   UNL     1      -2.839  12.359 -13.019  1.00  0.00     0.014 A 
ATOM     34  C   UNL     1      -0.795  11.277 -12.293  1.00  0.00     0.014 A 
ATOM     35  C   UNL     1      -2.087  13.386 -13.594  1.00  0.00     0.010 A 
ATOM     36  C   UNL     1      -0.052  12.338 -12.799  1.00  0.00     0.010 A 
ATOM     37  C   UNL     1      -0.689  13.402 -13.458  1.00  0.00    -0.014 A 
BRANCH  37  38
ATOM     38  C   UNL     1       0.140  14.499 -14.019  1.00  0.00     0.031 A 
ATOM     39  C   UNL     1       1.146  14.193 -15.094  1.00  0.00     0.074 A 
ATOM     40  C   UNL     1       0.043  15.746 -13.517  1.00  0.00     0.049 A 
ATOM     41  N   UNL     1       2.066  14.964 -15.615  1.00  0.00    -0.248 NA
ATOM     42  C   UNL     1       1.133  12.824 -15.637  1.00  0.00     0.031 C 
ATOM     43  C   UNL     1      -0.879  16.167 -12.461  1.00  0.00     0.029 A 
ATOM     44  N   UNL     1       0.743  16.888 -13.819  1.00  0.00    -0.354 N 
ATOM     45  C   UNL     1       2.742  14.175 -16.537  1.00  0.00     0.074 A 
ATOM     46  C   UNL     1       2.171  12.848 -16.460  1.00  0.00     0.031 C 
ATOM     47  C   UNL     1      -0.697  17.475 -12.213  1.00  0.00     0.029 A 
ATOM     48  C   UNL     1       0.385  17.974 -13.057  1.00  0.00     0.049 A 
ATOM     49  H   UNL     1       1.437  16.926 -14.516  1.00  0.00     0.167 HD
ATOM     50  C   UNL     1       3.729  14.531 -17.392  1.00  0.00     0.037 A 
ATOM     51  C   UNL     1       0.887  19.224 -13.031  1.00  0.00     0.037 A 
ATOM     52  C   UNL     1       4.282  15.856 -17.481  1.00  0.00     0.049 A 
ATOM     53  C   UNL     1       2.021  19.578 -13.960  1.00  0.00     0.074 A 
ATOM     54  C   UNL     1       5.279  16.321 -18.320  1.00  0.00     0.029 A 
ATOM     55  N   UNL     1       3.877  16.932 -16.706  1.00  0.00    -0.354 N 
ATOM     56  N   UNL     1       2.628  18.832 -14.850  1.00  0.00    -0.248 NA
ATOM     57  C   UNL     1       2.536  20.953 -13.883  1.00  0.00     0.031 C 
ATOM     58  C   UNL     1       5.502  17.669 -18.029  1.00  0.00     0.029 A 
ATOM     59  C   UNL     1       4.608  18.058 -17.046  1.00  0.00     0.049 A 
ATOM     60  H   UNL     1       3.174  16.901 -16.017  1.00  0.00     0.167 HD
ATOM     61  C   UNL     1       3.557  19.657 -15.471  1.00  0.00     0.074 A 
ATOM     62  C   UNL     1       3.430  20.963 -14.860  1.00  0.00     0.031 C 
ATOM     63  C   UNL     1       4.436  19.361 -16.459  1.00  0.00     0.037 A 
BRANCH  50  64
ATOM     64  C   UNL     1       4.263  13.478 -18.317  1.00  0.00     0.064 A 
ATOM     65  C   UNL     1       3.492  12.982 -19.380  1.00  0.00     0.173 A 
ATOM     66  C   UNL     1       5.575  13.000 -18.180  1.00  0.00     0.173 A 
ATOM     67  F   UNL     1       2.228  13.397 -19.547  1.00  0.00    -0.203 F 
ATOM     68  C   UNL     1       4.007  12.032 -20.258  1.00  0.00     0.198 A 
ATOM     69  C   UNL     1       6.098  12.073 -19.079  1.00  0.00     0.198 A 
ATOM     70  F   UNL     1       6.357  13.444 -17.184  1.00  0.00    -0.203 F 
ATOM     71  F   UNL     1       3.237  11.543 -21.239  1.00  0.00    -0.200 F 
ATOM     72  C   UNL     1       5.312  11.587 -20.113  1.00  0.00     0.200 A 
ATOM     73  F   UNL     1       7.364  11.654 -18.946  1.00  0.00    -0.200 F 
ATOM     74  F   UNL     1       5.812  10.684 -20.968  1.00  0.00    -0.200 F 
ENDBRANCH  50  64
BRANCH  51  75
ATOM     75  C   UNL     1       0.331  20.247 -12.103  1.00  0.00     0.064 A 
ATOM     76  C   UNL     1      -0.328  21.383 -12.598  1.00  0.00     0.173 A 
ATOM     77  C   UNL     1       0.496  20.145 -10.714  1.00  0.00     0.173 A 
ATOM     78  F   UNL     1      -0.494  21.538 -13.920  1.00  0.00    -0.203 F 
ATOM     79  C   UNL     1      -0.760  22.396 -11.744  1.00  0.00     0.198 A 
ATOM     80  C   UNL     1       0.032  21.143  -9.858  1.00  0.00     0.198 A 
ATOM     81  F   UNL     1       1.114  19.079 -10.187  1.00  0.00    -0.203 F 
ATOM     82  F   UNL     1      -1.319  23.503 -12.251  1.00  0.00    -0.200 F 
ATOM     83  C   UNL     1      -0.581  22.274 -10.374  1.00  0.00     0.200 A 
ATOM     84  F   UNL     1       0.195  21.015  -8.534  1.00  0.00    -0.200 F 
ATOM     85  F   UNL     1      -0.984  23.254  -9.554  1.00  0.00    -0.200 F 
ENDBRANCH  51  75
BRANCH  63  86
ATOM     86  C   UNL     1       5.274  20.482 -17.003  1.00  0.00     0.064 A 
ATOM     87  C   UNL     1       6.325  21.047 -16.269  1.00  0.00     0.173 A 
ATOM     88  C   UNL     1       5.052  20.954 -18.307  1.00  0.00     0.173 A 
ATOM     89  F   UNL     1       6.569  20.640 -15.014  1.00  0.00    -0.203 F 
ATOM     90  C   UNL     1       7.110  22.061 -16.811  1.00  0.00     0.198 A 
ATOM     91  C   UNL     1       5.859  21.945 -18.857  1.00  0.00     0.198 A 
ATOM     92  F   UNL     1       4.063  20.440 -19.054  1.00  0.00    -0.203 F 
ATOM     93  F   UNL     1       8.082  22.619 -16.076  1.00  0.00    -0.200 F 
ATOM     94  C   UNL     1       6.883  22.502 -18.107  1.00  0.00     0.200 A 
ATOM     95  F   UNL     1       5.649  22.357 -20.115  1.00  0.00    -0.200 F 
ATOM     96  F   UNL     1       7.650  23.468 -18.631  1.00  0.00    -0.200 F 
ENDBRANCH  63  86
ENDBRANCH  37  38
ENDBRANCH  29  32
ENDBRANCH  27  28
ENDBRANCH  26  27
ENDBRANCH  25  26
ENDBRANCH  24  25
ENDBRANCH   1  24
TORSDOF 17
