REMARK SMILES O=C(CCC(=O)N1CCC[C@@]2(CCC(=O)N(Cc3ccncc3)C2)C1)NCCCCCCNC(=O)c1ccc(-c2c3nc(c(-c4c(F)c(F)c(F)c(F)c4F)c4ccc([nH]4)c(-c4c(F)c(F)c(F)c(F)c4F)c4nc(c(-c5c(F)c(F)c(F)c(F)c5F)c5ccc2[nH]5)C=C4)C=C3)cc1
REMARK SMILES IDX 28 1 27 2 26 3 1 4 2 5 3 7 4 8 5 9 6 10 7 11 8 12 25 13 9 14
REMARK SMILES IDX 11 15 10 16 12 17 24 18 13 19 16 20 14 21 15 22 17 23 18 24
REMARK SMILES IDX 19 25 23 26 20 27 22 28 21 29 29 30 30 31 31 32 32 33 33 34
REMARK SMILES IDX 34 35 35 37 36 38 37 39 98 40 38 41 97 42 39 43 40 44 41 45
REMARK SMILES IDX 91 46 42 47 96 48 90 49 92 50 43 51 95 52 89 53 88 54 44 56
REMARK SMILES IDX 76 57 56 58 75 59 57 60 60 61 74 62 93 63 58 64 59 65 73 67
REMARK SMILES IDX 94 68 61 69 45 70 46 71 54 72 47 73 48 74 52 75 55 76 49 77
REMARK SMILES IDX 50 78 53 79 51 80 77 81 78 82 86 83 79 84 80 85 84 86 87 87
REMARK SMILES IDX 81 88 82 89 85 90 83 91 62 92 63 93 71 94 64 95 65 96 69 97
REMARK SMILES IDX 72 98 66 99 67 100 70 101 68 102
REMARK H PARENT 26 6 33 36 92 55 60 66
REMARK Flexibility Score: inf
ROOT
ATOM      1  C   UNL     1       2.477   3.448  -1.835  1.00  0.00     0.021 C 
ENDROOT
BRANCH   1   2
ATOM      2  C   UNL     1       1.829   2.209  -1.176  1.00  0.00     0.116 C 
BRANCH   2   3
ATOM      3  N   UNL     1       2.577   1.377  -0.249  1.00  0.00    -0.356 N 
ATOM      4  O   UNL     1       0.827  -0.093   0.027  1.00  0.00    -0.275 OA
ATOM      5  C   UNL     1       1.962   0.272   0.329  1.00  0.00     0.220 C 
ATOM      6  H   UNL     1       3.512   1.593  -0.031  1.00  0.00     0.163 HD
BRANCH   5   7
ATOM      7  C   UNL     1       2.773  -0.487   1.368  1.00  0.00     0.110 C 
BRANCH   7   8
ATOM      8  C   UNL     1       3.248  -1.848   0.847  1.00  0.00     0.110 C 
BRANCH   8   9
ATOM      9  C   UNL     1       4.380  -1.581  -0.107  1.00  0.00     0.223 C 
ATOM     10  O   UNL     1       5.469  -1.216   0.345  1.00  0.00    -0.275 OA
BRANCH   9  11
ATOM     11  N   UNL     1       4.085  -1.518  -1.458  1.00  0.00    -0.342 N 
ATOM     12  C   UNL     1       4.891  -0.588  -2.217  1.00  0.00     0.119 C 
ATOM     13  C   UNL     1       3.149  -2.406  -2.206  1.00  0.00     0.128 C 
ATOM     14  C   UNL     1       4.028   0.219  -3.160  1.00  0.00     0.022 C 
ATOM     15  C   UNL     1       2.811  -1.902  -3.647  1.00  0.00     0.006 C 
ATOM     16  C   UNL     1       2.698  -0.387  -3.529  1.00  0.00     0.012 C 
ATOM     17  C   UNL     1       3.853  -2.355  -4.691  1.00  0.00     0.020 C 
ATOM     18  C   UNL     1       1.467  -2.424  -4.182  1.00  0.00     0.128 C 
ATOM     19  C   UNL     1       3.584  -1.747  -6.059  1.00  0.00     0.101 C 
ATOM     20  N   UNL     1       1.170  -1.831  -5.497  1.00  0.00    -0.338 N 
ATOM     21  C   UNL     1       2.132  -1.696  -6.493  1.00  0.00     0.222 C 
ATOM     22  O   UNL     1       1.870  -1.359  -7.648  1.00  0.00    -0.275 OA
BRANCH  20  23
ATOM     23  C   UNL     1      -0.108  -1.146  -5.696  1.00  0.00     0.155 C 
BRANCH  23  24
ATOM     24  C   UNL     1      -0.960  -1.730  -6.786  1.00  0.00    -0.026 A 
ATOM     25  C   UNL     1      -1.337  -3.073  -6.763  1.00  0.00     0.025 A 
ATOM     26  C   UNL     1      -1.382  -0.936  -7.860  1.00  0.00     0.025 A 
ATOM     27  C   UNL     1      -2.095  -3.563  -7.813  1.00  0.00     0.111 A 
ATOM     28  C   UNL     1      -2.137  -1.520  -8.863  1.00  0.00     0.111 A 
ATOM     29  N   UNL     1      -2.510  -2.817  -8.859  1.00  0.00    -0.265 NA
ENDBRANCH  23  24
ENDBRANCH  20  23
ENDBRANCH   9  11
ENDBRANCH   8   9
ENDBRANCH   7   8
ENDBRANCH   5   7
ENDBRANCH   2   3
ENDBRANCH   1   2
BRANCH   1  30
ATOM     30  C   UNL     1       3.995   3.639  -1.989  1.00  0.00     0.002 C 
BRANCH  30  31
ATOM     31  C   UNL     1       4.782   3.293  -3.276  1.00  0.00     0.002 C 
BRANCH  31  32
ATOM     32  C   UNL     1       4.050   3.101  -4.611  1.00  0.00     0.021 C 
BRANCH  32  33
ATOM     33  C   UNL     1       4.212   4.270  -5.568  1.00  0.00     0.116 C 
BRANCH  33  34
ATOM     34  N   UNL     1       5.599   4.435  -6.001  1.00  0.00    -0.352 N 
ATOM     35  C   UNL     1       6.101   4.789  -7.227  1.00  0.00     0.251 C 
ATOM     36  H   UNL     1       6.275   4.266  -5.306  1.00  0.00     0.163 HD
ATOM     37  O   UNL     1       7.313   4.739  -7.434  1.00  0.00    -0.269 OA
BRANCH  35  38
ATOM     38  C   UNL     1       5.186   5.199  -8.310  1.00  0.00     0.039 A 
ATOM     39  C   UNL     1       5.447   4.781  -9.619  1.00  0.00     0.014 A 
ATOM     40  C   UNL     1       4.065   5.982  -8.034  1.00  0.00     0.014 A 
ATOM     41  C   UNL     1       4.546   5.098 -10.636  1.00  0.00     0.010 A 
ATOM     42  C   UNL     1       3.115   6.198  -9.020  1.00  0.00     0.010 A 
ATOM     43  C   UNL     1       3.355   5.776 -10.335  1.00  0.00    -0.014 A 
BRANCH  43  44
ATOM     44  C   UNL     1       2.349   6.087 -11.377  1.00  0.00     0.031 A 
ATOM     45  C   UNL     1       1.992   7.520 -11.657  1.00  0.00     0.074 A 
ATOM     46  C   UNL     1       1.701   5.081 -11.994  1.00  0.00     0.049 A 
ATOM     47  N   UNL     1       1.063   8.006 -12.440  1.00  0.00    -0.248 NA
ATOM     48  C   UNL     1       2.751   8.546 -10.922  1.00  0.00     0.031 C 
ATOM     49  C   UNL     1       1.923   3.655 -11.749  1.00  0.00     0.029 A 
ATOM     50  N   UNL     1       0.712   5.105 -12.944  1.00  0.00    -0.354 N 
ATOM     51  C   UNL     1       1.114   9.383 -12.271  1.00  0.00     0.074 A 
ATOM     52  C   UNL     1       2.109   9.653 -11.259  1.00  0.00     0.031 C 
ATOM     53  C   UNL     1       1.113   2.940 -12.546  1.00  0.00     0.029 A 
ATOM     54  C   UNL     1       0.285   3.856 -13.323  1.00  0.00     0.049 A 
ATOM     55  H   UNL     1       0.343   5.938 -13.317  1.00  0.00     0.167 HD
ATOM     56  C   UNL     1       0.414  10.338 -12.927  1.00  0.00     0.037 A 
ATOM     57  C   UNL     1      -0.677   3.496 -14.193  1.00  0.00     0.037 A 
ATOM     58  C   UNL     1      -0.550  10.053 -13.956  1.00  0.00     0.049 A 
ATOM     59  C   UNL     1      -1.435   4.575 -14.918  1.00  0.00     0.074 A 
ATOM     60  C   UNL     1      -1.267  10.939 -14.738  1.00  0.00     0.029 A 
ATOM     61  N   UNL     1      -0.931   8.775 -14.342  1.00  0.00    -0.354 N 
ATOM     62  N   UNL     1      -1.325   5.878 -14.811  1.00  0.00    -0.248 NA
ATOM     63  C   UNL     1      -2.445   4.136 -15.889  1.00  0.00     0.031 C 
ATOM     64  C   UNL     1      -2.124  10.198 -15.558  1.00  0.00     0.029 A 
ATOM     65  C   UNL     1      -1.896   8.849 -15.333  1.00  0.00     0.049 A 
ATOM     66  H   UNL     1      -0.569   7.939 -13.967  1.00  0.00     0.167 HD
ATOM     67  C   UNL     1      -2.230   6.415 -15.716  1.00  0.00     0.074 A 
ATOM     68  C   UNL     1      -2.868   5.294 -16.377  1.00  0.00     0.031 C 
ATOM     69  C   UNL     1      -2.512   7.715 -15.976  1.00  0.00     0.037 A 
BRANCH  56  70
ATOM     70  C   UNL     1       0.669  11.771 -12.551  1.00  0.00     0.064 A 
ATOM     71  C   UNL     1       1.902  12.395 -12.804  1.00  0.00     0.173 A 
ATOM     72  C   UNL     1      -0.335  12.537 -11.940  1.00  0.00     0.173 A 
ATOM     73  F   UNL     1       2.903  11.706 -13.373  1.00  0.00    -0.203 F 
ATOM     74  C   UNL     1       2.132  13.714 -12.423  1.00  0.00     0.198 A 
ATOM     75  C   UNL     1      -0.114  13.868 -11.595  1.00  0.00     0.198 A 
ATOM     76  F   UNL     1      -1.534  11.996 -11.677  1.00  0.00    -0.203 F 
ATOM     77  F   UNL     1       3.340  14.264 -12.615  1.00  0.00    -0.200 F 
ATOM     78  C   UNL     1       1.123  14.452 -11.826  1.00  0.00     0.200 A 
ATOM     79  F   UNL     1      -1.096  14.585 -11.030  1.00  0.00    -0.200 F 
ATOM     80  F   UNL     1       1.344  15.723 -11.463  1.00  0.00    -0.200 F 
ENDBRANCH  56  70
BRANCH  57  81
ATOM     81  C   UNL     1      -0.955   2.056 -14.437  1.00  0.00     0.064 A 
ATOM     82  C   UNL     1      -0.649   1.460 -15.668  1.00  0.00     0.173 A 
ATOM     83  C   UNL     1      -1.522   1.243 -13.444  1.00  0.00     0.173 A 
ATOM     84  F   UNL     1      -0.121   2.198 -16.656  1.00  0.00    -0.203 F 
ATOM     85  C   UNL     1      -0.919   0.113 -15.905  1.00  0.00     0.198 A 
ATOM     86  C   UNL     1      -1.764  -0.110 -13.671  1.00  0.00     0.198 A 
ATOM     87  F   UNL     1      -1.827   1.761 -12.244  1.00  0.00    -0.203 F 
ATOM     88  F   UNL     1      -0.661  -0.417 -17.108  1.00  0.00    -0.200 F 
ATOM     89  C   UNL     1      -1.471  -0.672 -14.904  1.00  0.00     0.200 A 
ATOM     90  F   UNL     1      -2.284  -0.866 -12.694  1.00  0.00    -0.200 F 
ATOM     91  F   UNL     1      -1.728  -1.967 -15.133  1.00  0.00    -0.200 F 
ENDBRANCH  57  81
BRANCH  69  92
ATOM     92  C   UNL     1      -3.533   7.997 -17.040  1.00  0.00     0.064 A 
ATOM     93  C   UNL     1      -4.896   7.737 -16.840  1.00  0.00     0.173 A 
ATOM     94  C   UNL     1      -3.147   8.583 -18.255  1.00  0.00     0.173 A 
ATOM     95  F   UNL     1      -5.315   7.165 -15.700  1.00  0.00    -0.203 F 
ATOM     96  C   UNL     1      -5.832   8.030 -17.827  1.00  0.00     0.198 A 
ATOM     97  C   UNL     1      -4.089   8.908 -19.225  1.00  0.00     0.198 A 
ATOM     98  F   UNL     1      -1.855   8.861 -18.492  1.00  0.00    -0.203 F 
ATOM     99  F   UNL     1      -7.124   7.728 -17.634  1.00  0.00    -0.200 F 
ATOM    100  C   UNL     1      -5.429   8.623 -19.015  1.00  0.00     0.200 A 
ATOM    101  F   UNL     1      -3.700   9.499 -20.363  1.00  0.00    -0.200 F 
ATOM    102  F   UNL     1      -6.334   8.917 -19.958  1.00  0.00    -0.200 F 
ENDBRANCH  69  92
ENDBRANCH  43  44
ENDBRANCH  35  38
ENDBRANCH  33  34
ENDBRANCH  32  33
ENDBRANCH  31  32
ENDBRANCH  30  31
ENDBRANCH   1  30
TORSDOF 18
