REMARK SMILES C[C@@H](C(=O)NCCCCCCNC(=O)c1ccc(-c2c3nc(c(-c4c(F)c(F)c(F)c(F)c4F)c4ccc([nH]4)c(-c4c(F)c(F)c(F)c(F)c4F)c4nc(c(-c5c(F)c(F)c(F)c(F)c5F)c5ccc2[nH]5)C=C4)C=C3)cc1)c1ccc(C[C@H]2CCCC2=O)c(-c2ccc(OC(F)(F)F)cc2)c1
REMARK SMILES IDX 7 1 6 2 5 3 3 4 4 5 2 7 1 8 78 9 79 10 101 11 80 12 89 13
REMARK SMILES IDX 81 14 90 15 91 16 100 17 92 18 99 19 93 20 94 21 95 22 96 23
REMARK SMILES IDX 97 24 98 25 82 26 83 27 84 28 87 29 85 30 86 31 88 32 8 33
REMARK SMILES IDX 9 34 10 35 11 36 12 37 13 38 14 40 15 41 16 42 77 43 17 44
REMARK SMILES IDX 76 45 18 46 19 47 20 48 70 49 21 50 75 51 69 52 71 53 22 54
REMARK SMILES IDX 74 55 68 56 67 57 23 59 55 60 35 61 54 62 36 63 39 64 53 65
REMARK SMILES IDX 72 66 37 67 38 68 52 70 73 71 40 72 24 73 25 74 33 75 26 76
REMARK SMILES IDX 27 77 31 78 34 79 28 80 29 81 32 82 30 83 56 84 57 85 65 86
REMARK SMILES IDX 58 87 59 88 63 89 66 90 60 91 61 92 64 93 62 94 41 95 42 96
REMARK SMILES IDX 50 97 43 98 44 99 48 100 51 101 45 102 46 103 49 104 47 105
REMARK H PARENT 5 6 12 39 71 58 39 69
REMARK Flexibility Score: inf
ROOT
ATOM      1  C   UNL     1       4.305  -1.164   1.051  1.00  0.00     0.021 C 
ENDROOT
BRANCH   1   2
ATOM      2  C   UNL     1       3.440  -1.963   0.069  1.00  0.00     0.116 C 
BRANCH   2   3
ATOM      3  N   UNL     1       2.326  -2.569   0.770  1.00  0.00    -0.356 N 
ATOM      4  C   UNL     1       1.029  -2.152   0.872  1.00  0.00     0.227 C 
ATOM      5  O   UNL     1       0.367  -2.639   1.791  1.00  0.00    -0.274 OA
ATOM      6  H   UNL     1       2.535  -3.406   1.244  1.00  0.00     0.163 HD
BRANCH   4   7
ATOM      7  C   UNL     1       0.460  -1.148  -0.155  1.00  0.00     0.105 C 
ATOM      8  C   UNL     1       0.961   0.260   0.204  1.00  0.00     0.023 C 
BRANCH   7   9
ATOM      9  C   UNL     1      -1.069  -1.214  -0.283  1.00  0.00    -0.035 A 
ATOM     10  C   UNL     1      -1.843  -0.070  -0.498  1.00  0.00     0.005 A 
ATOM     11  C   UNL     1      -1.752  -2.443  -0.207  1.00  0.00     0.013 A 
ATOM     12  C   UNL     1      -3.234  -0.135  -0.492  1.00  0.00     0.004 A 
ATOM     13  C   UNL     1      -3.163  -2.536  -0.160  1.00  0.00    -0.015 A 
ATOM     14  C   UNL     1      -3.912  -1.342  -0.249  1.00  0.00    -0.039 A 
BRANCH  13  15
ATOM     15  C   UNL     1      -3.774  -3.869   0.022  1.00  0.00    -0.018 A 
ATOM     16  C   UNL     1      -4.683  -4.391  -0.909  1.00  0.00     0.012 A 
ATOM     17  C   UNL     1      -3.456  -4.662   1.137  1.00  0.00     0.012 A 
ATOM     18  C   UNL     1      -5.300  -5.628  -0.696  1.00  0.00     0.047 A 
ATOM     19  C   UNL     1      -4.059  -5.910   1.342  1.00  0.00     0.047 A 
ATOM     20  C   UNL     1      -4.999  -6.393   0.434  1.00  0.00     0.129 A 
BRANCH  20  21
ATOM     21  O   UNL     1      -5.692  -7.565   0.522  1.00  0.00    -0.406 OA
BRANCH  21  22
ATOM     22  C   UNL     1      -5.394  -8.430   1.604  1.00  0.00     0.573 C 
ATOM     23  F   UNL     1      -4.107  -8.837   1.560  1.00  0.00    -0.132 F 
ATOM     24  F   UNL     1      -5.640  -7.835   2.792  1.00  0.00    -0.132 F 
ATOM     25  F   UNL     1      -6.184  -9.523   1.514  1.00  0.00    -0.132 F 
ENDBRANCH  21  22
ENDBRANCH  20  21
ENDBRANCH  13  15
BRANCH  14  26
ATOM     26  C   UNL     1      -5.412  -1.261  -0.036  1.00  0.00     0.047 C 
BRANCH  26  27
ATOM     27  C   UNL     1      -5.885  -0.710   1.319  1.00  0.00     0.060 C 
ATOM     28  C   UNL     1      -5.363  -1.419   2.573  1.00  0.00     0.012 C 
ATOM     29  C   UNL     1      -5.454   0.718   1.565  1.00  0.00     0.136 C 
ATOM     30  C   UNL     1      -4.190  -0.587   3.077  1.00  0.00     0.009 C 
ATOM     31  C   UNL     1      -4.557   0.857   2.767  1.00  0.00     0.076 C 
ATOM     32  O   UNL     1      -5.812   1.667   0.875  1.00  0.00    -0.299 OA
ENDBRANCH  26  27
ENDBRANCH  14  26
ENDBRANCH   7   9
ENDBRANCH   4   7
ENDBRANCH   2   3
ENDBRANCH   1   2
BRANCH   1  33
ATOM     33  C   UNL     1       5.027  -2.025   2.097  1.00  0.00     0.002 C 
BRANCH  33  34
ATOM     34  C   UNL     1       5.986  -3.071   1.524  1.00  0.00     0.002 C 
BRANCH  34  35
ATOM     35  C   UNL     1       7.040  -2.516   0.566  1.00  0.00     0.021 C 
BRANCH  35  36
ATOM     36  C   UNL     1       7.944  -1.452   1.177  1.00  0.00     0.116 C 
BRANCH  36  37
ATOM     37  N   UNL     1       8.809  -1.997   2.213  1.00  0.00    -0.352 N 
ATOM     38  C   UNL     1      10.172  -1.891   2.329  1.00  0.00     0.251 C 
ATOM     39  H   UNL     1       8.357  -2.508   2.923  1.00  0.00     0.163 HD
ATOM     40  O   UNL     1      10.790  -2.555   3.154  1.00  0.00    -0.269 OA
BRANCH  38  41
ATOM     41  C   UNL     1      10.895  -0.974   1.426  1.00  0.00     0.039 A 
ATOM     42  C   UNL     1      12.005  -1.442   0.718  1.00  0.00     0.014 A 
ATOM     43  C   UNL     1      10.447   0.339   1.261  1.00  0.00     0.014 A 
ATOM     44  C   UNL     1      12.631  -0.608  -0.210  1.00  0.00     0.010 A 
ATOM     45  C   UNL     1      11.027   1.143   0.289  1.00  0.00     0.010 A 
ATOM     46  C   UNL     1      12.126   0.679  -0.453  1.00  0.00    -0.014 A 
BRANCH  46  47
ATOM     47  C   UNL     1      12.731   1.587  -1.458  1.00  0.00     0.031 A 
ATOM     48  C   UNL     1      13.339   2.883  -1.005  1.00  0.00     0.074 A 
ATOM     49  C   UNL     1      12.624   1.310  -2.770  1.00  0.00     0.049 A 
ATOM     50  N   UNL     1      13.741   3.905  -1.715  1.00  0.00    -0.248 NA
ATOM     51  C   UNL     1      13.472   3.066   0.448  1.00  0.00     0.031 C 
ATOM     52  C   UNL     1      12.022   0.101  -3.333  1.00  0.00     0.029 A 
ATOM     53  N   UNL     1      12.987   2.046  -3.870  1.00  0.00    -0.354 N 
ATOM     54  C   UNL     1      14.139   4.866  -0.794  1.00  0.00     0.074 A 
ATOM     55  C   UNL     1      13.888   4.321   0.523  1.00  0.00     0.031 C 
ATOM     56  C   UNL     1      12.051   0.181  -4.673  1.00  0.00     0.029 A 
ATOM     57  C   UNL     1      12.632   1.464  -5.062  1.00  0.00     0.049 A 
ATOM     58  H   UNL     1      13.458   2.909  -3.811  1.00  0.00     0.167 HD
ATOM     59  C   UNL     1      14.677   6.086  -1.029  1.00  0.00     0.037 A 
ATOM     60  C   UNL     1      12.736   1.924  -6.323  1.00  0.00     0.037 A 
ATOM     61  C   UNL     1      14.952   6.604  -2.342  1.00  0.00     0.049 A 
ATOM     62  C   UNL     1      13.347   3.277  -6.565  1.00  0.00     0.074 A 
ATOM     63  C   UNL     1      15.564   7.795  -2.689  1.00  0.00     0.029 A 
ATOM     64  N   UNL     1      14.628   5.959  -3.527  1.00  0.00    -0.354 N 
ATOM     65  N   UNL     1      13.775   4.156  -5.692  1.00  0.00    -0.248 NA
ATOM     66  C   UNL     1      13.492   3.702  -7.965  1.00  0.00     0.031 C 
ATOM     67  C   UNL     1      15.566   7.893  -4.084  1.00  0.00     0.029 A 
ATOM     68  C   UNL     1      15.007   6.738  -4.608  1.00  0.00     0.049 A 
ATOM     69  H   UNL     1      14.193   5.078  -3.590  1.00  0.00     0.167 HD
ATOM     70  C   UNL     1      14.269   5.222  -6.432  1.00  0.00     0.074 A 
ATOM     71  C   UNL     1      14.086   4.881  -7.828  1.00  0.00     0.031 C 
ATOM     72  C   UNL     1      14.830   6.375  -5.992  1.00  0.00     0.037 A 
BRANCH  59  73
ATOM     73  C   UNL     1      14.983   6.944   0.165  1.00  0.00     0.064 A 
ATOM     74  C   UNL     1      15.997   6.611   1.077  1.00  0.00     0.173 A 
ATOM     75  C   UNL     1      14.249   8.117   0.402  1.00  0.00     0.173 A 
ATOM     76  F   UNL     1      16.721   5.495   0.903  1.00  0.00    -0.203 F 
ATOM     77  C   UNL     1      16.230   7.391   2.207  1.00  0.00     0.198 A 
ATOM     78  C   UNL     1      14.510   8.914   1.513  1.00  0.00     0.198 A 
ATOM     79  F   UNL     1      13.275   8.488  -0.442  1.00  0.00    -0.203 F 
ATOM     80  F   UNL     1      17.154   7.013   3.100  1.00  0.00    -0.200 F 
ATOM     81  C   UNL     1      15.490   8.544   2.421  1.00  0.00     0.200 A 
ATOM     82  F   UNL     1      13.803  10.035   1.712  1.00  0.00    -0.200 F 
ATOM     83  F   UNL     1      15.713   9.291   3.511  1.00  0.00    -0.200 F 
ENDBRANCH  59  73
BRANCH  60  84
ATOM     84  C   UNL     1      12.259   1.079  -7.448  1.00  0.00     0.064 A 
ATOM     85  C   UNL     1      13.167   0.445  -8.306  1.00  0.00     0.173 A 
ATOM     86  C   UNL     1      10.891   0.851  -7.658  1.00  0.00     0.173 A 
ATOM     87  F   UNL     1      14.484   0.647  -8.154  1.00  0.00    -0.203 F 
ATOM     88  C   UNL     1      12.725  -0.384  -9.336  1.00  0.00     0.198 A 
ATOM     89  C   UNL     1      10.451   0.003  -8.673  1.00  0.00     0.198 A 
ATOM     90  F   UNL     1       9.983   1.429  -6.858  1.00  0.00    -0.203 F 
ATOM     91  F   UNL     1      13.613  -0.959 -10.157  1.00  0.00    -0.200 F 
ATOM     92  C   UNL     1      11.368  -0.611  -9.512  1.00  0.00     0.200 A 
ATOM     93  F   UNL     1       9.140  -0.227  -8.829  1.00  0.00    -0.200 F 
ATOM     94  F   UNL     1      10.944  -1.421 -10.492  1.00  0.00    -0.200 F 
ENDBRANCH  60  84
BRANCH  72  95
ATOM     95  C   UNL     1      15.336   7.342  -7.022  1.00  0.00     0.064 A 
ATOM     96  C   UNL     1      14.464   8.142  -7.772  1.00  0.00     0.173 A 
ATOM     97  C   UNL     1      16.716   7.533  -7.190  1.00  0.00     0.173 A 
ATOM     98  F   UNL     1      13.136   7.987  -7.657  1.00  0.00    -0.203 F 
ATOM     99  C   UNL     1      14.957   9.097  -8.659  1.00  0.00     0.198 A 
ATOM    100  C   UNL     1      17.204   8.505  -8.057  1.00  0.00     0.198 A 
ATOM    101  F   UNL     1      17.590   6.794  -6.489  1.00  0.00    -0.203 F 
ATOM    102  F   UNL     1      14.107   9.836  -9.385  1.00  0.00    -0.200 F 
ATOM    103  C   UNL     1      16.325   9.285  -8.791  1.00  0.00     0.200 A 
ATOM    104  F   UNL     1      18.526   8.695  -8.172  1.00  0.00    -0.200 F 
ATOM    105  F   UNL     1      16.796  10.220  -9.629  1.00  0.00    -0.200 F 
ENDBRANCH  72  95
ENDBRANCH  46  47
ENDBRANCH  38  41
ENDBRANCH  36  37
ENDBRANCH  35  36
ENDBRANCH  34  35
ENDBRANCH  33  34
ENDBRANCH   1  33
TORSDOF 19
