REMARK SMILES CCCC[C@@H](C(=O)NCCCCCCNC(=O)c1ccc(-c2c3nc(c(-c4c(F)c(F)c(F)c(F)c4F)c4ccc([nH]4)c(-c4c(F)c(F)c(F)c(F)c4F)c4nc(c(-c5c(F)c(F)c(F)c(F)c5F)c5ccc2[nH]5)C=C4)C=C3)cc1)[C@@H](O)c1cccc(C(F)(F)F)c1
REMARK SMILES IDX 11 1 10 2 9 3 8 4 6 5 7 6 5 8 4 9 3 10 2 11 1 12 81 13 82 14
REMARK SMILES IDX 83 16 84 17 92 18 85 19 87 20 86 21 88 22 89 23 90 24 91 25
REMARK SMILES IDX 12 26 13 27 14 28 15 29 16 30 17 32 18 33 19 34 80 35 20 36
REMARK SMILES IDX 79 37 21 38 22 39 23 40 73 41 24 42 78 43 72 44 74 45 25 46
REMARK SMILES IDX 77 47 71 48 70 49 26 51 58 52 38 53 57 54 39 55 42 56 56 57
REMARK SMILES IDX 75 58 40 59 41 60 55 62 76 63 43 64 27 65 28 66 36 67 29 68
REMARK SMILES IDX 30 69 34 70 37 71 31 72 32 73 35 74 33 75 59 76 60 77 68 78
REMARK SMILES IDX 61 79 62 80 66 81 69 82 63 83 64 84 67 85 65 86 44 87 45 88
REMARK SMILES IDX 53 89 46 90 47 91 51 92 54 93 48 94 49 95 52 96 50 97
REMARK H PARENT 8 7 82 15 15 31 74 50 42 61
REMARK Flexibility Score: inf
ROOT
ATOM      1  C   UNL     1       0.027   1.444  -6.001  1.00  0.00     0.002 C 
ENDROOT
BRANCH   1   2
ATOM      2  C   UNL     1       0.338   0.757  -4.670  1.00  0.00     0.021 C 
BRANCH   2   3
ATOM      3  C   UNL     1      -0.908   0.319  -3.893  1.00  0.00     0.116 C 
BRANCH   3   4
ATOM      4  N   UNL     1      -1.244  -1.050  -4.226  1.00  0.00    -0.356 N 
ATOM      5  C   UNL     1      -1.128  -2.195  -3.498  1.00  0.00     0.226 C 
ATOM      6  O   UNL     1      -1.278  -3.260  -4.101  1.00  0.00    -0.275 OA
ATOM      7  H   UNL     1      -1.620  -1.173  -5.128  1.00  0.00     0.163 HD
BRANCH   5   8
ATOM      8  C   UNL     1      -0.813  -2.158  -2.001  1.00  0.00     0.111 C 
BRANCH   8   9
ATOM      9  C   UNL     1       0.715  -2.290  -1.746  1.00  0.00     0.016 C 
BRANCH   9  10
ATOM     10  C   UNL     1       1.549  -1.003  -1.777  1.00  0.00     0.001 C 
BRANCH  10  11
ATOM     11  C   UNL     1       1.159   0.090  -0.776  1.00  0.00    -0.003 C 
ATOM     12  C   UNL     1       1.540  -0.238   0.658  1.00  0.00     0.004 C 
ENDBRANCH  10  11
ENDBRANCH   9  10
ENDBRANCH   8   9
BRANCH   8  13
ATOM     13  C   UNL     1      -1.555  -3.361  -1.347  1.00  0.00     0.157 C 
BRANCH  13  14
ATOM     14  O   UNL     1      -1.226  -3.422   0.048  1.00  0.00    -0.388 OA
ATOM     15  H   UNL     1      -1.572  -2.635   0.497  1.00  0.00     0.211 HD
ENDBRANCH  13  14
BRANCH  13  16
ATOM     16  C   UNL     1      -3.074  -3.362  -1.376  1.00  0.00    -0.018 A 
ATOM     17  C   UNL     1      -3.844  -2.192  -1.328  1.00  0.00     0.006 A 
ATOM     18  C   UNL     1      -3.745  -4.600  -1.359  1.00  0.00     0.019 A 
ATOM     19  C   UNL     1      -5.239  -2.257  -1.284  1.00  0.00     0.001 A 
ATOM     20  C   UNL     1      -5.146  -4.679  -1.303  1.00  0.00     0.056 A 
ATOM     21  C   UNL     1      -5.887  -3.491  -1.270  1.00  0.00     0.013 A 
BRANCH  20  22
ATOM     22  C   UNL     1      -5.852  -6.011  -1.246  1.00  0.00     0.416 C 
ATOM     23  F   UNL     1      -6.546  -6.184  -0.086  1.00  0.00    -0.166 F 
ATOM     24  F   UNL     1      -6.761  -6.166  -2.249  1.00  0.00    -0.166 F 
ATOM     25  F   UNL     1      -5.013  -7.082  -1.337  1.00  0.00    -0.166 F 
ENDBRANCH  20  22
ENDBRANCH  13  16
ENDBRANCH   8  13
ENDBRANCH   5   8
ENDBRANCH   3   4
ENDBRANCH   2   3
ENDBRANCH   1   2
BRANCH   1  26
ATOM     26  C   UNL     1      -0.600   2.835  -5.866  1.00  0.00     0.002 C 
BRANCH  26  27
ATOM     27  C   UNL     1       0.200   3.840  -5.030  1.00  0.00     0.021 C 
BRANCH  27  28
ATOM     28  C   UNL     1       1.648   4.042  -5.469  1.00  0.00     0.116 C 
BRANCH  28  29
ATOM     29  N   UNL     1       1.741   4.526  -6.835  1.00  0.00    -0.352 N 
ATOM     30  C   UNL     1       2.347   5.652  -7.329  1.00  0.00     0.251 C 
ATOM     31  H   UNL     1       1.301   3.958  -7.509  1.00  0.00     0.163 HD
ATOM     32  O   UNL     1       2.139   6.001  -8.487  1.00  0.00    -0.269 OA
BRANCH  30  33
ATOM     33  C   UNL     1       3.251   6.452  -6.476  1.00  0.00     0.039 A 
ATOM     34  C   UNL     1       3.180   7.846  -6.545  1.00  0.00     0.014 A 
ATOM     35  C   UNL     1       4.207   5.839  -5.660  1.00  0.00     0.014 A 
ATOM     36  C   UNL     1       4.047   8.626  -5.777  1.00  0.00     0.010 A 
ATOM     37  C   UNL     1       5.028   6.616  -4.847  1.00  0.00     0.010 A 
ATOM     38  C   UNL     1       4.970   8.017  -4.913  1.00  0.00    -0.014 A 
BRANCH  38  39
ATOM     39  C   UNL     1       5.919   8.830  -4.113  1.00  0.00     0.031 A 
ATOM     40  C   UNL     1       7.393   8.764  -4.405  1.00  0.00     0.074 A 
ATOM     41  C   UNL     1       5.463   9.593  -3.102  1.00  0.00     0.049 A 
ATOM     42  N   UNL     1       8.389   9.348  -3.788  1.00  0.00    -0.248 NA
ATOM     43  C   UNL     1       7.805   7.905  -5.527  1.00  0.00     0.031 C 
ATOM     44  C   UNL     1       4.061   9.712  -2.699  1.00  0.00     0.029 A 
ATOM     45  N   UNL     1       6.133  10.409  -2.225  1.00  0.00    -0.354 N 
ATOM     46  C   UNL     1       9.540   8.915  -4.434  1.00  0.00     0.074 A 
ATOM     47  C   UNL     1       9.126   7.981  -5.458  1.00  0.00     0.031 C 
ATOM     48  C   UNL     1       3.973  10.568  -1.667  1.00  0.00     0.029 A 
ATOM     49  C   UNL     1       5.312  11.033  -1.318  1.00  0.00     0.049 A 
ATOM     50  H   UNL     1       7.109  10.534  -2.244  1.00  0.00     0.167 HD
ATOM     51  C   UNL     1      10.824   9.283  -4.211  1.00  0.00     0.037 A 
ATOM     52  C   UNL     1       5.611  11.886  -0.319  1.00  0.00     0.037 A 
ATOM     53  C   UNL     1      11.230  10.238  -3.214  1.00  0.00     0.049 A 
ATOM     54  C   UNL     1       7.045  12.289  -0.102  1.00  0.00     0.074 A 
ATOM     55  C   UNL     1      12.502  10.707  -2.932  1.00  0.00     0.029 A 
ATOM     56  N   UNL     1      10.365  10.876  -2.338  1.00  0.00    -0.354 N 
ATOM     57  N   UNL     1       8.119  11.911  -0.752  1.00  0.00    -0.248 NA
ATOM     58  C   UNL     1       7.305  13.247   0.981  1.00  0.00     0.031 C 
ATOM     59  C   UNL     1      12.409  11.607  -1.865  1.00  0.00     0.029 A 
ATOM     60  C   UNL     1      11.076  11.731  -1.511  1.00  0.00     0.049 A 
ATOM     61  H   UNL     1       9.390  10.742  -2.308  1.00  0.00     0.167 HD
ATOM     62  C   UNL     1       9.174  12.612  -0.184  1.00  0.00     0.074 A 
ATOM     63  C   UNL     1       8.610  13.444   0.858  1.00  0.00     0.031 C 
ATOM     64  C   UNL     1      10.492  12.570  -0.497  1.00  0.00     0.037 A 
BRANCH  51  65
ATOM     65  C   UNL     1      11.884   8.657  -5.071  1.00  0.00     0.064 A 
ATOM     66  C   UNL     1      12.013   8.982  -6.430  1.00  0.00     0.173 A 
ATOM     67  C   UNL     1      12.802   7.748  -4.524  1.00  0.00     0.173 A 
ATOM     68  F   UNL     1      11.152   9.836  -7.004  1.00  0.00    -0.203 F 
ATOM     69  C   UNL     1      13.003   8.399  -7.216  1.00  0.00     0.198 A 
ATOM     70  C   UNL     1      13.810   7.189  -5.306  1.00  0.00     0.198 A 
ATOM     71  F   UNL     1      12.727   7.407  -3.229  1.00  0.00    -0.203 F 
ATOM     72  F   UNL     1      13.075   8.688  -8.523  1.00  0.00    -0.200 F 
ATOM     73  C   UNL     1      13.905   7.509  -6.652  1.00  0.00     0.200 A 
ATOM     74  F   UNL     1      14.688   6.338  -4.758  1.00  0.00    -0.200 F 
ATOM     75  F   UNL     1      14.861   6.954  -7.409  1.00  0.00    -0.200 F 
ENDBRANCH  51  65
BRANCH  52  76
ATOM     76  C   UNL     1       4.527  12.448   0.528  1.00  0.00     0.064 A 
ATOM     77  C   UNL     1       4.176  13.802   0.438  1.00  0.00     0.173 A 
ATOM     78  C   UNL     1       3.833  11.653   1.451  1.00  0.00     0.173 A 
ATOM     79  F   UNL     1       4.826  14.606  -0.417  1.00  0.00    -0.203 F 
ATOM     80  C   UNL     1       3.188  14.346   1.256  1.00  0.00     0.198 A 
ATOM     81  C   UNL     1       2.826  12.192   2.249  1.00  0.00     0.198 A 
ATOM     82  F   UNL     1       4.128  10.351   1.571  1.00  0.00    -0.203 F 
ATOM     83  F   UNL     1       2.906  15.654   1.183  1.00  0.00    -0.200 F 
ATOM     84  C   UNL     1       2.511  13.540   2.158  1.00  0.00     0.200 A 
ATOM     85  F   UNL     1       2.165  11.407   3.111  1.00  0.00    -0.200 F 
ATOM     86  F   UNL     1       1.561  14.063   2.945  1.00  0.00    -0.200 F 
ENDBRANCH  52  76
BRANCH  64  87
ATOM     87  C   UNL     1      11.406  13.491   0.256  1.00  0.00     0.064 A 
ATOM     88  C   UNL     1      11.745  13.260   1.597  1.00  0.00     0.173 A 
ATOM     89  C   UNL     1      11.978  14.600  -0.387  1.00  0.00     0.173 A 
ATOM     90  F   UNL     1      11.213  12.221   2.259  1.00  0.00    -0.203 F 
ATOM     91  C   UNL     1      12.602  14.122   2.275  1.00  0.00     0.198 A 
ATOM     92  C   UNL     1      12.856  15.443   0.286  1.00  0.00     0.198 A 
ATOM     93  F   UNL     1      11.690  14.859  -1.671  1.00  0.00    -0.203 F 
ATOM     94  F   UNL     1      12.875  13.910   3.570  1.00  0.00    -0.200 F 
ATOM     95  C   UNL     1      13.162  15.209   1.618  1.00  0.00     0.200 A 
ATOM     96  F   UNL     1      13.405  16.485  -0.353  1.00  0.00    -0.200 F 
ATOM     97  F   UNL     1      13.990  16.035   2.272  1.00  0.00    -0.200 F 
ENDBRANCH  64  87
ENDBRANCH  38  39
ENDBRANCH  30  33
ENDBRANCH  28  29
ENDBRANCH  27  28
ENDBRANCH  26  27
ENDBRANCH   1  26
TORSDOF 20
