REMARK SMILES O=C(NCCCCCCNC(=O)[C@H]1CCCCN1C(=O)c1cn2ccccc2n1)c1ccc(-c2c3nc(c(-c4c(F)c(F)c(F)c(F)c4F)c4ccc([nH]4)c(-c4c(F)c(F)c(F)c(F)c4F)c4nc(c(-c5c(F)c(F)c(F)c(F)c5F)c5ccc2[nH]5)C=C4)C=C3)cc1
REMARK SMILES IDX 6 1 5 2 4 3 3 4 1 5 2 6 30 8 31 9 92 10 32 11 91 12 33 13
REMARK SMILES IDX 34 14 35 15 85 16 36 17 90 18 84 19 86 20 37 21 89 22 83 23
REMARK SMILES IDX 82 24 38 26 70 27 50 28 69 29 51 30 54 31 68 32 87 33 52 34
REMARK SMILES IDX 53 35 67 37 88 38 55 39 39 40 40 41 48 42 41 43 42 44 46 45
REMARK SMILES IDX 49 46 43 47 44 48 47 49 45 50 71 51 72 52 80 53 73 54 74 55
REMARK SMILES IDX 78 56 81 57 75 58 76 59 79 60 77 61 56 62 57 63 65 64 58 65
REMARK SMILES IDX 59 66 63 67 66 68 60 69 61 70 64 71 62 72 7 73 8 74 9 75
REMARK SMILES IDX 10 76 11 77 12 79 13 80 14 81 18 82 15 83 17 84 16 85 19 86
REMARK SMILES IDX 20 87 21 88 22 89 29 90 23 91 28 92 24 93 27 94 25 95 26 96
REMARK H PARENT 3 7 86 25 54 36 10 78
REMARK Flexibility Score: inf
ROOT
ATOM      1  C   UNL     1       5.637   3.769   1.968  1.00  0.00     0.002 C 
ENDROOT
BRANCH   1   2
ATOM      2  C   UNL     1       4.173   3.840   2.398  1.00  0.00     0.021 C 
BRANCH   2   3
ATOM      3  C   UNL     1       3.529   5.205   2.204  1.00  0.00     0.116 C 
BRANCH   3   4
ATOM      4  N   UNL     1       3.409   5.565   0.801  1.00  0.00    -0.352 N 
ATOM      5  O   UNL     1       2.317   6.026  -1.123  1.00  0.00    -0.269 OA
ATOM      6  C   UNL     1       2.285   5.923   0.099  1.00  0.00     0.251 C 
ATOM      7  H   UNL     1       4.247   5.551   0.284  1.00  0.00     0.163 HD
BRANCH   6   8
ATOM      8  C   UNL     1       1.024   6.166   0.830  1.00  0.00     0.039 A 
ATOM      9  C   UNL     1       1.022   6.936   1.996  1.00  0.00     0.014 A 
ATOM     10  C   UNL     1      -0.165   5.618   0.344  1.00  0.00     0.014 A 
ATOM     11  C   UNL     1      -0.141   7.048   2.746  1.00  0.00     0.010 A 
ATOM     12  C   UNL     1      -1.354   5.811   1.051  1.00  0.00     0.010 A 
ATOM     13  C   UNL     1      -1.347   6.512   2.267  1.00  0.00    -0.014 A 
BRANCH  13  14
ATOM     14  C   UNL     1      -2.604   6.780   3.008  1.00  0.00     0.031 A 
ATOM     15  C   UNL     1      -3.396   5.670   3.632  1.00  0.00     0.074 A 
ATOM     16  C   UNL     1      -3.021   8.057   3.112  1.00  0.00     0.049 A 
ATOM     17  N   UNL     1      -4.525   5.734   4.293  1.00  0.00    -0.248 NA
ATOM     18  C   UNL     1      -2.860   4.308   3.492  1.00  0.00     0.031 C 
ATOM     19  C   UNL     1      -2.333   9.215   2.535  1.00  0.00     0.029 A 
ATOM     20  N   UNL     1      -4.112   8.600   3.740  1.00  0.00    -0.354 N 
ATOM     21  C   UNL     1      -4.843   4.426   4.633  1.00  0.00     0.074 A 
ATOM     22  C   UNL     1      -3.802   3.584   4.083  1.00  0.00     0.031 C 
ATOM     23  C   UNL     1      -2.996  10.331   2.865  1.00  0.00     0.029 A 
ATOM     24  C   UNL     1      -4.192   9.964   3.612  1.00  0.00     0.049 A 
ATOM     25  H   UNL     1      -4.773   8.063   4.235  1.00  0.00     0.167 HD
ATOM     26  C   UNL     1      -5.905   3.977   5.345  1.00  0.00     0.037 A 
ATOM     27  C   UNL     1      -5.141  10.825   4.024  1.00  0.00     0.037 A 
ATOM     28  C   UNL     1      -6.931   4.829   5.894  1.00  0.00     0.049 A 
ATOM     29  C   UNL     1      -6.329  10.291   4.770  1.00  0.00     0.074 A 
ATOM     30  C   UNL     1      -8.025   4.476   6.665  1.00  0.00     0.029 A 
ATOM     31  N   UNL     1      -6.996   6.205   5.718  1.00  0.00    -0.354 N 
ATOM     32  N   UNL     1      -6.596   9.058   5.124  1.00  0.00    -0.248 NA
ATOM     33  C   UNL     1      -7.349  11.268   5.170  1.00  0.00     0.031 C 
ATOM     34  C   UNL     1      -8.783   5.627   6.905  1.00  0.00     0.029 A 
ATOM     35  C   UNL     1      -8.130   6.709   6.337  1.00  0.00     0.049 A 
ATOM     36  H   UNL     1      -6.335   6.743   5.226  1.00  0.00     0.167 HD
ATOM     37  C   UNL     1      -7.803   9.111   5.806  1.00  0.00     0.074 A 
ATOM     38  C   UNL     1      -8.204  10.503   5.834  1.00  0.00     0.031 C 
ATOM     39  C   UNL     1      -8.515   8.098   6.356  1.00  0.00     0.037 A 
BRANCH  26  40
ATOM     40  C   UNL     1      -6.033   2.495   5.558  1.00  0.00     0.064 A 
ATOM     41  C   UNL     1      -5.162   1.790   6.403  1.00  0.00     0.173 A 
ATOM     42  C   UNL     1      -7.077   1.779   4.951  1.00  0.00     0.173 A 
ATOM     43  F   UNL     1      -4.143   2.423   7.002  1.00  0.00    -0.203 F 
ATOM     44  C   UNL     1      -5.318   0.421   6.612  1.00  0.00     0.198 A 
ATOM     45  C   UNL     1      -7.247   0.417   5.187  1.00  0.00     0.198 A 
ATOM     46  F   UNL     1      -7.944   2.404   4.140  1.00  0.00    -0.203 F 
ATOM     47  F   UNL     1      -4.448  -0.239   7.390  1.00  0.00    -0.200 F 
ATOM     48  C   UNL     1      -6.364  -0.262   6.011  1.00  0.00     0.200 A 
ATOM     49  F   UNL     1      -8.269  -0.238   4.617  1.00  0.00    -0.200 F 
ATOM     50  F   UNL     1      -6.518  -1.577   6.223  1.00  0.00    -0.200 F 
ENDBRANCH  26  40
BRANCH  27  51
ATOM     51  C   UNL     1      -5.005  12.273   3.718  1.00  0.00     0.064 A 
ATOM     52  C   UNL     1      -4.798  13.210   4.737  1.00  0.00     0.173 A 
ATOM     53  C   UNL     1      -5.071  12.746   2.398  1.00  0.00     0.173 A 
ATOM     54  F   UNL     1      -4.745  12.809   6.016  1.00  0.00    -0.203 F 
ATOM     55  C   UNL     1      -4.681  14.569   4.451  1.00  0.00     0.198 A 
ATOM     56  C   UNL     1      -4.919  14.100   2.110  1.00  0.00     0.198 A 
ATOM     57  F   UNL     1      -5.261  11.888   1.385  1.00  0.00    -0.203 F 
ATOM     58  F   UNL     1      -4.530  15.450   5.449  1.00  0.00    -0.200 F 
ATOM     59  C   UNL     1      -4.734  15.011   3.138  1.00  0.00     0.200 A 
ATOM     60  F   UNL     1      -4.951  14.519   0.838  1.00  0.00    -0.200 F 
ATOM     61  F   UNL     1      -4.614  16.317   2.863  1.00  0.00    -0.200 F 
ENDBRANCH  27  51
BRANCH  39  62
ATOM     62  C   UNL     1      -9.788   8.463   7.063  1.00  0.00     0.064 A 
ATOM     63  C   UNL     1     -10.925   8.890   6.361  1.00  0.00     0.173 A 
ATOM     64  C   UNL     1      -9.881   8.354   8.459  1.00  0.00     0.173 A 
ATOM     65  F   UNL     1     -10.882   9.030   5.027  1.00  0.00    -0.203 F 
ATOM     66  C   UNL     1     -12.100   9.218   7.033  1.00  0.00     0.198 A 
ATOM     67  C   UNL     1     -11.067   8.650   9.124  1.00  0.00     0.198 A 
ATOM     68  F   UNL     1      -8.824   7.947   9.178  1.00  0.00    -0.203 F 
ATOM     69  F   UNL     1     -13.157   9.673   6.347  1.00  0.00    -0.200 F 
ATOM     70  C   UNL     1     -12.172   9.089   8.412  1.00  0.00     0.200 A 
ATOM     71  F   UNL     1     -11.140   8.511  10.455  1.00  0.00    -0.200 F 
ATOM     72  F   UNL     1     -13.307   9.396   9.056  1.00  0.00    -0.200 F 
ENDBRANCH  39  62
ENDBRANCH  13  14
ENDBRANCH   6   8
ENDBRANCH   3   4
ENDBRANCH   2   3
ENDBRANCH   1   2
BRANCH   1  73
ATOM     73  C   UNL     1       6.559   4.790   2.644  1.00  0.00     0.002 C 
BRANCH  73  74
ATOM     74  C   UNL     1       6.526   4.795   4.180  1.00  0.00     0.021 C 
BRANCH  74  75
ATOM     75  C   UNL     1       6.796   3.436   4.826  1.00  0.00     0.116 C 
BRANCH  75  76
ATOM     76  N   UNL     1       8.092   2.929   4.426  1.00  0.00    -0.354 N 
ATOM     77  C   UNL     1       9.219   2.711   5.154  1.00  0.00     0.242 C 
ATOM     78  H   UNL     1       8.170   2.706   3.470  1.00  0.00     0.163 HD
ATOM     79  O   UNL     1      10.256   2.510   4.516  1.00  0.00    -0.273 OA
BRANCH  77  80
ATOM     80  C   UNL     1       9.189   2.753   6.699  1.00  0.00     0.174 C 
ATOM     81  C   UNL     1       9.788   1.462   7.277  1.00  0.00     0.035 C 
ATOM     82  N   UNL     1       9.884   3.938   7.227  1.00  0.00    -0.325 N 
ATOM     83  C   UNL     1      11.311   1.403   7.176  1.00  0.00     0.004 C 
ATOM     84  C   UNL     1      11.346   3.934   7.117  1.00  0.00     0.121 C 
ATOM     85  C   UNL     1      11.950   2.672   7.724  1.00  0.00     0.022 C 
BRANCH  82  86
ATOM     86  C   UNL     1       9.118   4.958   7.802  1.00  0.00     0.274 C 
ATOM     87  O   UNL     1       7.891   4.885   7.876  1.00  0.00    -0.267 OA
BRANCH  86  88
ATOM     88  C   UNL     1       9.820   6.133   8.324  1.00  0.00     0.147 A 
ATOM     89  C   UNL     1      10.507   7.082   7.588  1.00  0.00     0.127 A 
ATOM     90  N   UNL     1       9.842   6.464   9.670  1.00  0.00    -0.223 NA
ATOM     91  N   UNL     1      10.981   7.990   8.499  1.00  0.00    -0.306 N 
ATOM     92  C   UNL     1      10.542   7.575   9.752  1.00  0.00     0.137 A 
ATOM     93  C   UNL     1      11.761   9.125   8.293  1.00  0.00     0.093 A 
ATOM     94  C   UNL     1      10.909   8.382  10.867  1.00  0.00     0.048 A 
ATOM     95  C   UNL     1      12.115   9.878   9.350  1.00  0.00     0.018 A 
ATOM     96  C   UNL     1      11.663   9.483  10.677  1.00  0.00     0.005 A 
ENDBRANCH  86  88
ENDBRANCH  82  86
ENDBRANCH  77  80
ENDBRANCH  75  76
ENDBRANCH  74  75
ENDBRANCH  73  74
ENDBRANCH   1  73
TORSDOF 15
