REMARK SMILES NC(=O)C1CC[NH+](Cc2ccc(C(=O)NCCCCCCNC(=O)c3ccc(-c4c5nc(c(-c6c(F)c(F)c(F)c(F)c6F)c6ccc([nH]6)c(-c6c(F)c(F)c(F)c(F)c6F)c6nc(c(-c7c(F)c(F)c(F)c(F)c7F)c7ccc4[nH]7)C=C6)C=C5)cc3)cc2)CC1
REMARK SMILES IDX 18 1 17 2 16 3 15 4 13 5 14 6 12 8 9 9 10 10 89 11 11 12
REMARK SMILES IDX 88 13 8 14 7 15 4 16 5 17 91 18 6 19 90 20 2 22 1 23 3 26
REMARK SMILES IDX 19 27 20 28 21 29 22 30 23 31 24 33 25 34 26 35 87 36 27 37
REMARK SMILES IDX 86 38 28 39 29 40 30 41 80 42 31 43 85 44 79 45 81 46 32 47
REMARK SMILES IDX 84 48 78 49 77 50 33 52 65 53 45 54 64 55 46 56 49 57 63 58
REMARK SMILES IDX 82 59 47 60 48 61 62 63 83 64 50 65 34 66 35 67 43 68 36 69
REMARK SMILES IDX 37 70 41 71 44 72 38 73 39 74 42 75 40 76 66 77 67 78 75 79
REMARK SMILES IDX 68 80 69 81 73 82 76 83 70 84 71 85 74 86 72 87 51 88 52 89
REMARK SMILES IDX 60 90 53 91 54 92 58 93 61 94 55 95 56 96 59 97 57 98
REMARK H PARENT 15 7 7 21 1 24 1 25 22 32 81 51 49 62
REMARK Flexibility Score: inf
ROOT
ATOM      1  C   UNL     1      -3.867   3.178   5.782  1.00  0.00     0.002 C 
ENDROOT
BRANCH   1   2
ATOM      2  C   UNL     1      -3.127   3.576   4.498  1.00  0.00     0.021 C 
BRANCH   2   3
ATOM      3  C   UNL     1      -3.472   2.694   3.295  1.00  0.00     0.116 C 
BRANCH   3   4
ATOM      4  N   UNL     1      -4.792   3.028   2.791  1.00  0.00    -0.352 N 
ATOM      5  C   UNL     1      -5.186   3.690   1.656  1.00  0.00     0.251 C 
ATOM      6  O   UNL     1      -6.388   3.812   1.429  1.00  0.00    -0.269 OA
ATOM      7  H   UNL     1      -5.534   2.727   3.364  1.00  0.00     0.163 HD
BRANCH   5   8
ATOM      8  C   UNL     1      -4.204   4.194   0.665  1.00  0.00     0.039 A 
ATOM      9  C   UNL     1      -2.333   4.891  -1.316  1.00  0.00     0.006 A 
ATOM     10  C   UNL     1      -3.577   4.353  -1.672  1.00  0.00     0.010 A 
ATOM     11  C   UNL     1      -2.083   5.176   0.035  1.00  0.00     0.010 A 
ATOM     12  C   UNL     1      -4.505   4.005  -0.689  1.00  0.00     0.014 A 
ATOM     13  C   UNL     1      -3.019   4.843   1.018  1.00  0.00     0.014 A 
BRANCH   9  14
ATOM     14  C   UNL     1      -1.256   5.102  -2.364  1.00  0.00     0.299 C 
BRANCH  14  15
ATOM     15  N   UNL     1      -0.314   3.981  -2.563  1.00  0.00    -0.331 N 
ATOM     16  C   UNL     1       0.959   1.353  -2.232  1.00  0.00     0.089 C 
ATOM     17  C   UNL     1       1.562   2.643  -1.671  1.00  0.00     0.075 C 
ATOM     18  C   UNL     1       0.044   1.678  -3.416  1.00  0.00     0.075 C 
ATOM     19  C   UNL     1       0.483   3.685  -1.370  1.00  0.00     0.263 C 
ATOM     20  C   UNL     1      -0.971   2.779  -3.091  1.00  0.00     0.263 C 
ATOM     21  H   UNL     1       0.342   4.298  -3.276  1.00  0.00     0.348 HD
BRANCH  16  22
ATOM     22  C   UNL     1       0.238   0.554  -1.149  1.00  0.00     0.220 C 
ATOM     23  N   UNL     1       1.042   0.053  -0.167  1.00  0.00    -0.369 N 
ATOM     24  H   UNL     1       0.651  -0.473   0.568  1.00  0.00     0.159 HD
ATOM     25  H   UNL     1       2.012   0.218  -0.193  1.00  0.00     0.159 HD
ATOM     26  O   UNL     1      -0.966   0.333  -1.124  1.00  0.00    -0.275 OA
ENDBRANCH  16  22
ENDBRANCH  14  15
ENDBRANCH   9  14
ENDBRANCH   5   8
ENDBRANCH   3   4
ENDBRANCH   2   3
ENDBRANCH   1   2
BRANCH   1  27
ATOM     27  C   UNL     1      -3.502   1.796   6.338  1.00  0.00     0.002 C 
BRANCH  27  28
ATOM     28  C   UNL     1      -2.012   1.583   6.617  1.00  0.00     0.021 C 
BRANCH  28  29
ATOM     29  C   UNL     1      -1.412   2.554   7.629  1.00  0.00     0.116 C 
BRANCH  29  30
ATOM     30  N   UNL     1      -1.984   2.381   8.955  1.00  0.00    -0.352 N 
ATOM     31  C   UNL     1      -1.355   2.131  10.149  1.00  0.00     0.251 C 
ATOM     32  H   UNL     1      -2.964   2.453   9.004  1.00  0.00     0.163 HD
ATOM     33  O   UNL     1      -2.004   1.800  11.135  1.00  0.00    -0.269 OA
BRANCH  31  34
ATOM     34  C   UNL     1       0.116   2.246  10.245  1.00  0.00     0.039 A 
ATOM     35  C   UNL     1       0.830   1.256  10.924  1.00  0.00     0.014 A 
ATOM     36  C   UNL     1       0.786   3.338   9.685  1.00  0.00     0.014 A 
ATOM     37  C   UNL     1       2.223   1.332  10.995  1.00  0.00     0.010 A 
ATOM     38  C   UNL     1       2.178   3.377   9.697  1.00  0.00     0.010 A 
ATOM     39  C   UNL     1       2.909   2.377  10.356  1.00  0.00    -0.014 A 
BRANCH  39  40
ATOM     40  C   UNL     1       4.392   2.445  10.370  1.00  0.00     0.031 A 
ATOM     41  C   UNL     1       5.090   3.580  11.066  1.00  0.00     0.074 A 
ATOM     42  C   UNL     1       5.107   1.521   9.700  1.00  0.00     0.049 A 
ATOM     43  N   UNL     1       6.370   3.850  11.132  1.00  0.00    -0.248 NA
ATOM     44  C   UNL     1       4.234   4.559  11.755  1.00  0.00     0.031 C 
ATOM     45  C   UNL     1       4.543   0.396   8.952  1.00  0.00     0.029 A 
ATOM     46  N   UNL     1       6.462   1.385   9.532  1.00  0.00    -0.354 N 
ATOM     47  C   UNL     1       6.469   5.035  11.850  1.00  0.00     0.074 A 
ATOM     48  C   UNL     1       5.120   5.458  12.156  1.00  0.00     0.031 C 
ATOM     49  C   UNL     1       5.544  -0.329   8.428  1.00  0.00     0.029 A 
ATOM     50  C   UNL     1       6.817   0.300   8.770  1.00  0.00     0.049 A 
ATOM     51  H   UNL     1       7.118   2.008   9.921  1.00  0.00     0.167 HD
ATOM     52  C   UNL     1       7.586   5.698  12.236  1.00  0.00     0.037 A 
ATOM     53  C   UNL     1       8.032  -0.136   8.386  1.00  0.00     0.037 A 
ATOM     54  C   UNL     1       8.926   5.253  11.957  1.00  0.00     0.049 A 
ATOM     55  C   UNL     1       9.255   0.623   8.824  1.00  0.00     0.074 A 
ATOM     56  C   UNL     1      10.123   5.811  12.371  1.00  0.00     0.029 A 
ATOM     57  N   UNL     1       9.246   4.144  11.188  1.00  0.00    -0.354 N 
ATOM     58  N   UNL     1       9.341   1.699   9.566  1.00  0.00    -0.248 NA
ATOM     59  C   UNL     1      10.553   0.101   8.372  1.00  0.00     0.031 C 
ATOM     60  C   UNL     1      11.168   5.069  11.809  1.00  0.00     0.029 A 
ATOM     61  C   UNL     1      10.623   4.017  11.091  1.00  0.00     0.049 A 
ATOM     62  H   UNL     1       8.592   3.536  10.773  1.00  0.00     0.167 HD
ATOM     63  C   UNL     1      10.697   1.965   9.698  1.00  0.00     0.074 A 
ATOM     64  C   UNL     1      11.398   0.930   8.968  1.00  0.00     0.031 C 
ATOM     65  C   UNL     1      11.306   2.976  10.366  1.00  0.00     0.037 A 
BRANCH  52  66
ATOM     66  C   UNL     1       7.406   6.979  12.999  1.00  0.00     0.064 A 
ATOM     67  C   UNL     1       6.914   6.994  14.313  1.00  0.00     0.173 A 
ATOM     68  C   UNL     1       7.765   8.206  12.420  1.00  0.00     0.173 A 
ATOM     69  F   UNL     1       6.547   5.850  14.910  1.00  0.00    -0.203 F 
ATOM     70  C   UNL     1       6.758   8.191  15.007  1.00  0.00     0.198 A 
ATOM     71  C   UNL     1       7.638   9.398  13.128  1.00  0.00     0.198 A 
ATOM     72  F   UNL     1       8.247   8.248  11.169  1.00  0.00    -0.203 F 
ATOM     73  F   UNL     1       6.237   8.185  16.241  1.00  0.00    -0.200 F 
ATOM     74  C   UNL     1       7.126   9.391  14.416  1.00  0.00     0.200 A 
ATOM     75  F   UNL     1       8.007  10.555  12.561  1.00  0.00    -0.200 F 
ATOM     76  F   UNL     1       6.982  10.542  15.088  1.00  0.00    -0.200 F 
ENDBRANCH  52  66
BRANCH  53  77
ATOM     77  C   UNL     1       8.155  -1.371   7.568  1.00  0.00     0.064 A 
ATOM     78  C   UNL     1       8.708  -2.538   8.113  1.00  0.00     0.173 A 
ATOM     79  C   UNL     1       7.730  -1.412   6.233  1.00  0.00     0.173 A 
ATOM     80  F   UNL     1       9.147  -2.542   9.380  1.00  0.00    -0.203 F 
ATOM     81  C   UNL     1       8.850  -3.693   7.348  1.00  0.00     0.198 A 
ATOM     82  C   UNL     1       7.846  -2.576   5.476  1.00  0.00     0.198 A 
ATOM     83  F   UNL     1       7.189  -0.324   5.665  1.00  0.00    -0.203 F 
ATOM     84  F   UNL     1       9.423  -4.781   7.880  1.00  0.00    -0.200 F 
ATOM     85  C   UNL     1       8.414  -3.713   6.032  1.00  0.00     0.200 A 
ATOM     86  F   UNL     1       7.410  -2.596   4.209  1.00  0.00    -0.200 F 
ATOM     87  F   UNL     1       8.546  -4.825   5.296  1.00  0.00    -0.200 F 
ENDBRANCH  53  77
BRANCH  65  88
ATOM     88  C   UNL     1      12.807   2.990  10.371  1.00  0.00     0.064 A 
ATOM     89  C   UNL     1      13.545   3.316   9.224  1.00  0.00     0.173 A 
ATOM     90  C   UNL     1      13.515   2.712  11.551  1.00  0.00     0.173 A 
ATOM     91  F   UNL     1      12.916   3.574   8.067  1.00  0.00    -0.203 F 
ATOM     92  C   UNL     1      14.937   3.338   9.251  1.00  0.00     0.198 A 
ATOM     93  C   UNL     1      14.905   2.766  11.582  1.00  0.00     0.198 A 
ATOM     94  F   UNL     1      12.856   2.401  12.677  1.00  0.00    -0.203 F 
ATOM     95  F   UNL     1      15.623   3.603   8.131  1.00  0.00    -0.200 F 
ATOM     96  C   UNL     1      15.615   3.071  10.431  1.00  0.00     0.200 A 
ATOM     97  F   UNL     1      15.558   2.521  12.727  1.00  0.00    -0.200 F 
ATOM     98  F   UNL     1      16.955   3.100  10.457  1.00  0.00    -0.200 F 
ENDBRANCH  65  88
ENDBRANCH  39  40
ENDBRANCH  31  34
ENDBRANCH  29  30
ENDBRANCH  28  29
ENDBRANCH  27  28
ENDBRANCH   1  27
TORSDOF 16
