REMARK SMILES COc1ccc(NC(=O)C[C@@H](C[NH+]2CCOCC2)C(=O)NCCCCCCNC(=O)c2ccc(-c3c4nc(c(-c5c(F)c(F)c(F)c(F)c5F)c5ccc([nH]5)c(-c5c(F)c(F)c(F)c(F)c5F)c5nc(c(-c6c(F)c(F)c(F)c(F)c6F)c6ccc3[nH]6)C=C5)C=C4)cc2)cc1
REMARK SMILES IDX 23 1 22 2 21 3 19 4 20 5 11 7 10 8 8 9 7 10 9 12 6 13 3 14
REMARK SMILES IDX 4 15 95 16 5 17 94 18 2 19 1 20 12 21 13 22 14 23 18 24
REMARK SMILES IDX 15 26 17 27 16 28 24 29 25 30 26 31 27 32 28 33 29 34 30 36
REMARK SMILES IDX 31 37 32 38 93 39 33 40 92 41 34 42 35 43 36 44 86 45 37 46
REMARK SMILES IDX 91 47 85 48 87 49 38 50 90 51 84 52 83 53 39 55 71 56 51 57
REMARK SMILES IDX 70 58 52 59 55 60 69 61 88 62 53 63 54 64 68 66 89 67 56 68
REMARK SMILES IDX 40 69 41 70 49 71 42 72 43 73 47 74 50 75 44 76 45 77 48 78
REMARK SMILES IDX 46 79 72 80 73 81 81 82 74 83 75 84 79 85 82 86 76 87 77 88
REMARK SMILES IDX 80 89 78 90 57 91 58 92 66 93 59 94 60 95 64 96 67 97 61 98
REMARK SMILES IDX 62 99 65 100 63 101
REMARK H PARENT 21 6 7 11 13 25 28 35 87 54 55 65
REMARK Flexibility Score: inf
ROOT
ATOM      1  C   UNL     1      -4.240   4.901  -3.336  1.00  0.00     0.021 C 
ENDROOT
BRANCH   1   2
ATOM      2  C   UNL     1      -3.967   4.247  -4.707  1.00  0.00     0.116 C 
BRANCH   2   3
ATOM      3  N   UNL     1      -2.820   4.900  -5.392  1.00  0.00    -0.356 N 
ATOM      4  C   UNL     1      -1.816   4.193  -6.016  1.00  0.00     0.229 C 
ATOM      5  O   UNL     1      -2.099   3.591  -7.058  1.00  0.00    -0.275 OA
ATOM      6  H   UNL     1      -2.777   5.884  -5.401  1.00  0.00     0.163 HD
BRANCH   4   7
ATOM      7  C   UNL     1      -0.324   4.328  -5.571  1.00  0.00     0.142 C 
BRANCH   7   8
ATOM      8  C   UNL     1       0.136   5.436  -4.594  1.00  0.00     0.119 C 
BRANCH   8   9
ATOM      9  C   UNL     1       1.643   5.719  -4.641  1.00  0.00     0.225 C 
ATOM     10  N   UNL     1       2.611   5.178  -3.843  1.00  0.00    -0.326 N 
ATOM     11  H   UNL     1       3.504   5.548  -4.027  1.00  0.00     0.169 HD
ATOM     12  O   UNL     1       2.065   6.461  -5.543  1.00  0.00    -0.275 OA
BRANCH  10  13
ATOM     13  C   UNL     1       2.626   4.216  -2.820  1.00  0.00     0.041 A 
ATOM     14  C   UNL     1       2.518   1.978  -1.107  1.00  0.00     0.119 A 
ATOM     15  C   UNL     1       1.833   3.149  -0.776  1.00  0.00     0.048 A 
ATOM     16  C   UNL     1       3.401   2.009  -2.186  1.00  0.00     0.048 A 
ATOM     17  C   UNL     1       1.877   4.269  -1.646  1.00  0.00     0.030 A 
ATOM     18  C   UNL     1       3.490   3.133  -3.009  1.00  0.00     0.030 A 
BRANCH  14  19
ATOM     19  O   UNL     1       2.377   0.730  -0.579  1.00  0.00    -0.497 OA
ATOM     20  C   UNL     1       1.597   0.484   0.577  1.00  0.00     0.278 C 
ENDBRANCH  14  19
ENDBRANCH  10  13
ENDBRANCH   8   9
ENDBRANCH   7   8
BRANCH   7  21
ATOM     21  C   UNL     1       0.331   2.925  -5.431  1.00  0.00     0.276 C 
BRANCH  21  22
ATOM     22  N   UNL     1       0.481   2.215  -4.147  1.00  0.00    -0.330 N 
ATOM     23  C   UNL     1       0.210   0.772  -4.289  1.00  0.00     0.291 C 
ATOM     24  C   UNL     1      -0.350   2.634  -3.035  1.00  0.00     0.291 C 
ATOM     25  H   UNL     1       1.449   2.448  -3.922  1.00  0.00     0.348 HD
ATOM     26  C   UNL     1      -1.285   0.455  -4.520  1.00  0.00     0.221 C 
ATOM     27  C   UNL     1      -1.818   2.342  -3.169  1.00  0.00     0.221 C 
ATOM     28  O   UNL     1      -2.162   1.562  -4.300  1.00  0.00    -0.370 OA
ENDBRANCH  21  22
ENDBRANCH   7  21
ENDBRANCH   4   7
ENDBRANCH   2   3
ENDBRANCH   1   2
BRANCH   1  29
ATOM     29  C   UNL     1      -5.346   4.250  -2.486  1.00  0.00     0.002 C 
BRANCH  29  30
ATOM     30  C   UNL     1      -5.006   2.953  -1.737  1.00  0.00     0.002 C 
BRANCH  30  31
ATOM     31  C   UNL     1      -4.149   3.080  -0.467  1.00  0.00     0.021 C 
BRANCH  31  32
ATOM     32  C   UNL     1      -4.641   4.053   0.605  1.00  0.00     0.116 C 
BRANCH  32  33
ATOM     33  N   UNL     1      -6.041   3.865   0.953  1.00  0.00    -0.352 N 
ATOM     34  C   UNL     1      -6.640   3.749   2.175  1.00  0.00     0.251 C 
ATOM     35  H   UNL     1      -6.655   3.812   0.185  1.00  0.00     0.163 HD
ATOM     36  O   UNL     1      -7.840   3.438   2.241  1.00  0.00    -0.269 OA
BRANCH  34  37
ATOM     37  C   UNL     1      -5.888   3.978   3.422  1.00  0.00     0.039 A 
ATOM     38  C   UNL     1      -6.115   3.135   4.515  1.00  0.00     0.014 A 
ATOM     39  C   UNL     1      -4.996   5.048   3.541  1.00  0.00     0.014 A 
ATOM     40  C   UNL     1      -5.418   3.336   5.707  1.00  0.00     0.010 A 
ATOM     41  C   UNL     1      -4.247   5.202   4.704  1.00  0.00     0.010 A 
ATOM     42  C   UNL     1      -4.460   4.357   5.803  1.00  0.00    -0.014 A 
BRANCH  42  43
ATOM     43  C   UNL     1      -3.687   4.567   7.053  1.00  0.00     0.031 A 
ATOM     44  C   UNL     1      -3.849   5.843   7.833  1.00  0.00     0.074 A 
ATOM     45  C   UNL     1      -2.802   3.633   7.451  1.00  0.00     0.049 A 
ATOM     46  N   UNL     1      -3.226   6.238   8.915  1.00  0.00    -0.248 NA
ATOM     47  C   UNL     1      -4.819   6.818   7.311  1.00  0.00     0.031 C 
ATOM     48  C   UNL     1      -2.527   2.379   6.749  1.00  0.00     0.029 A 
ATOM     49  N   UNL     1      -1.966   3.596   8.538  1.00  0.00    -0.354 N 
ATOM     50  C   UNL     1      -3.719   7.507   9.192  1.00  0.00     0.074 A 
ATOM     51  C   UNL     1      -4.645   7.842   8.133  1.00  0.00     0.031 C 
ATOM     52  C   UNL     1      -1.607   1.683   7.435  1.00  0.00     0.029 A 
ATOM     53  C   UNL     1      -1.199   2.458   8.603  1.00  0.00     0.049 A 
ATOM     54  H   UNL     1      -1.919   4.316   9.207  1.00  0.00     0.167 HD
ATOM     55  C   UNL     1      -3.443   8.308  10.249  1.00  0.00     0.037 A 
ATOM     56  C   UNL     1      -0.268   2.087   9.502  1.00  0.00     0.037 A 
ATOM     57  C   UNL     1      -2.535   7.955  11.309  1.00  0.00     0.049 A 
ATOM     58  C   UNL     1       0.023   2.997  10.665  1.00  0.00     0.074 A 
ATOM     59  C   UNL     1      -2.224   8.667  12.454  1.00  0.00     0.029 A 
ATOM     60  N   UNL     1      -1.788   6.786  11.350  1.00  0.00    -0.354 N 
ATOM     61  N   UNL     1      -0.500   4.164  10.955  1.00  0.00    -0.248 NA
ATOM     62  C   UNL     1       1.028   2.534  11.631  1.00  0.00     0.031 C 
ATOM     63  C   UNL     1      -1.250   7.954  13.160  1.00  0.00     0.029 A 
ATOM     64  C   UNL     1      -0.999   6.768  12.489  1.00  0.00     0.049 A 
ATOM     65  H   UNL     1      -1.816   6.074  10.670  1.00  0.00     0.167 HD
ATOM     66  C   UNL     1       0.086   4.560  12.149  1.00  0.00     0.074 A 
ATOM     67  C   UNL     1       0.992   3.499  12.538  1.00  0.00     0.031 C 
ATOM     68  C   UNL     1      -0.108   5.698  12.861  1.00  0.00     0.037 A 
BRANCH  55  69
ATOM     69  C   UNL     1      -4.131   9.643  10.310  1.00  0.00     0.064 A 
ATOM     70  C   UNL     1      -5.514   9.752  10.524  1.00  0.00     0.173 A 
ATOM     71  C   UNL     1      -3.395  10.831  10.183  1.00  0.00     0.173 A 
ATOM     72  F   UNL     1      -6.268   8.649  10.641  1.00  0.00    -0.203 F 
ATOM     73  C   UNL     1      -6.138  10.997  10.574  1.00  0.00     0.198 A 
ATOM     74  C   UNL     1      -4.017  12.075  10.268  1.00  0.00     0.198 A 
ATOM     75  F   UNL     1      -2.069  10.788   9.982  1.00  0.00    -0.203 F 
ATOM     76  F   UNL     1      -7.468  11.072  10.722  1.00  0.00    -0.200 F 
ATOM     77  C   UNL     1      -5.388  12.156  10.453  1.00  0.00     0.200 A 
ATOM     78  F   UNL     1      -3.288  13.195  10.165  1.00  0.00    -0.200 F 
ATOM     79  F   UNL     1      -5.989  13.353  10.508  1.00  0.00    -0.200 F 
ENDBRANCH  55  69
BRANCH  56  80
ATOM     80  C   UNL     1       0.432   0.783   9.354  1.00  0.00     0.064 A 
ATOM     81  C   UNL     1       0.213  -0.260  10.265  1.00  0.00     0.173 A 
ATOM     82  C   UNL     1       1.333   0.552   8.305  1.00  0.00     0.173 A 
ATOM     83  F   UNL     1      -0.628  -0.084  11.295  1.00  0.00    -0.203 F 
ATOM     84  C   UNL     1       0.886  -1.474  10.147  1.00  0.00     0.198 A 
ATOM     85  C   UNL     1       1.982  -0.674   8.169  1.00  0.00     0.198 A 
ATOM     86  F   UNL     1       1.572   1.512   7.400  1.00  0.00    -0.203 F 
ATOM     87  F   UNL     1       0.694  -2.436  11.059  1.00  0.00    -0.200 F 
ATOM     88  C   UNL     1       1.766  -1.682   9.095  1.00  0.00     0.200 A 
ATOM     89  F   UNL     1       2.816  -0.877   7.140  1.00  0.00    -0.200 F 
ATOM     90  F   UNL     1       2.409  -2.852   8.978  1.00  0.00    -0.200 F 
ENDBRANCH  56  80
BRANCH  68  91
ATOM     91  C   UNL     1       0.645   5.836  14.153  1.00  0.00     0.064 A 
ATOM     92  C   UNL     1       2.033   6.038  14.181  1.00  0.00     0.173 A 
ATOM     93  C   UNL     1      -0.038   5.800  15.378  1.00  0.00     0.173 A 
ATOM     94  F   UNL     1       2.735   6.066  13.038  1.00  0.00    -0.203 F 
ATOM     95  C   UNL     1       2.713   6.165  15.390  1.00  0.00     0.198 A 
ATOM     96  C   UNL     1       0.639   5.964  16.582  1.00  0.00     0.198 A 
ATOM     97  F   UNL     1      -1.367   5.618  15.406  1.00  0.00    -0.203 F 
ATOM     98  F   UNL     1       4.046   6.301  15.395  1.00  0.00    -0.200 F 
ATOM     99  C   UNL     1       2.015   6.136  16.588  1.00  0.00     0.200 A 
ATOM    100  F   UNL     1      -0.039   5.952  17.738  1.00  0.00    -0.200 F 
ATOM    101  F   UNL     1       2.670   6.267  17.750  1.00  0.00    -0.200 F 
ENDBRANCH  68  91
ENDBRANCH  42  43
ENDBRANCH  34  37
ENDBRANCH  32  33
ENDBRANCH  31  32
ENDBRANCH  30  31
ENDBRANCH  29  30
ENDBRANCH   1  29
TORSDOF 19
