REMARK SMILES Cc1ccc(N2C(=O)C[C@H](Sc3ccccc3C(=O)NCCCCCCNC(=O)c3ccc(-c4c5nc(c(-c6c(F)c(F)c(F)c(F)c6F)c6ccc([nH]6)c(-c6c(F)c(F)c(F)c(F)c6F)c6nc(c(-c7c(F)c(F)c(F)c(F)c7F)c7ccc4[nH]7)C=C6)C=C5)cc3)C2=O)cc1
REMARK SMILES IDX 23 1 22 2 21 3 20 4 18 5 19 6 17 8 12 9 13 10 14 11 16 12
REMARK SMILES IDX 15 13 11 14 10 15 6 16 7 17 93 18 8 19 9 20 94 21 5 22 1 23
REMARK SMILES IDX 2 24 3 25 96 26 4 27 95 28 24 29 25 30 26 31 27 32 28 33
REMARK SMILES IDX 29 35 30 36 31 37 92 38 32 39 91 40 33 41 34 42 35 43 85 44
REMARK SMILES IDX 36 45 90 46 84 47 86 48 37 49 89 50 83 51 82 52 38 54 70 55
REMARK SMILES IDX 50 56 69 57 51 58 54 59 68 60 87 61 52 62 53 63 67 65 88 66
REMARK SMILES IDX 55 67 39 68 40 69 48 70 41 71 42 72 46 73 49 74 43 75 44 76
REMARK SMILES IDX 47 77 45 78 71 79 72 80 80 81 73 82 74 83 78 84 81 85 75 86
REMARK SMILES IDX 76 87 79 88 77 89 56 90 57 91 65 92 58 93 59 94 63 95 66 96
REMARK SMILES IDX 60 97 61 98 64 99 62 100
REMARK H PARENT 20 7 27 34 86 53 54 64
REMARK Flexibility Score: inf
ROOT
ATOM      1  C   UNL     1      -5.309   5.046  -3.575  1.00  0.00     0.002 C 
ENDROOT
BRANCH   1   2
ATOM      2  C   UNL     1      -4.543   5.017  -2.249  1.00  0.00     0.021 C 
BRANCH   2   3
ATOM      3  C   UNL     1      -5.318   4.901  -0.936  1.00  0.00     0.116 C 
BRANCH   3   4
ATOM      4  N   UNL     1      -6.375   3.907  -0.907  1.00  0.00    -0.352 N 
ATOM      5  C   UNL     1      -6.861   3.145   0.135  1.00  0.00     0.252 C 
ATOM      6  O   UNL     1      -7.897   2.513  -0.046  1.00  0.00    -0.269 OA
ATOM      7  H   UNL     1      -6.817   3.752  -1.773  1.00  0.00     0.163 HD
BRANCH   5   8
ATOM      8  C   UNL     1      -6.127   3.045   1.427  1.00  0.00     0.053 A 
ATOM      9  C   UNL     1      -5.855   1.804   2.047  1.00  0.00     0.021 A 
ATOM     10  C   UNL     1      -5.135   1.802   3.257  1.00  0.00     0.016 A 
ATOM     11  C   UNL     1      -4.720   2.994   3.857  1.00  0.00     0.001 A 
ATOM     12  C   UNL     1      -5.762   4.237   2.078  1.00  0.00     0.015 A 
ATOM     13  C   UNL     1      -5.050   4.212   3.278  1.00  0.00     0.001 A 
BRANCH   9  14
ATOM     14  S   UNL     1      -6.586   0.224   1.600  1.00  0.00    -0.111 SA
BRANCH  14  15
ATOM     15  C   UNL     1      -5.457  -0.517   0.377  1.00  0.00     0.151 C 
ATOM     16  N   UNL     1      -3.227   0.088   0.032  1.00  0.00    -0.250 N 
ATOM     17  C   UNL     1      -3.953   0.768  -0.920  1.00  0.00     0.235 C 
ATOM     18  C   UNL     1      -4.038  -0.661   0.858  1.00  0.00     0.247 C 
ATOM     19  O   UNL     1      -3.571   1.600  -1.732  1.00  0.00    -0.274 OA
ATOM     20  C   UNL     1      -5.346   0.218  -0.935  1.00  0.00     0.126 C 
ATOM     21  O   UNL     1      -3.714  -1.317   1.841  1.00  0.00    -0.273 OA
BRANCH  16  22
ATOM     22  C   UNL     1      -1.810   0.107   0.108  1.00  0.00     0.052 A 
ATOM     23  C   UNL     1       2.518   0.014   0.023  1.00  0.00     0.044 C 
ATOM     24  C   UNL     1       1.021   0.063   0.090  1.00  0.00    -0.051 A 
ATOM     25  C   UNL     1       0.295  -1.078   0.441  1.00  0.00     0.005 A 
ATOM     26  C   UNL     1       0.325   1.225  -0.253  1.00  0.00     0.005 A 
ATOM     27  C   UNL     1      -1.104  -1.048   0.473  1.00  0.00     0.027 A 
ATOM     28  C   UNL     1      -1.074   1.242  -0.256  1.00  0.00     0.027 A 
ENDBRANCH  16  22
ENDBRANCH  14  15
ENDBRANCH   9  14
ENDBRANCH   5   8
ENDBRANCH   3   4
ENDBRANCH   2   3
ENDBRANCH   1   2
BRANCH   1  29
ATOM     29  C   UNL     1      -6.514   5.984  -3.719  1.00  0.00     0.002 C 
BRANCH  29  30
ATOM     30  C   UNL     1      -6.336   7.429  -3.262  1.00  0.00     0.021 C 
BRANCH  30  31
ATOM     31  C   UNL     1      -5.316   8.246  -4.045  1.00  0.00     0.116 C 
BRANCH  31  32
ATOM     32  N   UNL     1      -5.880   9.054  -5.122  1.00  0.00    -0.352 N 
ATOM     33  C   UNL     1      -5.232   9.926  -5.986  1.00  0.00     0.251 C 
ATOM     34  H   UNL     1      -6.853   8.969  -5.253  1.00  0.00     0.163 HD
ATOM     35  O   UNL     1      -5.847  10.523  -6.855  1.00  0.00    -0.269 OA
BRANCH  33  36
ATOM     36  C   UNL     1      -3.754  10.024  -5.920  1.00  0.00     0.039 A 
ATOM     37  C   UNL     1      -3.022   9.800  -7.090  1.00  0.00     0.014 A 
ATOM     38  C   UNL     1      -3.109  10.106  -4.690  1.00  0.00     0.014 A 
ATOM     39  C   UNL     1      -1.693   9.392  -6.991  1.00  0.00     0.010 A 
ATOM     40  C   UNL     1      -1.830   9.597  -4.582  1.00  0.00     0.010 A 
ATOM     41  C   UNL     1      -1.151   9.163  -5.726  1.00  0.00    -0.014 A 
BRANCH  41  42
ATOM     42  C   UNL     1       0.041   8.350  -5.496  1.00  0.00     0.031 A 
ATOM     43  C   UNL     1       1.294   8.957  -5.002  1.00  0.00     0.074 A 
ATOM     44  C   UNL     1      -0.042   7.006  -5.625  1.00  0.00     0.049 A 
ATOM     45  N   UNL     1       2.445   8.370  -5.015  1.00  0.00    -0.248 NA
ATOM     46  C   UNL     1       1.359  10.324  -4.509  1.00  0.00     0.031 C 
ATOM     47  C   UNL     1       0.903   6.008  -5.128  1.00  0.00     0.029 A 
ATOM     48  N   UNL     1      -0.920   6.274  -6.443  1.00  0.00    -0.354 N 
ATOM     49  C   UNL     1       3.336   9.149  -4.313  1.00  0.00     0.074 A 
ATOM     50  C   UNL     1       2.631  10.392  -4.106  1.00  0.00     0.031 C 
ATOM     51  C   UNL     1       0.774   4.891  -5.859  1.00  0.00     0.029 A 
ATOM     52  C   UNL     1      -0.151   5.189  -6.936  1.00  0.00     0.049 A 
ATOM     53  H   UNL     1      -1.866   6.471  -6.633  1.00  0.00     0.167 HD
ATOM     54  C   UNL     1       4.516   8.591  -3.906  1.00  0.00     0.037 A 
ATOM     55  C   UNL     1       0.126   5.065  -8.267  1.00  0.00     0.037 A 
ATOM     56  C   UNL     1       4.724   7.282  -4.536  1.00  0.00     0.049 A 
ATOM     57  C   UNL     1       1.598   5.069  -8.620  1.00  0.00     0.074 A 
ATOM     58  C   UNL     1       4.622   5.963  -4.122  1.00  0.00     0.029 A 
ATOM     59  N   UNL     1       4.874   7.235  -5.912  1.00  0.00    -0.354 N 
ATOM     60  N   UNL     1       2.558   5.284  -7.766  1.00  0.00    -0.248 NA
ATOM     61  C   UNL     1       2.094   4.940  -9.993  1.00  0.00     0.031 C 
ATOM     62  C   UNL     1       4.702   5.127  -5.275  1.00  0.00     0.029 A 
ATOM     63  C   UNL     1       4.851   5.939  -6.384  1.00  0.00     0.049 A 
ATOM     64  H   UNL     1       4.983   8.029  -6.483  1.00  0.00     0.167 HD
ATOM     65  C   UNL     1       3.745   5.390  -8.438  1.00  0.00     0.074 A 
ATOM     66  C   UNL     1       3.410   5.157  -9.829  1.00  0.00     0.031 C 
ATOM     67  C   UNL     1       4.913   5.712  -7.816  1.00  0.00     0.037 A 
BRANCH  54  68
ATOM     68  C   UNL     1       5.416   9.113  -2.794  1.00  0.00     0.064 A 
ATOM     69  C   UNL     1       6.380   8.262  -2.201  1.00  0.00     0.173 A 
ATOM     70  C   UNL     1       5.347  10.389  -2.203  1.00  0.00     0.173 A 
ATOM     71  F   UNL     1       6.643   7.045  -2.695  1.00  0.00    -0.203 F 
ATOM     72  C   UNL     1       7.119   8.623  -1.067  1.00  0.00     0.198 A 
ATOM     73  C   UNL     1       6.066  10.743  -1.056  1.00  0.00     0.198 A 
ATOM     74  F   UNL     1       4.621  11.378  -2.723  1.00  0.00    -0.203 F 
ATOM     75  F   UNL     1       7.996   7.755  -0.542  1.00  0.00    -0.200 F 
ATOM     76  C   UNL     1       6.942   9.855  -0.478  1.00  0.00     0.200 A 
ATOM     77  F   UNL     1       5.896  11.961  -0.521  1.00  0.00    -0.200 F 
ATOM     78  F   UNL     1       7.624  10.193   0.624  1.00  0.00    -0.200 F 
ENDBRANCH  54  68
BRANCH  55  79
ATOM     79  C   UNL     1      -0.951   5.612  -9.131  1.00  0.00     0.064 A 
ATOM     80  C   UNL     1      -2.232   5.032  -9.056  1.00  0.00     0.173 A 
ATOM     81  C   UNL     1      -0.845   6.879  -9.714  1.00  0.00     0.173 A 
ATOM     82  F   UNL     1      -2.387   3.818  -8.503  1.00  0.00    -0.203 F 
ATOM     83  C   UNL     1      -3.369   5.740  -9.434  1.00  0.00     0.198 A 
ATOM     84  C   UNL     1      -1.985   7.579 -10.109  1.00  0.00     0.198 A 
ATOM     85  F   UNL     1       0.344   7.494  -9.792  1.00  0.00    -0.203 F 
ATOM     86  F   UNL     1      -4.584   5.209  -9.240  1.00  0.00    -0.200 F 
ATOM     87  C   UNL     1      -3.246   7.025  -9.935  1.00  0.00     0.200 A 
ATOM     88  F   UNL     1      -1.869   8.834 -10.565  1.00  0.00    -0.200 F 
ATOM     89  F   UNL     1      -4.340   7.748 -10.208  1.00  0.00    -0.200 F 
ENDBRANCH  55  79
BRANCH  67  90
ATOM     90  C   UNL     1       6.218   5.843  -8.535  1.00  0.00     0.064 A 
ATOM     91  C   UNL     1       6.705   4.839  -9.385  1.00  0.00     0.173 A 
ATOM     92  C   UNL     1       7.078   6.931  -8.286  1.00  0.00     0.173 A 
ATOM     93  F   UNL     1       5.963   3.755  -9.656  1.00  0.00    -0.203 F 
ATOM     94  C   UNL     1       7.974   4.926  -9.961  1.00  0.00     0.198 A 
ATOM     95  C   UNL     1       8.360   6.993  -8.825  1.00  0.00     0.198 A 
ATOM     96  F   UNL     1       6.683   7.968  -7.532  1.00  0.00    -0.203 F 
ATOM     97  F   UNL     1       8.393   3.966 -10.797  1.00  0.00    -0.200 F 
ATOM     98  C   UNL     1       8.807   5.993  -9.667  1.00  0.00     0.200 A 
ATOM     99  F   UNL     1       9.159   8.027  -8.524  1.00  0.00    -0.200 F 
ATOM    100  F   UNL     1      10.035   6.060 -10.198  1.00  0.00    -0.200 F 
ENDBRANCH  67  90
ENDBRANCH  41  42
ENDBRANCH  33  36
ENDBRANCH  31  32
ENDBRANCH  30  31
ENDBRANCH  29  30
ENDBRANCH   1  29
TORSDOF 16
