REMARK SMILES CC[C@@H](O)CC[C@H]([NH3+])C(=O)NCCCCCCNC(=O)c1ccc(-c2c3nc(c(-c4c(F)c(F)c(F)c(F)c4F)c4ccc([nH]4)c(-c4c(F)c(F)c(F)c(F)c4F)c4nc(c(-c5c(F)c(F)c(F)c(F)c5F)c5ccc2[nH]5)C=C4)C=C3)cc1
REMARK SMILES IDX 13 1 12 2 11 3 9 4 10 5 7 7 6 8 5 9 3 10 2 11 1 12 4 13 8 15
REMARK SMILES IDX 14 19 15 20 16 21 17 22 18 23 19 24 20 26 21 27 22 28 83 29
REMARK SMILES IDX 23 30 82 31 24 32 25 33 26 34 76 35 27 36 81 37 75 38 77 39
REMARK SMILES IDX 28 40 80 41 74 42 73 43 29 45 61 46 41 47 60 48 42 49 45 50
REMARK SMILES IDX 59 51 78 52 43 53 44 54 58 56 79 57 46 58 30 59 31 60 39 61
REMARK SMILES IDX 32 62 33 63 37 64 40 65 34 66 35 67 38 68 36 69 62 70 63 71
REMARK SMILES IDX 71 72 64 73 65 74 69 75 72 76 66 77 67 78 70 79 68 80 47 81
REMARK SMILES IDX 48 82 56 83 49 84 50 85 54 86 57 87 51 88 52 89 55 90 53 91
REMARK H PARENT 11 6 4 14 8 16 8 17 8 18 18 25 77 44 45 55
REMARK Flexibility Score: inf
ROOT
ATOM      1  C   UNL     1       0.727   6.095   5.008  1.00  0.00     0.021 C 
ENDROOT
BRANCH   1   2
ATOM      2  C   UNL     1       1.714   5.919   3.863  1.00  0.00     0.116 C 
BRANCH   2   3
ATOM      3  N   UNL     1       2.699   4.883   4.073  1.00  0.00    -0.351 N 
ATOM      4  C   UNL     1       3.170   3.974   3.164  1.00  0.00     0.278 C 
ATOM      5  O   UNL     1       4.063   3.201   3.525  1.00  0.00    -0.268 OA
ATOM      6  H   UNL     1       3.077   4.824   4.980  1.00  0.00     0.163 HD
BRANCH   4   7
ATOM      7  C   UNL     1       2.560   3.868   1.736  1.00  0.00     0.271 C 
BRANCH   7   8
ATOM      8  C   UNL     1       2.758   5.155   0.900  1.00  0.00     0.078 C 
BRANCH   8   9
ATOM      9  C   UNL     1       1.707   5.475  -0.177  1.00  0.00     0.038 C 
BRANCH   9  10
ATOM     10  C   UNL     1       0.353   6.013   0.317  1.00  0.00     0.114 C 
BRANCH  10  11
ATOM     11  C   UNL     1       0.425   7.433   0.898  1.00  0.00     0.028 C 
ATOM     12  C   UNL     1      -0.839   7.792   1.675  1.00  0.00     0.006 C 
ENDBRANCH  10  11
BRANCH  10  13
ATOM     13  O   UNL     1      -0.529   6.030  -0.810  1.00  0.00    -0.393 OA
ATOM     14  H   UNL     1      -0.171   6.620  -1.491  1.00  0.00     0.210 HD
ENDBRANCH  10  13
ENDBRANCH   9  10
ENDBRANCH   8   9
ENDBRANCH   7   8
BRANCH   7  15
ATOM     15  N   UNL     1       1.174   3.375   1.850  1.00  0.00    -0.347 N 
ATOM     16  H   UNL     1       0.622   4.035   2.398  1.00  0.00     0.345 HD
ATOM     17  H   UNL     1       1.173   2.465   2.311  1.00  0.00     0.345 HD
ATOM     18  H   UNL     1       0.768   3.284   0.918  1.00  0.00     0.345 HD
ENDBRANCH   7  15
ENDBRANCH   4   7
ENDBRANCH   2   3
ENDBRANCH   1   2
BRANCH   1  19
ATOM     19  C   UNL     1       1.282   6.768   6.262  1.00  0.00     0.002 C 
BRANCH  19  20
ATOM     20  C   UNL     1       1.910   8.152   6.068  1.00  0.00     0.002 C 
BRANCH  20  21
ATOM     21  C   UNL     1       1.060   9.197   5.337  1.00  0.00     0.021 C 
BRANCH  21  22
ATOM     22  C   UNL     1      -0.335   9.448   5.907  1.00  0.00     0.116 C 
BRANCH  22  23
ATOM     23  N   UNL     1      -0.309   9.879   7.295  1.00  0.00    -0.352 N 
ATOM     24  C   UNL     1      -0.816  11.008   7.889  1.00  0.00     0.251 C 
ATOM     25  H   UNL     1       0.147   9.260   7.910  1.00  0.00     0.163 HD
ATOM     26  O   UNL     1      -0.553  11.248   9.064  1.00  0.00    -0.269 OA
BRANCH  24  27
ATOM     27  C   UNL     1      -1.652  11.960   7.124  1.00  0.00     0.039 A 
ATOM     28  C   UNL     1      -1.404  13.329   7.268  1.00  0.00     0.014 A 
ATOM     29  C   UNL     1      -2.688  11.524   6.294  1.00  0.00     0.014 A 
ATOM     30  C   UNL     1      -2.134  14.254   6.515  1.00  0.00     0.010 A 
ATOM     31  C   UNL     1      -3.377  12.442   5.500  1.00  0.00     0.010 A 
ATOM     32  C   UNL     1      -3.093  13.814   5.589  1.00  0.00    -0.014 A 
BRANCH  32  33
ATOM     33  C   UNL     1      -3.755  14.766   4.659  1.00  0.00     0.031 A 
ATOM     34  C   UNL     1      -5.234  15.012   4.731  1.00  0.00     0.074 A 
ATOM     35  C   UNL     1      -3.022  15.352   3.691  1.00  0.00     0.049 A 
ATOM     36  N   UNL     1      -5.992  15.734   3.943  1.00  0.00    -0.248 NA
ATOM     37  C   UNL     1      -5.963  14.343   5.818  1.00  0.00     0.031 C 
ATOM     38  C   UNL     1      -1.583  15.167   3.496  1.00  0.00     0.029 A 
ATOM     39  N   UNL     1      -3.387  16.205   2.679  1.00  0.00    -0.354 N 
ATOM     40  C   UNL     1      -7.284  15.603   4.433  1.00  0.00     0.074 A 
ATOM     41  C   UNL     1      -7.215  14.697   5.561  1.00  0.00     0.031 C 
ATOM     42  C   UNL     1      -1.186  15.892   2.439  1.00  0.00     0.029 A 
ATOM     43  C   UNL     1      -2.347  16.554   1.852  1.00  0.00     0.049 A 
ATOM     44  H   UNL     1      -4.306  16.536   2.558  1.00  0.00     0.167 HD
ATOM     45  C   UNL     1      -8.418  16.197   3.991  1.00  0.00     0.037 A 
ATOM     46  C   UNL     1      -2.331  17.304   0.734  1.00  0.00     0.037 A 
ATOM     47  C   UNL     1      -8.479  17.107   2.876  1.00  0.00     0.049 A 
ATOM     48  C   UNL     1      -3.614  17.913   0.237  1.00  0.00     0.074 A 
ATOM     49  C   UNL     1      -9.569  17.815   2.398  1.00  0.00     0.029 A 
ATOM     50  N   UNL     1      -7.407  17.426   2.055  1.00  0.00    -0.354 N 
ATOM     51  N   UNL     1      -4.816  17.841   0.753  1.00  0.00    -0.248 NA
ATOM     52  C   UNL     1      -3.538  18.702  -1.000  1.00  0.00     0.031 C 
ATOM     53  C   UNL     1      -9.171  18.514   1.254  1.00  0.00     0.029 A 
ATOM     54  C   UNL     1      -7.820  18.286   1.049  1.00  0.00     0.049 A 
ATOM     55  H   UNL     1      -6.488  17.091   2.170  1.00  0.00     0.167 HD
ATOM     56  C   UNL     1      -5.635  18.587  -0.083  1.00  0.00     0.074 A 
ATOM     57  C   UNL     1      -4.789  19.121  -1.129  1.00  0.00     0.031 C 
ATOM     58  C   UNL     1      -6.970  18.805   0.007  1.00  0.00     0.037 A 
BRANCH  45  59
ATOM     59  C   UNL     1      -9.698  15.880   4.710  1.00  0.00     0.064 A 
ATOM     60  C   UNL     1      -9.948  16.345   6.010  1.00  0.00     0.173 A 
ATOM     61  C   UNL     1     -10.712  15.150   4.071  1.00  0.00     0.173 A 
ATOM     62  F   UNL     1      -9.010  17.043   6.669  1.00  0.00    -0.203 F 
ATOM     63  C   UNL     1     -11.152  16.067   6.653  1.00  0.00     0.198 A 
ATOM     64  C   UNL     1     -11.926  14.899   4.705  1.00  0.00     0.198 A 
ATOM     65  F   UNL     1     -10.530  14.690   2.824  1.00  0.00    -0.203 F 
ATOM     66  F   UNL     1     -11.350  16.484   7.911  1.00  0.00    -0.200 F 
ATOM     67  C   UNL     1     -12.142  15.352   5.997  1.00  0.00     0.200 A 
ATOM     68  F   UNL     1     -12.888  14.221   4.064  1.00  0.00    -0.200 F 
ATOM     69  F   UNL     1     -13.304  15.094   6.613  1.00  0.00    -0.200 F 
ENDBRANCH  45  59
BRANCH  46  70
ATOM     70  C   UNL     1      -1.054  17.515   0.002  1.00  0.00     0.064 A 
ATOM     71  C   UNL     1      -0.447  18.777  -0.036  1.00  0.00     0.173 A 
ATOM     72  C   UNL     1      -0.416  16.463  -0.672  1.00  0.00     0.173 A 
ATOM     73  F   UNL     1      -1.031  19.820   0.574  1.00  0.00    -0.203 F 
ATOM     74  C   UNL     1       0.742  18.983  -0.734  1.00  0.00     0.198 A 
ATOM     75  C   UNL     1       0.788  16.663  -1.343  1.00  0.00     0.198 A 
ATOM     76  F   UNL     1      -0.954  15.235  -0.663  1.00  0.00    -0.203 F 
ATOM     77  F   UNL     1       1.278  20.210  -0.791  1.00  0.00    -0.200 F 
ATOM     78  C   UNL     1       1.362  17.925  -1.381  1.00  0.00     0.200 A 
ATOM     79  F   UNL     1       1.391  15.634  -1.953  1.00  0.00    -0.200 F 
ATOM     80  F   UNL     1       2.508  18.122  -2.045  1.00  0.00    -0.200 F 
ENDBRANCH  46  70
BRANCH  58  81
ATOM     81  C   UNL     1      -7.601  19.664  -1.050  1.00  0.00     0.064 A 
ATOM     82  C   UNL     1      -7.779  19.198  -2.361  1.00  0.00     0.173 A 
ATOM     83  C   UNL     1      -8.078  20.947  -0.739  1.00  0.00     0.173 A 
ATOM     84  F   UNL     1      -7.325  17.985  -2.714  1.00  0.00    -0.203 F 
ATOM     85  C   UNL     1      -8.396  19.991  -3.325  1.00  0.00     0.198 A 
ATOM     86  C   UNL     1      -8.720  21.725  -1.697  1.00  0.00     0.198 A 
ATOM     87  F   UNL     1      -7.936  21.438   0.501  1.00  0.00    -0.203 F 
ATOM     88  F   UNL     1      -8.519  19.540  -4.582  1.00  0.00    -0.200 F 
ATOM     89  C   UNL     1      -8.874  21.249  -2.991  1.00  0.00     0.200 A 
ATOM     90  F   UNL     1      -9.194  22.935  -1.369  1.00  0.00    -0.200 F 
ATOM     91  F   UNL     1      -9.479  22.005  -3.917  1.00  0.00    -0.200 F 
ENDBRANCH  58  81
ENDBRANCH  32  33
ENDBRANCH  24  27
ENDBRANCH  22  23
ENDBRANCH  21  22
ENDBRANCH  20  21
ENDBRANCH  19  20
ENDBRANCH   1  19
TORSDOF 19
