REMARK SMILES CCCn1cc(Br)cc1C(=O)NC[C@H]1CC[C@@H](C(=O)NCCCCCCNC(=O)c2ccc(-c3c4nc(c(-c5c(F)c(F)c(F)c(F)c5F)c5ccc([nH]5)c(-c5c(F)c(F)c(F)c(F)c5F)c5nc(c(-c6c(F)c(F)c(F)c(F)c6F)c6ccc3[nH]6)C=C5)C=C4)cc2)O1
REMARK SMILES IDX 22 1 21 2 20 3 18 4 19 5 17 7 14 8 15 9 93 10 16 11 13 12
REMARK SMILES IDX 12 13 10 14 11 15 9 17 4 18 5 19 6 20 8 21 7 22 3 23 2 24
REMARK SMILES IDX 1 25 23 26 24 27 25 28 26 29 27 30 28 31 29 33 30 34 31 35
REMARK SMILES IDX 92 36 32 37 91 38 33 39 34 40 35 41 85 42 36 43 90 44 84 45
REMARK SMILES IDX 86 46 37 47 89 48 83 49 82 50 38 52 70 53 50 54 69 55 51 56
REMARK SMILES IDX 54 57 68 58 87 59 52 60 53 61 67 63 88 64 55 65 39 66 40 67
REMARK SMILES IDX 48 68 41 69 42 70 46 71 49 72 43 73 44 74 47 75 45 76 71 77
REMARK SMILES IDX 72 78 80 79 73 80 74 81 78 82 81 83 75 84 76 85 79 86 77 87
REMARK SMILES IDX 56 88 57 89 65 90 58 91 59 92 63 93 66 94 60 95 61 96 64 97
REMARK SMILES IDX 62 98
REMARK H PARENT 20 6 12 16 27 32 86 51 54 62
REMARK Flexibility Score: inf
ROOT
ATOM      1  C   UNL     1      -5.214   5.057  -4.425  1.00  0.00     0.021 C 
ENDROOT
BRANCH   1   2
ATOM      2  C   UNL     1      -4.257   3.866  -4.505  1.00  0.00     0.116 C 
BRANCH   2   3
ATOM      3  N   UNL     1      -3.258   4.050  -5.539  1.00  0.00    -0.354 N 
ATOM      4  C   UNL     1      -1.900   4.116  -5.412  1.00  0.00     0.249 C 
ATOM      5  O   UNL     1      -1.231   4.275  -6.436  1.00  0.00    -0.272 OA
ATOM      6  H   UNL     1      -3.605   4.140  -6.456  1.00  0.00     0.163 HD
BRANCH   4   7
ATOM      7  C   UNL     1      -1.264   3.998  -4.012  1.00  0.00     0.207 C 
ATOM      8  C   UNL     1      -0.077   2.247  -2.964  1.00  0.00     0.138 C 
ATOM      9  C   UNL     1       0.729   3.534  -2.845  1.00  0.00     0.037 C 
ATOM     10  O   UNL     1      -1.375   2.671  -3.449  1.00  0.00    -0.363 OA
ATOM     11  C   UNL     1       0.221   4.337  -4.016  1.00  0.00     0.045 C 
BRANCH   8  12
ATOM     12  C   UNL     1       0.565   1.301  -3.990  1.00  0.00     0.148 C 
BRANCH  12  13
ATOM     13  N   UNL     1       0.377  -0.111  -3.770  1.00  0.00    -0.348 N 
ATOM     14  C   UNL     1       0.129  -1.182  -4.587  1.00  0.00     0.268 C 
ATOM     15  O   UNL     1       0.538  -2.242  -4.092  1.00  0.00    -0.268 OA
ATOM     16  H   UNL     1       0.441  -0.362  -2.820  1.00  0.00     0.163 HD
BRANCH  14  17
ATOM     17  C   UNL     1      -0.626  -1.209  -5.843  1.00  0.00     0.108 A 
ATOM     18  N   UNL     1      -0.998  -0.299  -6.831  1.00  0.00    -0.342 N 
ATOM     19  C   UNL     1      -1.897  -0.891  -7.704  1.00  0.00     0.102 A 
ATOM     20  C   UNL     1      -1.949  -2.220  -7.418  1.00  0.00     0.036 A 
ATOM     21  C   UNL     1      -1.150  -2.435  -6.295  1.00  0.00     0.049 A 
ATOM     22  Br  UNL     1      -2.914  -3.538  -8.324  1.00  0.00    -0.049 Br
BRANCH  18  23
ATOM     23  C   UNL     1      -0.589   1.072  -7.084  1.00  0.00     0.122 C 
BRANCH  23  24
ATOM     24  C   UNL     1       0.922   1.292  -7.203  1.00  0.00     0.018 C 
ATOM     25  C   UNL     1       1.470   0.930  -8.570  1.00  0.00     0.006 C 
ENDBRANCH  23  24
ENDBRANCH  18  23
ENDBRANCH  14  17
ENDBRANCH  12  13
ENDBRANCH   8  12
ENDBRANCH   4   7
ENDBRANCH   2   3
ENDBRANCH   1   2
BRANCH   1  26
ATOM     26  C   UNL     1      -6.086   5.280  -5.669  1.00  0.00     0.002 C 
BRANCH  26  27
ATOM     27  C   UNL     1      -6.930   4.083  -6.135  1.00  0.00     0.002 C 
BRANCH  27  28
ATOM     28  C   UNL     1      -7.835   3.426  -5.083  1.00  0.00     0.021 C 
BRANCH  28  29
ATOM     29  C   UNL     1      -8.912   4.343  -4.522  1.00  0.00     0.116 C 
BRANCH  29  30
ATOM     30  N   UNL     1      -9.940   4.690  -5.504  1.00  0.00    -0.352 N 
ATOM     31  C   UNL     1     -11.053   5.484  -5.318  1.00  0.00     0.251 C 
ATOM     32  H   UNL     1      -9.824   4.311  -6.405  1.00  0.00     0.163 HD
ATOM     33  O   UNL     1     -12.030   5.392  -6.064  1.00  0.00    -0.269 OA
BRANCH  31  34
ATOM     34  C   UNL     1     -11.059   6.460  -4.217  1.00  0.00     0.039 A 
ATOM     35  C   UNL     1     -12.208   6.711  -3.462  1.00  0.00     0.014 A 
ATOM     36  C   UNL     1      -9.867   7.126  -3.939  1.00  0.00     0.014 A 
ATOM     37  C   UNL     1     -12.122   7.582  -2.378  1.00  0.00     0.010 A 
ATOM     38  C   UNL     1      -9.742   7.849  -2.783  1.00  0.00     0.010 A 
ATOM     39  C   UNL     1     -10.877   8.132  -2.034  1.00  0.00    -0.014 A 
BRANCH  39  40
ATOM     40  C   UNL     1     -10.704   8.906  -0.811  1.00  0.00     0.031 A 
ATOM     41  C   UNL     1     -11.099   8.178   0.423  1.00  0.00     0.074 A 
ATOM     42  C   UNL     1     -10.026  10.075  -0.777  1.00  0.00     0.049 A 
ATOM     43  N   UNL     1     -12.058   8.477   1.234  1.00  0.00    -0.248 NA
ATOM     44  C   UNL     1     -10.452   6.888   0.721  1.00  0.00     0.031 C 
ATOM     45  C   UNL     1      -9.315  10.744  -1.872  1.00  0.00     0.029 A 
ATOM     46  N   UNL     1      -9.729  10.867   0.289  1.00  0.00    -0.354 N 
ATOM     47  C   UNL     1     -12.009   7.534   2.256  1.00  0.00     0.074 A 
ATOM     48  C   UNL     1     -11.140   6.484   1.792  1.00  0.00     0.031 C 
ATOM     49  C   UNL     1      -8.484  11.683  -1.368  1.00  0.00     0.029 A 
ATOM     50  C   UNL     1      -8.714  11.793   0.060  1.00  0.00     0.049 A 
ATOM     51  H   UNL     1     -10.195  10.792   1.153  1.00  0.00     0.167 HD
ATOM     52  C   UNL     1     -12.484   7.835   3.496  1.00  0.00     0.037 A 
ATOM     53  C   UNL     1      -8.086  12.556   0.992  1.00  0.00     0.037 A 
ATOM     54  C   UNL     1     -13.340   8.997   3.447  1.00  0.00     0.049 A 
ATOM     55  C   UNL     1      -8.958  12.585   2.196  1.00  0.00     0.074 A 
ATOM     56  C   UNL     1     -14.494   9.318   2.756  1.00  0.00     0.029 A 
ATOM     57  N   UNL     1     -12.823  10.196   3.876  1.00  0.00    -0.354 N 
ATOM     58  N   UNL     1     -10.110  13.194   2.236  1.00  0.00    -0.248 NA
ATOM     59  C   UNL     1      -8.774  11.527   3.179  1.00  0.00     0.031 C 
ATOM     60  C   UNL     1     -14.322  10.681   2.370  1.00  0.00     0.029 A 
ATOM     61  C   UNL     1     -13.128  11.137   2.927  1.00  0.00     0.049 A 
ATOM     62  H   UNL     1     -12.325  10.350   4.711  1.00  0.00     0.167 HD
ATOM     63  C   UNL     1     -10.944  12.312   2.905  1.00  0.00     0.074 A 
ATOM     64  C   UNL     1     -10.049  11.338   3.530  1.00  0.00     0.031 C 
ATOM     65  C   UNL     1     -12.283  12.270   2.638  1.00  0.00     0.037 A 
BRANCH  52  66
ATOM     66  C   UNL     1     -11.872   7.349   4.790  1.00  0.00     0.064 A 
ATOM     67  C   UNL     1     -12.508   7.679   6.006  1.00  0.00     0.173 A 
ATOM     68  C   UNL     1     -10.552   6.864   4.912  1.00  0.00     0.173 A 
ATOM     69  F   UNL     1     -13.762   8.158   6.013  1.00  0.00    -0.203 F 
ATOM     70  C   UNL     1     -11.837   7.629   7.230  1.00  0.00     0.198 A 
ATOM     71  C   UNL     1      -9.904   6.763   6.142  1.00  0.00     0.198 A 
ATOM     72  F   UNL     1      -9.791   6.579   3.851  1.00  0.00    -0.203 F 
ATOM     73  F   UNL     1     -12.436   8.091   8.335  1.00  0.00    -0.200 F 
ATOM     74  C   UNL     1     -10.531   7.180   7.295  1.00  0.00     0.200 A 
ATOM     75  F   UNL     1      -8.632   6.341   6.181  1.00  0.00    -0.200 F 
ATOM     76  F   UNL     1      -9.862   7.197   8.455  1.00  0.00    -0.200 F 
ENDBRANCH  52  66
BRANCH  53  77
ATOM     77  C   UNL     1      -6.674  13.013   1.031  1.00  0.00     0.064 A 
ATOM     78  C   UNL     1      -6.256  14.002   1.939  1.00  0.00     0.173 A 
ATOM     79  C   UNL     1      -5.650  12.293   0.385  1.00  0.00     0.173 A 
ATOM     80  F   UNL     1      -7.162  14.709   2.632  1.00  0.00    -0.203 F 
ATOM     81  C   UNL     1      -4.901  14.231   2.209  1.00  0.00     0.198 A 
ATOM     82  C   UNL     1      -4.299  12.527   0.649  1.00  0.00     0.198 A 
ATOM     83  F   UNL     1      -5.938  11.279  -0.443  1.00  0.00    -0.203 F 
ATOM     84  F   UNL     1      -4.546  15.135   3.133  1.00  0.00    -0.200 F 
ATOM     85  C   UNL     1      -3.925  13.484   1.573  1.00  0.00     0.200 A 
ATOM     86  F   UNL     1      -3.366  11.770   0.054  1.00  0.00    -0.200 F 
ATOM     87  F   UNL     1      -2.631  13.654   1.879  1.00  0.00    -0.200 F 
ENDBRANCH  53  77
BRANCH  65  88
ATOM     88  C   UNL     1     -12.876  13.373   1.805  1.00  0.00     0.064 A 
ATOM     89  C   UNL     1     -12.477  13.687   0.493  1.00  0.00     0.173 A 
ATOM     90  C   UNL     1     -13.982  14.063   2.319  1.00  0.00     0.173 A 
ATOM     91  F   UNL     1     -11.504  13.002  -0.119  1.00  0.00    -0.203 F 
ATOM     92  C   UNL     1     -13.118  14.686  -0.240  1.00  0.00     0.198 A 
ATOM     93  C   UNL     1     -14.648  15.029   1.570  1.00  0.00     0.198 A 
ATOM     94  F   UNL     1     -14.447  13.769   3.544  1.00  0.00    -0.203 F 
ATOM     95  F   UNL     1     -12.701  14.983  -1.480  1.00  0.00    -0.200 F 
ATOM     96  C   UNL     1     -14.206  15.352   0.298  1.00  0.00     0.200 A 
ATOM     97  F   UNL     1     -15.732  15.632   2.077  1.00  0.00    -0.200 F 
ATOM     98  F   UNL     1     -14.844  16.289  -0.417  1.00  0.00    -0.200 F 
ENDBRANCH  65  88
ENDBRANCH  39  40
ENDBRANCH  31  34
ENDBRANCH  29  30
ENDBRANCH  28  29
ENDBRANCH  27  28
ENDBRANCH  26  27
ENDBRANCH   1  26
TORSDOF 18
