REMARK SMILES C#CCN(CC(=O)NCCCCCCNC(=O)c1ccc(-c2c3nc(c(-c4c(F)c(F)c(F)c(F)c4F)c4ccc([nH]4)c(-c4c(F)c(F)c(F)c(F)c4F)c4nc(c(-c5c(F)c(F)c(F)c(F)c5F)c5ccc2[nH]5)C=C4)C=C3)cc1)C(=O)N[C@@H](C)CCCC
REMARK SMILES IDX 9 1 8 2 6 3 7 4 5 6 4 7 3 8 2 9 1 10 81 11 82 12 83 13 84 15
REMARK SMILES IDX 85 16 86 17 87 18 88 19 89 20 10 21 11 22 12 23 13 24 14 25
REMARK SMILES IDX 15 26 16 27 17 29 18 30 19 31 80 32 20 33 79 34 21 35 22 36
REMARK SMILES IDX 23 37 73 38 24 39 78 40 72 41 74 42 25 43 77 44 71 45 70 46
REMARK SMILES IDX 26 48 58 49 38 50 57 51 39 52 42 53 56 54 75 55 40 56 41 57
REMARK SMILES IDX 55 59 76 60 43 61 27 62 28 63 36 64 29 65 30 66 34 67 37 68
REMARK SMILES IDX 31 69 32 70 35 71 33 72 59 73 60 74 68 75 61 76 62 77 66 78
REMARK SMILES IDX 69 79 63 80 64 81 67 82 65 83 44 84 45 85 53 86 46 87 47 88
REMARK SMILES IDX 51 89 54 90 48 91 49 92 52 93 50 94
REMARK H PARENT 8 5 83 14 15 28 74 47 42 58
REMARK Flexibility Score: inf
ROOT
ATOM      1  C   UNL     1      -5.237   0.340   0.235  1.00  0.00     0.116 C 
ENDROOT
BRANCH   1   2
ATOM      2  N   UNL     1      -5.586  -0.763  -0.623  1.00  0.00    -0.355 N 
ATOM      3  C   UNL     1      -4.839  -1.841  -0.976  1.00  0.00     0.239 C 
ATOM      4  O   UNL     1      -5.444  -2.808  -1.452  1.00  0.00    -0.273 OA
ATOM      5  H   UNL     1      -6.492  -0.731  -1.006  1.00  0.00     0.163 HD
BRANCH   3   6
ATOM      6  C   UNL     1      -3.340  -1.933  -0.646  1.00  0.00     0.222 C 
BRANCH   6   7
ATOM      7  N   UNL     1      -2.497  -0.797  -1.034  1.00  0.00    -0.304 N 
BRANCH   7   8
ATOM      8  C   UNL     1      -1.888  -0.047   0.061  1.00  0.00     0.211 C 
BRANCH   8   9
ATOM      9  C   UNL     1      -0.368  -0.047   0.061  1.00  0.00    -0.085 C 
ATOM     10  C   UNL     1       0.936  -0.047   0.061  1.00  0.00     0.006 C 
ENDBRANCH   8   9
ENDBRANCH   7   8
BRANCH   7  11
ATOM     11  C   UNL     1      -2.214  -0.346  -2.291  1.00  0.00     0.318 C 
ATOM     12  O   UNL     1      -1.639   0.735  -2.471  1.00  0.00    -0.249 OA
ATOM     13  N   UNL     1      -2.519  -1.000  -3.421  1.00  0.00    -0.336 N 
ATOM     14  H   UNL     1      -2.155  -0.532  -4.207  1.00  0.00     0.165 HD
BRANCH  13  15
ATOM     15  C   UNL     1      -3.234  -2.205  -3.818  1.00  0.00     0.080 C 
ATOM     16  C   UNL     1      -4.499  -1.792  -4.576  1.00  0.00     0.031 C 
BRANCH  15  17
ATOM     17  C   UNL     1      -2.373  -3.130  -4.694  1.00  0.00     0.024 C 
BRANCH  17  18
ATOM     18  C   UNL     1      -1.027  -3.580  -4.110  1.00  0.00     0.002 C 
BRANCH  18  19
ATOM     19  C   UNL     1      -1.017  -4.147  -2.690  1.00  0.00    -0.003 C 
ATOM     20  C   UNL     1      -2.042  -5.238  -2.422  1.00  0.00     0.004 C 
ENDBRANCH  18  19
ENDBRANCH  17  18
ENDBRANCH  15  17
ENDBRANCH  13  15
ENDBRANCH   7  11
ENDBRANCH   6   7
ENDBRANCH   3   6
ENDBRANCH   1   2
BRANCH   1  21
ATOM     21  C   UNL     1      -5.174   1.665  -0.517  1.00  0.00     0.021 C 
BRANCH  21  22
ATOM     22  C   UNL     1      -6.524   2.141  -1.067  1.00  0.00     0.002 C 
BRANCH  22  23
ATOM     23  C   UNL     1      -7.686   2.121  -0.067  1.00  0.00     0.002 C 
BRANCH  23  24
ATOM     24  C   UNL     1      -7.416   2.819   1.269  1.00  0.00     0.021 C 
BRANCH  24  25
ATOM     25  C   UNL     1      -7.043   4.289   1.153  1.00  0.00     0.116 C 
BRANCH  25  26
ATOM     26  N   UNL     1      -8.135   5.082   0.622  1.00  0.00    -0.352 N 
ATOM     27  C   UNL     1      -8.702   6.223   1.126  1.00  0.00     0.251 C 
ATOM     28  H   UNL     1      -8.524   4.753  -0.221  1.00  0.00     0.163 HD
ATOM     29  O   UNL     1      -9.756   6.643   0.659  1.00  0.00    -0.269 OA
BRANCH  27  30
ATOM     30  C   UNL     1      -8.052   6.948   2.240  1.00  0.00     0.039 A 
ATOM     31  C   UNL     1      -8.856   7.480   3.251  1.00  0.00     0.014 A 
ATOM     32  C   UNL     1      -6.668   7.151   2.266  1.00  0.00     0.014 A 
ATOM     33  C   UNL     1      -8.273   8.200   4.295  1.00  0.00     0.010 A 
ATOM     34  C   UNL     1      -6.080   7.806   3.345  1.00  0.00     0.010 A 
ATOM     35  C   UNL     1      -6.879   8.362   4.354  1.00  0.00    -0.014 A 
BRANCH  35  36
ATOM     36  C   UNL     1      -6.254   9.165   5.435  1.00  0.00     0.031 A 
ATOM     37  C   UNL     1      -5.556  10.457   5.101  1.00  0.00     0.074 A 
ATOM     38  C   UNL     1      -6.285   8.720   6.706  1.00  0.00     0.049 A 
ATOM     39  N   UNL     1      -4.928  11.289   5.894  1.00  0.00    -0.248 NA
ATOM     40  C   UNL     1      -5.533  10.853   3.683  1.00  0.00     0.031 C 
ATOM     41  C   UNL     1      -6.882   7.458   7.146  1.00  0.00     0.029 A 
ATOM     42  N   UNL     1      -5.797   9.277   7.861  1.00  0.00    -0.354 N 
ATOM     43  C   UNL     1      -4.420  12.286   5.071  1.00  0.00     0.074 A 
ATOM     44  C   UNL     1      -4.771  11.936   3.713  1.00  0.00     0.031 C 
ATOM     45  C   UNL     1      -6.741   7.346   8.477  1.00  0.00     0.029 A 
ATOM     46  C   UNL     1      -6.025   8.514   8.980  1.00  0.00     0.049 A 
ATOM     47  H   UNL     1      -5.327  10.142   7.885  1.00  0.00     0.167 HD
ATOM     48  C   UNL     1      -3.741  13.404   5.420  1.00  0.00     0.037 A 
ATOM     49  C   UNL     1      -5.694   8.738  10.266  1.00  0.00     0.037 A 
ATOM     50  C   UNL     1      -3.441  13.777   6.777  1.00  0.00     0.049 A 
ATOM     51  C   UNL     1      -4.989  10.019  10.628  1.00  0.00     0.074 A 
ATOM     52  C   UNL     1      -2.826  14.927   7.240  1.00  0.00     0.029 A 
ATOM     53  N   UNL     1      -3.744  13.008   7.889  1.00  0.00    -0.354 N 
ATOM     54  N   UNL     1      -4.589  10.995   9.849  1.00  0.00    -0.248 NA
ATOM     55  C   UNL     1      -4.708  10.239  12.054  1.00  0.00     0.031 C 
ATOM     56  C   UNL     1      -2.724  14.838   8.632  1.00  0.00     0.029 A 
ATOM     57  C   UNL     1      -3.318  13.654   9.038  1.00  0.00     0.049 A 
ATOM     58  H   UNL     1      -4.194  12.132   7.867  1.00  0.00     0.167 HD
ATOM     59  C   UNL     1      -4.050  11.958  10.691  1.00  0.00     0.074 A 
ATOM     60  C   UNL     1      -4.186  11.456  12.041  1.00  0.00     0.031 C 
ATOM     61  C   UNL     1      -3.490  13.152  10.375  1.00  0.00     0.037 A 
BRANCH  48  62
ATOM     62  C   UNL     1      -3.281  14.319   4.323  1.00  0.00     0.064 A 
ATOM     63  C   UNL     1      -4.184  15.114   3.601  1.00  0.00     0.173 A 
ATOM     64  C   UNL     1      -1.914  14.453   4.038  1.00  0.00     0.173 A 
ATOM     65  F   UNL     1      -5.502  15.014   3.827  1.00  0.00    -0.203 F 
ATOM     66  C   UNL     1      -3.735  15.999   2.623  1.00  0.00     0.198 A 
ATOM     67  C   UNL     1      -1.467  15.359   3.079  1.00  0.00     0.198 A 
ATOM     68  F   UNL     1      -1.009  13.719   4.703  1.00  0.00    -0.203 F 
ATOM     69  F   UNL     1      -4.618  16.724   1.923  1.00  0.00    -0.200 F 
ATOM     70  C   UNL     1      -2.377  16.128   2.371  1.00  0.00     0.200 A 
ATOM     71  F   UNL     1      -0.154  15.492   2.846  1.00  0.00    -0.200 F 
ATOM     72  F   UNL     1      -1.946  16.993   1.442  1.00  0.00    -0.200 F 
ENDBRANCH  48  62
BRANCH  49  73
ATOM     73  C   UNL     1      -6.049   7.749  11.317  1.00  0.00     0.064 A 
ATOM     74  C   UNL     1      -7.007   8.049  12.297  1.00  0.00     0.173 A 
ATOM     75  C   UNL     1      -5.409   6.504  11.392  1.00  0.00     0.173 A 
ATOM     76  F   UNL     1      -7.634   9.235  12.279  1.00  0.00    -0.203 F 
ATOM     77  C   UNL     1      -7.282   7.159  13.333  1.00  0.00     0.198 A 
ATOM     78  C   UNL     1      -5.707   5.601  12.411  1.00  0.00     0.198 A 
ATOM     79  F   UNL     1      -4.491   6.164  10.475  1.00  0.00    -0.203 F 
ATOM     80  F   UNL     1      -8.153   7.499  14.292  1.00  0.00    -0.200 F 
ATOM     81  C   UNL     1      -6.633   5.935  13.388  1.00  0.00     0.200 A 
ATOM     82  F   UNL     1      -5.088   4.414  12.453  1.00  0.00    -0.200 F 
ATOM     83  F   UNL     1      -6.890   5.083  14.389  1.00  0.00    -0.200 F 
ENDBRANCH  49  73
BRANCH  61  84
ATOM     84  C   UNL     1      -3.045  14.023  11.513  1.00  0.00     0.064 A 
ATOM     85  C   UNL     1      -1.925  13.704  12.295  1.00  0.00     0.173 A 
ATOM     86  C   UNL     1      -3.740  15.205  11.810  1.00  0.00     0.173 A 
ATOM     87  F   UNL     1      -1.235  12.578  12.058  1.00  0.00    -0.203 F 
ATOM     88  C   UNL     1      -1.540  14.517  13.357  1.00  0.00     0.198 A 
ATOM     89  C   UNL     1      -3.333  16.032  12.852  1.00  0.00     0.198 A 
ATOM     90  F   UNL     1      -4.812  15.560  11.086  1.00  0.00    -0.203 F 
ATOM     91  F   UNL     1      -0.502  14.162  14.127  1.00  0.00    -0.200 F 
ATOM     92  C   UNL     1      -2.240  15.682  13.631  1.00  0.00     0.200 A 
ATOM     93  F   UNL     1      -4.002  17.165  13.107  1.00  0.00    -0.200 F 
ATOM     94  F   UNL     1      -1.868  16.464  14.654  1.00  0.00    -0.200 F 
ENDBRANCH  61  84
ENDBRANCH  35  36
ENDBRANCH  27  30
ENDBRANCH  25  26
ENDBRANCH  24  25
ENDBRANCH  23  24
ENDBRANCH  22  23
ENDBRANCH  21  22
ENDBRANCH   1  21
TORSDOF 21
