REMARK SMILES O=C(CCCNC(=O)[C@@H]1CCCN(S(=O)(=O)c2ccc(F)cc2)C1)NCCCCCCNC(=O)c1ccc(-c2c3nc(c(-c4c(F)c(F)c(F)c(F)c4F)c4ccc([nH]4)c(-c4c(F)c(F)c(F)c(F)c4F)c4nc(c(-c5c(F)c(F)c(F)c(F)c5F)c5ccc2[nH]5)C=C4)C=C3)cc1
REMARK SMILES IDX 26 1 25 2 1 3 2 4 3 6 4 7 5 8 6 9 7 10 8 12 9 13 10 14 24 15
REMARK SMILES IDX 11 16 13 17 12 18 14 19 15 20 16 21 17 22 18 23 23 24 19 25
REMARK SMILES IDX 22 26 20 27 21 28 27 29 28 30 29 31 30 32 31 33 32 34 33 35
REMARK SMILES IDX 34 37 35 38 36 39 97 40 37 41 96 42 38 43 39 44 40 45 90 46
REMARK SMILES IDX 41 47 95 48 89 49 91 50 42 51 94 52 88 53 87 54 43 56 75 57
REMARK SMILES IDX 55 58 74 59 56 60 59 61 73 62 92 63 57 64 58 65 72 67 93 68
REMARK SMILES IDX 60 69 44 70 45 71 53 72 46 73 47 74 51 75 54 76 48 77 49 78
REMARK SMILES IDX 52 79 50 80 76 81 77 82 85 83 78 84 79 85 83 86 86 87 80 88
REMARK SMILES IDX 81 89 84 90 82 91 61 92 62 93 70 94 63 95 64 96 68 97 71 98
REMARK SMILES IDX 65 99 66 100 69 101 67 102
REMARK H PARENT 25 5 6 11 32 36 91 55 59 66
REMARK Flexibility Score: inf
ROOT
ATOM      1  C   UNL     1       2.030  -2.156   1.074  1.00  0.00     0.116 C 
ENDROOT
BRANCH   1   2
ATOM      2  N   UNL     1       2.563  -1.160   0.174  1.00  0.00    -0.356 N 
ATOM      3  O   UNL     1       0.858   0.357   0.432  1.00  0.00    -0.275 OA
ATOM      4  C   UNL     1       1.947   0.049  -0.035  1.00  0.00     0.220 C 
ATOM      5  H   UNL     1       3.399  -1.355  -0.308  1.00  0.00     0.163 HD
BRANCH   4   6
ATOM      6  C   UNL     1       2.803   1.017  -0.821  1.00  0.00     0.102 C 
BRANCH   6   7
ATOM      7  C   UNL     1       3.651   1.866   0.125  1.00  0.00     0.031 C 
BRANCH   7   8
ATOM      8  C   UNL     1       4.711   1.095   0.922  1.00  0.00     0.116 C 
BRANCH   8   9
ATOM      9  N   UNL     1       5.777   0.583   0.078  1.00  0.00    -0.356 N 
ATOM     10  C   UNL     1       7.122   0.730   0.020  1.00  0.00     0.224 C 
ATOM     11  H   UNL     1       5.439  -0.018  -0.624  1.00  0.00     0.163 HD
ATOM     12  O   UNL     1       7.663   0.010  -0.832  1.00  0.00    -0.275 OA
BRANCH  10  13
ATOM     13  C   UNL     1       7.991   1.580   0.960  1.00  0.00     0.093 C 
ATOM     14  C   UNL     1       7.402   2.742   1.744  1.00  0.00     0.016 C 
ATOM     15  C   UNL     1       9.198   2.135   0.169  1.00  0.00     0.116 C 
ATOM     16  C   UNL     1       6.902   3.810   0.790  1.00  0.00     0.018 C 
ATOM     17  N   UNL     1       8.811   3.280  -0.738  1.00  0.00    -0.197 NA
ATOM     18  C   UNL     1       8.050   4.359  -0.040  1.00  0.00     0.102 C 
BRANCH  17  19
ATOM     19  S   UNL     1      10.192   3.873  -1.608  1.00  0.00     0.243 S 
ATOM     20  O   UNL     1      10.878   4.818  -0.746  1.00  0.00    -0.207 OA
ATOM     21  O   UNL     1      10.893   2.742  -2.169  1.00  0.00    -0.207 OA
BRANCH  19  22
ATOM     22  C   UNL     1       9.487   4.795  -2.961  1.00  0.00     0.082 A 
ATOM     23  C   UNL     1       8.998   6.090  -2.747  1.00  0.00     0.025 A 
ATOM     24  C   UNL     1       9.507   4.250  -4.251  1.00  0.00     0.025 A 
ATOM     25  C   UNL     1       8.450   6.807  -3.810  1.00  0.00     0.040 A 
ATOM     26  C   UNL     1       8.988   4.987  -5.317  1.00  0.00     0.040 A 
ATOM     27  C   UNL     1       8.450   6.249  -5.085  1.00  0.00     0.123 A 
ATOM     28  F   UNL     1       7.933   6.945  -6.106  1.00  0.00    -0.207 F 
ENDBRANCH  19  22
ENDBRANCH  17  19
ENDBRANCH  10  13
ENDBRANCH   8   9
ENDBRANCH   7   8
ENDBRANCH   6   7
ENDBRANCH   4   6
ENDBRANCH   1   2
BRANCH   1  29
ATOM     29  C   UNL     1       2.668  -3.520   0.829  1.00  0.00     0.021 C 
BRANCH  29  30
ATOM     30  C   UNL     1       4.183  -3.576   1.082  1.00  0.00     0.002 C 
BRANCH  30  31
ATOM     31  C   UNL     1       4.622  -3.321   2.527  1.00  0.00     0.002 C 
BRANCH  31  32
ATOM     32  C   UNL     1       3.998  -4.247   3.572  1.00  0.00     0.021 C 
BRANCH  32  33
ATOM     33  C   UNL     1       4.150  -5.738   3.288  1.00  0.00     0.116 C 
BRANCH  33  34
ATOM     34  N   UNL     1       5.534  -6.179   3.304  1.00  0.00    -0.352 N 
ATOM     35  C   UNL     1       6.071  -7.309   3.871  1.00  0.00     0.251 C 
ATOM     36  H   UNL     1       6.174  -5.588   2.846  1.00  0.00     0.163 HD
ATOM     37  O   UNL     1       7.287  -7.463   3.916  1.00  0.00    -0.269 OA
BRANCH  35  38
ATOM     38  C   UNL     1       5.178  -8.334   4.458  1.00  0.00     0.039 A 
ATOM     39  C   UNL     1       5.501  -8.873   5.707  1.00  0.00     0.014 A 
ATOM     40  C   UNL     1       4.035  -8.770   3.782  1.00  0.00     0.014 A 
ATOM     41  C   UNL     1       4.651  -9.810   6.299  1.00  0.00     0.010 A 
ATOM     42  C   UNL     1       3.153  -9.650   4.404  1.00  0.00     0.010 A 
ATOM     43  C   UNL     1       3.455 -10.186   5.665  1.00  0.00    -0.014 A 
BRANCH  43  44
ATOM     44  C   UNL     1       2.525 -11.162   6.290  1.00  0.00     0.031 A 
ATOM     45  C   UNL     1       2.278 -12.491   5.628  1.00  0.00     0.074 A 
ATOM     46  C   UNL     1       1.873 -10.842   7.425  1.00  0.00     0.049 A 
ATOM     47  N   UNL     1       1.446 -13.444   5.969  1.00  0.00    -0.248 NA
ATOM     48  C   UNL     1       3.052 -12.782   4.409  1.00  0.00     0.031 C 
ATOM     49  C   UNL     1       2.008  -9.578   8.150  1.00  0.00     0.029 A 
ATOM     50  N   UNL     1       0.964 -11.554   8.168  1.00  0.00    -0.354 N 
ATOM     51  C   UNL     1       1.591 -14.434   5.007  1.00  0.00     0.074 A 
ATOM     52  C   UNL     1       2.550 -13.951   4.038  1.00  0.00     0.031 C 
ATOM     53  C   UNL     1       1.234  -9.614   9.247  1.00  0.00     0.029 A 
ATOM     54  C   UNL     1       0.517 -10.886   9.283  1.00  0.00     0.049 A 
ATOM     55  H   UNL     1       0.660 -12.458   7.925  1.00  0.00     0.167 HD
ATOM     56  C   UNL     1       0.999 -15.650   4.953  1.00  0.00     0.037 A 
ATOM     57  C   UNL     1      -0.372 -11.256  10.225  1.00  0.00     0.037 A 
ATOM     58  C   UNL     1       0.074 -16.146   5.937  1.00  0.00     0.049 A 
ATOM     59  C   UNL     1      -1.026 -12.610  10.129  1.00  0.00     0.074 A 
ATOM     60  C   UNL     1      -0.558 -17.377   5.979  1.00  0.00     0.029 A 
ATOM     61  N   UNL     1      -0.339 -15.444   7.058  1.00  0.00    -0.354 N 
ATOM     62  N   UNL     1      -0.856 -13.548   9.230  1.00  0.00    -0.248 NA
ATOM     63  C   UNL     1      -1.991 -12.959  11.182  1.00  0.00     0.031 C 
ATOM     64  C   UNL     1      -1.380 -17.407   7.107  1.00  0.00     0.029 A 
ATOM     65  C   UNL     1      -1.221 -16.216   7.795  1.00  0.00     0.049 A 
ATOM     66  H   UNL     1      -0.049 -14.533   7.294  1.00  0.00     0.167 HD
ATOM     67  C   UNL     1      -1.655 -14.611   9.632  1.00  0.00     0.074 A 
ATOM     68  C   UNL     1      -2.308 -14.205  10.858  1.00  0.00     0.031 C 
ATOM     69  C   UNL     1      -1.831 -15.814   9.036  1.00  0.00     0.037 A 
BRANCH  56  70
ATOM     70  C   UNL     1       1.347 -16.557   3.811  1.00  0.00     0.064 A 
ATOM     71  C   UNL     1       0.393 -16.873   2.832  1.00  0.00     0.173 A 
ATOM     72  C   UNL     1       2.592 -17.201   3.748  1.00  0.00     0.173 A 
ATOM     73  F   UNL     1      -0.815 -16.288   2.852  1.00  0.00    -0.203 F 
ATOM     74  C   UNL     1       0.663 -17.820   1.849  1.00  0.00     0.198 A 
ATOM     75  C   UNL     1       2.868 -18.128   2.747  1.00  0.00     0.198 A 
ATOM     76  F   UNL     1       3.542 -16.923   4.654  1.00  0.00    -0.203 F 
ATOM     77  F   UNL     1      -0.280 -18.140   0.951  1.00  0.00    -0.200 F 
ATOM     78  C   UNL     1       1.899 -18.447   1.808  1.00  0.00     0.200 A 
ATOM     79  F   UNL     1       4.070 -18.718   2.696  1.00  0.00    -0.200 F 
ATOM     80  F   UNL     1       2.156 -19.363   0.863  1.00  0.00    -0.200 F 
ENDBRANCH  56  70
BRANCH  57  81
ATOM     81  C   UNL     1      -0.676 -10.350  11.365  1.00  0.00     0.064 A 
ATOM     82  C   UNL     1      -1.373  -9.147  11.182  1.00  0.00     0.173 A 
ATOM     83  C   UNL     1      -0.286 -10.684  12.670  1.00  0.00     0.173 A 
ATOM     84  F   UNL     1      -1.766  -8.778   9.954  1.00  0.00    -0.203 F 
ATOM     85  C   UNL     1      -1.663  -8.311  12.259  1.00  0.00     0.198 A 
ATOM     86  C   UNL     1      -0.603  -9.863  13.751  1.00  0.00     0.198 A 
ATOM     87  F   UNL     1       0.364 -11.834  12.900  1.00  0.00    -0.203 F 
ATOM     88  F   UNL     1      -2.311  -7.156  12.054  1.00  0.00    -0.200 F 
ATOM     89  C   UNL     1      -1.286  -8.675  13.544  1.00  0.00     0.200 A 
ATOM     90  F   UNL     1      -0.264 -10.233  14.993  1.00  0.00    -0.200 F 
ATOM     91  F   UNL     1      -1.590  -7.884  14.582  1.00  0.00    -0.200 F 
ENDBRANCH  57  81
BRANCH  69  92
ATOM     92  C   UNL     1      -2.712 -16.816   9.722  1.00  0.00     0.064 A 
ATOM     93  C   UNL     1      -2.155 -17.977  10.282  1.00  0.00     0.173 A 
ATOM     94  C   UNL     1      -4.106 -16.677   9.748  1.00  0.00     0.173 A 
ATOM     95  F   UNL     1      -0.826 -18.162  10.271  1.00  0.00    -0.203 F 
ATOM     96  C   UNL     1      -2.963 -18.968  10.828  1.00  0.00     0.198 A 
ATOM     97  C   UNL     1      -4.911 -17.657  10.323  1.00  0.00     0.198 A 
ATOM     98  F   UNL     1      -4.685 -15.581   9.235  1.00  0.00    -0.203 F 
ATOM     99  F   UNL     1      -2.411 -20.085  11.322  1.00  0.00    -0.200 F 
ATOM    100  C   UNL     1      -4.340 -18.806  10.852  1.00  0.00     0.200 A 
ATOM    101  F   UNL     1      -6.239 -17.490  10.366  1.00  0.00    -0.200 F 
ATOM    102  F   UNL     1      -5.118 -19.758  11.386  1.00  0.00    -0.200 F 
ENDBRANCH  69  92
ENDBRANCH  43  44
ENDBRANCH  35  38
ENDBRANCH  33  34
ENDBRANCH  32  33
ENDBRANCH  31  32
ENDBRANCH  30  31
ENDBRANCH  29  30
ENDBRANCH   1  29
TORSDOF 19
