REMARK SMILES Cc1ncccc1NC(=O)Nc1ccc(C(=O)NCCCCCCNC(=O)c2ccc(-c3c4nc(c(-c5c(F)c(F)c(F)c(F)c5F)c5ccc([nH]5)c(-c5c(F)c(F)c(F)c(F)c5F)c5nc(c(-c6c(F)c(F)c(F)c(F)c6F)c6ccc3[nH]6)C=C5)C=C4)cc2)c(O)c1
REMARK SMILES IDX 21 1 20 2 19 3 18 4 16 5 17 6 15 8 12 9 13 10 93 11 14 12
REMARK SMILES IDX 91 13 11 14 8 15 9 16 10 18 7 20 1 21 2 22 3 23 4 24 6 25
REMARK SMILES IDX 5 26 92 27 22 29 23 30 24 31 25 32 26 33 27 35 28 36 29 37
REMARK SMILES IDX 90 38 30 39 89 40 31 41 32 42 33 43 83 44 34 45 88 46 82 47
REMARK SMILES IDX 84 48 35 49 87 50 81 51 80 52 36 54 68 55 48 56 67 57 49 58
REMARK SMILES IDX 52 59 66 60 85 61 50 62 51 63 65 65 86 66 53 67 37 68 38 69
REMARK SMILES IDX 46 70 39 71 40 72 44 73 47 74 41 75 42 76 45 77 43 78 69 79
REMARK SMILES IDX 70 80 78 81 71 82 72 83 76 84 79 85 73 86 74 87 77 88 75 89
REMARK SMILES IDX 54 90 55 91 63 92 56 93 57 94 61 95 64 96 58 97 59 98 62 99
REMARK SMILES IDX 60 100
REMARK H PARENT 18 7 8 17 11 19 92 28 25 34 84 53 52 64
REMARK Flexibility Score: inf
ROOT
ATOM      1  C   UNL     1      -6.441   2.756   3.121  1.00  0.00     0.002 C 
ENDROOT
BRANCH   1   2
ATOM      2  C   UNL     1      -5.338   1.691   3.158  1.00  0.00     0.021 C 
BRANCH   2   3
ATOM      3  C   UNL     1      -5.279   0.709   1.987  1.00  0.00     0.116 C 
BRANCH   3   4
ATOM      4  N   UNL     1      -5.164   1.325   0.677  1.00  0.00    -0.352 N 
ATOM      5  C   UNL     1      -4.678   0.834  -0.516  1.00  0.00     0.255 C 
ATOM      6  O   UNL     1      -4.735   1.557  -1.509  1.00  0.00    -0.269 OA
ATOM      7  H   UNL     1      -5.490   2.253   0.633  1.00  0.00     0.163 HD
BRANCH   5   8
ATOM      8  C   UNL     1      -4.005  -0.488  -0.623  1.00  0.00     0.081 A 
ATOM      9  C   UNL     1      -2.252  -2.662  -0.447  1.00  0.00     0.046 A 
ATOM     10  C   UNL     1      -1.971  -1.622  -1.329  1.00  0.00     0.027 A 
ATOM     11  C   UNL     1      -3.520  -2.739   0.134  1.00  0.00     0.073 A 
ATOM     12  C   UNL     1      -2.836  -0.525  -1.400  1.00  0.00     0.020 A 
ATOM     13  C   UNL     1      -4.398  -1.658   0.031  1.00  0.00     0.130 A 
BRANCH   9  14
ATOM     14  N   UNL     1      -1.293  -3.601  -0.038  1.00  0.00    -0.308 N 
ATOM     15  N   UNL     1       0.787  -2.413   0.109  1.00  0.00    -0.306 N 
ATOM     16  C   UNL     1       0.058  -3.553   0.030  1.00  0.00     0.323 C 
ATOM     17  H   UNL     1       1.726  -2.542  -0.158  1.00  0.00     0.171 HD
ATOM     18  O   UNL     1       0.674  -4.624   0.037  1.00  0.00    -0.248 OA
ATOM     19  H   UNL     1      -1.676  -4.458   0.257  1.00  0.00     0.171 HD
BRANCH  15  20
ATOM     20  C   UNL     1       0.502  -1.081   0.488  1.00  0.00     0.064 A 
ATOM     21  C   UNL     1       2.727  -0.196  -0.439  1.00  0.00     0.069 C 
ATOM     22  C   UNL     1       1.336  -0.021   0.097  1.00  0.00     0.061 A 
ATOM     23  N   UNL     1       0.969   1.285   0.226  1.00  0.00    -0.259 NA
ATOM     24  C   UNL     1      -0.212   1.557   0.814  1.00  0.00     0.111 A 
ATOM     25  C   UNL     1      -0.622  -0.744   1.244  1.00  0.00     0.030 A 
ATOM     26  C   UNL     1      -1.009   0.588   1.381  1.00  0.00     0.022 A 
ENDBRANCH  15  20
ENDBRANCH   9  14
BRANCH  13  27
ATOM     27  O   UNL     1      -5.623  -1.828   0.611  1.00  0.00    -0.507 OA
ATOM     28  H   UNL     1      -6.258  -1.139   0.576  1.00  0.00     0.293 HD
ENDBRANCH  13  27
ENDBRANCH   5   8
ENDBRANCH   3   4
ENDBRANCH   2   3
ENDBRANCH   1   2
BRANCH   1  29
ATOM     29  C   UNL     1      -7.860   2.284   2.794  1.00  0.00     0.002 C 
BRANCH  29  30
ATOM     30  C   UNL     1      -8.431   1.159   3.659  1.00  0.00     0.021 C 
BRANCH  30  31
ATOM     31  C   UNL     1      -8.403   1.386   5.165  1.00  0.00     0.116 C 
BRANCH  31  32
ATOM     32  N   UNL     1      -9.158   2.554   5.580  1.00  0.00    -0.352 N 
ATOM     33  C   UNL     1     -10.112   2.694   6.558  1.00  0.00     0.251 C 
ATOM     34  H   UNL     1      -8.954   3.377   5.080  1.00  0.00     0.163 HD
ATOM     35  O   UNL     1     -10.721   3.755   6.657  1.00  0.00    -0.269 OA
BRANCH  33  36
ATOM     36  C   UNL     1     -10.434   1.582   7.485  1.00  0.00     0.039 A 
ATOM     37  C   UNL     1     -11.769   1.402   7.864  1.00  0.00     0.014 A 
ATOM     38  C   UNL     1      -9.447   0.756   8.028  1.00  0.00     0.014 A 
ATOM     39  C   UNL     1     -12.113   0.383   8.755  1.00  0.00     0.010 A 
ATOM     40  C   UNL     1      -9.801  -0.314   8.851  1.00  0.00     0.010 A 
ATOM     41  C   UNL     1     -11.135  -0.498   9.243  1.00  0.00    -0.014 A 
BRANCH  41  42
ATOM     42  C   UNL     1     -11.499  -1.586  10.189  1.00  0.00     0.031 A 
ATOM     43  C   UNL     1     -10.961  -1.589  11.594  1.00  0.00     0.074 A 
ATOM     44  C   UNL     1     -12.296  -2.590   9.776  1.00  0.00     0.049 A 
ATOM     45  N   UNL     1     -11.180  -2.441  12.566  1.00  0.00    -0.248 NA
ATOM     46  C   UNL     1     -10.028  -0.509  11.947  1.00  0.00     0.031 C 
ATOM     47  C   UNL     1     -12.834  -2.739   8.424  1.00  0.00     0.029 A 
ATOM     48  N   UNL     1     -12.793  -3.676  10.453  1.00  0.00    -0.354 N 
ATOM     49  C   UNL     1     -10.405  -2.006  13.634  1.00  0.00     0.074 A 
ATOM     50  C   UNL     1      -9.662  -0.854  13.172  1.00  0.00     0.031 C 
ATOM     51  C   UNL     1     -13.609  -3.834   8.377  1.00  0.00     0.029 A 
ATOM     52  C   UNL     1     -13.601  -4.479   9.687  1.00  0.00     0.049 A 
ATOM     53  H   UNL     1     -12.588  -3.862  11.398  1.00  0.00     0.167 HD
ATOM     54  C   UNL     1     -10.338  -2.503  14.893  1.00  0.00     0.037 A 
ATOM     55  C   UNL     1     -14.267  -5.606  10.005  1.00  0.00     0.037 A 
ATOM     56  C   UNL     1     -11.095  -3.639  15.355  1.00  0.00     0.049 A 
ATOM     57  C   UNL     1     -14.201  -6.125  11.416  1.00  0.00     0.074 A 
ATOM     58  C   UNL     1     -11.149  -4.183  16.627  1.00  0.00     0.029 A 
ATOM     59  N   UNL     1     -11.927  -4.411  14.557  1.00  0.00    -0.354 N 
ATOM     60  N   UNL     1     -13.532  -5.656  12.441  1.00  0.00    -0.248 NA
ATOM     61  C   UNL     1     -15.002  -7.319  11.717  1.00  0.00     0.031 C 
ATOM     62  C   UNL     1     -11.969  -5.316  16.585  1.00  0.00     0.029 A 
ATOM     63  C   UNL     1     -12.480  -5.441  15.303  1.00  0.00     0.049 A 
ATOM     64  H   UNL     1     -12.099  -4.251  13.601  1.00  0.00     0.167 HD
ATOM     65  C   UNL     1     -13.852  -6.477  13.514  1.00  0.00     0.074 A 
ATOM     66  C   UNL     1     -14.791  -7.462  13.017  1.00  0.00     0.031 C 
ATOM     67  C   UNL     1     -13.411  -6.419  14.796  1.00  0.00     0.037 A 
BRANCH  54  68
ATOM     68  C   UNL     1      -9.404  -1.823  15.856  1.00  0.00     0.064 A 
ATOM     69  C   UNL     1      -9.634  -0.516  16.314  1.00  0.00     0.173 A 
ATOM     70  C   UNL     1      -8.267  -2.491  16.336  1.00  0.00     0.173 A 
ATOM     71  F   UNL     1     -10.700   0.174  15.881  1.00  0.00    -0.203 F 
ATOM     72  C   UNL     1      -8.738   0.112  17.176  1.00  0.00     0.198 A 
ATOM     73  C   UNL     1      -7.393  -1.874  17.227  1.00  0.00     0.198 A 
ATOM     74  F   UNL     1      -8.000  -3.745  15.939  1.00  0.00    -0.203 F 
ATOM     75  F   UNL     1      -8.943   1.385  17.543  1.00  0.00    -0.200 F 
ATOM     76  C   UNL     1      -7.621  -0.569  17.636  1.00  0.00     0.200 A 
ATOM     77  F   UNL     1      -6.322  -2.539  17.683  1.00  0.00    -0.200 F 
ATOM     78  F   UNL     1      -6.760   0.036  18.466  1.00  0.00    -0.200 F 
ENDBRANCH  54  68
BRANCH  55  79
ATOM     79  C   UNL     1     -15.089  -6.290   8.973  1.00  0.00     0.064 A 
ATOM     80  C   UNL     1     -16.489  -6.283   9.043  1.00  0.00     0.173 A 
ATOM     81  C   UNL     1     -14.493  -6.950   7.889  1.00  0.00     0.173 A 
ATOM     82  F   UNL     1     -17.105  -5.681  10.071  1.00  0.00    -0.203 F 
ATOM     83  C   UNL     1     -17.262  -6.925   8.077  1.00  0.00     0.198 A 
ATOM     84  C   UNL     1     -15.267  -7.566   6.907  1.00  0.00     0.198 A 
ATOM     85  F   UNL     1     -13.158  -6.978   7.772  1.00  0.00    -0.203 F 
ATOM     86  F   UNL     1     -18.597  -6.939   8.191  1.00  0.00    -0.200 F 
ATOM     87  C   UNL     1     -16.650  -7.559   7.006  1.00  0.00     0.200 A 
ATOM     88  F   UNL     1     -14.673  -8.162   5.865  1.00  0.00    -0.200 F 
ATOM     89  F   UNL     1     -17.393  -8.167   6.072  1.00  0.00    -0.200 F 
ENDBRANCH  55  79
BRANCH  67  90
ATOM     90  C   UNL     1     -13.971  -7.428  15.760  1.00  0.00     0.064 A 
ATOM     91  C   UNL     1     -13.658  -8.793  15.670  1.00  0.00     0.173 A 
ATOM     92  C   UNL     1     -14.829  -7.020  16.793  1.00  0.00     0.173 A 
ATOM     93  F   UNL     1     -12.852  -9.239  14.694  1.00  0.00    -0.203 F 
ATOM     94  C   UNL     1     -14.219  -9.716  16.550  1.00  0.00     0.198 A 
ATOM     95  C   UNL     1     -15.358  -7.940  17.693  1.00  0.00     0.198 A 
ATOM     96  F   UNL     1     -15.153  -5.726  16.932  1.00  0.00    -0.203 F 
ATOM     97  F   UNL     1     -13.960 -11.023  16.402  1.00  0.00    -0.200 F 
ATOM     98  C   UNL     1     -15.064  -9.289  17.563  1.00  0.00     0.200 A 
ATOM     99  F   UNL     1     -16.161  -7.523  18.681  1.00  0.00    -0.200 F 
ATOM    100  F   UNL     1     -15.604 -10.178  18.407  1.00  0.00    -0.200 F 
ENDBRANCH  67  90
ENDBRANCH  41  42
ENDBRANCH  33  36
ENDBRANCH  31  32
ENDBRANCH  30  31
ENDBRANCH  29  30
ENDBRANCH   1  29
TORSDOF 16
