REMARK SMILES CCCc1cc(OC(F)(F)F)cc2c1O[C@@H](C(F)(F)F)C(C(=O)NCCCCCCNC(=O)c1ccc(-c3c4nc(c(-c5c(F)c(F)c(F)c(F)c5F)c5ccc([nH]5)c(-c5c(F)c(F)c(F)c(F)c5F)c5nc(c(-c6c(F)c(F)c(F)c(F)c6F)c6ccc3[nH]6)C=C5)C=C4)cc1)=C2
REMARK SMILES IDX 27 1 26 2 25 3 24 4 22 5 23 6 21 8 4 9 5 10 14 11 6 12 13 13
REMARK SMILES IDX 15 14 12 15 97 16 16 17 3 18 2 19 1 20 7 21 8 22 9 23 10 24
REMARK SMILES IDX 11 25 17 26 18 27 19 28 20 29 28 30 29 31 30 32 31 33 32 34
REMARK SMILES IDX 33 36 34 37 35 38 96 39 36 40 95 41 37 42 38 43 39 44 89 45
REMARK SMILES IDX 40 46 94 47 88 48 90 49 41 50 93 51 87 52 86 53 42 55 74 56
REMARK SMILES IDX 54 57 73 58 55 59 58 60 72 61 91 62 56 63 57 64 71 66 92 67
REMARK SMILES IDX 59 68 43 69 44 70 52 71 45 72 46 73 50 74 53 75 47 76 48 77
REMARK SMILES IDX 51 78 49 79 75 80 76 81 84 82 77 83 78 84 82 85 85 86 79 87
REMARK SMILES IDX 80 88 83 89 81 90 60 91 61 92 69 93 62 94 63 95 67 96 70 97
REMARK SMILES IDX 64 98 65 99 68 100 66 101
REMARK H PARENT 24 7 31 35 90 54 58 65
REMARK Flexibility Score: inf
ROOT
ATOM      1  C   UNL     1      -2.518  -3.734  10.098  1.00  0.00     0.002 C 
ENDROOT
BRANCH   1   2
ATOM      2  C   UNL     1      -1.993  -3.039   8.834  1.00  0.00     0.021 C 
BRANCH   2   3
ATOM      3  C   UNL     1      -0.802  -3.770   8.199  1.00  0.00     0.116 C 
BRANCH   3   4
ATOM      4  N   UNL     1      -1.288  -4.912   7.441  1.00  0.00    -0.352 N 
ATOM      5  C   UNL     1      -1.632  -5.074   6.135  1.00  0.00     0.251 C 
ATOM      6  O   UNL     1      -2.235  -6.096   5.819  1.00  0.00    -0.270 OA
ATOM      7  H   UNL     1      -1.387  -5.729   7.980  1.00  0.00     0.163 HD
BRANCH   5   8
ATOM      8  C   UNL     1      -1.217  -4.117   5.076  1.00  0.00     0.067 C 
ATOM      9  C   UNL     1       0.616  -1.682   2.177  1.00  0.00    -0.002 A 
ATOM     10  C   UNL     1       0.844  -0.333   2.509  1.00  0.00     0.054 A 
ATOM     11  C   UNL     1      -0.082  -2.491   3.090  1.00  0.00     0.131 A 
ATOM     12  C   UNL     1       0.311   0.231   3.665  1.00  0.00     0.130 A 
ATOM     13  C   UNL     1      -0.591  -1.940   4.267  1.00  0.00     0.021 A 
ATOM     14  O   UNL     1      -0.164  -3.826   2.820  1.00  0.00    -0.475 OA
ATOM     15  C   UNL     1      -0.407  -0.580   4.541  1.00  0.00     0.058 A 
ATOM     16  C   UNL     1      -1.198  -2.794   5.274  1.00  0.00     0.025 C 
ATOM     17  C   UNL     1      -0.937  -4.699   3.695  1.00  0.00     0.314 C 
BRANCH   9  18
ATOM     18  C   UNL     1       1.165  -2.222   0.872  1.00  0.00     0.039 C 
BRANCH  18  19
ATOM     19  C   UNL     1       0.494  -1.656  -0.391  1.00  0.00     0.001 C 
ATOM     20  C   UNL     1       0.885  -0.224  -0.737  1.00  0.00     0.004 C 
ENDBRANCH  18  19
ENDBRANCH   9  18
BRANCH  12  21
ATOM     21  O   UNL     1       0.453   1.528   4.067  1.00  0.00    -0.406 OA
BRANCH  21  22
ATOM     22  C   UNL     1       0.857   2.469   3.084  1.00  0.00     0.573 C 
ATOM     23  F   UNL     1       2.142   2.270   2.723  1.00  0.00    -0.132 F 
ATOM     24  F   UNL     1       0.065   2.410   1.993  1.00  0.00    -0.132 F 
ATOM     25  F   UNL     1       0.757   3.710   3.609  1.00  0.00    -0.132 F 
ENDBRANCH  21  22
ENDBRANCH  12  21
BRANCH  17  26
ATOM     26  C   UNL     1      -0.277  -6.098   3.648  1.00  0.00     0.429 C 
ATOM     27  F   UNL     1      -1.169  -7.104   3.784  1.00  0.00    -0.167 F 
ATOM     28  F   UNL     1       0.323  -6.310   2.445  1.00  0.00    -0.167 F 
ATOM     29  F   UNL     1       0.680  -6.249   4.593  1.00  0.00    -0.167 F 
ENDBRANCH  17  26
ENDBRANCH   5   8
ENDBRANCH   3   4
ENDBRANCH   2   3
ENDBRANCH   1   2
BRANCH   1  30
ATOM     30  C   UNL     1      -1.534  -3.749  11.274  1.00  0.00     0.002 C 
BRANCH  30  31
ATOM     31  C   UNL     1      -1.025  -2.370  11.703  1.00  0.00     0.021 C 
BRANCH  31  32
ATOM     32  C   UNL     1      -2.120  -1.417  12.170  1.00  0.00     0.116 C 
BRANCH  32  33
ATOM     33  N   UNL     1      -2.756  -1.888  13.391  1.00  0.00    -0.352 N 
ATOM     34  C   UNL     1      -2.856  -1.267  14.607  1.00  0.00     0.251 C 
ATOM     35  H   UNL     1      -3.172  -2.779  13.336  1.00  0.00     0.163 HD
ATOM     36  O   UNL     1      -3.211  -1.902  15.602  1.00  0.00    -0.269 OA
BRANCH  34  37
ATOM     37  C   UNL     1      -2.528   0.166  14.732  1.00  0.00     0.039 A 
ATOM     38  C   UNL     1      -1.756   0.596  15.814  1.00  0.00     0.014 A 
ATOM     39  C   UNL     1      -2.995   1.087  13.789  1.00  0.00     0.014 A 
ATOM     40  C   UNL     1      -1.409   1.944  15.921  1.00  0.00     0.010 A 
ATOM     41  C   UNL     1      -2.588   2.415  13.857  1.00  0.00     0.010 A 
ATOM     42  C   UNL     1      -1.797   2.858  14.928  1.00  0.00    -0.014 A 
BRANCH  42  43
ATOM     43  C   UNL     1      -1.389   4.284  14.996  1.00  0.00     0.031 A 
ATOM     44  C   UNL     1      -2.428   5.359  15.154  1.00  0.00     0.074 A 
ATOM     45  C   UNL     1      -0.091   4.612  14.854  1.00  0.00     0.049 A 
ATOM     46  N   UNL     1      -2.278   6.660  15.169  1.00  0.00    -0.248 NA
ATOM     47  C   UNL     1      -3.825   4.915  15.284  1.00  0.00     0.031 C 
ATOM     48  C   UNL     1       1.003   3.661  14.649  1.00  0.00     0.029 A 
ATOM     49  N   UNL     1       0.528   5.836  14.850  1.00  0.00    -0.354 N 
ATOM     50  C   UNL     1      -3.557   7.185  15.298  1.00  0.00     0.074 A 
ATOM     51  C   UNL     1      -4.476   6.068  15.299  1.00  0.00     0.031 C 
ATOM     52  C   UNL     1       2.160   4.335  14.561  1.00  0.00     0.029 A 
ATOM     53  C   UNL     1       1.887   5.765  14.664  1.00  0.00     0.049 A 
ATOM     54  H   UNL     1       0.044   6.685  14.969  1.00  0.00     0.167 HD
ATOM     55  C   UNL     1      -3.928   8.481  15.428  1.00  0.00     0.037 A 
ATOM     56  C   UNL     1       2.807   6.745  14.578  1.00  0.00     0.037 A 
ATOM     57  C   UNL     1      -3.007   9.587  15.449  1.00  0.00     0.049 A 
ATOM     58  C   UNL     1       2.367   8.177  14.714  1.00  0.00     0.074 A 
ATOM     59  C   UNL     1      -3.276  10.931  15.638  1.00  0.00     0.029 A 
ATOM     60  N   UNL     1      -1.635   9.475  15.270  1.00  0.00    -0.354 N 
ATOM     61  N   UNL     1       1.163   8.659  14.908  1.00  0.00    -0.248 NA
ATOM     62  C   UNL     1       3.415   9.203  14.624  1.00  0.00     0.031 C 
ATOM     63  C   UNL     1      -2.075  11.638  15.522  1.00  0.00     0.029 A 
ATOM     64  C   UNL     1      -1.048  10.730  15.317  1.00  0.00     0.049 A 
ATOM     65  H   UNL     1      -1.151   8.630  15.130  1.00  0.00     0.167 HD
ATOM     66  C   UNL     1       1.311  10.036  14.991  1.00  0.00     0.074 A 
ATOM     67  C   UNL     1       2.725  10.313  14.843  1.00  0.00     0.031 C 
ATOM     68  C   UNL     1       0.362  10.987  15.173  1.00  0.00     0.037 A 
BRANCH  55  69
ATOM     69  C   UNL     1      -5.395   8.775  15.561  1.00  0.00     0.064 A 
ATOM     70  C   UNL     1      -6.117   8.417  16.710  1.00  0.00     0.173 A 
ATOM     71  C   UNL     1      -6.080   9.455  14.543  1.00  0.00     0.173 A 
ATOM     72  F   UNL     1      -5.513   7.756  17.709  1.00  0.00    -0.203 F 
ATOM     73  C   UNL     1      -7.476   8.701  16.821  1.00  0.00     0.198 A 
ATOM     74  C   UNL     1      -7.432   9.766  14.671  1.00  0.00     0.198 A 
ATOM     75  F   UNL     1      -5.438   9.825  13.425  1.00  0.00    -0.203 F 
ATOM     76  F   UNL     1      -8.155   8.303  17.905  1.00  0.00    -0.200 F 
ATOM     77  C   UNL     1      -8.130   9.382  15.805  1.00  0.00     0.200 A 
ATOM     78  F   UNL     1      -8.059  10.436  13.694  1.00  0.00    -0.200 F 
ATOM     79  F   UNL     1      -9.436   9.661  15.917  1.00  0.00    -0.200 F 
ENDBRANCH  55  69
BRANCH  56  80
ATOM     80  C   UNL     1       4.239   6.403  14.373  1.00  0.00     0.064 A 
ATOM     81  C   UNL     1       5.183   6.618  15.387  1.00  0.00     0.173 A 
ATOM     82  C   UNL     1       4.696   5.862  13.162  1.00  0.00     0.173 A 
ATOM     83  F   UNL     1       4.799   7.151  16.556  1.00  0.00    -0.203 F 
ATOM     84  C   UNL     1       6.531   6.326  15.191  1.00  0.00     0.198 A 
ATOM     85  C   UNL     1       6.039   5.543  12.977  1.00  0.00     0.198 A 
ATOM     86  F   UNL     1       3.833   5.631  12.162  1.00  0.00    -0.203 F 
ATOM     87  F   UNL     1       7.419   6.587  16.160  1.00  0.00    -0.200 F 
ATOM     88  C   UNL     1       6.957   5.784  13.988  1.00  0.00     0.200 A 
ATOM     89  F   UNL     1       6.444   5.003  11.819  1.00  0.00    -0.200 F 
ATOM     90  F   UNL     1       8.253   5.500  13.800  1.00  0.00    -0.200 F 
ENDBRANCH  56  80
BRANCH  68  91
ATOM     91  C   UNL     1       0.824  12.414  15.253  1.00  0.00     0.064 A 
ATOM     92  C   UNL     1       1.295  13.100  14.124  1.00  0.00     0.173 A 
ATOM     93  C   UNL     1       0.755  13.114  16.467  1.00  0.00     0.173 A 
ATOM     94  F   UNL     1       1.394  12.471  12.944  1.00  0.00    -0.203 F 
ATOM     95  C   UNL     1       1.705  14.428  14.214  1.00  0.00     0.198 A 
ATOM     96  C   UNL     1       1.135  14.451  16.546  1.00  0.00     0.198 A 
ATOM     97  F   UNL     1       0.305  12.506  17.575  1.00  0.00    -0.203 F 
ATOM     98  F   UNL     1       2.198  15.049  13.134  1.00  0.00    -0.200 F 
ATOM     99  C   UNL     1       1.617  15.104  15.422  1.00  0.00     0.200 A 
ATOM    100  F   UNL     1       1.036  15.107  17.710  1.00  0.00    -0.200 F 
ATOM    101  F   UNL     1       2.004  16.384  15.504  1.00  0.00    -0.200 F 
ENDBRANCH  68  91
ENDBRANCH  42  43
ENDBRANCH  34  37
ENDBRANCH  32  33
ENDBRANCH  31  32
ENDBRANCH  30  31
ENDBRANCH   1  30
TORSDOF 18
