REMARK SMILES C#Cc1cccc(N(C)S(=O)(=O)c2cc(F)c(F)c(C(=O)NCCCCCCNC(=O)c3ccc(-c4c5nc(c(-c6c(F)c(F)c(F)c(F)c6F)c6ccc([nH]6)c(-c6c(F)c(F)c(F)c(F)c6F)c6nc(c(-c7c(F)c(F)c(F)c(F)c7F)c7ccc4[nH]7)C=C6)C=C5)cc3)c2)c1
REMARK SMILES IDX 24 1 23 2 22 3 20 4 21 5 19 7 13 8 14 9 95 10 15 11 16 12
REMARK SMILES IDX 17 13 18 14 10 15 11 16 12 17 8 18 9 19 7 20 3 21 4 22 96 23
REMARK SMILES IDX 5 24 6 25 2 26 1 27 25 28 26 29 27 30 28 31 29 32 30 33
REMARK SMILES IDX 31 35 32 36 33 37 94 38 34 39 93 40 35 41 36 42 37 43 87 44
REMARK SMILES IDX 38 45 92 46 86 47 88 48 39 49 91 50 85 51 84 52 40 54 72 55
REMARK SMILES IDX 52 56 71 57 53 58 56 59 70 60 89 61 54 62 55 63 69 65 90 66
REMARK SMILES IDX 57 67 41 68 42 69 50 70 43 71 44 72 48 73 51 74 45 75 46 76
REMARK SMILES IDX 49 77 47 78 73 79 74 80 82 81 75 82 76 83 80 84 83 85 77 86
REMARK SMILES IDX 78 87 81 88 79 89 58 90 59 91 67 92 60 93 61 94 65 95 68 96
REMARK SMILES IDX 62 97 63 98 66 99 64 100
REMARK H PARENT 22 6 29 34 88 53 56 64
REMARK Flexibility Score: inf
ROOT
ATOM      1  C   UNL     1       6.880  -2.706   1.393  1.00  0.00     0.021 C 
ENDROOT
BRANCH   1   2
ATOM      2  C   UNL     1       6.341  -3.548   0.246  1.00  0.00     0.116 C 
BRANCH   2   3
ATOM      3  N   UNL     1       6.934  -4.828  -0.018  1.00  0.00    -0.352 N 
ATOM      4  C   UNL     1       6.313  -6.018  -0.367  1.00  0.00     0.254 C 
ATOM      5  O   UNL     1       7.039  -6.975  -0.622  1.00  0.00    -0.269 OA
ATOM      6  H   UNL     1       7.915  -4.867   0.059  1.00  0.00     0.163 HD
BRANCH   4   7
ATOM      7  C   UNL     1       4.816  -6.187  -0.378  1.00  0.00     0.079 A 
ATOM      8  C   UNL     1       2.530  -5.306  -0.404  1.00  0.00     0.091 A 
ATOM      9  C   UNL     1       2.055  -6.556   0.017  1.00  0.00     0.064 A 
ATOM     10  C   UNL     1       3.893  -5.164  -0.711  1.00  0.00     0.039 A 
ATOM     11  C   UNL     1       2.941  -7.616   0.176  1.00  0.00     0.161 A 
ATOM     12  F   UNL     1       2.464  -8.815   0.539  1.00  0.00    -0.204 F 
ATOM     13  C   UNL     1       4.311  -7.432   0.022  1.00  0.00     0.171 A 
ATOM     14  F   UNL     1       5.122  -8.464   0.300  1.00  0.00    -0.203 F 
BRANCH   8  15
ATOM     15  S   UNL     1       1.329  -3.951  -0.326  1.00  0.00     0.264 S 
ATOM     16  O   UNL     1       0.726  -4.090   0.987  1.00  0.00    -0.201 OA
ATOM     17  O   UNL     1       0.535  -4.070  -1.529  1.00  0.00    -0.201 OA
BRANCH  15  18
ATOM     18  N   UNL     1       2.107  -2.410  -0.343  1.00  0.00    -0.269 N 
ATOM     19  C   UNL     1       3.352  -2.303   0.426  1.00  0.00     0.164 C 
BRANCH  18  20
ATOM     20  C   UNL     1       1.266  -1.198  -0.240  1.00  0.00     0.053 A 
ATOM     21  C   UNL     1      -0.851  -0.001  -0.048  1.00  0.00     0.026 A 
ATOM     22  C   UNL     1      -0.186   1.227  -0.024  1.00  0.00     0.017 A 
ATOM     23  C   UNL     1      -0.131  -1.205  -0.150  1.00  0.00     0.044 A 
ATOM     24  C   UNL     1       1.196   1.260  -0.130  1.00  0.00     0.003 A 
ATOM     25  C   UNL     1       1.904   0.063  -0.269  1.00  0.00     0.027 A 
BRANCH  21  26
ATOM     26  C   UNL     1      -2.279  -0.014   0.013  1.00  0.00    -0.070 C 
ATOM     27  C   UNL     1      -3.482   0.004   0.045  1.00  0.00     0.010 C 
ENDBRANCH  21  26
ENDBRANCH  18  20
ENDBRANCH  15  18
ENDBRANCH   8  15
ENDBRANCH   4   7
ENDBRANCH   2   3
ENDBRANCH   1   2
BRANCH   1  28
ATOM     28  C   UNL     1       8.168  -1.937   1.135  1.00  0.00     0.002 C 
BRANCH  28  29
ATOM     29  C   UNL     1       8.172  -1.018  -0.091  1.00  0.00     0.002 C 
BRANCH  29  30
ATOM     30  C   UNL     1       7.063   0.038  -0.159  1.00  0.00     0.021 C 
BRANCH  30  31
ATOM     31  C   UNL     1       6.979   0.984   1.036  1.00  0.00     0.116 C 
BRANCH  31  32
ATOM     32  N   UNL     1       8.220   1.708   1.259  1.00  0.00    -0.352 N 
ATOM     33  C   UNL     1       8.461   3.058   1.302  1.00  0.00     0.251 C 
ATOM     34  H   UNL     1       9.012   1.140   1.400  1.00  0.00     0.163 HD
ATOM     35  O   UNL     1       9.615   3.475   1.291  1.00  0.00    -0.269 OA
BRANCH  33  36
ATOM     36  C   UNL     1       7.337   4.017   1.348  1.00  0.00     0.039 A 
ATOM     37  C   UNL     1       7.409   5.180   0.576  1.00  0.00     0.014 A 
ATOM     38  C   UNL     1       6.227   3.789   2.166  1.00  0.00     0.014 A 
ATOM     39  C   UNL     1       6.343   6.081   0.580  1.00  0.00     0.010 A 
ATOM     40  C   UNL     1       5.131   4.645   2.105  1.00  0.00     0.010 A 
ATOM     41  C   UNL     1       5.178   5.802   1.313  1.00  0.00    -0.014 A 
BRANCH  41  42
ATOM     42  C   UNL     1       3.998   6.705   1.254  1.00  0.00     0.031 A 
ATOM     43  C   UNL     1       3.510   7.401   2.495  1.00  0.00     0.074 A 
ATOM     44  C   UNL     1       3.340   6.860   0.088  1.00  0.00     0.049 A 
ATOM     45  N   UNL     1       2.468   8.178   2.650  1.00  0.00    -0.248 NA
ATOM     46  C   UNL     1       4.280   7.182   3.732  1.00  0.00     0.031 C 
ATOM     47  C   UNL     1       3.700   6.215  -1.175  1.00  0.00     0.029 A 
ATOM     48  N   UNL     1       2.231   7.606  -0.227  1.00  0.00    -0.354 N 
ATOM     49  C   UNL     1       2.458   8.536   3.991  1.00  0.00     0.074 A 
ATOM     50  C   UNL     1       3.558   7.845   4.624  1.00  0.00     0.031 C 
ATOM     51  C   UNL     1       2.855   6.621  -2.135  1.00  0.00     0.029 A 
ATOM     52  C   UNL     1       1.859   7.513  -1.548  1.00  0.00     0.049 A 
ATOM     53  H   UNL     1       1.747   8.157   0.430  1.00  0.00     0.167 HD
ATOM     54  C   UNL     1       1.623   9.390   4.628  1.00  0.00     0.037 A 
ATOM     55  C   UNL     1       0.828   8.074  -2.210  1.00  0.00     0.037 A 
ATOM     56  C   UNL     1       0.542  10.093   3.986  1.00  0.00     0.049 A 
ATOM     57  C   UNL     1      -0.112   8.983  -1.463  1.00  0.00     0.074 A 
ATOM     58  C   UNL     1      -0.333  11.010   4.540  1.00  0.00     0.029 A 
ATOM     59  N   UNL     1       0.190   9.959   2.651  1.00  0.00    -0.354 N 
ATOM     60  N   UNL     1      -0.075   9.358  -0.208  1.00  0.00    -0.248 NA
ATOM     61  C   UNL     1      -1.235   9.550  -2.224  1.00  0.00     0.031 C 
ATOM     62  C   UNL     1      -1.256  11.380   3.561  1.00  0.00     0.029 A 
ATOM     63  C   UNL     1      -0.912  10.753   2.374  1.00  0.00     0.049 A 
ATOM     64  H   UNL     1       0.652   9.386   1.998  1.00  0.00     0.167 HD
ATOM     65  C   UNL     1      -1.145  10.227  -0.037  1.00  0.00     0.074 A 
ATOM     66  C   UNL     1      -1.802  10.338  -1.321  1.00  0.00     0.031 C 
ATOM     67  C   UNL     1      -1.548  10.870   1.086  1.00  0.00     0.037 A 
BRANCH  54  68
ATOM     68  C   UNL     1       1.842   9.644   6.092  1.00  0.00     0.064 A 
ATOM     69  C   UNL     1       0.878   9.254   7.035  1.00  0.00     0.173 A 
ATOM     70  C   UNL     1       2.947  10.377   6.550  1.00  0.00     0.173 A 
ATOM     71  F   UNL     1      -0.201   8.555   6.650  1.00  0.00    -0.203 F 
ATOM     72  C   UNL     1       0.997   9.615   8.374  1.00  0.00     0.198 A 
ATOM     73  C   UNL     1       3.079  10.708   7.896  1.00  0.00     0.198 A 
ATOM     74  F   UNL     1       3.903  10.765   5.693  1.00  0.00    -0.203 F 
ATOM     75  F   UNL     1       0.036   9.276   9.245  1.00  0.00    -0.200 F 
ATOM     76  C   UNL     1       2.097  10.341   8.804  1.00  0.00     0.200 A 
ATOM     77  F   UNL     1       4.155  11.389   8.314  1.00  0.00    -0.200 F 
ATOM     78  F   UNL     1       2.209  10.690  10.093  1.00  0.00    -0.200 F 
ENDBRANCH  54  68
BRANCH  55  79
ATOM     79  C   UNL     1       0.647   7.809  -3.664  1.00  0.00     0.064 A 
ATOM     80  C   UNL     1       0.335   6.528  -4.144  1.00  0.00     0.173 A 
ATOM     81  C   UNL     1       0.791   8.837  -4.607  1.00  0.00     0.173 A 
ATOM     82  F   UNL     1       0.190   5.506  -3.287  1.00  0.00    -0.203 F 
ATOM     83  C   UNL     1       0.194   6.282  -5.508  1.00  0.00     0.198 A 
ATOM     84  C   UNL     1       0.614   8.598  -5.969  1.00  0.00     0.198 A 
ATOM     85  F   UNL     1       1.071  10.084  -4.201  1.00  0.00    -0.203 F 
ATOM     86  F   UNL     1      -0.063   5.040  -5.939  1.00  0.00    -0.200 F 
ATOM     87  C   UNL     1       0.325   7.319  -6.419  1.00  0.00     0.200 A 
ATOM     88  F   UNL     1       0.711   9.609  -6.842  1.00  0.00    -0.200 F 
ATOM     89  F   UNL     1       0.168   7.086  -7.729  1.00  0.00    -0.200 F 
ENDBRANCH  55  79
BRANCH  67  90
ATOM     90  C   UNL     1      -2.738  11.783   0.988  1.00  0.00     0.064 A 
ATOM     91  C   UNL     1      -2.589  13.166   1.181  1.00  0.00     0.173 A 
ATOM     92  C   UNL     1      -4.035  11.284   0.805  1.00  0.00     0.173 A 
ATOM     93  F   UNL     1      -1.371  13.695   1.372  1.00  0.00    -0.203 F 
ATOM     94  C   UNL     1      -3.695  14.009   1.218  1.00  0.00     0.198 A 
ATOM     95  C   UNL     1      -5.137  12.136   0.804  1.00  0.00     0.198 A 
ATOM     96  F   UNL     1      -4.232   9.972   0.607  1.00  0.00    -0.203 F 
ATOM     97  F   UNL     1      -3.531  15.318   1.456  1.00  0.00    -0.200 F 
ATOM     98  C   UNL     1      -4.968  13.494   1.025  1.00  0.00     0.200 A 
ATOM     99  F   UNL     1      -6.363  11.640   0.591  1.00  0.00    -0.200 F 
ATOM    100  F   UNL     1      -6.032  14.308   1.053  1.00  0.00    -0.200 F 
ENDBRANCH  67  90
ENDBRANCH  41  42
ENDBRANCH  33  36
ENDBRANCH  31  32
ENDBRANCH  30  31
ENDBRANCH  29  30
ENDBRANCH  28  29
ENDBRANCH   1  28
TORSDOF 17
