REMARK SMILES CC(C)(C(=O)NCCCCCCNC(=O)c1ccc(-c2c3nc(c(-c4c(F)c(F)c(F)c(F)c4F)c4ccc([nH]4)c(-c4c(F)c(F)c(F)c(F)c4F)c4nc(c(-c5c(F)c(F)c(F)c(F)c5F)c5ccc2[nH]5)C=C4)C=C3)cc1)c1ccc(NS(=O)(=O)c2c(F)cc(F)cc2F)cc1
REMARK SMILES IDX 8 1 7 2 6 3 4 4 5 5 2 7 1 8 3 9 79 10 80 11 97 12 81 13
REMARK SMILES IDX 96 14 82 15 83 16 84 18 85 19 86 20 87 21 88 22 94 23 89 24
REMARK SMILES IDX 90 25 93 26 95 27 91 28 92 29 9 30 10 31 11 32 12 33 13 34
REMARK SMILES IDX 14 35 15 37 16 38 17 39 78 40 18 41 77 42 19 43 20 44 21 45
REMARK SMILES IDX 71 46 22 47 76 48 70 49 72 50 23 51 75 52 69 53 68 54 24 56
REMARK SMILES IDX 56 57 36 58 55 59 37 60 40 61 54 62 73 63 38 64 39 65 53 67
REMARK SMILES IDX 74 68 41 69 25 70 26 71 34 72 27 73 28 74 32 75 35 76 29 77
REMARK SMILES IDX 30 78 33 79 31 80 57 81 58 82 66 83 59 84 60 85 64 86 67 87
REMARK SMILES IDX 61 88 62 89 65 90 63 91 42 92 43 93 51 94 44 95 45 96 49 97
REMARK SMILES IDX 52 98 46 99 47 100 50 101 48 102
REMARK H PARENT 6 6 83 17 13 36 72 55 40 66
REMARK Flexibility Score: inf
ROOT
ATOM      1  C   UNL     1      -1.649  -2.648   0.452  1.00  0.00     0.021 C 
ENDROOT
BRANCH   1   2
ATOM      2  C   UNL     1      -1.110  -2.277  -0.932  1.00  0.00     0.116 C 
BRANCH   2   3
ATOM      3  N   UNL     1      -1.612  -0.982  -1.358  1.00  0.00    -0.355 N 
ATOM      4  C   UNL     1      -1.046   0.256  -1.480  1.00  0.00     0.230 C 
ATOM      5  O   UNL     1      -1.851   1.137  -1.790  1.00  0.00    -0.274 OA
ATOM      6  H   UNL     1      -2.562  -1.001  -1.613  1.00  0.00     0.163 HD
BRANCH   4   7
ATOM      7  C   UNL     1       0.483   0.495  -1.295  1.00  0.00     0.068 C 
ATOM      8  C   UNL     1       0.892   0.030   0.126  1.00  0.00     0.026 C 
ATOM      9  C   UNL     1       1.198  -0.303  -2.414  1.00  0.00     0.026 C 
BRANCH   7  10
ATOM     10  C   UNL     1       1.011   1.962  -1.428  1.00  0.00    -0.033 A 
ATOM     11  C   UNL     1       2.357   2.216  -1.083  1.00  0.00     0.007 A 
ATOM     12  C   UNL     1       0.268   3.064  -1.877  1.00  0.00     0.007 A 
ATOM     13  C   UNL     1       2.910   3.493  -1.143  1.00  0.00     0.027 A 
ATOM     14  C   UNL     1       0.847   4.341  -2.010  1.00  0.00     0.027 A 
ATOM     15  C   UNL     1       2.178   4.549  -1.662  1.00  0.00     0.049 A 
BRANCH  15  16
ATOM     16  N   UNL     1       2.810   5.827  -1.817  1.00  0.00    -0.279 N 
ATOM     17  H   UNL     1       2.613   6.563  -1.194  1.00  0.00     0.180 HD
BRANCH  16  18
ATOM     18  S   UNL     1       3.914   6.046  -3.110  1.00  0.00     0.267 S 
ATOM     19  O   UNL     1       3.144   6.063  -4.330  1.00  0.00    -0.201 OA
ATOM     20  O   UNL     1       4.696   7.219  -2.760  1.00  0.00    -0.201 OA
BRANCH  18  21
ATOM     21  C   UNL     1       4.976   4.649  -3.128  1.00  0.00     0.159 A 
ATOM     22  C   UNL     1       4.596   3.504  -3.826  1.00  0.00     0.149 A 
ATOM     23  C   UNL     1       6.186   4.652  -2.441  1.00  0.00     0.149 A 
ATOM     24  F   UNL     1       3.437   3.444  -4.492  1.00  0.00    -0.205 F 
ATOM     25  C   UNL     1       5.370   2.348  -3.775  1.00  0.00     0.080 A 
ATOM     26  C   UNL     1       6.981   3.506  -2.399  1.00  0.00     0.080 A 
ATOM     27  F   UNL     1       6.609   5.721  -1.757  1.00  0.00    -0.205 F 
ATOM     28  C   UNL     1       6.555   2.358  -3.054  1.00  0.00     0.129 A 
ATOM     29  F   UNL     1       7.287   1.240  -2.973  1.00  0.00    -0.207 F 
ENDBRANCH  18  21
ENDBRANCH  16  18
ENDBRANCH  15  16
ENDBRANCH   7  10
ENDBRANCH   4   7
ENDBRANCH   2   3
ENDBRANCH   1   2
BRANCH   1  30
ATOM     30  C   UNL     1      -3.162  -2.887   0.495  1.00  0.00     0.002 C 
BRANCH  30  31
ATOM     31  C   UNL     1      -3.680  -3.930  -0.498  1.00  0.00     0.002 C 
BRANCH  31  32
ATOM     32  C   UNL     1      -2.970  -5.285  -0.441  1.00  0.00     0.021 C 
BRANCH  32  33
ATOM     33  C   UNL     1      -3.004  -5.960   0.925  1.00  0.00     0.116 C 
BRANCH  33  34
ATOM     34  N   UNL     1      -4.359  -6.276   1.346  1.00  0.00    -0.352 N 
ATOM     35  C   UNL     1      -4.876  -7.472   1.772  1.00  0.00     0.251 C 
ATOM     36  H   UNL     1      -4.995  -5.525   1.321  1.00  0.00     0.163 HD
ATOM     37  O   UNL     1      -6.087  -7.613   1.906  1.00  0.00    -0.269 OA
BRANCH  35  38
ATOM     38  C   UNL     1      -3.967  -8.603   2.050  1.00  0.00     0.039 A 
ATOM     39  C   UNL     1      -4.297  -9.869   1.560  1.00  0.00     0.014 A 
ATOM     40  C   UNL     1      -2.797  -8.417   2.792  1.00  0.00     0.014 A 
ATOM     41  C   UNL     1      -3.425 -10.938   1.768  1.00  0.00     0.010 A 
ATOM     42  C   UNL     1      -1.894  -9.466   2.936  1.00  0.00     0.010 A 
ATOM     43  C   UNL     1      -2.202 -10.738   2.430  1.00  0.00    -0.014 A 
BRANCH  43  44
ATOM     44  C   UNL     1      -1.234 -11.850   2.601  1.00  0.00     0.031 A 
ATOM     45  C   UNL     1      -0.896 -12.353   3.976  1.00  0.00     0.074 A 
ATOM     46  C   UNL     1      -0.617 -12.365   1.520  1.00  0.00     0.049 A 
ATOM     47  N   UNL     1      -0.037 -13.275   4.332  1.00  0.00    -0.248 NA
ATOM     48  C   UNL     1      -1.596 -11.718   5.103  1.00  0.00     0.031 C 
ATOM     49  C   UNL     1      -0.826 -11.927   0.140  1.00  0.00     0.029 A 
ATOM     50  N   UNL     1       0.318 -13.364   1.414  1.00  0.00    -0.354 N 
ATOM     51  C   UNL     1      -0.086 -13.321   5.719  1.00  0.00     0.074 A 
ATOM     52  C   UNL     1      -1.016 -12.297   6.144  1.00  0.00     0.031 C 
ATOM     53  C   UNL     1      -0.060 -12.668  -0.677  1.00  0.00     0.029 A 
ATOM     54  C   UNL     1       0.720 -13.607   0.123  1.00  0.00     0.049 A 
ATOM     55  H   UNL     1       0.668 -13.859   2.190  1.00  0.00     0.167 HD
ATOM     56  C   UNL     1       0.568 -14.158   6.560  1.00  0.00     0.037 A 
ATOM     57  C   UNL     1       1.620 -14.484  -0.358  1.00  0.00     0.037 A 
ATOM     58  C   UNL     1       1.474 -15.190   6.130  1.00  0.00     0.049 A 
ATOM     59  C   UNL     1       2.337 -15.398   0.598  1.00  0.00     0.074 A 
ATOM     60  C   UNL     1       2.140 -16.129   6.899  1.00  0.00     0.029 A 
ATOM     61  N   UNL     1       1.846 -15.416   4.813  1.00  0.00    -0.354 N 
ATOM     62  N   UNL     1       2.230 -15.481   1.902  1.00  0.00    -0.248 NA
ATOM     63  C   UNL     1       3.295 -16.347   0.014  1.00  0.00     0.031 C 
ATOM     64  C   UNL     1       2.951 -16.892   6.052  1.00  0.00     0.029 A 
ATOM     65  C   UNL     1       2.751 -16.464   4.749  1.00  0.00     0.049 A 
ATOM     66  H   UNL     1       1.516 -14.907   4.037  1.00  0.00     0.167 HD
ATOM     67  C   UNL     1       3.082 -16.505   2.291  1.00  0.00     0.074 A 
ATOM     68  C   UNL     1       3.688 -17.025   1.083  1.00  0.00     0.031 C 
ATOM     69  C   UNL     1       3.340 -16.973   3.537  1.00  0.00     0.037 A 
BRANCH  56  70
ATOM     70  C   UNL     1       0.324 -13.993   8.032  1.00  0.00     0.064 A 
ATOM     71  C   UNL     1      -0.909 -14.322   8.616  1.00  0.00     0.173 A 
ATOM     72  C   UNL     1       1.346 -13.534   8.877  1.00  0.00     0.173 A 
ATOM     73  F   UNL     1      -1.924 -14.755   7.852  1.00  0.00    -0.203 F 
ATOM     74  C   UNL     1      -1.119 -14.170   9.984  1.00  0.00     0.198 A 
ATOM     75  C   UNL     1       1.142 -13.412  10.249  1.00  0.00     0.198 A 
ATOM     76  F   UNL     1       2.546 -13.209   8.373  1.00  0.00    -0.203 F 
ATOM     77  F   UNL     1      -2.321 -14.443  10.510  1.00  0.00    -0.200 F 
ATOM     78  C   UNL     1      -0.092 -13.722  10.800  1.00  0.00     0.200 A 
ATOM     79  F   UNL     1       2.141 -12.992  11.039  1.00  0.00    -0.200 F 
ATOM     80  F   UNL     1      -0.293 -13.583  12.118  1.00  0.00    -0.200 F 
ENDBRANCH  56  70
BRANCH  57  81
ATOM     81  C   UNL     1       1.876 -14.557  -1.820  1.00  0.00     0.064 A 
ATOM     82  C   UNL     1       1.472 -15.673  -2.566  1.00  0.00     0.173 A 
ATOM     83  C   UNL     1       2.528 -13.519  -2.501  1.00  0.00     0.173 A 
ATOM     84  F   UNL     1       0.862 -16.700  -1.956  1.00  0.00    -0.203 F 
ATOM     85  C   UNL     1       1.728 -15.757  -3.933  1.00  0.00     0.198 A 
ATOM     86  C   UNL     1       2.758 -13.591  -3.873  1.00  0.00     0.198 A 
ATOM     87  F   UNL     1       2.929 -12.426  -1.835  1.00  0.00    -0.203 F 
ATOM     88  F   UNL     1       1.372 -16.855  -4.613  1.00  0.00    -0.200 F 
ATOM     89  C   UNL     1       2.366 -14.713  -4.587  1.00  0.00     0.200 A 
ATOM     90  F   UNL     1       3.360 -12.573  -4.503  1.00  0.00    -0.200 F 
ATOM     91  F   UNL     1       2.608 -14.792  -5.902  1.00  0.00    -0.200 F 
ENDBRANCH  57  81
BRANCH  69  92
ATOM     92  C   UNL     1       4.295 -18.125   3.655  1.00  0.00     0.064 A 
ATOM     93  C   UNL     1       5.671 -17.967   3.435  1.00  0.00     0.173 A 
ATOM     94  C   UNL     1       3.831 -19.396   4.029  1.00  0.00     0.173 A 
ATOM     95  F   UNL     1       6.163 -16.776   3.060  1.00  0.00    -0.203 F 
ATOM     96  C   UNL     1       6.544 -19.045   3.560  1.00  0.00     0.198 A 
ATOM     97  C   UNL     1       4.710 -20.463   4.184  1.00  0.00     0.198 A 
ATOM     98  F   UNL     1       2.525 -19.598   4.257  1.00  0.00    -0.203 F 
ATOM     99  F   UNL     1       7.848 -18.882   3.297  1.00  0.00    -0.200 F 
ATOM    100  C   UNL     1       6.064 -20.289   3.941  1.00  0.00     0.200 A 
ATOM    101  F   UNL     1       4.247 -21.661   4.566  1.00  0.00    -0.200 F 
ATOM    102  F   UNL     1       6.907 -21.323   4.068  1.00  0.00    -0.200 F 
ENDBRANCH  69  92
ENDBRANCH  43  44
ENDBRANCH  35  38
ENDBRANCH  33  34
ENDBRANCH  32  33
ENDBRANCH  31  32
ENDBRANCH  30  31
ENDBRANCH   1  30
TORSDOF 17
