REMARK SMILES CCCCCCNC(=O)Oc1cccc(-c2ccc([C@@H](C)C(=O)NCCCCCCNC(=O)c3ccc(-c4c5nc(c(-c6c(F)c(F)c(F)c(F)c6F)c6ccc([nH]6)c(-c6c(F)c(F)c(F)c(F)c6F)c6nc(c(-c7c(F)c(F)c(F)c(F)c7F)c7ccc4[nH]7)C=C6)C=C5)cc3)cc2F)c1
REMARK SMILES IDX 22 1 23 2 24 3 20 5 21 6 19 7 16 8 17 9 98 10 18 11 97 12
REMARK SMILES IDX 99 13 15 14 11 15 12 16 100 17 13 18 14 19 10 20 8 21 7 22
REMARK SMILES IDX 9 24 6 25 5 26 4 27 3 28 2 29 1 30 25 31 26 32 27 33 28 34
REMARK SMILES IDX 29 35 30 36 31 37 32 38 33 40 34 41 35 42 96 43 36 44 95 45
REMARK SMILES IDX 37 46 38 47 39 48 89 49 40 50 94 51 88 52 90 53 41 54 93 55
REMARK SMILES IDX 87 56 86 57 42 59 74 60 54 61 73 62 55 63 58 64 72 65 91 66
REMARK SMILES IDX 56 67 57 68 71 70 92 71 59 72 43 73 44 74 52 75 45 76 46 77
REMARK SMILES IDX 50 78 53 79 47 80 48 81 51 82 49 83 75 84 76 85 84 86 77 87
REMARK SMILES IDX 78 88 82 89 85 90 79 91 80 92 83 93 81 94 60 95 61 96 69 97
REMARK SMILES IDX 62 98 63 99 67 100 70 101 64 102 65 103 68 104 66 105
REMARK H PARENT 24 4 7 23 31 39 90 58 58 69
REMARK Flexibility Score: inf
ROOT
ATOM      1  C   UNL     1      -3.336  -5.698  12.917  1.00  0.00     0.227 C 
ATOM      2  O   UNL     1      -2.346  -5.025  13.229  1.00  0.00    -0.274 OA
ATOM      3  N   UNL     1      -3.206  -7.048  13.021  1.00  0.00    -0.356 N 
ATOM      4  H   UNL     1      -2.352  -7.342  13.411  1.00  0.00     0.163 HD
ENDROOT
BRANCH   1   5
ATOM      5  C   UNL     1      -4.623  -4.996  12.458  1.00  0.00     0.105 C 
ATOM      6  C   UNL     1      -5.834  -5.271  13.350  1.00  0.00     0.023 C 
BRANCH   5   7
ATOM      7  C   UNL     1      -4.866  -5.086  10.960  1.00  0.00    -0.033 A 
ATOM      8  C   UNL     1      -5.151  -5.246   8.111  1.00  0.00     0.018 A 
ATOM      9  C   UNL     1      -5.718  -6.204   8.968  1.00  0.00     0.012 A 
ATOM     10  C   UNL     1      -4.470  -4.186   8.729  1.00  0.00     0.131 A 
ATOM     11  C   UNL     1      -5.607  -6.108  10.362  1.00  0.00     0.005 A 
ATOM     12  C   UNL     1      -4.308  -4.115  10.116  1.00  0.00     0.044 A 
ATOM     13  F   UNL     1      -3.949  -3.188   7.998  1.00  0.00    -0.206 F 
BRANCH   8  14
ATOM     14  C   UNL     1      -5.268  -5.381   6.640  1.00  0.00    -0.012 A 
ATOM     15  C   UNL     1      -4.354  -5.118   4.398  1.00  0.00     0.133 A 
ATOM     16  C   UNL     1      -5.490  -5.679   3.826  1.00  0.00     0.047 A 
ATOM     17  C   UNL     1      -4.236  -4.966   5.781  1.00  0.00     0.056 A 
ATOM     18  C   UNL     1      -6.522  -6.102   4.654  1.00  0.00     0.004 A 
ATOM     19  C   UNL     1      -6.414  -5.945   6.041  1.00  0.00     0.009 A 
BRANCH  15  20
ATOM     20  O   UNL     1      -3.401  -4.580   3.519  1.00  0.00    -0.410 OA
BRANCH  20  21
ATOM     21  C   UNL     1      -2.065  -4.900   3.702  1.00  0.00     0.412 C 
ATOM     22  N   UNL     1      -1.232  -4.181   2.889  1.00  0.00    -0.321 N 
ATOM     23  H   UNL     1      -0.270  -4.383   2.950  1.00  0.00     0.167 HD
ATOM     24  O   UNL     1      -1.623  -5.735   4.482  1.00  0.00    -0.224 OA
BRANCH  22  25
ATOM     25  C   UNL     1      -1.623  -3.152   1.946  1.00  0.00     0.119 C 
BRANCH  25  26
ATOM     26  C   UNL     1      -1.023  -1.792   2.300  1.00  0.00     0.021 C 
BRANCH  26  27
ATOM     27  C   UNL     1       0.507  -1.725   2.220  1.00  0.00     0.002 C 
BRANCH  27  28
ATOM     28  C   UNL     1       1.114  -2.097   0.862  1.00  0.00    -0.000 C 
BRANCH  28  29
ATOM     29  C   UNL     1       0.624  -1.268  -0.327  1.00  0.00    -0.003 C 
ATOM     30  C   UNL     1       0.978   0.207  -0.219  1.00  0.00     0.004 C 
ENDBRANCH  28  29
ENDBRANCH  27  28
ENDBRANCH  26  27
ENDBRANCH  25  26
ENDBRANCH  22  25
ENDBRANCH  20  21
ENDBRANCH  15  20
ENDBRANCH   8  14
ENDBRANCH   5   7
ENDBRANCH   1   5
BRANCH   3  31
ATOM     31  C   UNL     1      -4.098  -8.130  12.663  1.00  0.00     0.116 C 
BRANCH  31  32
ATOM     32  C   UNL     1      -3.687  -8.791  11.347  1.00  0.00     0.021 C 
BRANCH  32  33
ATOM     33  C   UNL     1      -2.685  -9.939  11.516  1.00  0.00     0.002 C 
BRANCH  33  34
ATOM     34  C   UNL     1      -3.204 -11.144  12.312  1.00  0.00     0.002 C 
BRANCH  34  35
ATOM     35  C   UNL     1      -4.506 -11.764  11.797  1.00  0.00     0.021 C 
BRANCH  35  36
ATOM     36  C   UNL     1      -4.441 -12.291  10.366  1.00  0.00     0.116 C 
BRANCH  36  37
ATOM     37  N   UNL     1      -3.491 -13.386  10.235  1.00  0.00    -0.352 N 
ATOM     38  C   UNL     1      -3.696 -14.682   9.838  1.00  0.00     0.251 C 
ATOM     39  H   UNL     1      -2.561 -13.161  10.466  1.00  0.00     0.163 HD
ATOM     40  O   UNL     1      -2.820 -15.525  10.006  1.00  0.00    -0.269 OA
BRANCH  38  41
ATOM     41  C   UNL     1      -4.977 -15.075   9.213  1.00  0.00     0.039 A 
ATOM     42  C   UNL     1      -5.579 -16.275   9.600  1.00  0.00     0.014 A 
ATOM     43  C   UNL     1      -5.563 -14.283   8.221  1.00  0.00     0.014 A 
ATOM     44  C   UNL     1      -6.797 -16.655   9.032  1.00  0.00     0.010 A 
ATOM     45  C   UNL     1      -6.808 -14.630   7.702  1.00  0.00     0.010 A 
ATOM     46  C   UNL     1      -7.435 -15.822   8.099  1.00  0.00    -0.014 A 
BRANCH  46  47
ATOM     47  C   UNL     1      -8.754 -16.180   7.519  1.00  0.00     0.031 A 
ATOM     48  C   UNL     1      -8.878 -16.470   6.050  1.00  0.00     0.074 A 
ATOM     49  C   UNL     1      -9.848 -16.178   8.303  1.00  0.00     0.049 A 
ATOM     50  N   UNL     1      -9.951 -16.714   5.341  1.00  0.00    -0.248 NA
ATOM     51  C   UNL     1      -7.632 -16.457   5.267  1.00  0.00     0.031 C 
ATOM     52  C   UNL     1      -9.862 -15.873   9.735  1.00  0.00     0.029 A 
ATOM     53  N   UNL     1     -11.165 -16.425   8.004  1.00  0.00    -0.354 N 
ATOM     54  C   UNL     1      -9.513 -16.866   4.032  1.00  0.00     0.074 A 
ATOM     55  C   UNL     1      -8.084 -16.641   4.035  1.00  0.00     0.031 C 
ATOM     56  C   UNL     1     -11.121 -15.966  10.192  1.00  0.00     0.029 A 
ATOM     57  C   UNL     1     -12.007 -16.301   9.081  1.00  0.00     0.049 A 
ATOM     58  H   UNL     1     -11.476 -16.669   7.102  1.00  0.00     0.167 HD
ATOM     59  C   UNL     1     -10.235 -17.186   2.932  1.00  0.00     0.037 A 
ATOM     60  C   UNL     1     -13.345 -16.432   9.161  1.00  0.00     0.037 A 
ATOM     61  C   UNL     1     -11.652 -17.438   2.938  1.00  0.00     0.049 A 
ATOM     62  C   UNL     1     -14.123 -16.787   7.923  1.00  0.00     0.074 A 
ATOM     63  C   UNL     1     -12.465 -17.827   1.887  1.00  0.00     0.029 A 
ATOM     64  N   UNL     1     -12.468 -17.326   4.054  1.00  0.00    -0.354 N 
ATOM     65  N   UNL     1     -13.690 -16.989   6.702  1.00  0.00    -0.248 NA
ATOM     66  C   UNL     1     -15.577 -16.939   8.075  1.00  0.00     0.031 C 
ATOM     67  C   UNL     1     -13.780 -17.910   2.358  1.00  0.00     0.029 A 
ATOM     68  C   UNL     1     -13.779 -17.620   3.713  1.00  0.00     0.049 A 
ATOM     69  H   UNL     1     -12.162 -17.076   4.955  1.00  0.00     0.167 HD
ATOM     70  C   UNL     1     -14.808 -17.319   5.950  1.00  0.00     0.074 A 
ATOM     71  C   UNL     1     -15.940 -17.302   6.853  1.00  0.00     0.031 C 
ATOM     72  C   UNL     1     -14.891 -17.609   4.628  1.00  0.00     0.037 A 
BRANCH  59  73
ATOM     73  C   UNL     1      -9.503 -17.287   1.625  1.00  0.00     0.064 A 
ATOM     74  C   UNL     1      -8.611 -18.338   1.361  1.00  0.00     0.173 A 
ATOM     75  C   UNL     1      -9.724 -16.345   0.609  1.00  0.00     0.173 A 
ATOM     76  F   UNL     1      -8.357 -19.259   2.303  1.00  0.00    -0.203 F 
ATOM     77  C   UNL     1      -7.948 -18.426   0.140  1.00  0.00     0.198 A 
ATOM     78  C   UNL     1      -9.082 -16.453  -0.621  1.00  0.00     0.198 A 
ATOM     79  F   UNL     1     -10.572 -15.323   0.807  1.00  0.00    -0.203 F 
ATOM     80  F   UNL     1      -7.066 -19.413  -0.072  1.00  0.00    -0.200 F 
ATOM     81  C   UNL     1      -8.189 -17.488  -0.852  1.00  0.00     0.200 A 
ATOM     82  F   UNL     1      -9.326 -15.553  -1.584  1.00  0.00    -0.200 F 
ATOM     83  F   UNL     1      -7.556 -17.579  -2.030  1.00  0.00    -0.200 F 
ENDBRANCH  59  73
BRANCH  60  84
ATOM     84  C   UNL     1     -14.032 -16.250  10.465  1.00  0.00     0.064 A 
ATOM     85  C   UNL     1     -14.604 -17.341  11.135  1.00  0.00     0.173 A 
ATOM     86  C   UNL     1     -14.135 -14.988  11.067  1.00  0.00     0.173 A 
ATOM     87  F   UNL     1     -14.549 -18.564  10.588  1.00  0.00    -0.203 F 
ATOM     88  C   UNL     1     -15.271 -17.173  12.346  1.00  0.00     0.198 A 
ATOM     89  C   UNL     1     -14.778 -14.825  12.293  1.00  0.00     0.198 A 
ATOM     90  F   UNL     1     -13.600 -13.913  10.470  1.00  0.00    -0.203 F 
ATOM     91  F   UNL     1     -15.848 -18.226  12.942  1.00  0.00    -0.200 F 
ATOM     92  C   UNL     1     -15.353 -15.917  12.927  1.00  0.00     0.200 A 
ATOM     93  F   UNL     1     -14.843 -13.612  12.857  1.00  0.00    -0.200 F 
ATOM     94  F   UNL     1     -15.991 -15.756  14.094  1.00  0.00    -0.200 F 
ENDBRANCH  60  84
BRANCH  72  95
ATOM     95  C   UNL     1     -16.243 -17.969   4.086  1.00  0.00     0.064 A 
ATOM     96  C   UNL     1     -17.246 -17.005   3.910  1.00  0.00     0.173 A 
ATOM     97  C   UNL     1     -16.523 -19.289   3.699  1.00  0.00     0.173 A 
ATOM     98  F   UNL     1     -17.032 -15.734   4.281  1.00  0.00    -0.203 F 
ATOM     99  C   UNL     1     -18.488 -17.354   3.387  1.00  0.00     0.198 A 
ATOM    100  C   UNL     1     -17.755 -19.628   3.148  1.00  0.00     0.198 A 
ATOM    101  F   UNL     1     -15.594 -20.246   3.841  1.00  0.00    -0.203 F 
ATOM    102  F   UNL     1     -19.447 -16.425   3.268  1.00  0.00    -0.200 F 
ATOM    103  C   UNL     1     -18.739 -18.662   2.999  1.00  0.00     0.200 A 
ATOM    104  F   UNL     1     -17.991 -20.889   2.763  1.00  0.00    -0.200 F 
ATOM    105  F   UNL     1     -19.932 -18.993   2.487  1.00  0.00    -0.200 F 
ENDBRANCH  72  95
ENDBRANCH  46  47
ENDBRANCH  38  41
ENDBRANCH  36  37
ENDBRANCH  35  36
ENDBRANCH  34  35
ENDBRANCH  33  34
ENDBRANCH  32  33
ENDBRANCH  31  32
ENDBRANCH   3  31
TORSDOF 22
