REMARK SMILES CCCCCCCNC(=O)Oc1cccc(-c2ccc([C@@H](C)C(=O)NCCCCCCNC(=O)c3ccc(-c4c5nc(c(-c6c(F)c(F)c(F)c(F)c6F)c6ccc([nH]6)c(-c6c(F)c(F)c(F)c(F)c6F)c6nc(c(-c7c(F)c(F)c(F)c(F)c7F)c7ccc4[nH]7)C=C6)C=C5)cc3)cc2F)c1
REMARK SMILES IDX 21 1 22 2 20 3 17 4 18 5 99 6 19 7 98 8 100 9 16 10 12 11
REMARK SMILES IDX 13 12 101 13 14 14 15 15 11 16 9 17 8 18 10 20 7 21 6 22
REMARK SMILES IDX 5 23 4 24 3 25 2 26 1 27 23 28 24 29 25 30 26 32 27 33 28 34
REMARK SMILES IDX 29 35 30 36 31 37 32 38 33 39 34 41 35 42 36 43 97 44 37 45
REMARK SMILES IDX 96 46 38 47 39 48 40 49 90 50 41 51 95 52 89 53 91 54 42 55
REMARK SMILES IDX 94 56 88 57 87 58 43 60 75 61 55 62 74 63 56 64 59 65 73 66
REMARK SMILES IDX 92 67 57 68 58 69 72 71 93 72 60 73 44 74 45 75 53 76 46 77
REMARK SMILES IDX 47 78 51 79 54 80 48 81 49 82 52 83 50 84 76 85 77 86 85 87
REMARK SMILES IDX 78 88 79 89 83 90 86 91 80 92 81 93 84 94 82 95 61 96 62 97
REMARK SMILES IDX 70 98 63 99 64 100 68 101 71 102 65 103 66 104 69 105 67 106
REMARK H PARENT 8 19 25 31 32 40 91 59 59 70
REMARK Flexibility Score: inf
ROOT
ATOM      1  C   UNL     1     -10.546   9.100   4.759  1.00  0.00     0.105 C 
ATOM      2  C   UNL     1     -11.597   9.566   5.768  1.00  0.00     0.023 C 
ENDROOT
BRANCH   1   3
ATOM      3  C   UNL     1      -9.277   8.504   5.346  1.00  0.00    -0.033 A 
ATOM      4  C   UNL     1      -6.808   7.394   6.292  1.00  0.00     0.018 A 
ATOM      5  C   UNL     1      -7.383   8.534   6.879  1.00  0.00     0.012 A 
ATOM      6  C   UNL     1      -7.528   6.809   5.240  1.00  0.00     0.131 A 
ATOM      7  C   UNL     1      -8.606   9.056   6.439  1.00  0.00     0.005 A 
ATOM      8  C   UNL     1      -8.722   7.358   4.760  1.00  0.00     0.044 A 
ATOM      9  F   UNL     1      -7.093   5.680   4.656  1.00  0.00    -0.206 F 
BRANCH   4  10
ATOM     10  C   UNL     1      -5.505   6.872   6.769  1.00  0.00    -0.012 A 
ATOM     11  C   UNL     1      -3.351   5.814   6.361  1.00  0.00     0.133 A 
ATOM     12  C   UNL     1      -3.002   5.919   7.703  1.00  0.00     0.047 A 
ATOM     13  C   UNL     1      -4.581   6.280   5.891  1.00  0.00     0.056 A 
ATOM     14  C   UNL     1      -3.896   6.504   8.589  1.00  0.00     0.004 A 
ATOM     15  C   UNL     1      -5.134   6.963   8.128  1.00  0.00     0.009 A 
BRANCH  11  16
ATOM     16  O   UNL     1      -2.476   5.085   5.541  1.00  0.00    -0.410 OA
BRANCH  16  17
ATOM     17  C   UNL     1      -2.104   5.598   4.309  1.00  0.00     0.412 C 
ATOM     18  N   UNL     1      -1.360   4.715   3.576  1.00  0.00    -0.321 N 
ATOM     19  H   UNL     1      -1.042   5.025   2.697  1.00  0.00     0.167 HD
ATOM     20  O   UNL     1      -2.369   6.715   3.882  1.00  0.00    -0.224 OA
BRANCH  18  21
ATOM     21  C   UNL     1      -0.995   3.367   3.965  1.00  0.00     0.119 C 
BRANCH  21  22
ATOM     22  C   UNL     1      -1.512   2.324   2.974  1.00  0.00     0.021 C 
BRANCH  22  23
ATOM     23  C   UNL     1      -0.921   2.432   1.564  1.00  0.00     0.002 C 
BRANCH  23  24
ATOM     24  C   UNL     1       0.606   2.333   1.485  1.00  0.00     0.000 C 
BRANCH  24  25
ATOM     25  C   UNL     1       1.204   1.026   2.017  1.00  0.00    -0.000 C 
BRANCH  25  26
ATOM     26  C   UNL     1       0.745  -0.243   1.294  1.00  0.00    -0.003 C 
ATOM     27  C   UNL     1       1.101  -0.256  -0.185  1.00  0.00     0.004 C 
ENDBRANCH  25  26
ENDBRANCH  24  25
ENDBRANCH  23  24
ENDBRANCH  22  23
ENDBRANCH  21  22
ENDBRANCH  18  21
ENDBRANCH  16  17
ENDBRANCH  11  16
ENDBRANCH   4  10
ENDBRANCH   1   3
BRANCH   1  28
ATOM     28  C   UNL     1     -10.287  10.100   3.622  1.00  0.00     0.227 C 
ATOM     29  O   UNL     1     -10.512   9.771   2.451  1.00  0.00    -0.274 OA
ATOM     30  N   UNL     1      -9.827  11.365   3.817  1.00  0.00    -0.356 N 
ATOM     31  H   UNL     1      -9.789  11.911   2.999  1.00  0.00     0.163 HD
BRANCH  30  32
ATOM     32  C   UNL     1      -9.382  12.053   5.010  1.00  0.00     0.116 C 
BRANCH  32  33
ATOM     33  C   UNL     1      -7.856  12.126   5.088  1.00  0.00     0.021 C 
BRANCH  33  34
ATOM     34  C   UNL     1      -7.257  13.357   4.400  1.00  0.00     0.002 C 
BRANCH  34  35
ATOM     35  C   UNL     1      -7.656  14.706   5.013  1.00  0.00     0.002 C 
BRANCH  35  36
ATOM     36  C   UNL     1      -7.377  14.859   6.512  1.00  0.00     0.021 C 
BRANCH  36  37
ATOM     37  C   UNL     1      -5.910  14.713   6.909  1.00  0.00     0.116 C 
BRANCH  37  38
ATOM     38  N   UNL     1      -5.081  15.748   6.312  1.00  0.00    -0.352 N 
ATOM     39  C   UNL     1      -4.296  16.701   6.909  1.00  0.00     0.251 C 
ATOM     40  H   UNL     1      -5.084  15.768   5.327  1.00  0.00     0.163 HD
ATOM     41  O   UNL     1      -3.849  17.632   6.247  1.00  0.00    -0.269 OA
BRANCH  39  42
ATOM     42  C   UNL     1      -3.989  16.618   8.354  1.00  0.00     0.039 A 
ATOM     43  C   UNL     1      -4.019  17.789   9.117  1.00  0.00     0.014 A 
ATOM     44  C   UNL     1      -3.625  15.405   8.945  1.00  0.00     0.014 A 
ATOM     45  C   UNL     1      -3.735  17.735  10.483  1.00  0.00     0.010 A 
ATOM     46  C   UNL     1      -3.405  15.341  10.320  1.00  0.00     0.010 A 
ATOM     47  C   UNL     1      -3.450  16.506  11.101  1.00  0.00    -0.014 A 
BRANCH  47  48
ATOM     48  C   UNL     1      -3.188  16.423  12.560  1.00  0.00     0.031 A 
ATOM     49  C   UNL     1      -1.832  16.015  13.063  1.00  0.00     0.074 A 
ATOM     50  C   UNL     1      -4.189  16.659  13.429  1.00  0.00     0.049 A 
ATOM     51  N   UNL     1      -1.428  15.824  14.294  1.00  0.00    -0.248 NA
ATOM     52  C   UNL     1      -0.799  15.762  12.047  1.00  0.00     0.031 C 
ATOM     53  C   UNL     1      -5.559  17.019  13.062  1.00  0.00     0.029 A 
ATOM     54  N   UNL     1      -4.212  16.620  14.801  1.00  0.00    -0.354 N 
ATOM     55  C   UNL     1      -0.104  15.416  14.199  1.00  0.00     0.074 A 
ATOM     56  C   UNL     1       0.214  15.338  12.789  1.00  0.00     0.031 C 
ATOM     57  C   UNL     1      -6.284  17.187  14.180  1.00  0.00     0.029 A 
ATOM     58  C   UNL     1      -5.440  16.914  15.340  1.00  0.00     0.049 A 
ATOM     59  H   UNL     1      -3.422  16.402  15.347  1.00  0.00     0.167 HD
ATOM     60  C   UNL     1       0.773  15.152  15.197  1.00  0.00     0.037 A 
ATOM     61  C   UNL     1      -5.841  16.954  16.625  1.00  0.00     0.037 A 
ATOM     62  C   UNL     1       0.461  15.257  16.598  1.00  0.00     0.049 A 
ATOM     63  C   UNL     1      -4.846  16.660  17.714  1.00  0.00     0.074 A 
ATOM     64  C   UNL     1       1.296  15.069  17.686  1.00  0.00     0.029 A 
ATOM     65  N   UNL     1      -0.789  15.580  17.106  1.00  0.00    -0.354 N 
ATOM     66  N   UNL     1      -3.579  16.338  17.613  1.00  0.00    -0.248 NA
ATOM     67  C   UNL     1      -5.336  16.741  19.097  1.00  0.00     0.031 C 
ATOM     68  C   UNL     1       0.542  15.237  18.852  1.00  0.00     0.029 A 
ATOM     69  C   UNL     1      -0.752  15.577  18.491  1.00  0.00     0.049 A 
ATOM     70  H   UNL     1      -1.585  15.781  16.562  1.00  0.00     0.167 HD
ATOM     71  C   UNL     1      -3.114  16.207  18.914  1.00  0.00     0.074 A 
ATOM     72  C   UNL     1      -4.231  16.497  19.788  1.00  0.00     0.031 C 
ATOM     73  C   UNL     1      -1.872  15.876  19.346  1.00  0.00     0.037 A 
BRANCH  60  74
ATOM     74  C   UNL     1       2.159  14.726  14.808  1.00  0.00     0.064 A 
ATOM     75  C   UNL     1       3.067  15.624  14.226  1.00  0.00     0.173 A 
ATOM     76  C   UNL     1       2.598  13.416  15.053  1.00  0.00     0.173 A 
ATOM     77  F   UNL     1       2.694  16.885  13.962  1.00  0.00    -0.203 F 
ATOM     78  C   UNL     1       4.353  15.219  13.878  1.00  0.00     0.198 A 
ATOM     79  C   UNL     1       3.894  13.023  14.730  1.00  0.00     0.198 A 
ATOM     80  F   UNL     1       1.772  12.520  15.613  1.00  0.00    -0.203 F 
ATOM     81  F   UNL     1       5.187  16.081  13.280  1.00  0.00    -0.200 F 
ATOM     82  C   UNL     1       4.768  13.921  14.136  1.00  0.00     0.200 A 
ATOM     83  F   UNL     1       4.298  11.772  14.993  1.00  0.00    -0.200 F 
ATOM     84  F   UNL     1       6.008  13.534  13.807  1.00  0.00    -0.200 F 
ENDBRANCH  60  74
BRANCH  61  85
ATOM     85  C   UNL     1      -7.245  17.313  16.952  1.00  0.00     0.064 A 
ATOM     86  C   UNL     1      -7.548  18.538  17.562  1.00  0.00     0.173 A 
ATOM     87  C   UNL     1      -8.307  16.445  16.665  1.00  0.00     0.173 A 
ATOM     88  F   UNL     1      -6.563  19.392  17.875  1.00  0.00    -0.203 F 
ATOM     89  C   UNL     1      -8.860  18.873  17.891  1.00  0.00     0.198 A 
ATOM     90  C   UNL     1      -9.622  16.793  16.969  1.00  0.00     0.198 A 
ATOM     91  F   UNL     1      -8.070  15.264  16.076  1.00  0.00    -0.203 F 
ATOM     92  F   UNL     1      -9.118  20.031  18.514  1.00  0.00    -0.200 F 
ATOM     93  C   UNL     1      -9.897  18.002  17.589  1.00  0.00     0.200 A 
ATOM     94  F   UNL     1     -10.622  15.955  16.662  1.00  0.00    -0.200 F 
ATOM     95  F   UNL     1     -11.159  18.326  17.901  1.00  0.00    -0.200 F 
ENDBRANCH  61  85
BRANCH  73  96
ATOM     96  C   UNL     1      -1.648  15.842  20.829  1.00  0.00     0.064 A 
ATOM     97  C   UNL     1      -2.178  14.820  21.630  1.00  0.00     0.173 A 
ATOM     98  C   UNL     1      -0.862  16.825  21.450  1.00  0.00     0.173 A 
ATOM     99  F   UNL     1      -2.949  13.867  21.086  1.00  0.00    -0.203 F 
ATOM    100  C   UNL     1      -1.949  14.798  23.004  1.00  0.00     0.198 A 
ATOM    101  C   UNL     1      -0.611  16.783  22.818  1.00  0.00     0.198 A 
ATOM    102  F   UNL     1      -0.327  17.820  20.727  1.00  0.00    -0.203 F 
ATOM    103  F   UNL     1      -2.503  13.838  23.757  1.00  0.00    -0.200 F 
ATOM    104  C   UNL     1      -1.161  15.774  23.595  1.00  0.00     0.200 A 
ATOM    105  F   UNL     1       0.161  17.720  23.386  1.00  0.00    -0.200 F 
ATOM    106  F   UNL     1      -0.936  15.746  24.916  1.00  0.00    -0.200 F 
ENDBRANCH  73  96
ENDBRANCH  47  48
ENDBRANCH  39  42
ENDBRANCH  37  38
ENDBRANCH  36  37
ENDBRANCH  35  36
ENDBRANCH  34  35
ENDBRANCH  33  34
ENDBRANCH  32  33
ENDBRANCH  30  32
ENDBRANCH   1  28
TORSDOF 23
