REMARK SMILES CSCc1ccc(C(=O)N[C@](C)(C(=O)NCCCCCCNC(=O)c2ccc(-c3c4nc(c(-c5c(F)c(F)c(F)c(F)c5F)c5ccc([nH]5)c(-c5c(F)c(F)c(F)c(F)c5F)c5nc(c(-c6c(F)c(F)c(F)c(F)c6F)c6ccc3[nH]6)C=C5)C=C4)cc2)C(F)(F)F)o1
REMARK SMILES IDX 17 1 16 2 15 3 13 4 14 5 11 7 12 8 10 9 8 10 9 11 7 13 4 14
REMARK SMILES IDX 5 15 92 16 6 17 3 18 2 19 1 20 88 21 89 22 90 23 91 24 18 25
REMARK SMILES IDX 19 26 20 27 21 28 22 29 23 30 24 32 25 33 26 34 87 35 27 36
REMARK SMILES IDX 86 37 28 38 29 39 30 40 80 41 31 42 85 43 79 44 81 45 32 46
REMARK SMILES IDX 84 47 78 48 77 49 33 51 65 52 45 53 64 54 46 55 49 56 63 57
REMARK SMILES IDX 82 58 47 59 48 60 62 62 83 63 50 64 34 65 35 66 43 67 36 68
REMARK SMILES IDX 37 69 41 70 44 71 38 72 39 73 42 74 40 75 66 76 67 77 75 78
REMARK SMILES IDX 68 79 69 80 73 81 76 82 70 83 71 84 74 85 72 86 51 87 52 88
REMARK SMILES IDX 60 89 53 90 54 91 58 92 61 93 55 94 56 95 59 96 57 97
REMARK H PARENT 15 6 10 12 22 31 81 50 49 61
REMARK Flexibility Score: inf
ROOT
ATOM      1  C   UNL     1       0.885   7.653  -6.612  1.00  0.00     0.021 C 
ENDROOT
BRANCH   1   2
ATOM      2  C   UNL     1      -0.428   6.891  -6.762  1.00  0.00     0.116 C 
BRANCH   2   3
ATOM      3  N   UNL     1      -0.267   5.620  -7.427  1.00  0.00    -0.354 N 
ATOM      4  C   UNL     1      -0.478   4.335  -7.028  1.00  0.00     0.254 C 
ATOM      5  O   UNL     1      -0.191   3.495  -7.888  1.00  0.00    -0.272 OA
ATOM      6  H   UNL     1       0.061   5.698  -8.352  1.00  0.00     0.163 HD
BRANCH   4   7
ATOM      7  C   UNL     1      -0.809   3.913  -5.570  1.00  0.00     0.212 C 
ATOM      8  C   UNL     1       0.500   3.809  -4.798  1.00  0.00     0.056 C 
BRANCH   7   9
ATOM      9  N   UNL     1      -1.878   4.735  -4.887  1.00  0.00    -0.328 N 
ATOM     10  C   UNL     1      -2.095   5.757  -4.007  1.00  0.00     0.288 C 
ATOM     11  O   UNL     1      -3.297   6.022  -3.885  1.00  0.00    -0.266 OA
ATOM     12  H   UNL     1      -2.754   4.408  -5.195  1.00  0.00     0.165 HD
BRANCH  10  13
ATOM     13  C   UNL     1      -1.085   6.546  -3.322  1.00  0.00     0.191 A 
ATOM     14  C   UNL     1      -0.509   8.419  -2.254  1.00  0.00     0.114 A 
ATOM     15  C   UNL     1       0.620   7.638  -2.300  1.00  0.00     0.047 A 
ATOM     16  O   UNL     1      -1.526   7.784  -2.893  1.00  0.00    -0.455 OA
ATOM     17  C   UNL     1       0.242   6.434  -2.952  1.00  0.00     0.056 A 
BRANCH  14  18
ATOM     18  C   UNL     1      -0.816   9.742  -1.658  1.00  0.00     0.144 C 
BRANCH  18  19
ATOM     19  S   UNL     1      -1.319   9.597   0.085  1.00  0.00    -0.157 SA
ATOM     20  C   UNL     1      -2.966   8.878  -0.148  1.00  0.00     0.085 C 
ENDBRANCH  18  19
ENDBRANCH  14  18
ENDBRANCH  10  13
ENDBRANCH   7   9
BRANCH   7  21
ATOM     21  C   UNL     1      -1.373   2.463  -5.696  1.00  0.00     0.420 C 
ATOM     22  F   UNL     1      -0.509   1.562  -6.201  1.00  0.00    -0.168 F 
ATOM     23  F   UNL     1      -1.727   2.003  -4.464  1.00  0.00    -0.168 F 
ATOM     24  F   UNL     1      -2.505   2.445  -6.441  1.00  0.00    -0.168 F 
ENDBRANCH   7  21
ENDBRANCH   4   7
ENDBRANCH   2   3
ENDBRANCH   1   2
BRANCH   1  25
ATOM     25  C   UNL     1       1.353   8.364  -7.885  1.00  0.00     0.002 C 
BRANCH  25  26
ATOM     26  C   UNL     1       0.354   9.361  -8.485  1.00  0.00     0.002 C 
BRANCH  26  27
ATOM     27  C   UNL     1      -0.182  10.428  -7.523  1.00  0.00     0.021 C 
BRANCH  27  28
ATOM     28  C   UNL     1       0.879  11.313  -6.873  1.00  0.00     0.116 C 
BRANCH  28  29
ATOM     29  N   UNL     1       1.675  12.028  -7.854  1.00  0.00    -0.352 N 
ATOM     30  C   UNL     1       1.961  13.363  -7.971  1.00  0.00     0.251 C 
ATOM     31  H   UNL     1       2.075  11.460  -8.552  1.00  0.00     0.163 HD
ATOM     32  O   UNL     1       2.506  13.775  -8.991  1.00  0.00    -0.269 OA
BRANCH  30  33
ATOM     33  C   UNL     1       1.620  14.320  -6.893  1.00  0.00     0.039 A 
ATOM     34  C   UNL     1       1.179  15.596  -7.259  1.00  0.00     0.014 A 
ATOM     35  C   UNL     1       1.800  14.010  -5.542  1.00  0.00     0.014 A 
ATOM     36  C   UNL     1       0.889  16.544  -6.276  1.00  0.00     0.010 A 
ATOM     37  C   UNL     1       1.448  14.936  -4.558  1.00  0.00     0.010 A 
ATOM     38  C   UNL     1       1.004  16.217  -4.915  1.00  0.00    -0.014 A 
BRANCH  38  39
ATOM     39  C   UNL     1       0.670  17.221  -3.872  1.00  0.00     0.031 A 
ATOM     40  C   UNL     1       1.740  17.779  -2.974  1.00  0.00     0.074 A 
ATOM     41  C   UNL     1      -0.608  17.618  -3.722  1.00  0.00     0.049 A 
ATOM     42  N   UNL     1       1.641  18.682  -2.031  1.00  0.00    -0.248 NA
ATOM     43  C   UNL     1       3.096  17.235  -3.142  1.00  0.00     0.031 C 
ATOM     44  C   UNL     1      -1.744  17.111  -4.491  1.00  0.00     0.029 A 
ATOM     45  N   UNL     1      -1.165  18.543  -2.875  1.00  0.00    -0.354 N 
ATOM     46  C   UNL     1       2.914  18.808  -1.490  1.00  0.00     0.074 A 
ATOM     47  C   UNL     1       3.758  17.851  -2.172  1.00  0.00     0.031 C 
ATOM     48  C   UNL     1      -2.858  17.753  -4.104  1.00  0.00     0.029 A 
ATOM     49  C   UNL     1      -2.519  18.699  -3.046  1.00  0.00     0.049 A 
ATOM     50  H   UNL     1      -0.645  19.046  -2.208  1.00  0.00     0.167 HD
ATOM     51  C   UNL     1       3.346  19.661  -0.529  1.00  0.00     0.037 A 
ATOM     52  C   UNL     1      -3.386  19.522  -2.428  1.00  0.00     0.037 A 
ATOM     53  C   UNL     1       2.510  20.629   0.133  1.00  0.00     0.049 A 
ATOM     54  C   UNL     1      -2.875  20.481  -1.387  1.00  0.00     0.074 A 
ATOM     55  C   UNL     1       2.863  21.572   1.083  1.00  0.00     0.029 A 
ATOM     56  N   UNL     1       1.148  20.777  -0.088  1.00  0.00    -0.354 N 
ATOM     57  N   UNL     1      -1.655  20.643  -0.938  1.00  0.00    -0.248 NA
ATOM     58  C   UNL     1      -3.863  21.385  -0.781  1.00  0.00     0.031 C 
ATOM     59  C   UNL     1       1.709  22.265   1.464  1.00  0.00     0.029 A 
ATOM     60  C   UNL     1       0.645  21.788   0.716  1.00  0.00     0.049 A 
ATOM     61  H   UNL     1       0.618  20.244  -0.723  1.00  0.00     0.167 HD
ATOM     62  C   UNL     1      -1.720  21.683  -0.022  1.00  0.00     0.074 A 
ATOM     63  C   UNL     1      -3.099  22.127   0.007  1.00  0.00     0.031 C 
ATOM     64  C   UNL     1      -0.728  22.224   0.728  1.00  0.00     0.037 A 
BRANCH  51  65
ATOM     65  C   UNL     1       4.795  19.591  -0.140  1.00  0.00     0.064 A 
ATOM     66  C   UNL     1       5.810  20.023  -1.008  1.00  0.00     0.173 A 
ATOM     67  C   UNL     1       5.173  19.121   1.127  1.00  0.00     0.173 A 
ATOM     68  F   UNL     1       5.504  20.471  -2.235  1.00  0.00    -0.203 F 
ATOM     69  C   UNL     1       7.150  19.960  -0.633  1.00  0.00     0.198 A 
ATOM     70  C   UNL     1       6.511  19.087   1.509  1.00  0.00     0.198 A 
ATOM     71  F   UNL     1       4.243  18.701   1.997  1.00  0.00    -0.203 F 
ATOM     72  F   UNL     1       8.104  20.333  -1.497  1.00  0.00    -0.200 F 
ATOM     73  C   UNL     1       7.499  19.499   0.627  1.00  0.00     0.200 A 
ATOM     74  F   UNL     1       6.847  18.653   2.732  1.00  0.00    -0.200 F 
ATOM     75  F   UNL     1       8.788  19.445   0.989  1.00  0.00    -0.200 F 
ENDBRANCH  51  65
BRANCH  52  76
ATOM     76  C   UNL     1      -4.820  19.512  -2.815  1.00  0.00     0.064 A 
ATOM     77  C   UNL     1      -5.383  20.588  -3.515  1.00  0.00     0.173 A 
ATOM     78  C   UNL     1      -5.654  18.432  -2.496  1.00  0.00     0.173 A 
ATOM     79  F   UNL     1      -4.629  21.652  -3.827  1.00  0.00    -0.203 F 
ATOM     80  C   UNL     1      -6.732  20.594  -3.862  1.00  0.00     0.198 A 
ATOM     81  C   UNL     1      -6.997  18.426  -2.868  1.00  0.00     0.198 A 
ATOM     82  F   UNL     1      -5.161  17.375  -1.834  1.00  0.00    -0.203 F 
ATOM     83  F   UNL     1      -7.255  21.655  -4.492  1.00  0.00    -0.200 F 
ATOM     84  C   UNL     1      -7.537  19.511  -3.543  1.00  0.00     0.200 A 
ATOM     85  F   UNL     1      -7.768  17.371  -2.570  1.00  0.00    -0.200 F 
ATOM     86  F   UNL     1      -8.834  19.515  -3.880  1.00  0.00    -0.200 F 
ENDBRANCH  52  76
BRANCH  64  87
ATOM     87  C   UNL     1      -1.093  23.380   1.612  1.00  0.00     0.064 A 
ATOM     88  C   UNL     1      -1.876  23.211   2.763  1.00  0.00     0.173 A 
ATOM     89  C   UNL     1      -0.640  24.674   1.310  1.00  0.00     0.173 A 
ATOM     90  F   UNL     1      -2.346  21.997   3.088  1.00  0.00    -0.203 F 
ATOM     91  C   UNL     1      -2.223  24.300   3.559  1.00  0.00     0.198 A 
ATOM     92  C   UNL     1      -0.964  25.755   2.124  1.00  0.00     0.198 A 
ATOM     93  F   UNL     1       0.119  24.888   0.224  1.00  0.00    -0.203 F 
ATOM     94  F   UNL     1      -3.021  24.123   4.621  1.00  0.00    -0.200 F 
ATOM     95  C   UNL     1      -1.763  25.569   3.242  1.00  0.00     0.200 A 
ATOM     96  F   UNL     1      -0.508  26.979   1.823  1.00  0.00    -0.200 F 
ATOM     97  F   UNL     1      -2.100  26.616   4.008  1.00  0.00    -0.200 F 
ENDBRANCH  64  87
ENDBRANCH  38  39
ENDBRANCH  30  33
ENDBRANCH  28  29
ENDBRANCH  27  28
ENDBRANCH  26  27
ENDBRANCH  25  26
ENDBRANCH   1  25
TORSDOF 18
