REMARK SMILES Cc1ncccc1C(=O)NCCOCC(=O)NCCCCCCNC(=O)c1ccc(-c2c3nc(c(-c4c(F)c(F)c(F)c(F)c4F)c4ccc([nH]4)c(-c4c(F)c(F)c(F)c(F)c4F)c4nc(c(-c5c(F)c(F)c(F)c(F)c5F)c5ccc2[nH]5)C=C4)C=C3)cc1
REMARK SMILES IDX 19 1 18 2 17 3 15 4 16 5 14 7 13 8 12 9 11 10 10 11 8 12
REMARK SMILES IDX 9 13 7 15 1 16 2 17 3 18 4 19 6 20 5 21 20 22 21 23 22 24
REMARK SMILES IDX 23 25 24 26 25 27 26 29 27 30 28 31 89 32 29 33 88 34 30 35
REMARK SMILES IDX 31 36 32 37 82 38 33 39 87 40 81 41 83 42 34 43 86 44 80 45
REMARK SMILES IDX 79 46 35 48 67 49 47 50 66 51 48 52 51 53 65 54 84 55 49 56
REMARK SMILES IDX 50 57 64 59 85 60 52 61 36 62 37 63 45 64 38 65 39 66 43 67
REMARK SMILES IDX 46 68 40 69 41 70 44 71 42 72 68 73 69 74 77 75 70 76 71 77
REMARK SMILES IDX 75 78 78 79 72 80 73 81 76 82 74 83 53 84 54 85 62 86 55 87
REMARK SMILES IDX 56 88 60 89 63 90 57 91 58 92 61 93 59 94
REMARK H PARENT 17 6 10 14 24 28 83 47 51 58
REMARK Flexibility Score: inf
ROOT
ATOM      1  C   UNL     1       5.510  -2.430   4.888  1.00  0.00     0.021 C 
ENDROOT
BRANCH   1   2
ATOM      2  C   UNL     1       5.446  -3.765   4.144  1.00  0.00     0.116 C 
BRANCH   2   3
ATOM      3  N   UNL     1       4.082  -4.173   3.871  1.00  0.00    -0.354 N 
ATOM      4  C   UNL     1       3.516  -4.458   2.662  1.00  0.00     0.245 C 
ATOM      5  O   UNL     1       2.337  -4.806   2.618  1.00  0.00    -0.272 OA
ATOM      6  H   UNL     1       3.491  -4.254   4.654  1.00  0.00     0.163 HD
BRANCH   4   7
ATOM      7  C   UNL     1       4.370  -4.315   1.392  1.00  0.00     0.260 C 
BRANCH   7   8
ATOM      8  O   UNL     1       4.946  -3.060   1.064  1.00  0.00    -0.370 OA
BRANCH   8   9
ATOM      9  C   UNL     1       4.196  -1.912   1.454  1.00  0.00     0.182 C 
BRANCH   9  10
ATOM     10  C   UNL     1       3.221  -1.395   0.403  1.00  0.00     0.144 C 
BRANCH  10  11
ATOM     11  N   UNL     1       2.196  -2.320  -0.029  1.00  0.00    -0.350 N 
ATOM     12  C   UNL     1       0.900  -2.128  -0.426  1.00  0.00     0.253 C 
ATOM     13  O   UNL     1       0.290  -3.107  -0.860  1.00  0.00    -0.269 OA
ATOM     14  H   UNL     1       2.484  -3.262  -0.040  1.00  0.00     0.163 HD
BRANCH  12  15
ATOM     15  C   UNL     1       0.162  -0.846  -0.289  1.00  0.00     0.061 A 
ATOM     16  C   UNL     1       1.895   0.754  -1.307  1.00  0.00     0.067 C 
ATOM     17  C   UNL     1       0.590   0.436  -0.647  1.00  0.00     0.050 A 
ATOM     18  N   UNL     1      -0.195   1.540  -0.470  1.00  0.00    -0.261 NA
ATOM     19  C   UNL     1      -1.457   1.368  -0.027  1.00  0.00     0.111 A 
ATOM     20  C   UNL     1      -1.170  -0.978   0.144  1.00  0.00     0.017 A 
ATOM     21  C   UNL     1      -1.996   0.134   0.267  1.00  0.00     0.021 A 
ENDBRANCH  12  15
ENDBRANCH  10  11
ENDBRANCH   9  10
ENDBRANCH   8   9
ENDBRANCH   7   8
ENDBRANCH   4   7
ENDBRANCH   2   3
ENDBRANCH   1   2
BRANCH   1  22
ATOM     22  C   UNL     1       4.827  -2.430   6.261  1.00  0.00     0.002 C 
BRANCH  22  23
ATOM     23  C   UNL     1       5.262  -3.558   7.200  1.00  0.00     0.002 C 
BRANCH  23  24
ATOM     24  C   UNL     1       6.772  -3.668   7.419  1.00  0.00     0.021 C 
BRANCH  24  25
ATOM     25  C   UNL     1       7.418  -2.414   7.991  1.00  0.00     0.116 C 
BRANCH  25  26
ATOM     26  N   UNL     1       6.930  -2.112   9.327  1.00  0.00    -0.352 N 
ATOM     27  C   UNL     1       7.638  -1.946  10.488  1.00  0.00     0.251 C 
ATOM     28  H   UNL     1       5.954  -2.013   9.409  1.00  0.00     0.163 HD
ATOM     29  O   UNL     1       7.055  -1.908  11.571  1.00  0.00    -0.269 OA
BRANCH  27  30
ATOM     30  C   UNL     1       9.110  -1.832  10.440  1.00  0.00     0.039 A 
ATOM     31  C   UNL     1       9.875  -2.544  11.366  1.00  0.00     0.014 A 
ATOM     32  C   UNL     1       9.732  -1.022   9.485  1.00  0.00     0.014 A 
ATOM     33  C   UNL     1      11.268  -2.489  11.298  1.00  0.00     0.010 A 
ATOM     34  C   UNL     1      11.118  -1.032   9.368  1.00  0.00     0.010 A 
ATOM     35  C   UNL     1      11.901  -1.760  10.277  1.00  0.00    -0.014 A 
BRANCH  35  36
ATOM     36  C   UNL     1      13.380  -1.745  10.149  1.00  0.00     0.031 A 
ATOM     37  C   UNL     1      14.140  -0.458  10.310  1.00  0.00     0.074 A 
ATOM     38  C   UNL     1      14.031  -2.880   9.830  1.00  0.00     0.049 A 
ATOM     39  N   UNL     1      15.423  -0.231  10.177  1.00  0.00    -0.248 NA
ATOM     40  C   UNL     1      13.351   0.740  10.638  1.00  0.00     0.031 C 
ATOM     41  C   UNL     1      13.401  -4.181   9.604  1.00  0.00     0.029 A 
ATOM     42  N   UNL     1      15.368  -3.121   9.632  1.00  0.00    -0.354 N 
ATOM     43  C   UNL     1      15.590   1.130  10.394  1.00  0.00     0.074 A 
ATOM     44  C   UNL     1      14.273   1.690  10.608  1.00  0.00     0.031 C 
ATOM     45  C   UNL     1      14.350  -5.088   9.323  1.00  0.00     0.029 A 
ATOM     46  C   UNL     1      15.650  -4.425   9.306  1.00  0.00     0.049 A 
ATOM     47  H   UNL     1      16.059  -2.424   9.715  1.00  0.00     0.167 HD
ATOM     48  C   UNL     1      16.741   1.844  10.436  1.00  0.00     0.037 A 
ATOM     49  C   UNL     1      16.825  -5.017   9.017  1.00  0.00     0.037 A 
ATOM     50  C   UNL     1      18.050   1.278  10.239  1.00  0.00     0.049 A 
ATOM     51  C   UNL     1      18.086  -4.196   9.049  1.00  0.00     0.074 A 
ATOM     52  C   UNL     1      19.281   1.905  10.317  1.00  0.00     0.029 A 
ATOM     53  N   UNL     1      18.297  -0.049   9.918  1.00  0.00    -0.354 N 
ATOM     54  N   UNL     1      18.240  -2.924   9.326  1.00  0.00    -0.248 NA
ATOM     55  C   UNL     1      19.339  -4.896   8.734  1.00  0.00     0.031 C 
ATOM     56  C   UNL     1      20.268   0.972   9.985  1.00  0.00     0.029 A 
ATOM     57  C   UNL     1      19.660  -0.253   9.766  1.00  0.00     0.049 A 
ATOM     58  H   UNL     1      17.607  -0.743   9.815  1.00  0.00     0.167 HD
ATOM     59  C   UNL     1      19.605  -2.679   9.251  1.00  0.00     0.074 A 
ATOM     60  C   UNL     1      20.236  -3.938   8.918  1.00  0.00     0.031 C 
ATOM     61  C   UNL     1      20.275  -1.515   9.441  1.00  0.00     0.037 A 
BRANCH  48  62
ATOM     62  C   UNL     1      16.636   3.319  10.702  1.00  0.00     0.064 A 
ATOM     63  C   UNL     1      16.228   3.817  11.950  1.00  0.00     0.173 A 
ATOM     64  C   UNL     1      16.983   4.248   9.710  1.00  0.00     0.173 A 
ATOM     65  F   UNL     1      15.874   2.973  12.931  1.00  0.00    -0.203 F 
ATOM     66  C   UNL     1      16.142   5.187  12.183  1.00  0.00     0.198 A 
ATOM     67  C   UNL     1      16.929   5.618   9.958  1.00  0.00     0.198 A 
ATOM     68  F   UNL     1      17.385   3.829   8.501  1.00  0.00    -0.203 F 
ATOM     69  F   UNL     1      15.698   5.637  13.365  1.00  0.00    -0.200 F 
ATOM     70  C   UNL     1      16.500   6.086  11.190  1.00  0.00     0.200 A 
ATOM     71  F   UNL     1      17.291   6.485   9.002  1.00  0.00    -0.200 F 
ATOM     72  F   UNL     1      16.425   7.404  11.419  1.00  0.00    -0.200 F 
ENDBRANCH  48  62
BRANCH  49  73
ATOM     73  C   UNL     1      16.867  -6.467   8.688  1.00  0.00     0.064 A 
ATOM     74  C   UNL     1      17.483  -7.384   9.552  1.00  0.00     0.173 A 
ATOM     75  C   UNL     1      16.305  -6.965   7.504  1.00  0.00     0.173 A 
ATOM     76  F   UNL     1      18.053  -6.955  10.688  1.00  0.00    -0.203 F 
ATOM     77  C   UNL     1      17.558  -8.738   9.231  1.00  0.00     0.198 A 
ATOM     78  C   UNL     1      16.351  -8.323   7.200  1.00  0.00     0.198 A 
ATOM     79  F   UNL     1      15.698  -6.131   6.646  1.00  0.00    -0.203 F 
ATOM     80  F   UNL     1      18.199  -9.583  10.049  1.00  0.00    -0.200 F 
ATOM     81  C   UNL     1      16.986  -9.207   8.058  1.00  0.00     0.200 A 
ATOM     82  F   UNL     1      15.782  -8.775   6.074  1.00  0.00    -0.200 F 
ATOM     83  F   UNL     1      17.055 -10.510   7.752  1.00  0.00    -0.200 F 
ENDBRANCH  49  73
BRANCH  61  84
ATOM     84  C   UNL     1      21.773  -1.556   9.335  1.00  0.00     0.064 A 
ATOM     85  C   UNL     1      22.424  -1.745   8.107  1.00  0.00     0.173 A 
ATOM     86  C   UNL     1      22.569  -1.363  10.476  1.00  0.00     0.173 A 
ATOM     87  F   UNL     1      21.710  -1.948   6.989  1.00  0.00    -0.203 F 
ATOM     88  C   UNL     1      23.814  -1.769   8.030  1.00  0.00     0.198 A 
ATOM     89  C   UNL     1      23.958  -1.352  10.389  1.00  0.00     0.198 A 
ATOM     90  F   UNL     1      21.998  -1.170  11.675  1.00  0.00    -0.203 F 
ATOM     91  F   UNL     1      24.413  -2.006   6.854  1.00  0.00    -0.200 F 
ATOM     92  C   UNL     1      24.579  -1.565   9.168  1.00  0.00     0.200 A 
ATOM     93  F   UNL     1      24.695  -1.137  11.487  1.00  0.00    -0.200 F 
ATOM     94  F   UNL     1      25.917  -1.579   9.090  1.00  0.00    -0.200 F 
ENDBRANCH  61  84
ENDBRANCH  35  36
ENDBRANCH  27  30
ENDBRANCH  25  26
ENDBRANCH  24  25
ENDBRANCH  23  24
ENDBRANCH  22  23
ENDBRANCH   1  22
TORSDOF 18
