REMARK SMILES Cc1nn(-c2ccccc2)c(C)c1CNC(=O)CCCC(=O)NCCCCCCNC(=O)c1ccc(-c2c3nc(c(-c4c(F)c(F)c(F)c(F)c4F)c4ccc([nH]4)c(-c4c(F)c(F)c(F)c(F)c4F)c4nc(c(-c5c(F)c(F)c(F)c(F)c5F)c5ccc2[nH]5)C=C4)C=C3)cc1
REMARK SMILES IDX 24 1 23 2 21 3 22 4 20 6 19 7 18 8 16 9 15 10 17 12 14 13
REMARK SMILES IDX 13 14 1 15 2 16 3 17 4 18 11 19 12 20 5 21 6 22 10 23 7 24
REMARK SMILES IDX 9 25 8 26 25 27 26 28 27 29 28 30 29 31 30 32 31 33 32 35
REMARK SMILES IDX 33 36 34 37 95 38 35 39 94 40 36 41 37 42 38 43 88 44 39 45
REMARK SMILES IDX 93 46 87 47 89 48 40 49 92 50 86 51 85 52 41 54 73 55 53 56
REMARK SMILES IDX 72 57 54 58 57 59 71 60 90 61 55 62 56 63 70 65 91 66 58 67
REMARK SMILES IDX 42 68 43 69 51 70 44 71 45 72 49 73 52 74 46 75 47 76 50 77
REMARK SMILES IDX 48 78 74 79 75 80 83 81 76 82 77 83 81 84 84 85 78 86 79 87
REMARK SMILES IDX 82 88 80 89 59 90 60 91 68 92 61 93 62 94 66 95 69 96 63 97
REMARK SMILES IDX 64 98 67 99 65 100
REMARK H PARENT 23 5 15 11 30 34 89 53 57 64
REMARK Flexibility Score: inf
ROOT
ATOM      1  C   UNL     1       5.375   2.631   0.317  1.00  0.00     0.116 C 
ENDROOT
BRANCH   1   2
ATOM      2  N   UNL     1       5.024   2.688   1.711  1.00  0.00    -0.356 N 
ATOM      3  C   UNL     1       4.086   3.422   2.362  1.00  0.00     0.220 C 
ATOM      4  O   UNL     1       3.975   3.231   3.576  1.00  0.00    -0.275 OA
ATOM      5  H   UNL     1       5.554   2.095   2.291  1.00  0.00     0.163 HD
BRANCH   3   6
ATOM      6  C   UNL     1       3.123   4.355   1.646  1.00  0.00     0.100 C 
BRANCH   6   7
ATOM      7  C   UNL     1       3.631   5.577   0.896  1.00  0.00     0.020 C 
BRANCH   7   8
ATOM      8  C   UNL     1       4.183   5.529  -0.532  1.00  0.00     0.100 C 
BRANCH   8   9
ATOM      9  C   UNL     1       3.527   5.004  -1.822  1.00  0.00     0.220 C 
ATOM     10  N   UNL     1       2.767   3.908  -2.020  1.00  0.00    -0.352 N 
ATOM     11  H   UNL     1       2.473   3.854  -2.958  1.00  0.00     0.163 HD
ATOM     12  O   UNL     1       3.774   5.628  -2.868  1.00  0.00    -0.275 OA
BRANCH  10  13
ATOM     13  C   UNL     1       2.256   2.788  -1.256  1.00  0.00     0.155 C 
BRANCH  13  14
ATOM     14  C   UNL     1       0.864   2.996  -0.766  1.00  0.00     0.016 A 
ATOM     15  C   UNL     1       0.380   0.547   0.049  1.00  0.00     0.069 C 
ATOM     16  C   UNL     1       0.054   1.986  -0.158  1.00  0.00     0.065 A 
ATOM     17  N   UNL     1      -1.095   2.477   0.315  1.00  0.00    -0.173 NA
ATOM     18  N   UNL     1      -1.109   3.764  -0.091  1.00  0.00    -0.237 N 
ATOM     19  C   UNL     1       0.114   4.154  -0.618  1.00  0.00     0.046 A 
ATOM     20  C   UNL     1       0.453   5.594  -0.786  1.00  0.00     0.067 C 
BRANCH  18  21
ATOM     21  C   UNL     1      -2.203   4.624   0.166  1.00  0.00     0.065 A 
ATOM     22  C   UNL     1      -2.825   4.598   1.415  1.00  0.00     0.028 A 
ATOM     23  C   UNL     1      -2.543   5.600  -0.781  1.00  0.00     0.028 A 
ATOM     24  C   UNL     1      -3.704   5.630   1.748  1.00  0.00     0.002 A 
ATOM     25  C   UNL     1      -3.426   6.619  -0.444  1.00  0.00     0.002 A 
ATOM     26  C   UNL     1      -3.987   6.647   0.830  1.00  0.00     0.000 A 
ENDBRANCH  18  21
ENDBRANCH  13  14
ENDBRANCH  10  13
ENDBRANCH   8   9
ENDBRANCH   7   8
ENDBRANCH   6   7
ENDBRANCH   3   6
ENDBRANCH   1   2
BRANCH   1  27
ATOM     27  C   UNL     1       6.798   3.099   0.051  1.00  0.00     0.021 C 
BRANCH  27  28
ATOM     28  C   UNL     1       7.809   1.960   0.103  1.00  0.00     0.002 C 
BRANCH  28  29
ATOM     29  C   UNL     1       7.577   0.839  -0.922  1.00  0.00     0.002 C 
BRANCH  29  30
ATOM     30  C   UNL     1       7.462   1.261  -2.396  1.00  0.00     0.021 C 
BRANCH  30  31
ATOM     31  C   UNL     1       8.713   1.927  -2.950  1.00  0.00     0.116 C 
BRANCH  31  32
ATOM     32  N   UNL     1       9.889   1.069  -2.829  1.00  0.00    -0.352 N 
ATOM     33  C   UNL     1      11.222   1.379  -3.017  1.00  0.00     0.251 C 
ATOM     34  H   UNL     1       9.705   0.136  -2.577  1.00  0.00     0.163 HD
ATOM     35  O   UNL     1      12.052   0.507  -3.191  1.00  0.00    -0.269 OA
BRANCH  33  36
ATOM     36  C   UNL     1      11.620   2.796  -3.009  1.00  0.00     0.039 A 
ATOM     37  C   UNL     1      12.516   3.290  -3.958  1.00  0.00     0.014 A 
ATOM     38  C   UNL     1      11.051   3.635  -2.055  1.00  0.00     0.014 A 
ATOM     39  C   UNL     1      12.766   4.658  -3.991  1.00  0.00     0.010 A 
ATOM     40  C   UNL     1      11.175   4.993  -2.186  1.00  0.00     0.010 A 
ATOM     41  C   UNL     1      12.070   5.508  -3.116  1.00  0.00    -0.014 A 
BRANCH  41  42
ATOM     42  C   UNL     1      12.188   6.955  -3.245  1.00  0.00     0.031 A 
ATOM     43  C   UNL     1      11.868   7.475  -4.601  1.00  0.00     0.074 A 
ATOM     44  C   UNL     1      12.361   7.775  -2.186  1.00  0.00     0.049 A 
ATOM     45  N   UNL     1      12.681   8.012  -5.448  1.00  0.00    -0.248 NA
ATOM     46  C   UNL     1      10.515   7.253  -5.139  1.00  0.00     0.031 C 
ATOM     47  C   UNL     1      12.349   7.417  -0.761  1.00  0.00     0.029 A 
ATOM     48  N   UNL     1      12.474   9.133  -2.151  1.00  0.00    -0.354 N 
ATOM     49  C   UNL     1      11.903   8.392  -6.541  1.00  0.00     0.074 A 
ATOM     50  C   UNL     1      10.633   7.738  -6.378  1.00  0.00     0.031 C 
ATOM     51  C   UNL     1      12.201   8.530  -0.013  1.00  0.00     0.029 A 
ATOM     52  C   UNL     1      12.305   9.683  -0.886  1.00  0.00     0.049 A 
ATOM     53  H   UNL     1      12.659   9.676  -2.951  1.00  0.00     0.167 HD
ATOM     54  C   UNL     1      12.284   9.441  -7.322  1.00  0.00     0.037 A 
ATOM     55  C   UNL     1      12.246  10.998  -0.575  1.00  0.00     0.037 A 
ATOM     56  C   UNL     1      13.644   9.816  -7.033  1.00  0.00     0.049 A 
ATOM     57  C   UNL     1      12.902  11.742  -1.673  1.00  0.00     0.074 A 
ATOM     58  C   UNL     1      14.901   9.317  -7.290  1.00  0.00     0.029 A 
ATOM     59  N   UNL     1      13.758  10.701  -5.995  1.00  0.00    -0.354 N 
ATOM     60  N   UNL     1      14.175  11.653  -1.942  1.00  0.00    -0.248 NA
ATOM     61  C   UNL     1      12.082  12.337  -2.721  1.00  0.00     0.031 C 
ATOM     62  C   UNL     1      15.734   9.786  -6.229  1.00  0.00     0.029 A 
ATOM     63  C   UNL     1      14.973  10.590  -5.381  1.00  0.00     0.049 A 
ATOM     64  H   UNL     1      13.055  11.336  -5.726  1.00  0.00     0.167 HD
ATOM     65  C   UNL     1      14.241  11.764  -3.317  1.00  0.00     0.074 A 
ATOM     66  C   UNL     1      12.975  12.367  -3.713  1.00  0.00     0.031 C 
ATOM     67  C   UNL     1      15.167  11.058  -4.027  1.00  0.00     0.037 A 
BRANCH  54  68
ATOM     68  C   UNL     1      11.343  10.453  -7.951  1.00  0.00     0.064 A 
ATOM     69  C   UNL     1      11.885  11.455  -8.787  1.00  0.00     0.173 A 
ATOM     70  C   UNL     1      10.025  10.689  -7.505  1.00  0.00     0.173 A 
ATOM     71  F   UNL     1      13.137  11.348  -9.258  1.00  0.00    -0.203 F 
ATOM     72  C   UNL     1      11.192  12.635  -9.078  1.00  0.00     0.198 A 
ATOM     73  C   UNL     1       9.318  11.844  -7.840  1.00  0.00     0.198 A 
ATOM     74  F   UNL     1       9.410   9.882  -6.635  1.00  0.00    -0.203 F 
ATOM     75  F   UNL     1      11.797  13.612  -9.767  1.00  0.00    -0.200 F 
ATOM     76  C   UNL     1       9.911  12.831  -8.598  1.00  0.00     0.200 A 
ATOM     77  F   UNL     1       8.086  12.028  -7.344  1.00  0.00    -0.200 F 
ATOM     78  F   UNL     1       9.268  13.985  -8.819  1.00  0.00    -0.200 F 
ENDBRANCH  54  68
BRANCH  55  79
ATOM     79  C   UNL     1      11.459  11.667   0.484  1.00  0.00     0.064 A 
ATOM     80  C   UNL     1      11.771  12.969   0.905  1.00  0.00     0.173 A 
ATOM     81  C   UNL     1      10.211  11.155   0.891  1.00  0.00     0.173 A 
ATOM     82  F   UNL     1      12.926  13.539   0.532  1.00  0.00    -0.203 F 
ATOM     83  C   UNL     1      10.867  13.734   1.649  1.00  0.00     0.198 A 
ATOM     84  C   UNL     1       9.312  11.918   1.637  1.00  0.00     0.198 A 
ATOM     85  F   UNL     1       9.802   9.944   0.486  1.00  0.00    -0.203 F 
ATOM     86  F   UNL     1      11.168  15.000   1.969  1.00  0.00    -0.200 F 
ATOM     87  C   UNL     1       9.632  13.213   2.000  1.00  0.00     0.200 A 
ATOM     88  F   UNL     1       8.107  11.415   1.941  1.00  0.00    -0.200 F 
ATOM     89  F   UNL     1       8.736  13.971   2.648  1.00  0.00    -0.200 F 
ENDBRANCH  55  79
BRANCH  67  90
ATOM     90  C   UNL     1      16.392  10.603  -3.295  1.00  0.00     0.064 A 
ATOM     91  C   UNL     1      16.401   9.651  -2.264  1.00  0.00     0.173 A 
ATOM     92  C   UNL     1      17.628  11.108  -3.721  1.00  0.00     0.173 A 
ATOM     93  F   UNL     1      15.270   9.063  -1.856  1.00  0.00    -0.203 F 
ATOM     94  C   UNL     1      17.594   9.258  -1.659  1.00  0.00     0.198 A 
ATOM     95  C   UNL     1      18.819  10.686  -3.143  1.00  0.00     0.198 A 
ATOM     96  F   UNL     1      17.680  11.991  -4.732  1.00  0.00    -0.203 F 
ATOM     97  F   UNL     1      17.578   8.363  -0.659  1.00  0.00    -0.200 F 
ATOM     98  C   UNL     1      18.802   9.771  -2.104  1.00  0.00     0.200 A 
ATOM     99  F   UNL     1      19.986  11.155  -3.607  1.00  0.00    -0.200 F 
ATOM    100  F   UNL     1      19.951   9.369  -1.545  1.00  0.00    -0.200 F 
ENDBRANCH  67  90
ENDBRANCH  41  42
ENDBRANCH  33  36
ENDBRANCH  31  32
ENDBRANCH  30  31
ENDBRANCH  29  30
ENDBRANCH  28  29
ENDBRANCH  27  28
ENDBRANCH   1  27
TORSDOF 19
