REMARK SMILES Cc1c(CC(=O)NCCCCCCNC(=O)c2ccc(-c3c4nc(c(-c5c(F)c(F)c(F)c(F)c5F)c5ccc([nH]5)c(-c5c(F)c(F)c(F)c(F)c5F)c5nc(c(-c6c(F)c(F)c(F)c(F)c6F)c6ccc3[nH]6)C=C5)C=C4)cc2)c2cc(O)ccc2n1C(=O)c1ccc(Cl)cc1
REMARK SMILES IDX 10 1 9 2 8 3 7 4 5 5 6 6 4 8 3 9 1 10 2 11 87 12 80 13 86 14
REMARK SMILES IDX 81 15 85 16 82 17 84 18 88 19 89 20 90 21 91 22 96 23 92 24
REMARK SMILES IDX 95 25 93 26 94 27 83 28 11 30 12 31 13 32 14 33 15 34 16 36
REMARK SMILES IDX 17 37 18 38 79 39 19 40 78 41 20 42 21 43 22 44 72 45 23 46
REMARK SMILES IDX 77 47 71 48 73 49 24 50 76 51 70 52 69 53 25 55 57 56 37 57
REMARK SMILES IDX 56 58 38 59 41 60 55 61 74 62 39 63 40 64 54 66 75 67 42 68
REMARK SMILES IDX 26 69 27 70 35 71 28 72 29 73 33 74 36 75 30 76 31 77 34 78
REMARK SMILES IDX 32 79 58 80 59 81 67 82 60 83 61 84 65 85 68 86 62 87 63 88
REMARK SMILES IDX 66 89 64 90 43 91 44 92 52 93 45 94 46 95 50 96 53 97 47 98
REMARK SMILES IDX 48 99 51 100 49 101
REMARK H PARENT 7 7 83 29 14 35 73 54 41 65
REMARK Flexibility Score: inf
ROOT
ATOM      1  C   UNL     1      -1.541  -2.574   4.233  1.00  0.00     0.002 C 
ENDROOT
BRANCH   1   2
ATOM      2  C   UNL     1      -0.969  -2.013   2.925  1.00  0.00     0.021 C 
BRANCH   2   3
ATOM      3  C   UNL     1       0.490  -1.574   3.046  1.00  0.00     0.116 C 
BRANCH   3   4
ATOM      4  N   UNL     1       1.374  -2.718   3.121  1.00  0.00    -0.356 N 
ATOM      5  C   UNL     1       2.203  -3.220   2.159  1.00  0.00     0.224 C 
ATOM      6  O   UNL     1       2.830  -4.252   2.409  1.00  0.00    -0.275 OA
ATOM      7  H   UNL     1       1.379  -3.197   3.981  1.00  0.00     0.163 HD
BRANCH   5   8
ATOM      8  C   UNL     1       2.392  -2.473   0.848  1.00  0.00     0.138 C 
BRANCH   8   9
ATOM      9  C   UNL     1       1.161  -2.431  -0.015  1.00  0.00    -0.009 A 
ATOM     10  C   UNL     1       0.931   0.132  -0.384  1.00  0.00     0.065 C 
ATOM     11  C   UNL     1       0.530  -1.304  -0.526  1.00  0.00     0.028 A 
ATOM     12  N   UNL     1      -0.636  -1.703  -1.193  1.00  0.00    -0.280 N 
ATOM     13  C   UNL     1       0.450  -3.565  -0.499  1.00  0.00     0.008 A 
ATOM     14  C   UNL     1      -0.599  -3.103  -1.304  1.00  0.00     0.057 A 
ATOM     15  C   UNL     1       0.635  -4.957  -0.335  1.00  0.00     0.056 A 
ATOM     16  C   UNL     1      -1.398  -4.026  -2.014  1.00  0.00     0.031 A 
ATOM     17  C   UNL     1      -0.213  -5.850  -0.980  1.00  0.00     0.116 A 
ATOM     18  C   UNL     1      -1.210  -5.398  -1.823  1.00  0.00     0.048 A 
BRANCH  12  19
ATOM     19  C   UNL     1      -1.669  -0.833  -1.648  1.00  0.00     0.262 C 
ATOM     20  O   UNL     1      -1.568   0.379  -1.440  1.00  0.00    -0.268 OA
BRANCH  19  21
ATOM     21  C   UNL     1      -2.883  -1.257  -2.359  1.00  0.00     0.040 A 
ATOM     22  C   UNL     1      -3.873  -1.999  -1.704  1.00  0.00     0.015 A 
ATOM     23  C   UNL     1      -3.000  -0.939  -3.716  1.00  0.00     0.015 A 
ATOM     24  C   UNL     1      -4.943  -2.507  -2.445  1.00  0.00     0.021 A 
ATOM     25  C   UNL     1      -4.076  -1.442  -4.447  1.00  0.00     0.021 A 
ATOM     26  C   UNL     1      -5.029  -2.242  -3.814  1.00  0.00     0.041 A 
ATOM     27  Cl  UNL     1      -6.307  -2.932  -4.737  1.00  0.00    -0.084 Cl
ENDBRANCH  19  21
ENDBRANCH  12  19
BRANCH  17  28
ATOM     28  O   UNL     1      -0.015  -7.181  -0.767  1.00  0.00    -0.508 OA
ATOM     29  H   UNL     1       0.667  -7.467  -0.191  1.00  0.00     0.293 HD
ENDBRANCH  17  28
ENDBRANCH   8   9
ENDBRANCH   5   8
ENDBRANCH   3   4
ENDBRANCH   2   3
ENDBRANCH   1   2
BRANCH   1  30
ATOM     30  C   UNL     1      -1.594  -1.569   5.390  1.00  0.00     0.002 C 
BRANCH  30  31
ATOM     31  C   UNL     1      -2.378  -0.287   5.093  1.00  0.00     0.021 C 
BRANCH  31  32
ATOM     32  C   UNL     1      -3.818  -0.528   4.638  1.00  0.00     0.116 C 
BRANCH  32  33
ATOM     33  N   UNL     1      -4.621  -1.258   5.597  1.00  0.00    -0.352 N 
ATOM     34  C   UNL     1      -5.337  -0.913   6.709  1.00  0.00     0.251 C 
ATOM     35  H   UNL     1      -4.660  -2.223   5.404  1.00  0.00     0.163 HD
ATOM     36  O   UNL     1      -6.014  -1.804   7.227  1.00  0.00    -0.269 OA
BRANCH  34  37
ATOM     37  C   UNL     1      -5.277   0.415   7.374  1.00  0.00     0.039 A 
ATOM     38  C   UNL     1      -4.636   1.544   6.867  1.00  0.00     0.014 A 
ATOM     39  C   UNL     1      -5.848   0.485   8.659  1.00  0.00     0.014 A 
ATOM     40  C   UNL     1      -4.418   2.647   7.678  1.00  0.00     0.010 A 
ATOM     41  C   UNL     1      -5.671   1.603   9.461  1.00  0.00     0.010 A 
ATOM     42  C   UNL     1      -4.891   2.652   8.991  1.00  0.00    -0.014 A 
BRANCH  42  43
ATOM     43  C   UNL     1      -4.618   3.836   9.795  1.00  0.00     0.031 A 
ATOM     44  C   UNL     1      -5.178   5.096   9.230  1.00  0.00     0.074 A 
ATOM     45  C   UNL     1      -3.979   3.780  10.981  1.00  0.00     0.049 A 
ATOM     46  N   UNL     1      -4.550   6.173   8.884  1.00  0.00    -0.248 NA
ATOM     47  C   UNL     1      -6.613   5.104   8.891  1.00  0.00     0.031 C 
ATOM     48  C   UNL     1      -3.607   2.589  11.750  1.00  0.00     0.029 A 
ATOM     49  N   UNL     1      -3.598   4.800  11.801  1.00  0.00    -0.354 N 
ATOM     50  C   UNL     1      -5.530   7.058   8.440  1.00  0.00     0.074 A 
ATOM     51  C   UNL     1      -6.754   6.308   8.337  1.00  0.00     0.031 C 
ATOM     52  C   UNL     1      -3.272   2.953  13.009  1.00  0.00     0.029 A 
ATOM     53  C   UNL     1      -3.268   4.402  13.091  1.00  0.00     0.049 A 
ATOM     54  H   UNL     1      -3.561   5.738  11.505  1.00  0.00     0.167 HD
ATOM     55  C   UNL     1      -5.319   8.401   8.402  1.00  0.00     0.037 A 
ATOM     56  C   UNL     1      -3.074   5.215  14.159  1.00  0.00     0.037 A 
ATOM     57  C   UNL     1      -3.919   8.719   8.369  1.00  0.00     0.049 A 
ATOM     58  C   UNL     1      -2.798   6.573  13.634  1.00  0.00     0.074 A 
ATOM     59  C   UNL     1      -2.895   8.516   7.467  1.00  0.00     0.029 A 
ATOM     60  N   UNL     1      -3.317   9.047   9.555  1.00  0.00    -0.354 N 
ATOM     61  N   UNL     1      -1.723   6.900  12.976  1.00  0.00    -0.248 NA
ATOM     62  C   UNL     1      -3.921   7.486  13.494  1.00  0.00     0.031 C 
ATOM     63  C   UNL     1      -1.735   8.288   8.264  1.00  0.00     0.029 A 
ATOM     64  C   UNL     1      -2.103   8.413   9.604  1.00  0.00     0.049 A 
ATOM     65  H   UNL     1      -3.692   9.635  10.251  1.00  0.00     0.167 HD
ATOM     66  C   UNL     1      -2.159   7.802  12.019  1.00  0.00     0.074 A 
ATOM     67  C   UNL     1      -3.490   8.208  12.457  1.00  0.00     0.031 C 
ATOM     68  C   UNL     1      -1.510   7.917  10.824  1.00  0.00     0.037 A 
BRANCH  55  69
ATOM     69  C   UNL     1      -6.378   9.409   8.772  1.00  0.00     0.064 A 
ATOM     70  C   UNL     1      -6.166  10.778   8.525  1.00  0.00     0.173 A 
ATOM     71  C   UNL     1      -7.467   9.103   9.619  1.00  0.00     0.173 A 
ATOM     72  F   UNL     1      -5.129  11.184   7.777  1.00  0.00    -0.203 F 
ATOM     73  C   UNL     1      -6.965  11.765   9.113  1.00  0.00     0.198 A 
ATOM     74  C   UNL     1      -8.294  10.085  10.159  1.00  0.00     0.198 A 
ATOM     75  F   UNL     1      -7.702   7.857  10.050  1.00  0.00    -0.203 F 
ATOM     76  F   UNL     1      -6.662  13.058   8.939  1.00  0.00    -0.200 F 
ATOM     77  C   UNL     1      -8.030  11.417   9.926  1.00  0.00     0.200 A 
ATOM     78  F   UNL     1      -9.300   9.726  10.969  1.00  0.00    -0.200 F 
ATOM     79  F   UNL     1      -8.766  12.360  10.527  1.00  0.00    -0.200 F 
ENDBRANCH  55  69
BRANCH  56  80
ATOM     80  C   UNL     1      -3.469   4.994  15.573  1.00  0.00     0.064 A 
ATOM     81  C   UNL     1      -2.980   5.827  16.595  1.00  0.00     0.173 A 
ATOM     82  C   UNL     1      -4.563   4.173  15.908  1.00  0.00     0.173 A 
ATOM     83  F   UNL     1      -1.967   6.671  16.349  1.00  0.00    -0.203 F 
ATOM     84  C   UNL     1      -3.578   5.869  17.859  1.00  0.00     0.198 A 
ATOM     85  C   UNL     1      -5.154   4.210  17.172  1.00  0.00     0.198 A 
ATOM     86  F   UNL     1      -5.148   3.395  14.986  1.00  0.00    -0.203 F 
ATOM     87  F   UNL     1      -3.132   6.733  18.782  1.00  0.00    -0.200 F 
ATOM     88  C   UNL     1      -4.673   5.071  18.141  1.00  0.00     0.200 A 
ATOM     89  F   UNL     1      -6.237   3.460  17.421  1.00  0.00    -0.200 F 
ATOM     90  F   UNL     1      -5.293   5.162  19.326  1.00  0.00    -0.200 F 
ENDBRANCH  56  80
BRANCH  68  91
ATOM     91  C   UNL     1      -0.157   7.270  10.707  1.00  0.00     0.064 A 
ATOM     92  C   UNL     1       0.065   5.883  10.775  1.00  0.00     0.173 A 
ATOM     93  C   UNL     1       0.937   8.080  10.374  1.00  0.00     0.173 A 
ATOM     94  F   UNL     1      -0.945   5.033  10.997  1.00  0.00    -0.203 F 
ATOM     95  C   UNL     1       1.331   5.341  10.555  1.00  0.00     0.198 A 
ATOM     96  C   UNL     1       2.191   7.534  10.117  1.00  0.00     0.198 A 
ATOM     97  F   UNL     1       0.774   9.406  10.245  1.00  0.00    -0.203 F 
ATOM     98  F   UNL     1       1.519   4.015  10.633  1.00  0.00    -0.200 F 
ATOM     99  C   UNL     1       2.390   6.167  10.216  1.00  0.00     0.200 A 
ATOM    100  F   UNL     1       3.200   8.332   9.741  1.00  0.00    -0.200 F 
ATOM    101  F   UNL     1       3.596   5.642   9.955  1.00  0.00    -0.200 F 
ENDBRANCH  68  91
ENDBRANCH  42  43
ENDBRANCH  34  37
ENDBRANCH  32  33
ENDBRANCH  31  32
ENDBRANCH  30  31
ENDBRANCH   1  30
TORSDOF 17
