REMARK SMILES O=C(NCCCCCCNC(=O)c1nc2c(F)cccc2s1)c1ccc(-c2c3nc(c(-c4c(F)c(F)c(F)c(F)c4F)c4ccc([nH]4)c(-c4c(F)c(F)c(F)c(F)c4F)c4nc(c(-c5c(F)c(F)c(F)c(F)c5F)c5ccc2[nH]5)C=C4)C=C3)cc1
REMARK SMILES IDX 5 1 4 2 3 3 1 4 2 5 23 7 24 8 85 9 25 10 84 11 26 12 27 13
REMARK SMILES IDX 28 14 78 15 29 16 83 17 77 18 79 19 30 20 82 21 76 22 75 23
REMARK SMILES IDX 31 25 63 26 43 27 62 28 44 29 47 30 61 31 80 32 45 33 46 34
REMARK SMILES IDX 60 36 81 37 48 38 32 39 33 40 41 41 34 42 35 43 39 44 42 45
REMARK SMILES IDX 36 46 37 47 40 48 38 49 64 50 65 51 73 52 66 53 67 54 71 55
REMARK SMILES IDX 74 56 68 57 69 58 72 59 70 60 49 61 50 62 58 63 51 64 52 65
REMARK SMILES IDX 56 66 59 67 53 68 54 69 57 70 55 71 6 72 7 73 8 74 9 75
REMARK SMILES IDX 10 76 11 77 12 79 13 80 14 81 22 82 15 83 21 84 16 85 20 86
REMARK SMILES IDX 17 87 18 88 19 89
REMARK H PARENT 3 6 79 24 47 35 10 78
REMARK Flexibility Score: inf
ROOT
ATOM      1  C   UNL     1       4.698  -2.346   0.082  1.00  0.00     0.021 C 
ENDROOT
BRANCH   1   2
ATOM      2  C   UNL     1       4.563  -1.049  -0.715  1.00  0.00     0.116 C 
BRANCH   2   3
ATOM      3  N   UNL     1       3.199  -0.611  -0.941  1.00  0.00    -0.352 N 
ATOM      4  O   UNL     1       1.209   0.370  -0.658  1.00  0.00    -0.269 OA
ATOM      5  C   UNL     1       2.288   0.050  -0.160  1.00  0.00     0.251 C 
ATOM      6  H   UNL     1       2.858  -0.834  -1.837  1.00  0.00     0.163 HD
BRANCH   5   7
ATOM      7  C   UNL     1       2.506   0.280   1.284  1.00  0.00     0.039 A 
ATOM      8  C   UNL     1       3.753   0.532   1.854  1.00  0.00     0.014 A 
ATOM      9  C   UNL     1       1.371   0.203   2.107  1.00  0.00     0.014 A 
ATOM     10  C   UNL     1       3.898   0.514   3.231  1.00  0.00     0.010 A 
ATOM     11  C   UNL     1       1.501   0.239   3.487  1.00  0.00     0.010 A 
ATOM     12  C   UNL     1       2.774   0.335   4.042  1.00  0.00    -0.014 A 
BRANCH  12  13
ATOM     13  C   UNL     1       2.965   0.462   5.481  1.00  0.00     0.031 A 
ATOM     14  C   UNL     1       3.409   1.824   5.903  1.00  0.00     0.074 A 
ATOM     15  C   UNL     1       2.657  -0.514   6.357  1.00  0.00     0.049 A 
ATOM     16  N   UNL     1       4.484   2.158   6.542  1.00  0.00    -0.248 NA
ATOM     17  C   UNL     1       2.611   2.972   5.434  1.00  0.00     0.031 C 
ATOM     18  C   UNL     1       1.967  -1.779   6.098  1.00  0.00     0.029 A 
ATOM     19  N   UNL     1       2.827  -0.534   7.708  1.00  0.00    -0.354 N 
ATOM     20  C   UNL     1       4.416   3.541   6.702  1.00  0.00     0.074 A 
ATOM     21  C   UNL     1       3.323   4.002   5.887  1.00  0.00     0.031 C 
ATOM     22  C   UNL     1       1.579  -2.325   7.274  1.00  0.00     0.029 A 
ATOM     23  C   UNL     1       2.103  -1.521   8.364  1.00  0.00     0.049 A 
ATOM     24  H   UNL     1       3.414   0.100   8.180  1.00  0.00     0.167 HD
ATOM     25  C   UNL     1       5.125   4.189   7.664  1.00  0.00     0.037 A 
ATOM     26  C   UNL     1       1.897  -1.609   9.704  1.00  0.00     0.037 A 
ATOM     27  C   UNL     1       6.245   3.415   8.116  1.00  0.00     0.049 A 
ATOM     28  C   UNL     1       2.934  -0.779  10.366  1.00  0.00     0.074 A 
ATOM     29  C   UNL     1       7.397   2.941   7.519  1.00  0.00     0.029 A 
ATOM     30  N   UNL     1       6.111   2.701   9.279  1.00  0.00    -0.354 N 
ATOM     31  N   UNL     1       4.206  -1.066  10.368  1.00  0.00    -0.248 NA
ATOM     32  C   UNL     1       2.602   0.609  10.647  1.00  0.00     0.031 C 
ATOM     33  C   UNL     1       7.607   1.653   8.093  1.00  0.00     0.029 A 
ATOM     34  C   UNL     1       6.610   1.446   9.046  1.00  0.00     0.049 A 
ATOM     35  H   UNL     1       5.727   3.029  10.124  1.00  0.00     0.167 HD
ATOM     36  C   UNL     1       4.840   0.159  10.225  1.00  0.00     0.074 A 
ATOM     37  C   UNL     1       3.806   1.159  10.478  1.00  0.00     0.031 C 
ATOM     38  C   UNL     1       6.069   0.247   9.641  1.00  0.00     0.037 A 
BRANCH  25  39
ATOM     39  C   UNL     1       4.588   5.373   8.423  1.00  0.00     0.064 A 
ATOM     40  C   UNL     1       5.445   6.142   9.231  1.00  0.00     0.173 A 
ATOM     41  C   UNL     1       3.206   5.603   8.603  1.00  0.00     0.173 A 
ATOM     42  F   UNL     1       6.774   5.966   9.177  1.00  0.00    -0.203 F 
ATOM     43  C   UNL     1       4.949   7.051  10.171  1.00  0.00     0.198 A 
ATOM     44  C   UNL     1       2.717   6.548   9.501  1.00  0.00     0.198 A 
ATOM     45  F   UNL     1       2.279   4.845   8.003  1.00  0.00    -0.203 F 
ATOM     46  F   UNL     1       5.794   7.684  10.995  1.00  0.00    -0.200 F 
ATOM     47  C   UNL     1       3.586   7.255  10.303  1.00  0.00     0.200 A 
ATOM     48  F   UNL     1       1.392   6.707   9.634  1.00  0.00    -0.200 F 
ATOM     49  F   UNL     1       3.108   8.089  11.235  1.00  0.00    -0.200 F 
ENDBRANCH  25  39
BRANCH  26  50
ATOM     50  C   UNL     1       0.664  -2.027  10.421  1.00  0.00     0.064 A 
ATOM     51  C   UNL     1       0.688  -2.281  11.805  1.00  0.00     0.173 A 
ATOM     52  C   UNL     1      -0.609  -1.883   9.837  1.00  0.00     0.173 A 
ATOM     53  F   UNL     1       1.858  -2.387  12.451  1.00  0.00    -0.203 F 
ATOM     54  C   UNL     1      -0.488  -2.348  12.561  1.00  0.00     0.198 A 
ATOM     55  C   UNL     1      -1.781  -1.958  10.591  1.00  0.00     0.198 A 
ATOM     56  F   UNL     1      -0.740  -1.566   8.541  1.00  0.00    -0.203 F 
ATOM     57  F   UNL     1      -0.421  -2.519  13.889  1.00  0.00    -0.200 F 
ATOM     58  C   UNL     1      -1.721  -2.173  11.955  1.00  0.00     0.200 A 
ATOM     59  F   UNL     1      -2.966  -1.748   9.999  1.00  0.00    -0.200 F 
ATOM     60  F   UNL     1      -2.843  -2.166  12.688  1.00  0.00    -0.200 F 
ENDBRANCH  26  50
BRANCH  38  61
ATOM     61  C   UNL     1       6.816  -1.033   9.383  1.00  0.00     0.064 A 
ATOM     62  C   UNL     1       6.380  -2.032   8.495  1.00  0.00     0.173 A 
ATOM     63  C   UNL     1       8.095  -1.176   9.937  1.00  0.00     0.173 A 
ATOM     64  F   UNL     1       5.212  -1.922   7.850  1.00  0.00    -0.203 F 
ATOM     65  C   UNL     1       7.179  -3.137   8.201  1.00  0.00     0.198 A 
ATOM     66  C   UNL     1       8.904  -2.261   9.613  1.00  0.00     0.198 A 
ATOM     67  F   UNL     1       8.584  -0.227  10.749  1.00  0.00    -0.203 F 
ATOM     68  F   UNL     1       6.741  -4.077   7.350  1.00  0.00    -0.200 F 
ATOM     69  C   UNL     1       8.444  -3.245   8.753  1.00  0.00     0.200 A 
ATOM     70  F   UNL     1      10.148  -2.334  10.109  1.00  0.00    -0.200 F 
ATOM     71  F   UNL     1       9.234  -4.279   8.430  1.00  0.00    -0.200 F 
ENDBRANCH  38  61
ENDBRANCH  12  13
ENDBRANCH   5   7
ENDBRANCH   2   3
ENDBRANCH   1   2
BRANCH   1  72
ATOM     72  C   UNL     1       4.195  -3.592  -0.652  1.00  0.00     0.002 C 
BRANCH  72  73
ATOM     73  C   UNL     1       4.726  -3.771  -2.079  1.00  0.00     0.002 C 
BRANCH  73  74
ATOM     74  C   UNL     1       6.252  -3.748  -2.219  1.00  0.00     0.021 C 
BRANCH  74  75
ATOM     75  C   UNL     1       6.976  -4.874  -1.489  1.00  0.00     0.116 C 
BRANCH  75  76
ATOM     76  N   UNL     1       6.655  -6.177  -2.047  1.00  0.00    -0.350 N 
ATOM     77  C   UNL     1       7.516  -7.159  -2.489  1.00  0.00     0.280 C 
ATOM     78  H   UNL     1       5.695  -6.386  -2.119  1.00  0.00     0.163 HD
ATOM     79  O   UNL     1       7.008  -8.125  -3.081  1.00  0.00    -0.267 OA
BRANCH  77  80
ATOM     80  C   UNL     1       8.943  -7.012  -2.260  1.00  0.00     0.182 A 
ATOM     81  N   UNL     1       9.837  -7.005  -3.226  1.00  0.00    -0.228 NA
ATOM     82  S   UNL     1       9.562  -6.859  -0.667  1.00  0.00    -0.109 S 
ATOM     83  C   UNL     1      11.091  -6.716  -2.701  1.00  0.00     0.118 A 
ATOM     84  C   UNL     1      11.122  -6.534  -1.315  1.00  0.00     0.058 A 
ATOM     85  C   UNL     1      12.300  -6.562  -3.412  1.00  0.00     0.150 A 
ATOM     86  C   UNL     1      12.291  -6.150  -0.636  1.00  0.00     0.021 A 
ATOM     87  F   UNL     1      12.340  -6.749  -4.739  1.00  0.00    -0.205 F 
ATOM     88  C   UNL     1      13.472  -6.191  -2.751  1.00  0.00     0.041 A 
ATOM     89  C   UNL     1      13.463  -5.971  -1.378  1.00  0.00     0.005 A 
ENDBRANCH  77  80
ENDBRANCH  75  76
ENDBRANCH  74  75
ENDBRANCH  73  74
ENDBRANCH  72  73
ENDBRANCH   1  72
TORSDOF 13
