REMARK SMILES Nc1ccc(C(=O)NC[C@@H]2CC[C@@H](C(=O)NCCCCCCNC(=O)c3ccc(-c4c5nc(c(-c6c(F)c(F)c(F)c(F)c6F)c6ccc([nH]6)c(-c6c(F)c(F)c(F)c(F)c6F)c6nc(c(-c7c(F)c(F)c(F)c(F)c7F)c7ccc4[nH]7)C=C6)C=C5)cc3)O2)cc1Cl
REMARK SMILES IDX 18 1 17 2 16 3 14 4 15 5 13 7 10 8 11 9 89 10 12 11 9 12
REMARK SMILES IDX 8 13 6 14 7 15 5 17 2 18 3 19 91 20 4 21 90 22 92 23 1 24
REMARK SMILES IDX 19 27 20 28 21 29 22 30 23 31 24 32 25 34 26 35 27 36 88 37
REMARK SMILES IDX 28 38 87 39 29 40 30 41 31 42 81 43 32 44 86 45 80 46 82 47
REMARK SMILES IDX 33 48 85 49 79 50 78 51 34 53 66 54 46 55 65 56 47 57 50 58
REMARK SMILES IDX 64 59 83 60 48 61 49 62 63 64 84 65 51 66 35 67 36 68 44 69
REMARK SMILES IDX 37 70 38 71 42 72 45 73 39 74 40 75 43 76 41 77 67 78 68 79
REMARK SMILES IDX 76 80 69 81 70 82 74 83 77 84 71 85 72 86 75 87 73 88 52 89
REMARK SMILES IDX 53 90 61 91 54 92 55 93 59 94 62 95 56 96 57 97 60 98 58 99
REMARK H PARENT 16 6 8 16 1 25 1 26 23 33 82 52 50 63
REMARK Flexibility Score: inf
ROOT
ATOM      1  C   UNL     1       4.670  -4.115  -2.870  1.00  0.00     0.021 C 
ENDROOT
BRANCH   1   2
ATOM      2  C   UNL     1       5.398  -2.861  -2.391  1.00  0.00     0.116 C 
BRANCH   2   3
ATOM      3  N   UNL     1       6.206  -2.266  -3.435  1.00  0.00    -0.354 N 
ATOM      4  C   UNL     1       6.274  -0.961  -3.828  1.00  0.00     0.249 C 
ATOM      5  O   UNL     1       7.061  -0.678  -4.734  1.00  0.00    -0.272 OA
ATOM      6  H   UNL     1       6.786  -2.889  -3.929  1.00  0.00     0.163 HD
BRANCH   4   7
ATOM      7  C   UNL     1       5.331   0.079  -3.189  1.00  0.00     0.207 C 
ATOM      8  C   UNL     1       5.758   1.371  -1.288  1.00  0.00     0.138 C 
ATOM      9  C   UNL     1       5.352   2.320  -2.401  1.00  0.00     0.037 C 
ATOM     10  O   UNL     1       5.353   0.070  -1.748  1.00  0.00    -0.363 OA
ATOM     11  C   UNL     1       5.680   1.501  -3.623  1.00  0.00     0.045 C 
BRANCH   8  12
ATOM     12  C   UNL     1       5.206   1.669   0.117  1.00  0.00     0.148 C 
BRANCH  12  13
ATOM     13  N   UNL     1       4.072   2.581   0.148  1.00  0.00    -0.349 N 
ATOM     14  C   UNL     1       2.713   2.477   0.082  1.00  0.00     0.251 C 
ATOM     15  O   UNL     1       2.104   3.551   0.094  1.00  0.00    -0.269 OA
ATOM     16  H   UNL     1       4.361   3.518   0.240  1.00  0.00     0.163 HD
BRANCH  14  17
ATOM     17  C   UNL     1       1.920   1.215   0.009  1.00  0.00     0.041 A 
ATOM     18  C   UNL     1       0.186  -1.044  -0.046  1.00  0.00     0.050 A 
ATOM     19  C   UNL     1       1.572  -1.192  -0.135  1.00  0.00     0.028 A 
ATOM     20  C   UNL     1      -0.329   0.258   0.009  1.00  0.00     0.064 A 
ATOM     21  C   UNL     1       2.430  -0.078  -0.103  1.00  0.00     0.016 A 
ATOM     22  C   UNL     1       0.522   1.365   0.051  1.00  0.00     0.036 A 
ATOM     23  Cl  UNL     1      -2.038   0.529   0.055  1.00  0.00    -0.082 Cl
BRANCH  18  24
ATOM     24  N   UNL     1      -0.635  -2.163  -0.148  1.00  0.00    -0.398 N 
ATOM     25  H   UNL     1      -0.238  -3.063  -0.185  1.00  0.00     0.156 HD
ATOM     26  H   UNL     1      -1.613  -2.054  -0.184  1.00  0.00     0.156 HD
ENDBRANCH  18  24
ENDBRANCH  14  17
ENDBRANCH  12  13
ENDBRANCH   8  12
ENDBRANCH   4   7
ENDBRANCH   2   3
ENDBRANCH   1   2
BRANCH   1  27
ATOM     27  C   UNL     1       5.567  -5.240  -3.397  1.00  0.00     0.002 C 
BRANCH  27  28
ATOM     28  C   UNL     1       6.664  -5.722  -2.445  1.00  0.00     0.002 C 
BRANCH  28  29
ATOM     29  C   UNL     1       6.193  -6.165  -1.058  1.00  0.00     0.021 C 
BRANCH  29  30
ATOM     30  C   UNL     1       5.112  -7.240  -1.045  1.00  0.00     0.116 C 
BRANCH  30  31
ATOM     31  N   UNL     1       5.546  -8.484  -1.654  1.00  0.00    -0.352 N 
ATOM     32  C   UNL     1       5.365  -9.776  -1.229  1.00  0.00     0.251 C 
ATOM     33  H   UNL     1       6.045  -8.386  -2.497  1.00  0.00     0.163 HD
ATOM     34  O   UNL     1       5.928 -10.694  -1.818  1.00  0.00    -0.269 OA
BRANCH  32  35
ATOM     35  C   UNL     1       4.513 -10.077  -0.055  1.00  0.00     0.039 A 
ATOM     36  C   UNL     1       4.936 -11.067   0.837  1.00  0.00     0.014 A 
ATOM     37  C   UNL     1       3.283  -9.442   0.144  1.00  0.00     0.014 A 
ATOM     38  C   UNL     1       4.143 -11.401   1.938  1.00  0.00     0.010 A 
ATOM     39  C   UNL     1       2.525  -9.727   1.280  1.00  0.00     0.010 A 
ATOM     40  C   UNL     1       2.936 -10.725   2.176  1.00  0.00    -0.014 A 
BRANCH  40  41
ATOM     41  C   UNL     1       2.068 -11.100   3.322  1.00  0.00     0.031 A 
ATOM     42  C   UNL     1       0.718 -11.719   3.070  1.00  0.00     0.074 A 
ATOM     43  C   UNL     1       2.476 -10.864   4.583  1.00  0.00     0.049 A 
ATOM     44  N   UNL     1      -0.203 -12.079   3.928  1.00  0.00    -0.248 NA
ATOM     45  C   UNL     1       0.344 -11.938   1.664  1.00  0.00     0.031 C 
ATOM     46  C   UNL     1       3.740 -10.231   4.959  1.00  0.00     0.029 A 
ATOM     47  N   UNL     1       1.865 -11.127   5.784  1.00  0.00    -0.354 N 
ATOM     48  C   UNL     1      -1.262 -12.558   3.168  1.00  0.00     0.074 A 
ATOM     49  C   UNL     1      -0.897 -12.387   1.778  1.00  0.00     0.031 C 
ATOM     50  C   UNL     1       3.819 -10.169   6.299  1.00  0.00     0.029 A 
ATOM     51  C   UNL     1       2.602 -10.736   6.875  1.00  0.00     0.049 A 
ATOM     52  H   UNL     1       0.981 -11.555   5.857  1.00  0.00     0.167 HD
ATOM     53  C   UNL     1      -2.422 -13.118   3.587  1.00  0.00     0.037 A 
ATOM     54  C   UNL     1       2.327 -10.827   8.190  1.00  0.00     0.037 A 
ATOM     55  C   UNL     1      -2.776 -13.314   4.968  1.00  0.00     0.049 A 
ATOM     56  C   UNL     1       1.041 -11.477   8.628  1.00  0.00     0.074 A 
ATOM     57  C   UNL     1      -3.919 -13.890   5.496  1.00  0.00     0.029 A 
ATOM     58  N   UNL     1      -1.980 -12.949   6.043  1.00  0.00    -0.354 N 
ATOM     59  N   UNL     1       0.068 -11.966   7.898  1.00  0.00    -0.248 NA
ATOM     60  C   UNL     1       0.825 -11.604  10.076  1.00  0.00     0.031 C 
ATOM     61  C   UNL     1      -3.825 -13.851   6.891  1.00  0.00     0.029 A 
ATOM     62  C   UNL     1      -2.606 -13.288   7.232  1.00  0.00     0.049 A 
ATOM     63  H   UNL     1      -1.100 -12.513   5.973  1.00  0.00     0.167 HD
ATOM     64  C   UNL     1      -0.858 -12.484   8.794  1.00  0.00     0.074 A 
ATOM     65  C   UNL     1      -0.321 -12.268  10.121  1.00  0.00     0.031 C 
ATOM     66  C   UNL     1      -2.048 -13.081   8.542  1.00  0.00     0.037 A 
BRANCH  53  67
ATOM     67  C   UNL     1      -3.388 -13.578   2.535  1.00  0.00     0.064 A 
ATOM     68  C   UNL     1      -3.120 -14.703   1.740  1.00  0.00     0.173 A 
ATOM     69  C   UNL     1      -4.609 -12.915   2.342  1.00  0.00     0.173 A 
ATOM     70  F   UNL     1      -1.960 -15.363   1.875  1.00  0.00    -0.203 F 
ATOM     71  C   UNL     1      -4.027 -15.132   0.775  1.00  0.00     0.198 A 
ATOM     72  C   UNL     1      -5.527 -13.364   1.396  1.00  0.00     0.198 A 
ATOM     73  F   UNL     1      -4.917 -11.836   3.078  1.00  0.00    -0.203 F 
ATOM     74  F   UNL     1      -3.728 -16.182  -0.004  1.00  0.00    -0.200 F 
ATOM     75  C   UNL     1      -5.233 -14.468   0.609  1.00  0.00     0.200 A 
ATOM     76  F   UNL     1      -6.697 -12.728   1.244  1.00  0.00    -0.200 F 
ATOM     77  F   UNL     1      -6.109 -14.887  -0.315  1.00  0.00    -0.200 F 
ENDBRANCH  53  67
BRANCH  54  78
ATOM     78  C   UNL     1       3.297 -10.318   9.194  1.00  0.00     0.064 A 
ATOM     79  C   UNL     1       4.002 -11.197  10.027  1.00  0.00     0.173 A 
ATOM     80  C   UNL     1       3.516  -8.943   9.361  1.00  0.00     0.173 A 
ATOM     81  F   UNL     1       3.811 -12.520   9.918  1.00  0.00    -0.203 F 
ATOM     82  C   UNL     1       4.864 -10.720  11.012  1.00  0.00     0.198 A 
ATOM     83  C   UNL     1       4.401  -8.468  10.327  1.00  0.00     0.198 A 
ATOM     84  F   UNL     1       2.871  -8.060   8.585  1.00  0.00    -0.203 F 
ATOM     85  F   UNL     1       5.481 -11.581  11.833  1.00  0.00    -0.200 F 
ATOM     86  C   UNL     1       5.065  -9.356  11.159  1.00  0.00     0.200 A 
ATOM     87  F   UNL     1       4.602  -7.150  10.458  1.00  0.00    -0.200 F 
ATOM     88  F   UNL     1       5.891  -8.898  12.110  1.00  0.00    -0.200 F 
ENDBRANCH  54  78
BRANCH  66  89
ATOM     89  C   UNL     1      -2.826 -13.582   9.724  1.00  0.00     0.064 A 
ATOM     90  C   UNL     1      -3.461 -12.703  10.614  1.00  0.00     0.173 A 
ATOM     91  C   UNL     1      -2.952 -14.959   9.957  1.00  0.00     0.173 A 
ATOM     92  F   UNL     1      -3.358 -11.376  10.441  1.00  0.00    -0.203 F 
ATOM     93  C   UNL     1      -4.165 -13.185  11.714  1.00  0.00     0.198 A 
ATOM     94  C   UNL     1      -3.682 -15.438  11.041  1.00  0.00     0.198 A 
ATOM     95  F   UNL     1      -2.370 -15.841   9.130  1.00  0.00    -0.203 F 
ATOM     96  F   UNL     1      -4.716 -12.326  12.582  1.00  0.00    -0.200 F 
ATOM     97  C   UNL     1      -4.279 -14.551  11.924  1.00  0.00     0.200 A 
ATOM     98  F   UNL     1      -3.800 -16.759  11.236  1.00  0.00    -0.200 F 
ATOM     99  F   UNL     1      -4.956 -15.013  12.984  1.00  0.00    -0.200 F 
ENDBRANCH  66  89
ENDBRANCH  40  41
ENDBRANCH  32  35
ENDBRANCH  30  31
ENDBRANCH  29  30
ENDBRANCH  28  29
ENDBRANCH  27  28
ENDBRANCH   1  27
TORSDOF 17
