REMARK SMILES O=C(CCCNC(=O)N1CSC[C@@H]1C(=O)NCCCCCCNC(=O)c1ccc(-c2c3nc(c(-c4c(F)c(F)c(F)c(F)c4F)c4ccc([nH]4)c(-c4c(F)c(F)c(F)c(F)c4F)c4nc(c(-c5c(F)c(F)c(F)c(F)c5F)c5ccc2[nH]5)C=C4)C=C3)cc1)NC1CC1
REMARK SMILES IDX 17 1 16 2 14 3 15 4 13 6 9 7 10 8 11 9 12 10 7 11 6 12 8 14
REMARK SMILES IDX 5 15 4 16 3 17 2 18 1 19 89 20 90 22 91 23 92 24 18 25 19 26
REMARK SMILES IDX 20 27 21 28 22 29 23 30 24 31 25 33 26 34 27 35 88 36 28 37
REMARK SMILES IDX 87 38 29 39 30 40 31 41 81 42 32 43 86 44 80 45 82 46 33 47
REMARK SMILES IDX 85 48 79 49 78 50 34 52 66 53 46 54 65 55 47 56 50 57 64 58
REMARK SMILES IDX 83 59 48 60 49 61 63 63 84 64 51 65 35 66 36 67 44 68 37 69
REMARK SMILES IDX 38 70 42 71 45 72 39 73 40 74 43 75 41 76 67 77 68 78 76 79
REMARK SMILES IDX 69 80 70 81 74 82 77 83 71 84 72 85 75 86 73 87 52 88 53 89
REMARK SMILES IDX 61 90 54 91 55 92 59 93 62 94 56 95 57 96 60 97 58 98
REMARK H PARENT 16 5 6 13 89 21 23 32 82 51 50 62
REMARK Flexibility Score: inf
ROOT
ATOM      1  C   UNL     1       6.473  -1.339   3.431  1.00  0.00     0.116 C 
ENDROOT
BRANCH   1   2
ATOM      2  N   UNL     1       7.792  -0.840   3.734  1.00  0.00    -0.354 N 
ATOM      3  C   UNL     1       8.884  -0.764   2.915  1.00  0.00     0.243 C 
ATOM      4  O   UNL     1       9.906  -0.264   3.398  1.00  0.00    -0.273 OA
ATOM      5  H   UNL     1       7.923  -0.511   4.652  1.00  0.00     0.163 HD
BRANCH   3   6
ATOM      6  C   UNL     1       8.951  -1.502   1.558  1.00  0.00     0.187 C 
ATOM      7  N   UNL     1       7.743  -1.527   0.718  1.00  0.00    -0.303 N 
ATOM      8  C   UNL     1       7.712  -2.683  -0.147  1.00  0.00     0.192 C 
ATOM      9  S   UNL     1       8.367  -4.042   0.824  1.00  0.00    -0.138 SA
ATOM     10  C   UNL     1       9.364  -2.950   1.876  1.00  0.00     0.106 C 
BRANCH   7  11
ATOM     11  C   UNL     1       7.188  -0.342   0.326  1.00  0.00     0.318 C 
ATOM     12  N   UNL     1       5.886  -0.319  -0.064  1.00  0.00    -0.338 N 
ATOM     13  H   UNL     1       5.621   0.480  -0.574  1.00  0.00     0.165 HD
ATOM     14  O   UNL     1       7.791   0.727   0.382  1.00  0.00    -0.249 OA
BRANCH  12  15
ATOM     15  C   UNL     1       4.822  -1.288   0.155  1.00  0.00     0.118 C 
BRANCH  15  16
ATOM     16  C   UNL     1       3.726  -0.771   1.089  1.00  0.00     0.031 C 
BRANCH  16  17
ATOM     17  C   UNL     1       2.918   0.437   0.632  1.00  0.00     0.102 C 
BRANCH  17  18
ATOM     18  C   UNL     1       1.998   0.063  -0.501  1.00  0.00     0.220 C 
ATOM     19  O   UNL     1       0.840  -0.292  -0.313  1.00  0.00    -0.275 OA
ATOM     20  N   UNL     1       2.626   0.092  -1.726  1.00  0.00    -0.353 N 
ATOM     21  H   UNL     1       3.529   0.481  -1.782  1.00  0.00     0.163 HD
BRANCH  20  22
ATOM     22  C   UNL     1       2.028  -0.412  -2.914  1.00  0.00     0.082 C 
ATOM     23  C   UNL     1       2.822  -0.434  -4.191  1.00  0.00     0.027 C 
ATOM     24  C   UNL     1       2.488  -1.721  -3.496  1.00  0.00     0.027 C 
ENDBRANCH  20  22
ENDBRANCH  17  18
ENDBRANCH  16  17
ENDBRANCH  15  16
ENDBRANCH  12  15
ENDBRANCH   7  11
ENDBRANCH   3   6
ENDBRANCH   1   2
BRANCH   1  25
ATOM     25  C   UNL     1       5.797  -2.061   4.588  1.00  0.00     0.021 C 
BRANCH  25  26
ATOM     26  C   UNL     1       5.268  -1.154   5.701  1.00  0.00     0.002 C 
BRANCH  26  27
ATOM     27  C   UNL     1       4.172  -0.163   5.290  1.00  0.00     0.002 C 
BRANCH  27  28
ATOM     28  C   UNL     1       2.935  -0.774   4.633  1.00  0.00     0.021 C 
BRANCH  28  29
ATOM     29  C   UNL     1       2.207  -1.835   5.440  1.00  0.00     0.116 C 
BRANCH  29  30
ATOM     30  N   UNL     1       1.602  -1.304   6.646  1.00  0.00    -0.352 N 
ATOM     31  C   UNL     1       0.287  -1.319   7.039  1.00  0.00     0.251 C 
ATOM     32  H   UNL     1       2.224  -0.871   7.274  1.00  0.00     0.163 HD
ATOM     33  O   UNL     1      -0.068  -0.667   8.020  1.00  0.00    -0.269 OA
BRANCH  31  34
ATOM     34  C   UNL     1      -0.714  -2.095   6.273  1.00  0.00     0.039 A 
ATOM     35  C   UNL     1      -1.964  -1.524   6.022  1.00  0.00     0.014 A 
ATOM     36  C   UNL     1      -0.432  -3.384   5.811  1.00  0.00     0.014 A 
ATOM     37  C   UNL     1      -2.907  -2.219   5.260  1.00  0.00     0.010 A 
ATOM     38  C   UNL     1      -1.336  -4.036   4.976  1.00  0.00     0.010 A 
ATOM     39  C   UNL     1      -2.589  -3.468   4.702  1.00  0.00    -0.014 A 
BRANCH  39  40
ATOM     40  C   UNL     1      -3.565  -4.214   3.864  1.00  0.00     0.031 A 
ATOM     41  C   UNL     1      -4.065  -5.561   4.317  1.00  0.00     0.074 A 
ATOM     42  C   UNL     1      -3.967  -3.709   2.681  1.00  0.00     0.049 A 
ATOM     43  N   UNL     1      -4.840  -6.412   3.693  1.00  0.00    -0.248 NA
ATOM     44  C   UNL     1      -3.612  -6.026   5.639  1.00  0.00     0.031 C 
ATOM     45  C   UNL     1      -3.533  -2.432   2.113  1.00  0.00     0.029 A 
ATOM     46  N   UNL     1      -4.825  -4.216   1.735  1.00  0.00    -0.354 N 
ATOM     47  C   UNL     1      -4.961  -7.506   4.541  1.00  0.00     0.074 A 
ATOM     48  C   UNL     1      -4.127  -7.244   5.693  1.00  0.00     0.031 C 
ATOM     49  C   UNL     1      -4.143  -2.245   0.930  1.00  0.00     0.029 A 
ATOM     50  C   UNL     1      -4.974  -3.407   0.633  1.00  0.00     0.049 A 
ATOM     51  H   UNL     1      -5.290  -5.078   1.837  1.00  0.00     0.167 HD
ATOM     52  C   UNL     1      -5.725  -8.614   4.391  1.00  0.00     0.037 A 
ATOM     53  C   UNL     1      -5.688  -3.593  -0.494  1.00  0.00     0.037 A 
ATOM     54  C   UNL     1      -6.571  -8.865   3.254  1.00  0.00     0.049 A 
ATOM     55  C   UNL     1      -6.493  -4.858  -0.652  1.00  0.00     0.074 A 
ATOM     56  C   UNL     1      -7.395  -9.951   3.016  1.00  0.00     0.029 A 
ATOM     57  N   UNL     1      -6.705  -8.015   2.167  1.00  0.00    -0.354 N 
ATOM     58  N   UNL     1      -6.634  -5.862   0.179  1.00  0.00    -0.248 NA
ATOM     59  C   UNL     1      -7.244  -5.012  -1.906  1.00  0.00     0.031 C 
ATOM     60  C   UNL     1      -7.996  -9.778   1.766  1.00  0.00     0.029 A 
ATOM     61  C   UNL     1      -7.591  -8.557   1.252  1.00  0.00     0.049 A 
ATOM     62  H   UNL     1      -6.239  -7.154   2.062  1.00  0.00     0.167 HD
ATOM     63  C   UNL     1      -7.522  -6.740  -0.430  1.00  0.00     0.074 A 
ATOM     64  C   UNL     1      -7.897  -6.145  -1.695  1.00  0.00     0.031 C 
ATOM     65  C   UNL     1      -7.984  -7.934   0.015  1.00  0.00     0.037 A 
BRANCH  52  66
ATOM     66  C   UNL     1      -5.704  -9.633   5.493  1.00  0.00     0.064 A 
ATOM     67  C   UNL     1      -6.291  -9.370   6.741  1.00  0.00     0.173 A 
ATOM     68  C   UNL     1      -5.153 -10.905   5.283  1.00  0.00     0.173 A 
ATOM     69  F   UNL     1      -6.821  -8.164   6.997  1.00  0.00    -0.203 F 
ATOM     70  C   UNL     1      -6.311 -10.337   7.742  1.00  0.00     0.198 A 
ATOM     71  C   UNL     1      -5.203 -11.881   6.276  1.00  0.00     0.198 A 
ATOM     72  F   UNL     1      -4.584 -11.211   4.107  1.00  0.00    -0.203 F 
ATOM     73  F   UNL     1      -6.842 -10.049   8.938  1.00  0.00    -0.200 F 
ATOM     74  C   UNL     1      -5.777 -11.594   7.505  1.00  0.00     0.200 A 
ATOM     75  F   UNL     1      -4.701 -13.101   6.040  1.00  0.00    -0.200 F 
ATOM     76  F   UNL     1      -5.813 -12.530   8.464  1.00  0.00    -0.200 F 
ENDBRANCH  52  66
BRANCH  53  77
ATOM     77  C   UNL     1      -5.689  -2.564  -1.571  1.00  0.00     0.064 A 
ATOM     78  C   UNL     1      -6.863  -1.875  -1.908  1.00  0.00     0.173 A 
ATOM     79  C   UNL     1      -4.538  -2.296  -2.327  1.00  0.00     0.173 A 
ATOM     80  F   UNL     1      -7.997  -2.113  -1.232  1.00  0.00    -0.203 F 
ATOM     81  C   UNL     1      -6.899  -0.995  -2.988  1.00  0.00     0.198 A 
ATOM     82  C   UNL     1      -4.566  -1.386  -3.383  1.00  0.00     0.198 A 
ATOM     83  F   UNL     1      -3.389  -2.928  -2.050  1.00  0.00    -0.203 F 
ATOM     84  F   UNL     1      -8.055  -0.415  -3.338  1.00  0.00    -0.200 F 
ATOM     85  C   UNL     1      -5.749  -0.750  -3.723  1.00  0.00     0.200 A 
ATOM     86  F   UNL     1      -3.450  -1.145  -4.086  1.00  0.00    -0.200 F 
ATOM     87  F   UNL     1      -5.787   0.084  -4.771  1.00  0.00    -0.200 F 
ENDBRANCH  53  77
BRANCH  65  88
ATOM     88  C   UNL     1      -9.001  -8.645  -0.830  1.00  0.00     0.064 A 
ATOM     89  C   UNL     1      -8.665  -9.233  -2.058  1.00  0.00     0.173 A 
ATOM     90  C   UNL     1     -10.323  -8.777  -0.378  1.00  0.00     0.173 A 
ATOM     91  F   UNL     1      -7.419  -9.124  -2.541  1.00  0.00    -0.203 F 
ATOM     92  C   UNL     1      -9.623  -9.904  -2.815  1.00  0.00     0.198 A 
ATOM     93  C   UNL     1     -11.269  -9.479  -1.120  1.00  0.00     0.198 A 
ATOM     94  F   UNL     1     -10.695  -8.241   0.795  1.00  0.00    -0.203 F 
ATOM     95  F   UNL     1      -9.292 -10.414  -4.009  1.00  0.00    -0.200 F 
ATOM     96  C   UNL     1     -10.920 -10.034  -2.342  1.00  0.00     0.200 A 
ATOM     97  F   UNL     1     -12.517  -9.618  -0.652  1.00  0.00    -0.200 F 
ATOM     98  F   UNL     1     -11.837 -10.689  -3.067  1.00  0.00    -0.200 F 
ENDBRANCH  65  88
ENDBRANCH  39  40
ENDBRANCH  31  34
ENDBRANCH  29  30
ENDBRANCH  28  29
ENDBRANCH  27  28
ENDBRANCH  26  27
ENDBRANCH  25  26
ENDBRANCH   1  25
TORSDOF 19
