REMARK SMILES Cc1ccc(C)c(S(=O)(=O)N[C@H](CC2=c3ccccc3=NC2)C(=O)NCCCCCCNC(=O)c2ccc(-c3c4nc(c(-c5c(F)c(F)c(F)c(F)c5F)c5ccc([nH]5)c(-c5c(F)c(F)c(F)c(F)c5F)c5nc(c(-c6c(F)c(F)c(F)c(F)c6F)c6ccc3[nH]6)C=C5)C=C4)cc2)c1
REMARK SMILES IDX 28 1 27 2 26 3 25 4 23 5 24 6 12 8 11 9 8 11 9 12 10 13 7 14
REMARK SMILES IDX 1 15 2 16 3 17 98 18 4 19 5 20 6 21 13 22 14 23 15 24 22 25
REMARK SMILES IDX 16 26 20 27 21 28 17 29 19 30 18 31 29 32 30 33 31 34 32 35
REMARK SMILES IDX 33 36 34 38 35 39 36 40 97 41 37 42 96 43 38 44 39 45 40 46
REMARK SMILES IDX 90 47 41 48 95 49 89 50 91 51 42 52 94 53 88 54 87 55 43 57
REMARK SMILES IDX 75 58 55 59 74 60 56 61 59 62 73 63 92 64 57 65 58 66 72 68
REMARK SMILES IDX 93 69 60 70 44 71 45 72 53 73 46 74 47 75 51 76 54 77 48 78
REMARK SMILES IDX 49 79 52 80 50 81 76 82 77 83 85 84 78 85 79 86 83 87 86 88
REMARK SMILES IDX 80 89 81 90 84 91 82 92 61 93 62 94 70 95 63 96 64 97 68 98
REMARK SMILES IDX 71 99 65 100 66 101 69 102 67 103
REMARK H PARENT 25 7 11 10 32 37 91 56 59 67
REMARK Flexibility Score: inf
ROOT
ATOM      1  C   UNL     1      -0.358   9.269  -1.100  1.00  0.00     0.002 C 
ENDROOT
BRANCH   1   2
ATOM      2  C   UNL     1      -1.344   8.114  -1.288  1.00  0.00     0.021 C 
BRANCH   2   3
ATOM      3  C   UNL     1      -0.871   6.910  -2.123  1.00  0.00     0.116 C 
BRANCH   3   4
ATOM      4  N   UNL     1       0.538   6.553  -1.984  1.00  0.00    -0.355 N 
ATOM      5  C   UNL     1       1.226   5.445  -1.573  1.00  0.00     0.238 C 
ATOM      6  O   UNL     1       2.453   5.574  -1.476  1.00  0.00    -0.273 OA
ATOM      7  H   UNL     1       1.138   7.287  -2.250  1.00  0.00     0.163 HD
BRANCH   5   8
ATOM      8  C   UNL     1       0.568   4.108  -1.199  1.00  0.00     0.163 C 
BRANCH   8   9
ATOM      9  N   UNL     1      -0.468   3.733  -2.201  1.00  0.00    -0.198 NA
ATOM     10  H   UNL     1      -1.258   3.349  -1.682  1.00  0.00     0.142 HD
BRANCH   9  11
ATOM     11  S   UNL     1      -0.091   2.624  -3.411  1.00  0.00     0.241 S 
ATOM     12  O   UNL     1       1.320   2.713  -3.669  1.00  0.00    -0.207 OA
ATOM     13  O   UNL     1      -1.087   2.864  -4.440  1.00  0.00    -0.207 OA
BRANCH  11  14
ATOM     14  C   UNL     1      -0.457   1.039  -2.694  1.00  0.00     0.085 A 
ATOM     15  C   UNL     1      -1.742  -0.215   0.665  1.00  0.00     0.044 C 
ATOM     16  C   UNL     1      -1.197  -0.204  -0.732  1.00  0.00    -0.050 A 
ATOM     17  C   UNL     1      -0.816  -1.387  -1.363  1.00  0.00     0.004 A 
ATOM     18  C   UNL     1      -1.050   0.999  -1.423  1.00  0.00     0.025 A 
ATOM     19  C   UNL     1      -0.293  -1.362  -2.660  1.00  0.00     0.005 A 
ATOM     20  C   UNL     1      -0.100  -0.151  -3.347  1.00  0.00    -0.031 A 
ATOM     21  C   UNL     1       0.452  -0.223  -4.744  1.00  0.00     0.046 C 
ENDBRANCH  11  14
ENDBRANCH   9  11
ENDBRANCH   8   9
BRANCH   8  22
ATOM     22  C   UNL     1      -0.001   3.969   0.249  1.00  0.00     0.063 C 
BRANCH  22  23
ATOM     23  C   UNL     1       0.431   4.949   1.302  1.00  0.00    -0.037 C 
ATOM     24  C   UNL     1       1.199   4.830   2.385  1.00  0.00     0.001 A 
ATOM     25  C   UNL     1      -0.152   6.323   1.266  1.00  0.00     0.174 C 
ATOM     26  C   UNL     1       1.867   3.782   3.091  1.00  0.00     0.010 A 
ATOM     27  C   UNL     1       1.249   6.216   2.889  1.00  0.00     0.065 A 
ATOM     28  N   UNL     1       0.475   7.096   2.341  1.00  0.00    -0.280 NA
ATOM     29  C   UNL     1       2.558   4.092   4.205  1.00  0.00     0.001 A 
ATOM     30  C   UNL     1       2.178   6.498   3.994  1.00  0.00     0.028 A 
ATOM     31  C   UNL     1       2.748   5.468   4.631  1.00  0.00     0.002 A 
ENDBRANCH  22  23
ENDBRANCH   8  22
ENDBRANCH   5   8
ENDBRANCH   3   4
ENDBRANCH   2   3
ENDBRANCH   1   2
BRANCH   1  32
ATOM     32  C   UNL     1      -0.349  10.324  -2.206  1.00  0.00     0.002 C 
BRANCH  32  33
ATOM     33  C   UNL     1      -1.696  10.951  -2.605  1.00  0.00     0.021 C 
BRANCH  33  34
ATOM     34  C   UNL     1      -2.497  11.655  -1.507  1.00  0.00     0.116 C 
BRANCH  34  35
ATOM     35  N   UNL     1      -1.826  12.850  -0.986  1.00  0.00    -0.352 N 
ATOM     36  C   UNL     1      -1.888  13.517   0.223  1.00  0.00     0.251 C 
ATOM     37  H   UNL     1      -1.203  13.261  -1.628  1.00  0.00     0.163 HD
ATOM     38  O   UNL     1      -1.549  14.698   0.265  1.00  0.00    -0.269 OA
BRANCH  36  39
ATOM     39  C   UNL     1      -2.321  12.850   1.473  1.00  0.00     0.039 A 
ATOM     40  C   UNL     1      -2.639  13.574   2.633  1.00  0.00     0.014 A 
ATOM     41  C   UNL     1      -2.325  11.468   1.533  1.00  0.00     0.014 A 
ATOM     42  C   UNL     1      -2.927  12.886   3.818  1.00  0.00     0.010 A 
ATOM     43  C   UNL     1      -2.817  10.793   2.611  1.00  0.00     0.010 A 
ATOM     44  C   UNL     1      -2.992  11.491   3.792  1.00  0.00    -0.014 A 
BRANCH  44  45
ATOM     45  C   UNL     1      -3.236  10.656   4.954  1.00  0.00     0.031 A 
ATOM     46  C   UNL     1      -4.630  10.592   5.416  1.00  0.00     0.074 A 
ATOM     47  C   UNL     1      -2.349   9.719   5.352  1.00  0.00     0.049 A 
ATOM     48  N   UNL     1      -5.066  10.930   6.581  1.00  0.00    -0.248 NA
ATOM     49  C   UNL     1      -5.672  10.171   4.471  1.00  0.00     0.031 C 
ATOM     50  C   UNL     1      -1.031   9.446   4.778  1.00  0.00     0.029 A 
ATOM     51  N   UNL     1      -2.499   8.722   6.275  1.00  0.00    -0.354 N 
ATOM     52  C   UNL     1      -6.409  10.596   6.583  1.00  0.00     0.074 A 
ATOM     53  C   UNL     1      -6.768  10.326   5.214  1.00  0.00     0.031 C 
ATOM     54  C   UNL     1      -0.597   8.253   5.232  1.00  0.00     0.029 A 
ATOM     55  C   UNL     1      -1.536   7.727   6.191  1.00  0.00     0.049 A 
ATOM     56  H   UNL     1      -3.225   8.712   6.940  1.00  0.00     0.167 HD
ATOM     57  C   UNL     1      -7.053  10.309   7.745  1.00  0.00     0.037 A 
ATOM     58  C   UNL     1      -1.492   6.540   6.844  1.00  0.00     0.037 A 
ATOM     59  C   UNL     1      -6.290  10.718   8.898  1.00  0.00     0.049 A 
ATOM     60  C   UNL     1      -2.326   6.672   8.054  1.00  0.00     0.074 A 
ATOM     61  C   UNL     1      -5.736  11.916   9.313  1.00  0.00     0.029 A 
ATOM     62  N   UNL     1      -5.662   9.750   9.644  1.00  0.00    -0.354 N 
ATOM     63  N   UNL     1      -2.011   7.439   9.060  1.00  0.00    -0.248 NA
ATOM     64  C   UNL     1      -3.731   6.315   7.948  1.00  0.00     0.031 C 
ATOM     65  C   UNL     1      -4.487  11.567   9.905  1.00  0.00     0.029 A 
ATOM     66  C   UNL     1      -4.377  10.178   9.869  1.00  0.00     0.049 A 
ATOM     67  H   UNL     1      -6.059   8.907   9.959  1.00  0.00     0.167 HD
ATOM     68  C   UNL     1      -3.208   8.037   9.413  1.00  0.00     0.074 A 
ATOM     69  C   UNL     1      -4.245   7.226   8.779  1.00  0.00     0.031 C 
ATOM     70  C   UNL     1      -3.234   9.298   9.931  1.00  0.00     0.037 A 
BRANCH  57  71
ATOM     71  C   UNL     1      -8.217   9.366   7.832  1.00  0.00     0.064 A 
ATOM     72  C   UNL     1      -9.023   9.371   8.982  1.00  0.00     0.173 A 
ATOM     73  C   UNL     1      -8.429   8.295   6.936  1.00  0.00     0.173 A 
ATOM     74  F   UNL     1      -8.860  10.313   9.923  1.00  0.00    -0.203 F 
ATOM     75  C   UNL     1      -9.957   8.362   9.227  1.00  0.00     0.198 A 
ATOM     76  C   UNL     1      -9.409   7.330   7.148  1.00  0.00     0.198 A 
ATOM     77  F   UNL     1      -7.627   8.079   5.885  1.00  0.00    -0.203 F 
ATOM     78  F   UNL     1     -10.624   8.344  10.389  1.00  0.00    -0.200 F 
ATOM     79  C   UNL     1     -10.156   7.349   8.306  1.00  0.00     0.200 A 
ATOM     80  F   UNL     1      -9.567   6.343   6.255  1.00  0.00    -0.200 F 
ATOM     81  F   UNL     1     -11.025   6.362   8.557  1.00  0.00    -0.200 F 
ENDBRANCH  57  71
BRANCH  58  82
ATOM     82  C   UNL     1      -1.092   5.227   6.289  1.00  0.00     0.064 A 
ATOM     83  C   UNL     1      -0.581   4.198   7.094  1.00  0.00     0.173 A 
ATOM     84  C   UNL     1      -1.478   4.870   4.981  1.00  0.00     0.173 A 
ATOM     85  F   UNL     1      -0.254   4.442   8.371  1.00  0.00    -0.203 F 
ATOM     86  C   UNL     1      -0.457   2.888   6.615  1.00  0.00     0.198 A 
ATOM     87  C   UNL     1      -1.359   3.563   4.507  1.00  0.00     0.198 A 
ATOM     88  F   UNL     1      -2.068   5.767   4.178  1.00  0.00    -0.203 F 
ATOM     89  F   UNL     1      -0.003   1.917   7.422  1.00  0.00    -0.200 F 
ATOM     90  C   UNL     1      -0.850   2.571   5.324  1.00  0.00     0.200 A 
ATOM     91  F   UNL     1      -1.780   3.260   3.270  1.00  0.00    -0.200 F 
ATOM     92  F   UNL     1      -0.772   1.309   4.878  1.00  0.00    -0.200 F 
ENDBRANCH  58  82
BRANCH  70  93
ATOM     93  C   UNL     1      -1.927   9.918  10.350  1.00  0.00     0.064 A 
ATOM     94  C   UNL     1      -0.896  10.259   9.456  1.00  0.00     0.173 A 
ATOM     95  C   UNL     1      -1.788  10.341  11.678  1.00  0.00     0.173 A 
ATOM     96  F   UNL     1      -0.986   9.968   8.155  1.00  0.00    -0.203 F 
ATOM     97  C   UNL     1       0.226  10.971   9.877  1.00  0.00     0.198 A 
ATOM     98  C   UNL     1      -0.682  11.080  12.089  1.00  0.00     0.198 A 
ATOM     99  F   UNL     1      -2.760  10.085  12.568  1.00  0.00    -0.203 F 
ATOM    100  F   UNL     1       1.191  11.286   8.999  1.00  0.00    -0.200 F 
ATOM    101  C   UNL     1       0.326  11.392  11.191  1.00  0.00     0.200 A 
ATOM    102  F   UNL     1      -0.609  11.523  13.352  1.00  0.00    -0.200 F 
ATOM    103  F   UNL     1       1.379  12.122  11.585  1.00  0.00    -0.200 F 
ENDBRANCH  70  93
ENDBRANCH  44  45
ENDBRANCH  36  39
ENDBRANCH  34  35
ENDBRANCH  33  34
ENDBRANCH  32  33
ENDBRANCH   1  32
TORSDOF 18
