REMARK SMILES CCCCCCNC(=O)Oc1cccc(-c2ccc([C@@H](C)C(=O)NCCCCCCNC(=O)c3ccc(-c4c5nc(c(-c6c(F)c(F)c(F)c(F)c6F)c6ccc([nH]6)c(-c6c(F)c(F)c(F)c(F)c6F)c6nc(c(-c7c(F)c(F)c(F)c(F)c7F)c7ccc4[nH]7)C=C6)C=C5)cc3)cc2F)c1
REMARK SMILES IDX 22 1 23 2 24 3 20 5 21 6 19 7 16 8 17 9 98 10 18 11 97 12
REMARK SMILES IDX 99 13 15 14 11 15 12 16 100 17 13 18 14 19 10 20 8 21 7 22
REMARK SMILES IDX 9 24 6 25 5 26 4 27 3 28 2 29 1 30 25 31 26 32 27 33 28 34
REMARK SMILES IDX 29 35 30 36 31 37 32 38 33 40 34 41 35 42 96 43 36 44 95 45
REMARK SMILES IDX 37 46 38 47 39 48 89 49 40 50 94 51 88 52 90 53 41 54 93 55
REMARK SMILES IDX 87 56 86 57 42 59 74 60 54 61 73 62 55 63 58 64 72 65 91 66
REMARK SMILES IDX 56 67 57 68 71 70 92 71 59 72 43 73 44 74 52 75 45 76 46 77
REMARK SMILES IDX 50 78 53 79 47 80 48 81 51 82 49 83 75 84 76 85 84 86 77 87
REMARK SMILES IDX 78 88 82 89 85 90 79 91 80 92 83 93 81 94 60 95 61 96 69 97
REMARK SMILES IDX 62 98 63 99 67 100 70 101 64 102 65 103 68 104 66 105
REMARK H PARENT 24 4 7 23 31 39 90 58 58 69
REMARK Flexibility Score: inf
ROOT
ATOM      1  C   UNL     1      -3.304  13.985   0.263  1.00  0.00     0.227 C 
ATOM      2  O   UNL     1      -2.368  13.956  -0.545  1.00  0.00    -0.274 OA
ATOM      3  N   UNL     1      -3.059  14.601   1.451  1.00  0.00    -0.356 N 
ATOM      4  H   UNL     1      -2.174  15.030   1.509  1.00  0.00     0.163 HD
ENDROOT
BRANCH   1   5
ATOM      5  C   UNL     1      -4.654  13.354  -0.106  1.00  0.00     0.105 C 
ATOM      6  C   UNL     1      -5.825  14.336  -0.108  1.00  0.00     0.023 C 
BRANCH   5   7
ATOM      7  C   UNL     1      -4.904  12.016   0.571  1.00  0.00    -0.033 A 
ATOM      8  C   UNL     1      -5.177   9.462   1.842  1.00  0.00     0.018 A 
ATOM      9  C   UNL     1      -5.665  10.638   2.434  1.00  0.00     0.012 A 
ATOM     10  C   UNL     1      -4.590   9.600   0.575  1.00  0.00     0.131 A 
ATOM     11  C   UNL     1      -5.559  11.883   1.799  1.00  0.00     0.005 A 
ATOM     12  C   UNL     1      -4.435  10.845  -0.040  1.00  0.00     0.044 A 
ATOM     13  F   UNL     1      -4.153   8.523  -0.097  1.00  0.00    -0.206 F 
BRANCH   8  14
ATOM     14  C   UNL     1      -5.266   8.161   2.543  1.00  0.00    -0.012 A 
ATOM     15  C   UNL     1      -4.322   5.991   3.122  1.00  0.00     0.133 A 
ATOM     16  C   UNL     1      -5.423   5.682   3.913  1.00  0.00     0.047 A 
ATOM     17  C   UNL     1      -4.238   7.207   2.441  1.00  0.00     0.056 A 
ATOM     18  C   UNL     1      -6.449   6.612   4.035  1.00  0.00     0.004 A 
ATOM     19  C   UNL     1      -6.372   7.832   3.352  1.00  0.00     0.009 A 
BRANCH  15  20
ATOM     20  O   UNL     1      -3.371   4.978   2.926  1.00  0.00    -0.410 OA
BRANCH  20  21
ATOM     21  C   UNL     1      -2.032   5.284   3.121  1.00  0.00     0.412 C 
ATOM     22  N   UNL     1      -1.195   4.266   2.752  1.00  0.00    -0.321 N 
ATOM     23  H   UNL     1      -0.232   4.415   2.887  1.00  0.00     0.167 HD
ATOM     24  O   UNL     1      -1.590   6.329   3.581  1.00  0.00    -0.224 OA
BRANCH  22  25
ATOM     25  C   UNL     1      -1.583   2.991   2.183  1.00  0.00     0.119 C 
BRANCH  25  26
ATOM     26  C   UNL     1      -0.976   2.773   0.797  1.00  0.00     0.021 C 
BRANCH  26  27
ATOM     27  C   UNL     1       0.554   2.671   0.772  1.00  0.00     0.002 C 
BRANCH  27  28
ATOM     28  C   UNL     1       1.157   1.567   1.647  1.00  0.00    -0.000 C 
BRANCH  28  29
ATOM     29  C   UNL     1       0.669   0.148   1.345  1.00  0.00    -0.003 C 
ATOM     30  C   UNL     1       1.027  -0.326  -0.056  1.00  0.00     0.004 C 
ENDBRANCH  28  29
ENDBRANCH  27  28
ENDBRANCH  26  27
ENDBRANCH  25  26
ENDBRANCH  22  25
ENDBRANCH  20  21
ENDBRANCH  15  20
ENDBRANCH   8  14
ENDBRANCH   5   7
ENDBRANCH   1   5
BRANCH   3  31
ATOM     31  C   UNL     1      -3.865  14.740   2.644  1.00  0.00     0.116 C 
BRANCH  31  32
ATOM     32  C   UNL     1      -3.412  13.784   3.749  1.00  0.00     0.021 C 
BRANCH  32  33
ATOM     33  C   UNL     1      -2.305  14.349   4.644  1.00  0.00     0.002 C 
BRANCH  33  34
ATOM     34  C   UNL     1      -2.690  15.599   5.448  1.00  0.00     0.002 C 
BRANCH  34  35
ATOM     35  C   UNL     1      -3.949  15.467   6.311  1.00  0.00     0.021 C 
BRANCH  35  36
ATOM     36  C   UNL     1      -3.884  14.370   7.370  1.00  0.00     0.116 C 
BRANCH  36  37
ATOM     37  N   UNL     1      -2.843  14.627   8.353  1.00  0.00    -0.352 N 
ATOM     38  C   UNL     1      -2.940  14.786   9.712  1.00  0.00     0.251 C 
ATOM     39  H   UNL     1      -1.932  14.698   7.988  1.00  0.00     0.163 HD
ATOM     40  O   UNL     1      -1.987  15.220  10.352  1.00  0.00    -0.269 OA
BRANCH  38  41
ATOM     41  C   UNL     1      -4.195  14.444  10.414  1.00  0.00     0.039 A 
ATOM     42  C   UNL     1      -4.666  15.300  11.414  1.00  0.00     0.014 A 
ATOM     43  C   UNL     1      -4.884  13.264  10.119  1.00  0.00     0.014 A 
ATOM     44  C   UNL     1      -5.854  14.998  12.083  1.00  0.00     0.010 A 
ATOM     45  C   UNL     1      -6.102  12.998  10.738  1.00  0.00     0.010 A 
ATOM     46  C   UNL     1      -6.594  13.857  11.733  1.00  0.00    -0.014 A 
BRANCH  46  47
ATOM     47  C   UNL     1      -7.875  13.535  12.409  1.00  0.00     0.031 A 
ATOM     48  C   UNL     1      -7.989  12.304  13.263  1.00  0.00     0.074 A 
ATOM     49  C   UNL     1      -8.950  14.320  12.209  1.00  0.00     0.049 A 
ATOM     50  N   UNL     1      -9.033  11.820  13.887  1.00  0.00    -0.248 NA
ATOM     51  C   UNL     1      -6.770  11.494  13.414  1.00  0.00     0.031 C 
ATOM     52  C   UNL     1      -8.975  15.523  11.376  1.00  0.00     0.029 A 
ATOM     53  N   UNL     1     -10.232  14.221  12.689  1.00  0.00    -0.354 N 
ATOM     54  C   UNL     1      -8.601  10.647  14.493  1.00  0.00     0.074 A 
ATOM     55  C   UNL     1      -7.216  10.462  14.114  1.00  0.00     0.031 C 
ATOM     56  C   UNL     1     -10.201  16.067  11.428  1.00  0.00     0.029 A 
ATOM     57  C   UNL     1     -11.057  15.233  12.266  1.00  0.00     0.049 A 
ATOM     58  H   UNL     1     -10.531  13.493  13.281  1.00  0.00     0.167 HD
ATOM     59  C   UNL     1      -9.287   9.814  15.311  1.00  0.00     0.037 A 
ATOM     60  C   UNL     1     -12.358  15.461  12.527  1.00  0.00     0.037 A 
ATOM     61  C   UNL     1     -10.659  10.012  15.700  1.00  0.00     0.049 A 
ATOM     62  C   UNL     1     -13.106  14.508  13.419  1.00  0.00     0.074 A 
ATOM     63  C   UNL     1     -11.433   9.252  16.559  1.00  0.00     0.029 A 
ATOM     64  N   UNL     1     -11.464  11.048  15.249  1.00  0.00    -0.354 N 
ATOM     65  N   UNL     1     -12.673  13.433  14.032  1.00  0.00    -0.248 NA
ATOM     66  C   UNL     1     -14.526  14.804  13.656  1.00  0.00     0.031 C 
ATOM     67  C   UNL     1     -12.718   9.805  16.596  1.00  0.00     0.029 A 
ATOM     68  C   UNL     1     -12.732  10.937  15.796  1.00  0.00     0.049 A 
ATOM     69  H   UNL     1     -11.177  11.758  14.630  1.00  0.00     0.167 HD
ATOM     70  C   UNL     1     -13.753  12.944  14.753  1.00  0.00     0.074 A 
ATOM     71  C   UNL     1     -14.861  13.844  14.507  1.00  0.00     0.031 C 
ATOM     72  C   UNL     1     -13.821  11.848  15.548  1.00  0.00     0.037 A 
BRANCH  59  73
ATOM     73  C   UNL     1      -8.557   8.612  15.838  1.00  0.00     0.064 A 
ATOM     74  C   UNL     1      -7.513   8.736  16.768  1.00  0.00     0.173 A 
ATOM     75  C   UNL     1      -8.907   7.321  15.415  1.00  0.00     0.173 A 
ATOM     76  F   UNL     1      -7.130   9.948  17.196  1.00  0.00    -0.203 F 
ATOM     77  C   UNL     1      -6.820   7.617  17.222  1.00  0.00     0.198 A 
ATOM     78  C   UNL     1      -8.233   6.201  15.896  1.00  0.00     0.198 A 
ATOM     79  F   UNL     1      -9.902   7.144  14.533  1.00  0.00    -0.203 F 
ATOM     80  F   UNL     1      -5.786   7.766  18.062  1.00  0.00    -0.200 F 
ATOM     81  C   UNL     1      -7.184   6.351  16.790  1.00  0.00     0.200 A 
ATOM     82  F   UNL     1      -8.594   4.977  15.487  1.00  0.00    -0.200 F 
ATOM     83  F   UNL     1      -6.515   5.274  17.227  1.00  0.00    -0.200 F 
ENDBRANCH  59  73
BRANCH  60  84
ATOM     84  C   UNL     1     -13.024  16.668  11.974  1.00  0.00     0.064 A 
ATOM     85  C   UNL     1     -13.388  17.729  12.814  1.00  0.00     0.173 A 
ATOM     86  C   UNL     1     -13.304  16.791  10.606  1.00  0.00     0.173 A 
ATOM     87  F   UNL     1     -13.158  17.647  14.133  1.00  0.00    -0.203 F 
ATOM     88  C   UNL     1     -14.021  18.863  12.309  1.00  0.00     0.198 A 
ATOM     89  C   UNL     1     -13.914  17.937  10.098  1.00  0.00     0.198 A 
ATOM     90  F   UNL     1     -12.971  15.805   9.760  1.00  0.00    -0.203 F 
ATOM     91  F   UNL     1     -14.392  19.846  13.140  1.00  0.00    -0.200 F 
ATOM     92  C   UNL     1     -14.278  18.968  10.951  1.00  0.00     0.200 A 
ATOM     93  F   UNL     1     -14.149  18.041   8.783  1.00  0.00    -0.200 F 
ATOM     94  F   UNL     1     -14.881  20.061  10.464  1.00  0.00    -0.200 F 
ENDBRANCH  60  84
BRANCH  72  95
ATOM     95  C   UNL     1     -15.125  11.585  16.244  1.00  0.00     0.064 A 
ATOM     96  C   UNL     1     -16.252  11.125  15.547  1.00  0.00     0.173 A 
ATOM     97  C   UNL     1     -15.237  11.767  17.631  1.00  0.00     0.173 A 
ATOM     98  F   UNL     1     -16.200  10.953  14.218  1.00  0.00    -0.203 F 
ATOM     99  C   UNL     1     -17.451  10.880  16.211  1.00  0.00     0.198 A 
ATOM    100  C   UNL     1     -16.429  11.493  18.295  1.00  0.00     0.198 A 
ATOM    101  F   UNL     1     -14.186  12.200  18.343  1.00  0.00    -0.203 F 
ATOM    102  F   UNL     1     -18.529  10.487  15.519  1.00  0.00    -0.200 F 
ATOM    103  C   UNL     1     -17.537  11.058  17.584  1.00  0.00     0.200 A 
ATOM    104  F   UNL     1     -16.506  11.654  19.623  1.00  0.00    -0.200 F 
ATOM    105  F   UNL     1     -18.691  10.816  18.221  1.00  0.00    -0.200 F 
ENDBRANCH  72  95
ENDBRANCH  46  47
ENDBRANCH  38  41
ENDBRANCH  36  37
ENDBRANCH  35  36
ENDBRANCH  34  35
ENDBRANCH  33  34
ENDBRANCH  32  33
ENDBRANCH  31  32
ENDBRANCH   3  31
TORSDOF 22
