REMARK SMILES C[C@@H](CNC(=O)N(C)CC(C)(C)O)C(=O)NCCCCCCNC(=O)c1ccc(-c2c3nc(c(-c4c(F)c(F)c(F)c(F)c4F)c4ccc([nH]4)c(-c4c(F)c(F)c(F)c(F)c4F)c4nc(c(-c5c(F)c(F)c(F)c(F)c5F)c5ccc2[nH]5)C=C4)C=C3)cc1
REMARK SMILES IDX 17 1 16 2 14 3 15 4 2 6 1 7 3 8 4 9 5 10 6 12 7 13 8 14 9 15
REMARK SMILES IDX 10 16 11 17 12 18 13 19 18 21 19 22 20 23 21 24 22 25 23 26
REMARK SMILES IDX 24 27 25 29 26 30 27 31 88 32 28 33 87 34 29 35 30 36 31 37
REMARK SMILES IDX 81 38 32 39 86 40 80 41 82 42 33 43 85 44 79 45 78 46 34 48
REMARK SMILES IDX 66 49 46 50 65 51 47 52 50 53 64 54 83 55 48 56 49 57 63 59
REMARK SMILES IDX 84 60 51 61 35 62 36 63 44 64 37 65 38 66 42 67 45 68 39 69
REMARK SMILES IDX 40 70 43 71 41 72 67 73 68 74 76 75 69 76 70 77 74 78 77 79
REMARK SMILES IDX 71 80 72 81 75 82 73 83 52 84 53 85 61 86 54 87 55 88 59 89
REMARK SMILES IDX 62 90 56 91 57 92 60 93 58 94
REMARK H PARENT 16 5 4 11 13 20 23 28 82 47 50 58
REMARK Flexibility Score: inf
ROOT
ATOM      1  C   UNL     1      -1.220   1.376  -1.412  1.00  0.00     0.116 C 
ENDROOT
BRANCH   1   2
ATOM      2  N   UNL     1      -1.577   1.054  -0.046  1.00  0.00    -0.356 N 
ATOM      3  C   UNL     1      -0.812   1.041   1.081  1.00  0.00     0.224 C 
ATOM      4  O   UNL     1      -1.405   1.040   2.165  1.00  0.00    -0.275 OA
ATOM      5  H   UNL     1      -2.520   0.805   0.090  1.00  0.00     0.163 HD
BRANCH   3   6
ATOM      6  C   UNL     1       0.715   0.996   1.056  1.00  0.00     0.094 C 
ATOM      7  C   UNL     1       1.278  -0.112   0.161  1.00  0.00     0.020 C 
BRANCH   6   8
ATOM      8  C   UNL     1       1.434   2.350   0.911  1.00  0.00     0.130 C 
BRANCH   8   9
ATOM      9  N   UNL     1       0.991   3.180  -0.190  1.00  0.00    -0.337 N 
ATOM     10  C   UNL     1       0.101   4.161  -0.406  1.00  0.00     0.317 C 
ATOM     11  H   UNL     1       1.482   2.963  -1.015  1.00  0.00     0.165 HD
ATOM     12  O   UNL     1      -0.122   4.354  -1.607  1.00  0.00    -0.249 OA
BRANCH  10  13
ATOM     13  N   UNL     1      -0.532   4.875   0.563  1.00  0.00    -0.325 N 
ATOM     14  C   UNL     1      -0.391   4.742   2.006  1.00  0.00     0.148 C 
BRANCH  13  15
ATOM     15  C   UNL     1      -1.435   5.966   0.132  1.00  0.00     0.155 C 
BRANCH  15  16
ATOM     16  C   UNL     1      -0.790   7.243  -0.499  1.00  0.00     0.077 C 
ATOM     17  C   UNL     1      -0.395   7.076  -1.972  1.00  0.00     0.043 C 
ATOM     18  C   UNL     1      -1.803   8.397  -0.415  1.00  0.00     0.043 C 
BRANCH  16  19
ATOM     19  O   UNL     1       0.354   7.644   0.265  1.00  0.00    -0.389 OA
ATOM     20  H   UNL     1       1.022   6.941   0.239  1.00  0.00     0.211 HD
ENDBRANCH  16  19
ENDBRANCH  15  16
ENDBRANCH  13  15
ENDBRANCH  10  13
ENDBRANCH   8   9
ENDBRANCH   6   8
ENDBRANCH   3   6
ENDBRANCH   1   2
BRANCH   1  21
ATOM     21  C   UNL     1      -1.895   0.494  -2.453  1.00  0.00     0.021 C 
BRANCH  21  22
ATOM     22  C   UNL     1      -3.369   0.831  -2.701  1.00  0.00     0.002 C 
BRANCH  22  23
ATOM     23  C   UNL     1      -3.671   2.293  -3.060  1.00  0.00     0.002 C 
BRANCH  23  24
ATOM     24  C   UNL     1      -2.854   2.881  -4.214  1.00  0.00     0.021 C 
BRANCH  24  25
ATOM     25  C   UNL     1      -2.948   2.112  -5.527  1.00  0.00     0.116 C 
BRANCH  25  26
ATOM     26  N   UNL     1      -4.313   2.024  -6.022  1.00  0.00    -0.352 N 
ATOM     27  C   UNL     1      -4.816   2.328  -7.262  1.00  0.00     0.251 C 
ATOM     28  H   UNL     1      -4.974   1.697  -5.370  1.00  0.00     0.163 HD
ATOM     29  O   UNL     1      -6.026   2.357  -7.449  1.00  0.00    -0.269 OA
BRANCH  27  30
ATOM     30  C   UNL     1      -3.893   2.643  -8.373  1.00  0.00     0.039 A 
ATOM     31  C   UNL     1      -4.177   3.735  -9.196  1.00  0.00     0.014 A 
ATOM     32  C   UNL     1      -2.758   1.862  -8.607  1.00  0.00     0.014 A 
ATOM     33  C   UNL     1      -3.290   4.081 -10.218  1.00  0.00     0.010 A 
ATOM     34  C   UNL     1      -1.838   2.251  -9.576  1.00  0.00     0.010 A 
ATOM     35  C   UNL     1      -2.095   3.363 -10.393  1.00  0.00    -0.014 A 
BRANCH  35  36
ATOM     36  C   UNL     1      -1.101   3.761 -11.422  1.00  0.00     0.031 A 
ATOM     37  C   UNL     1      -0.773   2.826 -12.554  1.00  0.00     0.074 A 
ATOM     38  C   UNL     1      -0.443   4.930 -11.296  1.00  0.00     0.049 A 
ATOM     39  N   UNL     1       0.124   2.954 -13.499  1.00  0.00    -0.248 NA
ATOM     40  C   UNL     1      -1.535   1.569 -12.619  1.00  0.00     0.031 C 
ATOM     41  C   UNL     1      -0.644   5.903 -10.220  1.00  0.00     0.029 A 
ATOM     42  N   UNL     1       0.540   5.495 -12.071  1.00  0.00    -0.354 N 
ATOM     43  C   UNL     1       0.050   1.789 -14.252  1.00  0.00     0.074 A 
ATOM     44  C   UNL     1      -0.950   0.947 -13.633  1.00  0.00     0.031 C 
ATOM     45  C   UNL     1       0.173   6.950 -10.414  1.00  0.00     0.029 A 
ATOM     46  C   UNL     1       0.990   6.705 -11.598  1.00  0.00     0.049 A 
ATOM     47  H   UNL     1       0.890   5.073 -12.889  1.00  0.00     0.167 HD
ATOM     48  C   UNL     1       0.743   1.461 -15.367  1.00  0.00     0.037 A 
ATOM     49  C   UNL     1       1.962   7.515 -12.059  1.00  0.00     0.037 A 
ATOM     50  C   UNL     1       1.709   2.320 -16.000  1.00  0.00     0.049 A 
ATOM     51  C   UNL     1       2.724   7.112 -13.296  1.00  0.00     0.074 A 
ATOM     52  C   UNL     1       2.400   2.113 -17.182  1.00  0.00     0.029 A 
ATOM     53  N   UNL     1       2.127   3.544 -15.500  1.00  0.00    -0.354 N 
ATOM     54  N   UNL     1       2.582   6.049 -14.049  1.00  0.00    -0.248 NA
ATOM     55  C   UNL     1       3.783   8.027 -13.748  1.00  0.00     0.031 C 
ATOM     56  C   UNL     1       3.284   3.180 -17.363  1.00  0.00     0.029 A 
ATOM     57  C   UNL     1       3.094   4.086 -16.331  1.00  0.00     0.049 A 
ATOM     58  H   UNL     1       1.787   3.965 -14.678  1.00  0.00     0.167 HD
ATOM     59  C   UNL     1       3.499   6.187 -15.082  1.00  0.00     0.074 A 
ATOM     60  C   UNL     1       4.185   7.443 -14.867  1.00  0.00     0.031 C 
ATOM     61  C   UNL     1       3.752   5.349 -16.117  1.00  0.00     0.037 A 
BRANCH  48  62
ATOM     62  C   UNL     1       0.495   0.114 -15.984  1.00  0.00     0.064 A 
ATOM     63  C   UNL     1      -0.704  -0.189 -16.644  1.00  0.00     0.173 A 
ATOM     64  C   UNL     1       1.507  -0.859 -15.983  1.00  0.00     0.173 A 
ATOM     65  F   UNL     1      -1.707   0.702 -16.667  1.00  0.00    -0.203 F 
ATOM     66  C   UNL     1      -0.888  -1.423 -17.264  1.00  0.00     0.198 A 
ATOM     67  C   UNL     1       1.332  -2.078 -16.631  1.00  0.00     0.198 A 
ATOM     68  F   UNL     1       2.677  -0.618 -15.371  1.00  0.00    -0.203 F 
ATOM     69  F   UNL     1      -2.057  -1.704 -17.858  1.00  0.00    -0.200 F 
ATOM     70  C   UNL     1       0.133  -2.361 -17.267  1.00  0.00     0.200 A 
ATOM     71  F   UNL     1       2.326  -2.976 -16.646  1.00  0.00    -0.200 F 
ATOM     72  F   UNL     1      -0.039  -3.539 -17.882  1.00  0.00    -0.200 F 
ENDBRANCH  48  62
BRANCH  49  73
ATOM     73  C   UNL     1       2.279   8.791 -11.361  1.00  0.00     0.064 A 
ATOM     74  C   UNL     1       2.061  10.027 -11.987  1.00  0.00     0.173 A 
ATOM     75  C   UNL     1       2.851   8.803 -10.081  1.00  0.00     0.173 A 
ATOM     76  F   UNL     1       1.535  10.070 -13.220  1.00  0.00    -0.203 F 
ATOM     77  C   UNL     1       2.439  11.221 -11.377  1.00  0.00     0.198 A 
ATOM     78  C   UNL     1       3.195  10.000  -9.456  1.00  0.00     0.198 A 
ATOM     79  F   UNL     1       3.077   7.650  -9.434  1.00  0.00    -0.203 F 
ATOM     80  F   UNL     1       2.285  12.382 -12.028  1.00  0.00    -0.200 F 
ATOM     81  C   UNL     1       3.004  11.207 -10.110  1.00  0.00     0.200 A 
ATOM     82  F   UNL     1       3.726   9.982  -8.226  1.00  0.00    -0.200 F 
ATOM     83  F   UNL     1       3.376  12.355  -9.527  1.00  0.00    -0.200 F 
ENDBRANCH  49  73
BRANCH  61  84
ATOM     84  C   UNL     1       4.771   5.784 -17.130  1.00  0.00     0.064 A 
ATOM     85  C   UNL     1       6.140   5.833 -16.829  1.00  0.00     0.173 A 
ATOM     86  C   UNL     1       4.374   6.111 -18.436  1.00  0.00     0.173 A 
ATOM     87  F   UNL     1       6.571   5.545 -15.592  1.00  0.00    -0.203 F 
ATOM     88  C   UNL     1       7.070   6.219 -17.791  1.00  0.00     0.198 A 
ATOM     89  C   UNL     1       5.310   6.461 -19.405  1.00  0.00     0.198 A 
ATOM     90  F   UNL     1       3.077   6.072 -18.779  1.00  0.00    -0.203 F 
ATOM     91  F   UNL     1       8.368   6.309 -17.468  1.00  0.00    -0.200 F 
ATOM     92  C   UNL     1       6.656   6.523 -19.080  1.00  0.00     0.200 A 
ATOM     93  F   UNL     1       4.908   6.735 -20.654  1.00  0.00    -0.200 F 
ATOM     94  F   UNL     1       7.554   6.881 -20.007  1.00  0.00    -0.200 F 
ENDBRANCH  61  84
ENDBRANCH  35  36
ENDBRANCH  27  30
ENDBRANCH  25  26
ENDBRANCH  24  25
ENDBRANCH  23  24
ENDBRANCH  22  23
ENDBRANCH  21  22
ENDBRANCH   1  21
TORSDOF 19
