REMARK SMILES C[C@]1(O)CC[C@H]2[C@H]3CCC4=C/C(=N/OCC(=O)N[C@@H](CO)C(=O)NCCCCCCNC(=O)c5ccc(-c6c7nc(c(-c8c(F)c(F)c(F)c(F)c8F)c8ccc([nH]8)c(-c8c(F)c(F)c(F)c(F)c8F)c8nc(c(-c9c(F)c(F)c(F)c(F)c9F)c9ccc6[nH]9)C=C8)C=C7)cc5)CC[C@@]4(C)[C@@H]3CC[C@]21C
REMARK SMILES IDX 26 1 25 2 24 3 22 4 23 5 19 7 18 8 16 9 17 10 15 12 14 13
REMARK SMILES IDX 13 14 100 15 99 16 98 17 10 18 101 19 97 20 11 21 9 22 7 23
REMARK SMILES IDX 102 24 12 25 8 26 6 27 103 28 104 29 5 30 2 31 105 32 4 33
REMARK SMILES IDX 1 34 3 35 20 37 21 38 27 40 28 41 29 42 30 43 31 44 32 45
REMARK SMILES IDX 33 47 34 48 35 49 96 50 36 51 95 52 37 53 38 54 39 55 89 56
REMARK SMILES IDX 40 57 94 58 88 59 90 60 41 61 93 62 87 63 86 64 42 66 74 67
REMARK SMILES IDX 54 68 73 69 55 70 58 71 72 72 91 73 56 74 57 75 71 77 92 78
REMARK SMILES IDX 59 79 43 80 44 81 52 82 45 83 46 84 50 85 53 86 47 87 48 88
REMARK SMILES IDX 51 89 49 90 75 91 76 92 84 93 77 94 78 95 82 96 85 97 79 98
REMARK SMILES IDX 80 99 83 100 81 101 60 102 61 103 69 104 62 105 63 106
REMARK SMILES IDX 67 107 70 108 64 109 65 110 68 111 66 112
REMARK H PARENT 24 6 18 11 3 36 21 39 31 46 90 65 58 76
REMARK Flexibility Score: inf
ROOT
ATOM      1  C   UNL     1       0.656   7.095  -1.549  1.00  0.00     0.021 C 
ENDROOT
BRANCH   1   2
ATOM      2  C   UNL     1       0.788   5.842  -0.695  1.00  0.00     0.116 C 
BRANCH   2   3
ATOM      3  N   UNL     1      -0.012   4.775  -1.237  1.00  0.00    -0.354 N 
ATOM      4  C   UNL     1       0.449   3.600  -1.738  1.00  0.00     0.244 C 
ATOM      5  O   UNL     1      -0.177   3.104  -2.681  1.00  0.00    -0.273 OA
ATOM      6  H   UNL     1      -0.988   4.909  -1.244  1.00  0.00     0.163 HD
BRANCH   4   7
ATOM      7  C   UNL     1       1.697   2.879  -1.165  1.00  0.00     0.197 C 
BRANCH   7   8
ATOM      8  N   UNL     1       2.906   2.816  -1.982  1.00  0.00    -0.339 N 
ATOM      9  C   UNL     1       3.646   1.721  -2.376  1.00  0.00     0.261 C 
ATOM     10  O   UNL     1       4.731   1.961  -2.914  1.00  0.00    -0.271 OA
ATOM     11  H   UNL     1       3.243   3.685  -2.299  1.00  0.00     0.164 HD
BRANCH   9  12
ATOM     12  C   UNL     1       3.116   0.252  -2.261  1.00  0.00     0.363 C 
BRANCH  12  13
ATOM     13  O   UNL     1       3.868  -0.828  -1.685  1.00  0.00    -0.385 OA
BRANCH  13  14
ATOM     14  N   UNL     1       3.550  -1.183  -0.325  1.00  0.00    -0.091 NA
ATOM     15  C   UNL     1       1.164   0.017   0.715  1.00  0.00     0.016 C 
ATOM     16  C   UNL     1       0.268  -1.193   0.284  1.00  0.00    -0.008 C 
ATOM     17  C   UNL     1       0.503  -1.844  -1.148  1.00  0.00     0.018 C 
ATOM     18  C   UNL     1       0.735  -2.207   1.308  1.00  0.00    -0.062 C 
ATOM     19  C   UNL     1      -1.205  -0.681   0.308  1.00  0.00     0.002 C 
ATOM     20  C   UNL     1       1.816  -2.619  -1.333  1.00  0.00     0.061 C 
ATOM     21  C   UNL     1       2.035  -2.607   1.141  1.00  0.00     0.027 C 
ATOM     22  C   UNL     1      -0.143  -2.380   2.537  1.00  0.00     0.032 C 
ATOM     23  C   UNL     1      -1.644  -0.401   1.756  1.00  0.00    -0.003 C 
ATOM     24  C   UNL     1      -1.313   0.512  -0.659  1.00  0.00     0.005 C 
ATOM     25  C   UNL     1       2.657  -2.135  -0.200  1.00  0.00     0.080 C 
ATOM     26  C   UNL     1      -1.597  -1.767   2.482  1.00  0.00     0.008 C 
ATOM     27  C   UNL     1      -2.908   0.512   1.859  1.00  0.00     0.001 C 
ATOM     28  C   UNL     1      -2.469   1.445  -0.469  1.00  0.00     0.010 C 
ATOM     29  C   UNL     1      -2.770   1.814   1.004  1.00  0.00    -0.001 C 
ATOM     30  C   UNL     1      -4.258  -0.022   1.379  1.00  0.00     0.007 C 
ATOM     31  C   UNL     1      -4.189   2.458   1.027  1.00  0.00     0.068 C 
ATOM     32  C   UNL     1      -1.694   2.746   1.586  1.00  0.00     0.015 C 
ATOM     33  C   UNL     1      -5.129   1.233   1.101  1.00  0.00     0.036 C 
ATOM     34  C   UNL     1      -4.455   3.469   2.144  1.00  0.00     0.042 C 
BRANCH  31  35
ATOM     35  O   UNL     1      -4.407   3.188  -0.189  1.00  0.00    -0.390 OA
ATOM     36  H   UNL     1      -4.255   2.603  -0.949  1.00  0.00     0.211 HD
ENDBRANCH  31  35
ENDBRANCH  13  14
ENDBRANCH  12  13
ENDBRANCH   9  12
ENDBRANCH   7   8
BRANCH   7  37
ATOM     37  C   UNL     1       2.003   3.056   0.337  1.00  0.00     0.191 C 
BRANCH  37  38
ATOM     38  O   UNL     1       2.777   4.202   0.671  1.00  0.00    -0.394 OA
ATOM     39  H   UNL     1       3.652   4.133   0.258  1.00  0.00     0.210 HD
ENDBRANCH  37  38
ENDBRANCH   7  37
ENDBRANCH   4   7
ENDBRANCH   2   3
ENDBRANCH   1   2
BRANCH   1  40
ATOM     40  C   UNL     1      -0.653   7.865  -1.377  1.00  0.00     0.002 C 
BRANCH  40  41
ATOM     41  C   UNL     1      -0.982   8.316   0.048  1.00  0.00     0.002 C 
BRANCH  41  42
ATOM     42  C   UNL     1       0.162   8.981   0.814  1.00  0.00     0.021 C 
BRANCH  42  43
ATOM     43  C   UNL     1       0.853  10.121   0.081  1.00  0.00     0.116 C 
BRANCH  43  44
ATOM     44  N   UNL     1      -0.030  11.241  -0.182  1.00  0.00    -0.352 N 
ATOM     45  C   UNL     1       0.222  12.580   0.009  1.00  0.00     0.251 C 
ATOM     46  H   UNL     1      -0.919  11.016  -0.540  1.00  0.00     0.163 HD
ATOM     47  O   UNL     1      -0.653  13.415  -0.130  1.00  0.00    -0.269 OA
BRANCH  45  48
ATOM     48  C   UNL     1       1.584  12.983   0.420  1.00  0.00     0.039 A 
ATOM     49  C   UNL     1       1.739  13.788   1.551  1.00  0.00     0.014 A 
ATOM     50  C   UNL     1       2.700  12.516  -0.280  1.00  0.00     0.014 A 
ATOM     51  C   UNL     1       3.023  14.081   2.014  1.00  0.00     0.010 A 
ATOM     52  C   UNL     1       3.973  12.744   0.229  1.00  0.00     0.010 A 
ATOM     53  C   UNL     1       4.148  13.536   1.375  1.00  0.00    -0.014 A 
BRANCH  53  54
ATOM     54  C   UNL     1       5.528  13.812   1.848  1.00  0.00     0.031 A 
ATOM     55  C   UNL     1       6.478  14.549   0.945  1.00  0.00     0.074 A 
ATOM     56  C   UNL     1       5.946  13.346   3.041  1.00  0.00     0.049 A 
ATOM     57  N   UNL     1       7.762  14.759   1.083  1.00  0.00    -0.248 NA
ATOM     58  C   UNL     1       5.911  15.100  -0.298  1.00  0.00     0.031 C 
ATOM     59  C   UNL     1       5.125  12.605   4.000  1.00  0.00     0.029 A 
ATOM     60  N   UNL     1       7.179  13.412   3.643  1.00  0.00    -0.354 N 
ATOM     61  C   UNL     1       8.154  15.450  -0.056  1.00  0.00     0.074 A 
ATOM     62  C   UNL     1       6.990  15.572  -0.904  1.00  0.00     0.031 C 
ATOM     63  C   UNL     1       5.872  12.294   5.072  1.00  0.00     0.029 A 
ATOM     64  C   UNL     1       7.236  12.769   4.857  1.00  0.00     0.049 A 
ATOM     65  H   UNL     1       7.949  13.876   3.243  1.00  0.00     0.167 HD
ATOM     66  C   UNL     1       9.370  15.964  -0.354  1.00  0.00     0.037 A 
ATOM     67  C   UNL     1       8.278  12.570   5.687  1.00  0.00     0.037 A 
ATOM     68  C   UNL     1      10.521  15.862   0.502  1.00  0.00     0.049 A 
ATOM     69  C   UNL     1       9.633  13.113   5.305  1.00  0.00     0.074 A 
ATOM     70  C   UNL     1      11.796  16.357   0.298  1.00  0.00     0.029 A 
ATOM     71  N   UNL     1      10.530  15.225   1.734  1.00  0.00    -0.354 N 
ATOM     72  N   UNL     1       9.984  13.794   4.242  1.00  0.00    -0.248 NA
ATOM     73  C   UNL     1      10.737  12.862   6.243  1.00  0.00     0.031 C 
ATOM     74  C   UNL     1      12.587  15.989   1.389  1.00  0.00     0.029 A 
ATOM     75  C   UNL     1      11.791  15.313   2.299  1.00  0.00     0.049 A 
ATOM     76  H   UNL     1       9.755  14.777   2.146  1.00  0.00     0.167 HD
ATOM     77  C   UNL     1      11.329  14.097   4.409  1.00  0.00     0.074 A 
ATOM     78  C   UNL     1      11.732  13.529   5.676  1.00  0.00     0.031 C 
ATOM     79  C   UNL     1      12.157  14.786   3.587  1.00  0.00     0.037 A 
BRANCH  66  80
ATOM     80  C   UNL     1       9.517  16.704  -1.651  1.00  0.00     0.064 A 
ATOM     81  C   UNL     1       8.913  17.955  -1.850  1.00  0.00     0.173 A 
ATOM     82  C   UNL     1      10.314  16.188  -2.684  1.00  0.00     0.173 A 
ATOM     83  F   UNL     1       8.130  18.486  -0.899  1.00  0.00    -0.203 F 
ATOM     84  C   UNL     1       9.087  18.654  -3.041  1.00  0.00     0.198 A 
ATOM     85  C   UNL     1      10.511  16.904  -3.862  1.00  0.00     0.198 A 
ATOM     86  F   UNL     1      10.917  14.998  -2.544  1.00  0.00    -0.203 F 
ATOM     87  F   UNL     1       8.467  19.828  -3.224  1.00  0.00    -0.200 F 
ATOM     88  C   UNL     1       9.894  18.133  -4.042  1.00  0.00     0.200 A 
ATOM     89  F   UNL     1      11.304  16.407  -4.821  1.00  0.00    -0.200 F 
ATOM     90  F   UNL     1      10.074  18.815  -5.181  1.00  0.00    -0.200 F 
ENDBRANCH  66  80
BRANCH  67  91
ATOM     91  C   UNL     1       8.101  11.827   6.965  1.00  0.00     0.064 A 
ATOM     92  C   UNL     1       8.281  12.468   8.200  1.00  0.00     0.173 A 
ATOM     93  C   UNL     1       7.812  10.455   6.983  1.00  0.00     0.173 A 
ATOM     94  F   UNL     1       8.578  13.776   8.239  1.00  0.00    -0.203 F 
ATOM     95  C   UNL     1       8.224  11.758   9.398  1.00  0.00     0.198 A 
ATOM     96  C   UNL     1       7.720   9.752   8.183  1.00  0.00     0.198 A 
ATOM     97  F   UNL     1       7.624   9.792   5.832  1.00  0.00    -0.203 F 
ATOM     98  F   UNL     1       8.476  12.382  10.557  1.00  0.00    -0.200 F 
ATOM     99  C   UNL     1       7.942  10.401   9.389  1.00  0.00     0.200 A 
ATOM    100  F   UNL     1       7.432   8.444   8.171  1.00  0.00    -0.200 F 
ATOM    101  F   UNL     1       7.901   9.715  10.539  1.00  0.00    -0.200 F 
ENDBRANCH  67  91
BRANCH  79 102
ATOM    102  C   UNL     1      13.556  15.048   4.064  1.00  0.00     0.064 A 
ATOM    103  C   UNL     1      14.521  14.034   4.134  1.00  0.00     0.173 A 
ATOM    104  C   UNL     1      13.949  16.356   4.392  1.00  0.00     0.173 A 
ATOM    105  F   UNL     1      14.191  12.767   3.844  1.00  0.00    -0.203 F 
ATOM    106  C   UNL     1      15.825  14.316   4.532  1.00  0.00     0.198 A 
ATOM    107  C   UNL     1      15.261  16.639   4.758  1.00  0.00     0.198 A 
ATOM    108  F   UNL     1      13.065  17.363   4.334  1.00  0.00    -0.203 F 
ATOM    109  F   UNL     1      16.722  13.325   4.632  1.00  0.00    -0.200 F 
ATOM    110  C   UNL     1      16.196  15.619   4.833  1.00  0.00     0.200 A 
ATOM    111  F   UNL     1      15.621  17.901   5.031  1.00  0.00    -0.200 F 
ATOM    112  F   UNL     1      17.456  15.890   5.200  1.00  0.00    -0.200 F 
ENDBRANCH  79 102
ENDBRANCH  53  54
ENDBRANCH  45  48
ENDBRANCH  43  44
ENDBRANCH  42  43
ENDBRANCH  41  42
ENDBRANCH  40  41
ENDBRANCH   1  40
TORSDOF 20
