REMARK SMILES C[C@H]1[C@H](C)CC[C@@]2(C(=O)NCCCCCCNC(=O)c3ccc(-c4c5nc(c(-c6c(F)c(F)c(F)c(F)c6F)c6ccc([nH]6)c(-c6c(F)c(F)c(F)c(F)c6F)c6nc(c(-c7c(F)c(F)c(F)c(F)c7F)c7ccc4[nH]7)C=C6)C=C5)cc3)CC[C@@]3(C)C(=CC[C@@H]4[C@@]5(C)CC[C@H](O)C(C)(C)[C@@H]5CC[C@]43C)[C@H]12
REMARK SMILES IDX 14 1 13 2 12 3 11 4 10 5 8 6 9 7 7 9 1 10 2 11 3 12 105 13
REMARK SMILES IDX 4 14 5 15 87 16 6 17 83 18 85 19 88 20 84 21 86 22 103 23
REMARK SMILES IDX 89 24 90 25 102 26 104 27 91 28 101 29 92 30 93 31 100 32
REMARK SMILES IDX 94 33 97 34 95 35 98 36 99 37 96 38 15 40 16 41 17 42 18 43
REMARK SMILES IDX 19 45 20 46 21 47 82 48 22 49 81 50 23 51 24 52 25 53 75 54
REMARK SMILES IDX 26 55 80 56 74 57 76 58 27 59 79 60 73 61 72 62 28 64 60 65
REMARK SMILES IDX 40 66 59 67 41 68 44 69 58 70 77 71 42 72 43 73 57 75 78 76
REMARK SMILES IDX 45 77 29 78 30 79 38 80 31 81 32 82 36 83 39 84 33 85 34 86
REMARK SMILES IDX 37 87 35 88 61 89 62 90 70 91 63 92 64 93 68 94 71 95 65 96
REMARK SMILES IDX 66 97 69 98 67 99 46 100 47 101 55 102 48 103 49 104 53 105
REMARK SMILES IDX 56 106 50 107 51 108 54 109 52 110
REMARK H PARENT 10 8 96 39 17 44 76 63 44 74
REMARK Flexibility Score: inf
ROOT
ATOM      1  C   UNL     1       1.512   0.454  -2.881  1.00  0.00     0.002 C 
ENDROOT
BRANCH   1   2
ATOM      2  C   UNL     1       0.266  -0.133  -3.553  1.00  0.00     0.002 C 
BRANCH   2   3
ATOM      3  C   UNL     1       0.083  -1.657  -3.572  1.00  0.00     0.021 C 
BRANCH   3   4
ATOM      4  C   UNL     1       0.029  -2.385  -2.226  1.00  0.00     0.116 C 
BRANCH   4   5
ATOM      5  N   UNL     1      -1.186  -2.156  -1.474  1.00  0.00    -0.356 N 
ATOM      6  C   UNL     1      -1.643  -2.687  -0.303  1.00  0.00     0.226 C 
ATOM      7  O   UNL     1      -2.871  -2.856  -0.294  1.00  0.00    -0.274 OA
ATOM      8  H   UNL     1      -1.794  -1.497  -1.881  1.00  0.00     0.163 HD
BRANCH   6   9
ATOM      9  C   UNL     1      -0.777  -3.027   0.972  1.00  0.00     0.056 C 
ATOM     10  C   UNL     1       1.932  -0.224   1.644  1.00  0.00     0.008 C 
ATOM     11  C   UNL     1       1.273  -1.405   0.904  1.00  0.00    -0.003 C 
ATOM     12  C   UNL     1       2.227  -2.636   0.828  1.00  0.00    -0.011 C 
ATOM     13  C   UNL     1      -0.059  -1.798   1.599  1.00  0.00     0.034 C 
ATOM     14  C   UNL     1       3.491  -2.389  -0.011  1.00  0.00     0.008 C 
ATOM     15  C   UNL     1       1.576  -3.910   0.262  1.00  0.00     0.005 C 
ATOM     16  C   UNL     1      -1.158  -0.744   1.798  1.00  0.00    -0.063 C 
ATOM     17  C   UNL     1       0.167  -4.218   0.728  1.00  0.00     0.018 C 
ATOM     18  C   UNL     1      -1.768  -3.528   2.102  1.00  0.00     0.018 C 
ATOM     19  C   UNL     1      -2.187  -1.046   2.928  1.00  0.00    -0.006 C 
ATOM     20  C   UNL     1      -1.370   0.204   0.862  1.00  0.00    -0.027 C 
ATOM     21  C   UNL     1      -2.747  -2.489   2.683  1.00  0.00     0.013 C 
ATOM     22  C   UNL     1      -1.467  -1.051   4.303  1.00  0.00     0.017 C 
ATOM     23  C   UNL     1      -3.389   0.057   2.941  1.00  0.00    -0.020 C 
ATOM     24  C   UNL     1      -2.678   0.914   0.671  1.00  0.00     0.032 C 
ATOM     25  C   UNL     1      -3.832   0.223   1.440  1.00  0.00     0.006 C 
ATOM     26  C   UNL     1      -4.585  -0.368   3.833  1.00  0.00     0.008 C 
ATOM     27  C   UNL     1      -2.881   1.407   3.539  1.00  0.00     0.012 C 
ATOM     28  C   UNL     1      -5.286   0.756   1.104  1.00  0.00    -0.025 C 
ATOM     29  C   UNL     1      -5.844   0.476   3.596  1.00  0.00     0.005 C 
ATOM     30  C   UNL     1      -5.251   2.287   0.919  1.00  0.00     0.012 C 
ATOM     31  C   UNL     1      -5.732   0.104  -0.248  1.00  0.00     0.010 C 
ATOM     32  C   UNL     1      -6.334   0.250   2.161  1.00  0.00     0.003 C 
ATOM     33  C   UNL     1      -7.175   0.409  -0.644  1.00  0.00     0.033 C 
ATOM     34  C   UNL     1      -7.834   0.645   1.874  1.00  0.00    -0.006 C 
ATOM     35  C   UNL     1      -8.197   0.102   0.456  1.00  0.00     0.120 C 
ATOM     36  C   UNL     1      -8.146   2.150   2.020  1.00  0.00     0.014 C 
ATOM     37  C   UNL     1      -8.777  -0.060   2.889  1.00  0.00     0.014 C 
BRANCH  35  38
ATOM     38  O   UNL     1      -9.481   0.564   0.034  1.00  0.00    -0.393 OA
ATOM     39  H   UNL     1      -9.457   1.528  -0.076  1.00  0.00     0.210 HD
ENDBRANCH  35  38
ENDBRANCH   6   9
ENDBRANCH   4   5
ENDBRANCH   3   4
ENDBRANCH   2   3
ENDBRANCH   1   2
BRANCH   1  40
ATOM     40  C   UNL     1       2.869  -0.167  -3.207  1.00  0.00     0.021 C 
BRANCH  40  41
ATOM     41  C   UNL     1       3.243  -0.355  -4.671  1.00  0.00     0.116 C 
BRANCH  41  42
ATOM     42  N   UNL     1       3.324   0.869  -5.439  1.00  0.00    -0.352 N 
ATOM     43  C   UNL     1       4.245   1.250  -6.392  1.00  0.00     0.251 C 
ATOM     44  H   UNL     1       2.616   1.528  -5.254  1.00  0.00     0.163 HD
ATOM     45  O   UNL     1       4.151   2.348  -6.920  1.00  0.00    -0.269 OA
BRANCH  43  46
ATOM     46  C   UNL     1       5.385   0.363  -6.752  1.00  0.00     0.039 A 
ATOM     47  C   UNL     1       6.646   0.947  -6.921  1.00  0.00     0.014 A 
ATOM     48  C   UNL     1       5.236  -1.013  -6.941  1.00  0.00     0.014 A 
ATOM     49  C   UNL     1       7.760   0.149  -7.205  1.00  0.00     0.010 A 
ATOM     50  C   UNL     1       6.359  -1.818  -7.153  1.00  0.00     0.010 A 
ATOM     51  C   UNL     1       7.633  -1.246  -7.287  1.00  0.00    -0.014 A 
BRANCH  51  52
ATOM     52  C   UNL     1       8.820  -2.114  -7.515  1.00  0.00     0.031 A 
ATOM     53  C   UNL     1       8.935  -2.933  -8.772  1.00  0.00     0.074 A 
ATOM     54  C   UNL     1       9.772  -2.212  -6.565  1.00  0.00     0.049 A 
ATOM     55  N   UNL     1       9.858  -3.795  -9.120  1.00  0.00    -0.248 NA
ATOM     56  C   UNL     1       7.854  -2.784  -9.759  1.00  0.00     0.031 C 
ATOM     57  C   UNL     1       9.759  -1.511  -5.280  1.00  0.00     0.029 A 
ATOM     58  N   UNL     1      10.931  -2.948  -6.528  1.00  0.00    -0.354 N 
ATOM     59  C   UNL     1       9.461  -4.300 -10.351  1.00  0.00     0.074 A 
ATOM     60  C   UNL     1       8.192  -3.684 -10.671  1.00  0.00     0.031 C 
ATOM     61  C   UNL     1      10.864  -1.837  -4.589  1.00  0.00     0.029 A 
ATOM     62  C   UNL     1      11.648  -2.793  -5.365  1.00  0.00     0.049 A 
ATOM     63  H   UNL     1      11.222  -3.533  -7.265  1.00  0.00     0.167 HD
ATOM     64  C   UNL     1      10.107  -5.181 -11.153  1.00  0.00     0.037 A 
ATOM     65  C   UNL     1      12.802  -3.362  -4.967  1.00  0.00     0.037 A 
ATOM     66  C   UNL     1      11.389  -5.764 -10.856  1.00  0.00     0.049 A 
ATOM     67  C   UNL     1      13.507  -4.324  -5.885  1.00  0.00     0.074 A 
ATOM     68  C   UNL     1      12.155  -6.611 -11.639  1.00  0.00     0.029 A 
ATOM     69  N   UNL     1      12.097  -5.556  -9.682  1.00  0.00    -0.354 N 
ATOM     70  N   UNL     1      13.154  -4.739  -7.077  1.00  0.00    -0.248 NA
ATOM     71  C   UNL     1      14.775  -4.892  -5.405  1.00  0.00     0.031 C 
ATOM     72  C   UNL     1      13.309  -6.946 -10.923  1.00  0.00     0.029 A 
ATOM     73  C   UNL     1      13.282  -6.274  -9.712  1.00  0.00     0.049 A 
ATOM     74  H   UNL     1      11.802  -4.984  -8.937  1.00  0.00     0.167 HD
ATOM     75  C   UNL     1      14.165  -5.591  -7.500  1.00  0.00     0.074 A 
ATOM     76  C   UNL     1      15.154  -5.623  -6.444  1.00  0.00     0.031 C 
ATOM     77  C   UNL     1      14.263  -6.287  -8.659  1.00  0.00     0.037 A 
BRANCH  64  78
ATOM     78  C   UNL     1       9.443  -5.567 -12.443  1.00  0.00     0.064 A 
ATOM     79  C   UNL     1       9.352  -4.670 -13.518  1.00  0.00     0.173 A 
ATOM     80  C   UNL     1       8.943  -6.865 -12.626  1.00  0.00     0.173 A 
ATOM     81  F   UNL     1       9.807  -3.415 -13.390  1.00  0.00    -0.203 F 
ATOM     82  C   UNL     1       8.764  -5.052 -14.721  1.00  0.00     0.198 A 
ATOM     83  C   UNL     1       8.380  -7.251 -13.839  1.00  0.00     0.198 A 
ATOM     84  F   UNL     1       9.011  -7.763 -11.632  1.00  0.00    -0.203 F 
ATOM     85  F   UNL     1       8.653  -4.166 -15.721  1.00  0.00    -0.200 F 
ATOM     86  C   UNL     1       8.287  -6.344 -14.884  1.00  0.00     0.200 A 
ATOM     87  F   UNL     1       7.930  -8.504 -13.999  1.00  0.00    -0.200 F 
ATOM     88  F   UNL     1       7.731  -6.713 -16.046  1.00  0.00    -0.200 F 
ENDBRANCH  64  78
BRANCH  65  89
ATOM     89  C   UNL     1      13.381  -3.024  -3.640  1.00  0.00     0.064 A 
ATOM     90  C   UNL     1      14.561  -2.274  -3.538  1.00  0.00     0.173 A 
ATOM     91  C   UNL     1      12.781  -3.459  -2.449  1.00  0.00     0.173 A 
ATOM     92  F   UNL     1      15.185  -1.855  -4.649  1.00  0.00    -0.203 F 
ATOM     93  C   UNL     1      15.132  -1.993  -2.299  1.00  0.00     0.198 A 
ATOM     94  C   UNL     1      13.337  -3.154  -1.209  1.00  0.00     0.198 A 
ATOM     95  F   UNL     1      11.649  -4.178  -2.491  1.00  0.00    -0.203 F 
ATOM     96  F   UNL     1      16.288  -1.317  -2.234  1.00  0.00    -0.200 F 
ATOM     97  C   UNL     1      14.517  -2.429  -1.135  1.00  0.00     0.200 A 
ATOM     98  F   UNL     1      12.734  -3.567  -0.086  1.00  0.00    -0.200 F 
ATOM     99  F   UNL     1      15.067  -2.159   0.057  1.00  0.00    -0.200 F 
ENDBRANCH  65  89
BRANCH  77 100
ATOM    100  C   UNL     1      15.497  -7.115  -8.862  1.00  0.00     0.064 A 
ATOM    101  C   UNL     1      15.700  -8.313  -8.161  1.00  0.00     0.173 A 
ATOM    102  C   UNL     1      16.467  -6.728  -9.799  1.00  0.00     0.173 A 
ATOM    103  F   UNL     1      14.809  -8.718  -7.244  1.00  0.00    -0.203 F 
ATOM    104  C   UNL     1      16.842  -9.081  -8.375  1.00  0.00     0.198 A 
ATOM    105  C   UNL     1      17.593  -7.512 -10.030  1.00  0.00     0.198 A 
ATOM    106  F   UNL     1      16.315  -5.593 -10.499  1.00  0.00    -0.203 F 
ATOM    107  F   UNL     1      17.037 -10.200  -7.663  1.00  0.00    -0.200 F 
ATOM    108  C   UNL     1      17.783  -8.684  -9.313  1.00  0.00     0.200 A 
ATOM    109  F   UNL     1      18.495  -7.133 -10.945  1.00  0.00    -0.200 F 
ATOM    110  F   UNL     1      18.878  -9.428  -9.523  1.00  0.00    -0.200 F 
ENDBRANCH  77 100
ENDBRANCH  51  52
ENDBRANCH  43  46
ENDBRANCH  41  42
ENDBRANCH  40  41
ENDBRANCH   1  40
TORSDOF 14
