REMARK SMILES CC(C)c1ccc2c(c1)c(SC(C)(C)C)c(CC(C)(C)C(=O)NCCCCCCNC(=O)c1ccc(-c3c4nc(c(-c5c(F)c(F)c(F)c(F)c5F)c5ccc([nH]5)c(-c5c(F)c(F)c(F)c(F)c5F)c5nc(c(-c6c(F)c(F)c(F)c(F)c6F)c6ccc3[nH]6)C=C5)C=C4)cc1)n2Cc1ccc(Cl)cc1
REMARK SMILES IDX 25 1 24 2 23 3 21 4 22 5 18 7 19 8 20 9 17 10 16 11 4 12
REMARK SMILES IDX 5 13 9 14 6 15 8 16 7 17 10 18 96 19 2 20 1 21 3 22 11 23
REMARK SMILES IDX 12 24 13 25 14 26 15 27 97 28 98 29 99 30 104 31 100 32
REMARK SMILES IDX 103 33 101 34 102 35 26 36 27 37 28 38 29 39 30 40 31 41
REMARK SMILES IDX 32 43 33 44 34 45 95 46 35 47 94 48 36 49 37 50 38 51 88 52
REMARK SMILES IDX 39 53 93 54 87 55 89 56 40 57 92 58 86 59 85 60 41 62 73 63
REMARK SMILES IDX 53 64 72 65 54 66 57 67 71 68 90 69 55 70 56 71 70 73 91 74
REMARK SMILES IDX 58 75 42 76 43 77 51 78 44 79 45 80 49 81 52 82 46 83 47 84
REMARK SMILES IDX 50 85 48 86 74 87 75 88 83 89 76 90 77 91 81 92 84 93 78 94
REMARK SMILES IDX 79 95 82 96 80 97 59 98 60 99 68 100 61 101 62 102 66 103
REMARK SMILES IDX 69 104 63 105 64 106 67 107 65 108
REMARK H PARENT 23 6 30 42 89 61 57 72
REMARK Flexibility Score: inf
ROOT
ATOM      1  C   UNL     1      -8.371   2.767   5.173  1.00  0.00     0.021 C 
ENDROOT
BRANCH   1   2
ATOM      2  C   UNL     1      -7.082   2.540   4.421  1.00  0.00     0.116 C 
BRANCH   2   3
ATOM      3  N   UNL     1      -6.929   1.158   4.015  1.00  0.00    -0.356 N 
ATOM      4  C   UNL     1      -6.629   0.660   2.773  1.00  0.00     0.226 C 
ATOM      5  O   UNL     1      -6.155  -0.468   2.736  1.00  0.00    -0.275 OA
ATOM      6  H   UNL     1      -7.057   0.488   4.725  1.00  0.00     0.163 HD
BRANCH   4   7
ATOM      7  C   UNL     1      -6.671   1.605   1.567  1.00  0.00     0.049 C 
ATOM      8  C   UNL     1      -5.357   2.376   1.851  1.00  0.00     0.022 C 
ATOM      9  C   UNL     1      -8.022   2.380   1.577  1.00  0.00     0.022 C 
BRANCH   7  10
ATOM     10  C   UNL     1      -6.676   0.962   0.145  1.00  0.00     0.071 C 
BRANCH  10  11
ATOM     11  C   UNL     1      -5.435   0.312  -0.303  1.00  0.00     0.034 A 
ATOM     12  C   UNL     1      -1.115  -1.369  -0.415  1.00  0.00    -0.045 A 
ATOM     13  C   UNL     1      -1.842  -2.557  -0.269  1.00  0.00     0.006 A 
ATOM     14  C   UNL     1      -1.845  -0.186  -0.652  1.00  0.00     0.015 A 
ATOM     15  C   UNL     1      -3.242  -2.578  -0.235  1.00  0.00     0.027 A 
ATOM     16  C   UNL     1      -3.267  -0.162  -0.617  1.00  0.00     0.014 A 
ATOM     17  C   UNL     1      -3.935  -1.365  -0.361  1.00  0.00     0.050 A 
ATOM     18  C   UNL     1      -4.254   0.887  -0.750  1.00  0.00     0.037 A 
ATOM     19  N   UNL     1      -5.289  -1.075  -0.281  1.00  0.00    -0.339 N 
BRANCH  12  20
ATOM     20  C   UNL     1       0.414  -1.391  -0.340  1.00  0.00     0.013 C 
ATOM     21  C   UNL     1       1.072  -0.010  -0.193  1.00  0.00     0.012 C 
ATOM     22  C   UNL     1       0.937  -2.272   0.811  1.00  0.00     0.012 C 
ENDBRANCH  12  20
BRANCH  18  23
ATOM     23  S   UNL     1      -3.758   2.559  -1.109  1.00  0.00    -0.118 SA
BRANCH  23  24
ATOM     24  C   UNL     1      -5.042   3.845  -1.534  1.00  0.00     0.012 C 
ATOM     25  C   UNL     1      -5.800   3.471  -2.810  1.00  0.00     0.023 C 
ATOM     26  C   UNL     1      -6.059   4.375  -0.498  1.00  0.00     0.023 C 
ATOM     27  C   UNL     1      -4.175   5.108  -1.799  1.00  0.00     0.023 C 
ENDBRANCH  23  24
ENDBRANCH  18  23
BRANCH  19  28
ATOM     28  C   UNL     1      -6.363  -2.101  -0.373  1.00  0.00     0.158 C 
BRANCH  28  29
ATOM     29  C   UNL     1      -7.241  -2.335   0.846  1.00  0.00    -0.028 A 
ATOM     30  C   UNL     1      -8.517  -1.743   0.943  1.00  0.00     0.007 A 
ATOM     31  C   UNL     1      -6.805  -3.121   1.926  1.00  0.00     0.007 A 
ATOM     32  C   UNL     1      -9.240  -1.766   2.140  1.00  0.00     0.021 A 
ATOM     33  C   UNL     1      -7.555  -3.191   3.111  1.00  0.00     0.021 A 
ATOM     34  C   UNL     1      -8.742  -2.470   3.229  1.00  0.00     0.041 A 
ATOM     35  Cl  UNL     1      -9.578  -2.415   4.733  1.00  0.00    -0.084 Cl
ENDBRANCH  28  29
ENDBRANCH  19  28
ENDBRANCH  10  11
ENDBRANCH   7  10
ENDBRANCH   4   7
ENDBRANCH   2   3
ENDBRANCH   1   2
BRANCH   1  36
ATOM     36  C   UNL     1      -8.246   2.347   6.629  1.00  0.00     0.002 C 
BRANCH  36  37
ATOM     37  C   UNL     1      -7.128   3.069   7.393  1.00  0.00     0.002 C 
BRANCH  37  38
ATOM     38  C   UNL     1      -7.143   4.599   7.268  1.00  0.00     0.021 C 
BRANCH  38  39
ATOM     39  C   UNL     1      -8.502   5.229   7.579  1.00  0.00     0.116 C 
BRANCH  39  40
ATOM     40  N   UNL     1      -9.062   4.772   8.831  1.00  0.00    -0.352 N 
ATOM     41  C   UNL     1      -8.781   5.006  10.145  1.00  0.00     0.251 C 
ATOM     42  H   UNL     1      -9.816   4.152   8.708  1.00  0.00     0.163 HD
ATOM     43  O   UNL     1      -9.434   4.363  10.968  1.00  0.00    -0.269 OA
BRANCH  41  44
ATOM     44  C   UNL     1      -7.734   5.944  10.630  1.00  0.00     0.039 A 
ATOM     45  C   UNL     1      -7.018   6.843   9.839  1.00  0.00     0.014 A 
ATOM     46  C   UNL     1      -7.469   5.906  12.010  1.00  0.00     0.014 A 
ATOM     47  C   UNL     1      -6.010   7.624  10.387  1.00  0.00     0.010 A 
ATOM     48  C   UNL     1      -6.493   6.718  12.573  1.00  0.00     0.010 A 
ATOM     49  C   UNL     1      -5.737   7.550  11.752  1.00  0.00    -0.014 A 
BRANCH  49  50
ATOM     50  C   UNL     1      -4.706   8.441  12.277  1.00  0.00     0.031 A 
ATOM     51  C   UNL     1      -4.955   9.903  12.099  1.00  0.00     0.074 A 
ATOM     52  C   UNL     1      -3.653   7.995  12.986  1.00  0.00     0.049 A 
ATOM     53  N   UNL     1      -4.184  10.799  11.566  1.00  0.00    -0.248 NA
ATOM     54  C   UNL     1      -6.266  10.422  12.524  1.00  0.00     0.031 C 
ATOM     55  C   UNL     1      -3.419   6.637  13.484  1.00  0.00     0.029 A 
ATOM     56  N   UNL     1      -2.615   8.706  13.514  1.00  0.00    -0.354 N 
ATOM     57  C   UNL     1      -4.847  12.016  11.714  1.00  0.00     0.074 A 
ATOM     58  C   UNL     1      -6.159  11.716  12.227  1.00  0.00     0.031 C 
ATOM     59  C   UNL     1      -2.448   6.672  14.422  1.00  0.00     0.029 A 
ATOM     60  C   UNL     1      -1.908   8.019  14.486  1.00  0.00     0.049 A 
ATOM     61  H   UNL     1      -2.391   9.622  13.230  1.00  0.00     0.167 HD
ATOM     62  C   UNL     1      -4.221  13.215  11.571  1.00  0.00     0.037 A 
ATOM     63  C   UNL     1      -0.999   8.542  15.340  1.00  0.00     0.037 A 
ATOM     64  C   UNL     1      -2.984  13.106  10.856  1.00  0.00     0.049 A 
ATOM     65  C   UNL     1      -0.514   9.819  14.767  1.00  0.00     0.074 A 
ATOM     66  C   UNL     1      -2.621  12.804   9.561  1.00  0.00     0.029 A 
ATOM     67  N   UNL     1      -1.833  13.054  11.597  1.00  0.00    -0.354 N 
ATOM     68  N   UNL     1       0.224   9.916  13.697  1.00  0.00    -0.248 NA
ATOM     69  C   UNL     1      -1.124  11.061  15.218  1.00  0.00     0.031 C 
ATOM     70  C   UNL     1      -1.345  12.178   9.661  1.00  0.00     0.029 A 
ATOM     71  C   UNL     1      -0.993  12.145  11.011  1.00  0.00     0.049 A 
ATOM     72  H   UNL     1      -1.644  13.579  12.408  1.00  0.00     0.167 HD
ATOM     73  C   UNL     1      -0.161  11.112  13.115  1.00  0.00     0.074 A 
ATOM     74  C   UNL     1      -0.863  11.836  14.164  1.00  0.00     0.031 C 
ATOM     75  C   UNL     1      -0.118  11.273  11.761  1.00  0.00     0.037 A 
BRANCH  62  76
ATOM     76  C   UNL     1      -4.574  14.444  12.366  1.00  0.00     0.064 A 
ATOM     77  C   UNL     1      -4.098  15.709  11.969  1.00  0.00     0.173 A 
ATOM     78  C   UNL     1      -5.122  14.374  13.664  1.00  0.00     0.173 A 
ATOM     79  F   UNL     1      -3.516  15.873  10.772  1.00  0.00    -0.203 F 
ATOM     80  C   UNL     1      -4.137  16.812  12.827  1.00  0.00     0.198 A 
ATOM     81  C   UNL     1      -5.205  15.487  14.499  1.00  0.00     0.198 A 
ATOM     82  F   UNL     1      -5.492  13.206  14.206  1.00  0.00    -0.203 F 
ATOM     83  F   UNL     1      -3.580  17.971  12.450  1.00  0.00    -0.200 F 
ATOM     84  C   UNL     1      -4.691  16.700  14.090  1.00  0.00     0.200 A 
ATOM     85  F   UNL     1      -5.719  15.352  15.729  1.00  0.00    -0.200 F 
ATOM     86  F   UNL     1      -4.686  17.743  14.931  1.00  0.00    -0.200 F 
ENDBRANCH  62  76
BRANCH  63  87
ATOM     87  C   UNL     1      -0.751   8.162  16.749  1.00  0.00     0.064 A 
ATOM     88  C   UNL     1       0.421   8.568  17.407  1.00  0.00     0.173 A 
ATOM     89  C   UNL     1      -1.779   7.640  17.559  1.00  0.00     0.173 A 
ATOM     90  F   UNL     1       1.429   9.114  16.712  1.00  0.00    -0.203 F 
ATOM     91  C   UNL     1       0.543   8.489  18.797  1.00  0.00     0.198 A 
ATOM     92  C   UNL     1      -1.650   7.550  18.944  1.00  0.00     0.198 A 
ATOM     93  F   UNL     1      -2.965   7.300  17.036  1.00  0.00    -0.203 F 
ATOM     94  F   UNL     1       1.647   8.955  19.397  1.00  0.00    -0.200 F 
ATOM     95  C   UNL     1      -0.497   7.991  19.565  1.00  0.00     0.200 A 
ATOM     96  F   UNL     1      -2.677   7.098  19.678  1.00  0.00    -0.200 F 
ATOM     97  F   UNL     1      -0.406   7.977  20.902  1.00  0.00    -0.200 F 
ENDBRANCH  63  87
BRANCH  75  98
ATOM     98  C   UNL     1       0.706  10.294  10.975  1.00  0.00     0.064 A 
ATOM     99  C   UNL     1       0.420   8.922  10.882  1.00  0.00     0.173 A 
ATOM    100  C   UNL     1       1.756  10.791  10.192  1.00  0.00     0.173 A 
ATOM    101  F   UNL     1      -0.631   8.391  11.521  1.00  0.00    -0.203 F 
ATOM    102  C   UNL     1       1.186   8.079  10.078  1.00  0.00     0.198 A 
ATOM    103  C   UNL     1       2.494   9.954   9.360  1.00  0.00     0.198 A 
ATOM    104  F   UNL     1       2.037  12.104  10.197  1.00  0.00    -0.203 F 
ATOM    105  F   UNL     1       0.905   6.769  10.018  1.00  0.00    -0.200 F 
ATOM    106  C   UNL     1       2.217   8.598   9.313  1.00  0.00     0.200 A 
ATOM    107  F   UNL     1       3.457  10.469   8.582  1.00  0.00    -0.200 F 
ATOM    108  F   UNL     1       2.927   7.795   8.508  1.00  0.00    -0.200 F 
ENDBRANCH  75  98
ENDBRANCH  49  50
ENDBRANCH  41  44
ENDBRANCH  39  40
ENDBRANCH  38  39
ENDBRANCH  37  38
ENDBRANCH  36  37
ENDBRANCH   1  36
TORSDOF 20
