REMARK SMILES COc1ccc(-c2csc(NC(=O)[C@H](CC(=O)NCCCCCCNC(=O)c3ccc(-c4c5nc(c(-c6c(F)c(F)c(F)c(F)c6F)c6ccc([nH]6)c(-c6c(F)c(F)c(F)c(F)c6F)c6nc(c(-c7c(F)c(F)c(F)c(F)c7F)c7ccc4[nH]7)C=C6)C=C5)cc3)[NH+]3CCCCC3)n2)cc1
REMARK SMILES IDX 20 1 19 2 18 3 16 4 17 5 15 7 14 8 12 9 11 10 13 12 10 13
REMARK SMILES IDX 7 14 8 15 97 16 9 17 6 18 3 19 4 20 99 21 5 22 98 23 2 24
REMARK SMILES IDX 1 25 91 26 92 27 96 28 93 30 95 31 94 32 21 33 22 34 23 35
REMARK SMILES IDX 24 36 25 37 26 38 27 40 28 41 29 42 90 43 30 44 89 45 31 46
REMARK SMILES IDX 32 47 33 48 83 49 34 50 88 51 82 52 84 53 35 54 87 55 81 56
REMARK SMILES IDX 80 57 36 59 68 60 48 61 67 62 49 63 52 64 66 65 85 66 50 67
REMARK SMILES IDX 51 68 65 70 86 71 53 72 37 73 38 74 46 75 39 76 40 77 44 78
REMARK SMILES IDX 47 79 41 80 42 81 45 82 43 83 69 84 70 85 78 86 71 87 72 88
REMARK SMILES IDX 76 89 79 90 73 91 74 92 77 93 75 94 54 95 55 96 63 97 56 98
REMARK SMILES IDX 57 99 61 100 64 101 58 102 59 103 62 104 60 105
REMARK H PARENT 18 6 11 11 91 29 25 39 84 58 52 69
REMARK Flexibility Score: inf
ROOT
ATOM      1  C   UNL     1       4.901 -12.644   6.463  1.00  0.00     0.021 C 
ENDROOT
BRANCH   1   2
ATOM      2  C   UNL     1       4.944 -11.344   7.268  1.00  0.00     0.116 C 
BRANCH   2   3
ATOM      3  N   UNL     1       5.634 -10.301   6.538  1.00  0.00    -0.356 N 
ATOM      4  C   UNL     1       5.152  -9.166   5.956  1.00  0.00     0.226 C 
ATOM      5  O   UNL     1       5.959  -8.426   5.389  1.00  0.00    -0.275 OA
ATOM      6  H   UNL     1       6.605 -10.431   6.449  1.00  0.00     0.163 HD
BRANCH   4   7
ATOM      7  C   UNL     1       3.688  -8.799   6.074  1.00  0.00     0.175 C 
BRANCH   7   8
ATOM      8  C   UNL     1       2.745  -9.684   5.235  1.00  0.00     0.284 C 
BRANCH   8   9
ATOM      9  C   UNL     1       1.270  -9.404   5.663  1.00  0.00     0.285 C 
ATOM     10  N   UNL     1       0.230 -10.226   5.335  1.00  0.00    -0.297 N 
ATOM     11  H   UNL     1      -0.662  -9.820   5.428  1.00  0.00     0.172 HD
ATOM     12  O   UNL     1       0.974  -8.341   6.226  1.00  0.00    -0.268 OA
BRANCH  10  13
ATOM     13  C   UNL     1       0.227 -11.518   4.898  1.00  0.00     0.190 A 
ATOM     14  C   UNL     1      -0.323 -13.303   3.721  1.00  0.00     0.084 A 
ATOM     15  C   UNL     1       0.789 -13.790   4.386  1.00  0.00     0.097 A 
ATOM     16  N   UNL     1      -0.666 -11.999   4.064  1.00  0.00    -0.220 NA
ATOM     17  S   UNL     1       1.311 -12.658   5.551  1.00  0.00    -0.105 S 
BRANCH  14  18
ATOM     18  C   UNL     1      -1.076 -14.086   2.742  1.00  0.00     0.001 A 
ATOM     19  C   UNL     1      -2.566 -15.619   0.895  1.00  0.00     0.118 A 
ATOM     20  C   UNL     1      -1.761 -16.242   1.845  1.00  0.00     0.047 A 
ATOM     21  C   UNL     1      -2.628 -14.226   0.862  1.00  0.00     0.047 A 
ATOM     22  C   UNL     1      -1.020 -15.487   2.754  1.00  0.00     0.014 A 
ATOM     23  C   UNL     1      -1.889 -13.463   1.785  1.00  0.00     0.014 A 
BRANCH  19  24
ATOM     24  O   UNL     1      -3.269 -16.483   0.105  1.00  0.00    -0.497 OA
ATOM     25  C   UNL     1      -3.713 -15.989  -1.149  1.00  0.00     0.278 C 
ENDBRANCH  19  24
ENDBRANCH  14  18
ENDBRANCH  10  13
ENDBRANCH   8   9
BRANCH   8  26
ATOM     26  N   UNL     1       2.984  -9.486   3.774  1.00  0.00    -0.324 N 
ATOM     27  C   UNL     1       2.799 -10.702   2.979  1.00  0.00     0.262 C 
ATOM     28  C   UNL     1       2.308  -8.316   3.199  1.00  0.00     0.262 C 
ATOM     29  H   UNL     1       3.978  -9.266   3.715  1.00  0.00     0.348 HD
ATOM     30  C   UNL     1       3.177 -10.528   1.512  1.00  0.00     0.062 C 
ATOM     31  C   UNL     1       2.659  -8.109   1.722  1.00  0.00     0.062 C 
ATOM     32  C   UNL     1       2.399  -9.370   0.908  1.00  0.00     0.012 C 
ENDBRANCH   8  26
ENDBRANCH   7   8
ENDBRANCH   4   7
ENDBRANCH   2   3
ENDBRANCH   1   2
BRANCH   1  33
ATOM     33  C   UNL     1       6.254 -13.345   6.298  1.00  0.00     0.002 C 
BRANCH  33  34
ATOM     34  C   UNL     1       6.932 -13.774   7.602  1.00  0.00     0.002 C 
BRANCH  34  35
ATOM     35  C   UNL     1       6.077 -14.637   8.534  1.00  0.00     0.021 C 
BRANCH  35  36
ATOM     36  C   UNL     1       5.556 -15.933   7.919  1.00  0.00     0.116 C 
BRANCH  36  37
ATOM     37  N   UNL     1       6.629 -16.844   7.555  1.00  0.00    -0.352 N 
ATOM     38  C   UNL     1       6.819 -18.154   7.904  1.00  0.00     0.251 C 
ATOM     39  H   UNL     1       7.323 -16.461   6.971  1.00  0.00     0.163 HD
ATOM     40  O   UNL     1       7.890 -18.710   7.646  1.00  0.00    -0.269 OA
BRANCH  38  41
ATOM     41  C   UNL     1       5.760 -18.909   8.607  1.00  0.00     0.039 A 
ATOM     42  C   UNL     1       6.119 -19.739   9.672  1.00  0.00     0.014 A 
ATOM     43  C   UNL     1       4.423 -18.828   8.203  1.00  0.00     0.014 A 
ATOM     44  C   UNL     1       5.134 -20.444  10.367  1.00  0.00     0.010 A 
ATOM     45  C   UNL     1       3.434 -19.480   8.939  1.00  0.00     0.010 A 
ATOM     46  C   UNL     1       3.780 -20.298  10.025  1.00  0.00    -0.014 A 
BRANCH  46  47
ATOM     47  C   UNL     1       2.719 -20.992  10.799  1.00  0.00     0.031 A 
ATOM     48  C   UNL     1       1.873 -22.053  10.151  1.00  0.00     0.074 A 
ATOM     49  C   UNL     1       2.484 -20.630  12.075  1.00  0.00     0.049 A 
ATOM     50  N   UNL     1       0.880 -22.742  10.655  1.00  0.00    -0.248 NA
ATOM     51  C   UNL     1       2.164 -22.364   8.743  1.00  0.00     0.031 C 
ATOM     52  C   UNL     1       3.202 -19.581  12.800  1.00  0.00     0.029 A 
ATOM     53  N   UNL     1       1.573 -21.100  12.987  1.00  0.00    -0.354 N 
ATOM     54  C   UNL     1       0.424 -23.557   9.627  1.00  0.00     0.074 A 
ATOM     55  C   UNL     1       1.212 -23.239   8.456  1.00  0.00     0.031 C 
ATOM     56  C   UNL     1       2.721 -19.503  14.051  1.00  0.00     0.029 A 
ATOM     57  C   UNL     1       1.641 -20.473  14.207  1.00  0.00     0.049 A 
ATOM     58  H   UNL     1       0.931 -21.820  12.786  1.00  0.00     0.167 HD
ATOM     59  C   UNL     1      -0.547 -24.502   9.663  1.00  0.00     0.037 A 
ATOM     60  C   UNL     1       0.913 -20.657  15.325  1.00  0.00     0.037 A 
ATOM     61  C   UNL     1      -1.313 -24.833  10.837  1.00  0.00     0.049 A 
ATOM     62  C   UNL     1      -0.158 -21.714  15.338  1.00  0.00     0.074 A 
ATOM     63  C   UNL     1      -2.276 -25.816  10.990  1.00  0.00     0.029 A 
ATOM     64  N   UNL     1      -1.205 -24.186  12.059  1.00  0.00    -0.354 N 
ATOM     65  N   UNL     1      -0.530 -22.528  14.381  1.00  0.00    -0.248 NA
ATOM     66  C   UNL     1      -0.904 -21.883  16.593  1.00  0.00     0.031 C 
ATOM     67  C   UNL     1      -2.782 -25.734  12.292  1.00  0.00     0.029 A 
ATOM     68  C   UNL     1      -2.099 -24.734  12.966  1.00  0.00     0.049 A 
ATOM     69  H   UNL     1      -0.584 -23.447  12.254  1.00  0.00     0.167 HD
ATOM     70  C   UNL     1      -1.531 -23.323  14.924  1.00  0.00     0.074 A 
ATOM     71  C   UNL     1      -1.696 -22.904  16.300  1.00  0.00     0.031 C 
ATOM     72  C   UNL     1      -2.250 -24.309  14.334  1.00  0.00     0.037 A 
BRANCH  59  73
ATOM     73  C   UNL     1      -0.834 -25.252   8.394  1.00  0.00     0.064 A 
ATOM     74  C   UNL     1       0.078 -26.178   7.864  1.00  0.00     0.173 A 
ATOM     75  C   UNL     1      -2.052 -25.073   7.720  1.00  0.00     0.173 A 
ATOM     76  F   UNL     1       1.261 -26.378   8.464  1.00  0.00    -0.203 F 
ATOM     77  C   UNL     1      -0.206 -26.874   6.692  1.00  0.00     0.198 A 
ATOM     78  C   UNL     1      -2.345 -25.793   6.565  1.00  0.00     0.198 A 
ATOM     79  F   UNL     1      -2.962 -24.204   8.186  1.00  0.00    -0.203 F 
ATOM     80  F   UNL     1       0.701 -27.716   6.179  1.00  0.00    -0.200 F 
ATOM     81  C   UNL     1      -1.419 -26.687   6.048  1.00  0.00     0.200 A 
ATOM     82  F   UNL     1      -3.523 -25.621   5.950  1.00  0.00    -0.200 F 
ATOM     83  F   UNL     1      -1.694 -27.363   4.924  1.00  0.00    -0.200 F 
ENDBRANCH  59  73
BRANCH  60  84
ATOM     84  C   UNL     1       1.192 -19.840  16.535  1.00  0.00     0.064 A 
ATOM     85  C   UNL     1       1.762 -20.419  17.677  1.00  0.00     0.173 A 
ATOM     86  C   UNL     1       0.893 -18.471  16.577  1.00  0.00     0.173 A 
ATOM     87  F   UNL     1       2.047 -21.730  17.692  1.00  0.00    -0.203 F 
ATOM     88  C   UNL     1       2.002 -19.665  18.823  1.00  0.00     0.198 A 
ATOM     89  C   UNL     1       1.160 -17.711  17.713  1.00  0.00     0.198 A 
ATOM     90  F   UNL     1       0.351 -17.869  15.508  1.00  0.00    -0.203 F 
ATOM     91  F   UNL     1       2.505 -20.253  19.917  1.00  0.00    -0.200 F 
ATOM     92  C   UNL     1       1.707 -18.310  18.838  1.00  0.00     0.200 A 
ATOM     93  F   UNL     1       0.886 -16.399  17.719  1.00  0.00    -0.200 F 
ATOM     94  F   UNL     1       1.942 -17.583  19.939  1.00  0.00    -0.200 F 
ENDBRANCH  60  84
BRANCH  72  95
ATOM     95  C   UNL     1      -3.259 -25.025  15.185  1.00  0.00     0.064 A 
ATOM     96  C   UNL     1      -4.448 -24.405  15.595  1.00  0.00     0.173 A 
ATOM     97  C   UNL     1      -3.045 -26.357  15.570  1.00  0.00     0.173 A 
ATOM     98  F   UNL     1      -4.692 -23.128  15.265  1.00  0.00    -0.203 F 
ATOM     99  C   UNL     1      -5.373 -25.083  16.385  1.00  0.00     0.198 A 
ATOM    100  C   UNL     1      -3.986 -27.042  16.334  1.00  0.00     0.198 A 
ATOM    101  F   UNL     1      -1.927 -26.998  15.199  1.00  0.00    -0.203 F 
ATOM    102  F   UNL     1      -6.478 -24.454  16.808  1.00  0.00    -0.200 F 
ATOM    103  C   UNL     1      -5.145 -26.402  16.748  1.00  0.00     0.200 A 
ATOM    104  F   UNL     1      -3.770 -28.320  16.672  1.00  0.00    -0.200 F 
ATOM    105  F   UNL     1      -6.038 -27.054  17.504  1.00  0.00    -0.200 F 
ENDBRANCH  72  95
ENDBRANCH  46  47
ENDBRANCH  38  41
ENDBRANCH  36  37
ENDBRANCH  35  36
ENDBRANCH  34  35
ENDBRANCH  33  34
ENDBRANCH   1  33
TORSDOF 19
