REMARK SMILES CCC[C@H](C)C[N@H+]1[C@@H]2CC[C@H]1C[C@H](CC(=O)NCCCCCCNC(=O)c1ccc(-c3c4nc(c(-c5c(F)c(F)c(F)c(F)c5F)c5ccc([nH]5)c(-c5c(F)c(F)c(F)c(F)c5F)c5nc(c(-c6c(F)c(F)c(F)c(F)c6F)c6ccc3[nH]6)C=C5)C=C4)cc1)C2
REMARK SMILES IDX 19 1 18 2 17 3 15 4 16 5 14 7 13 8 7 9 8 10 11 11 9 13 90 14
REMARK SMILES IDX 10 15 12 16 6 17 4 18 5 19 3 20 2 21 1 22 20 23 21 24 22 25
REMARK SMILES IDX 23 26 24 27 25 28 26 30 27 31 28 32 89 33 29 34 88 35 30 36
REMARK SMILES IDX 31 37 32 38 82 39 33 40 87 41 81 42 83 43 34 44 86 45 80 46
REMARK SMILES IDX 79 47 35 49 67 50 47 51 66 52 48 53 51 54 65 55 84 56 49 57
REMARK SMILES IDX 50 58 64 60 85 61 52 62 36 63 37 64 45 65 38 66 39 67 43 68
REMARK SMILES IDX 46 69 40 70 41 71 44 72 42 73 68 74 69 75 77 76 70 77 71 78
REMARK SMILES IDX 75 79 78 80 72 81 73 82 76 83 74 84 53 85 54 86 62 87 55 88
REMARK SMILES IDX 56 89 60 90 63 91 57 92 58 93 61 94 59 95
REMARK H PARENT 17 6 7 12 24 29 83 48 51 59
REMARK Flexibility Score: inf
ROOT
ATOM      1  C   UNL     1       1.951   5.484   0.591  1.00  0.00     0.021 C 
ENDROOT
BRANCH   1   2
ATOM      2  C   UNL     1       0.998   4.530  -0.135  1.00  0.00     0.116 C 
BRANCH   2   3
ATOM      3  N   UNL     1       1.695   3.859  -1.217  1.00  0.00    -0.356 N 
ATOM      4  C   UNL     1       2.290   2.634  -1.266  1.00  0.00     0.220 C 
ATOM      5  O   UNL     1       2.993   2.370  -2.243  1.00  0.00    -0.275 OA
ATOM      6  H   UNL     1       1.746   4.374  -2.054  1.00  0.00     0.163 HD
BRANCH   4   7
ATOM      7  C   UNL     1       2.044   1.594  -0.187  1.00  0.00     0.104 C 
BRANCH   7   8
ATOM      8  C   UNL     1       3.074   1.529   0.969  1.00  0.00     0.010 C 
ATOM      9  N   UNL     1       2.580   1.201   3.891  1.00  0.00    -0.330 N 
ATOM     10  C   UNL     1       3.276   0.135   3.176  1.00  0.00     0.184 C 
ATOM     11  C   UNL     1       3.246   2.412   3.417  1.00  0.00     0.184 C 
ATOM     12  H   UNL     1       2.666   0.996   4.887  1.00  0.00     0.348 HD
ATOM     13  C   UNL     1       4.735   0.523   3.473  1.00  0.00     0.071 C 
ATOM     14  C   UNL     1       3.035   0.134   1.651  1.00  0.00     0.069 C 
ATOM     15  C   UNL     1       4.724   2.046   3.548  1.00  0.00     0.071 C 
ATOM     16  C   UNL     1       2.872   2.687   1.963  1.00  0.00     0.069 C 
BRANCH   9  17
ATOM     17  C   UNL     1       1.121   1.270   4.048  1.00  0.00     0.265 C 
BRANCH  17  18
ATOM     18  C   UNL     1       0.155   0.627   3.020  1.00  0.00     0.041 C 
ATOM     19  C   UNL     1       0.061  -0.894   3.190  1.00  0.00     0.013 C 
BRANCH  18  20
ATOM     20  C   UNL     1      -1.276   1.229   3.077  1.00  0.00     0.009 C 
BRANCH  20  21
ATOM     21  C   UNL     1      -1.756   1.818   1.740  1.00  0.00    -0.003 C 
ATOM     22  C   UNL     1      -1.834   0.819   0.592  1.00  0.00     0.004 C 
ENDBRANCH  20  21
ENDBRANCH  18  20
ENDBRANCH  17  18
ENDBRANCH   9  17
ENDBRANCH   7   8
ENDBRANCH   4   7
ENDBRANCH   2   3
ENDBRANCH   1   2
BRANCH   1  23
ATOM     23  C   UNL     1       1.932   6.911   0.051  1.00  0.00     0.002 C 
BRANCH  23  24
ATOM     24  C   UNL     1       0.693   7.716   0.443  1.00  0.00     0.002 C 
BRANCH  24  25
ATOM     25  C   UNL     1       0.457   7.867   1.950  1.00  0.00     0.021 C 
BRANCH  25  26
ATOM     26  C   UNL     1       1.654   8.385   2.744  1.00  0.00     0.116 C 
BRANCH  26  27
ATOM     27  N   UNL     1       2.118   9.674   2.251  1.00  0.00    -0.352 N 
ATOM     28  C   UNL     1       2.125  10.893   2.871  1.00  0.00     0.251 C 
ATOM     29  H   UNL     1       2.482   9.666   1.336  1.00  0.00     0.163 HD
ATOM     30  O   UNL     1       2.328  11.920   2.219  1.00  0.00    -0.269 OA
BRANCH  28  31
ATOM     31  C   UNL     1       1.881  10.985   4.322  1.00  0.00     0.039 A 
ATOM     32  C   UNL     1       1.014  11.967   4.806  1.00  0.00     0.014 A 
ATOM     33  C   UNL     1       2.527  10.116   5.207  1.00  0.00     0.014 A 
ATOM     34  C   UNL     1       0.751  12.043   6.175  1.00  0.00     0.010 A 
ATOM     35  C   UNL     1       2.208  10.145   6.561  1.00  0.00     0.010 A 
ATOM     36  C   UNL     1       1.323  11.113   7.059  1.00  0.00    -0.014 A 
BRANCH  36  37
ATOM     37  C   UNL     1       1.012  11.142   8.510  1.00  0.00     0.031 A 
ATOM     38  C   UNL     1       2.096  11.435   9.508  1.00  0.00     0.074 A 
ATOM     39  C   UNL     1      -0.233  10.843   8.928  1.00  0.00     0.049 A 
ATOM     40  N   UNL     1       2.037  11.444  10.816  1.00  0.00    -0.248 NA
ATOM     41  C   UNL     1       3.431  11.732   8.967  1.00  0.00     0.031 C 
ATOM     42  C   UNL     1      -1.356  10.496   8.056  1.00  0.00     0.029 A 
ATOM     43  N   UNL     1      -0.760  10.772  10.193  1.00  0.00    -0.354 N 
ATOM     44  C   UNL     1       3.324  11.733  11.250  1.00  0.00     0.074 A 
ATOM     45  C   UNL     1       4.155  11.836  10.071  1.00  0.00     0.031 C 
ATOM     46  C   UNL     1      -2.444  10.271   8.810  1.00  0.00     0.029 A 
ATOM     47  C   UNL     1      -2.087  10.418  10.217  1.00  0.00     0.049 A 
ATOM     48  H   UNL     1      -0.236  10.957  11.006  1.00  0.00     0.167 HD
ATOM     49  C   UNL     1       3.767  11.918  12.517  1.00  0.00     0.037 A 
ATOM     50  C   UNL     1      -2.918  10.226  11.259  1.00  0.00     0.037 A 
ATOM     51  C   UNL     1       2.930  11.834  13.685  1.00  0.00     0.049 A 
ATOM     52  C   UNL     1      -2.398  10.428  12.657  1.00  0.00     0.074 A 
ATOM     53  C   UNL     1       3.267  12.063  15.007  1.00  0.00     0.029 A 
ATOM     54  N   UNL     1       1.586  11.487  13.670  1.00  0.00    -0.354 N 
ATOM     55  N   UNL     1      -1.196  10.772  13.052  1.00  0.00    -0.248 NA
ATOM     56  C   UNL     1      -3.353  10.221  13.754  1.00  0.00     0.031 C 
ATOM     57  C   UNL     1       2.142  11.803  15.797  1.00  0.00     0.029 A 
ATOM     58  C   UNL     1       1.087  11.471  14.963  1.00  0.00     0.049 A 
ATOM     59  H   UNL     1       1.064  11.283  12.860  1.00  0.00     0.167 HD
ATOM     60  C   UNL     1      -1.258  10.853  14.437  1.00  0.00     0.074 A 
ATOM     61  C   UNL     1      -2.620  10.537  14.812  1.00  0.00     0.031 C 
ATOM     62  C   UNL     1      -0.275  11.162  15.318  1.00  0.00     0.037 A 
BRANCH  49  63
ATOM     63  C   UNL     1       5.224  12.232  12.706  1.00  0.00     0.064 A 
ATOM     64  C   UNL     1       5.774  13.456  12.293  1.00  0.00     0.173 A 
ATOM     65  C   UNL     1       6.074  11.313  13.340  1.00  0.00     0.173 A 
ATOM     66  F   UNL     1       5.008  14.366  11.673  1.00  0.00    -0.203 F 
ATOM     67  C   UNL     1       7.126  13.734  12.480  1.00  0.00     0.198 A 
ATOM     68  C   UNL     1       7.418  11.609  13.555  1.00  0.00     0.198 A 
ATOM     69  F   UNL     1       5.600  10.131  13.760  1.00  0.00    -0.203 F 
ATOM     70  F   UNL     1       7.639  14.887  12.030  1.00  0.00    -0.200 F 
ATOM     71  C   UNL     1       7.945  12.814  13.117  1.00  0.00     0.200 A 
ATOM     72  F   UNL     1       8.204  10.724  14.184  1.00  0.00    -0.200 F 
ATOM     73  F   UNL     1       9.243  13.087  13.303  1.00  0.00    -0.200 F 
ENDBRANCH  49  63
BRANCH  50  74
ATOM     74  C   UNL     1      -4.334   9.842  11.019  1.00  0.00     0.064 A 
ATOM     75  C   UNL     1      -5.379  10.732  11.303  1.00  0.00     0.173 A 
ATOM     76  C   UNL     1      -4.672   8.581  10.508  1.00  0.00     0.173 A 
ATOM     77  F   UNL     1      -5.108  11.943  11.812  1.00  0.00    -0.203 F 
ATOM     78  C   UNL     1      -6.710  10.367  11.106  1.00  0.00     0.198 A 
ATOM     79  C   UNL     1      -6.001   8.228  10.282  1.00  0.00     0.198 A 
ATOM     80  F   UNL     1      -3.710   7.694  10.213  1.00  0.00    -0.203 F 
ATOM     81  F   UNL     1      -7.691  11.219  11.432  1.00  0.00    -0.200 F 
ATOM     82  C   UNL     1      -7.019   9.117  10.591  1.00  0.00     0.200 A 
ATOM     83  F   UNL     1      -6.295   7.026   9.768  1.00  0.00    -0.200 F 
ATOM     84  F   UNL     1      -8.299   8.768  10.398  1.00  0.00    -0.200 F 
ENDBRANCH  50  74
BRANCH  62  85
ATOM     85  C   UNL     1      -0.645  11.210  16.773  1.00  0.00     0.064 A 
ATOM     86  C   UNL     1      -0.936  10.047  17.500  1.00  0.00     0.173 A 
ATOM     87  C   UNL     1      -0.669  12.436  17.457  1.00  0.00     0.173 A 
ATOM     88  F   UNL     1      -0.942   8.852  16.890  1.00  0.00    -0.203 F 
ATOM     89  C   UNL     1      -1.266  10.112  18.852  1.00  0.00     0.198 A 
ATOM     90  C   UNL     1      -0.966  12.493  18.815  1.00  0.00     0.198 A 
ATOM     91  F   UNL     1      -0.391  13.578  16.809  1.00  0.00    -0.203 F 
ATOM     92  F   UNL     1      -1.591   8.993  19.514  1.00  0.00    -0.200 F 
ATOM     93  C   UNL     1      -1.272  11.333  19.509  1.00  0.00     0.200 A 
ATOM     94  F   UNL     1      -0.956  13.672  19.452  1.00  0.00    -0.200 F 
ATOM     95  F   UNL     1      -1.581  11.392  20.812  1.00  0.00    -0.200 F 
ENDBRANCH  62  85
ENDBRANCH  36  37
ENDBRANCH  28  31
ENDBRANCH  26  27
ENDBRANCH  25  26
ENDBRANCH  24  25
ENDBRANCH  23  24
ENDBRANCH   1  23
TORSDOF 18
