REMARK SMILES C[C@H]1CCCCN1c1nc2nc(CC(=O)NCCCCCCNC(=O)c3ccc(-c4c5nc(c(-c6c(F)c(F)c(F)c(F)c6F)c6ccc([nH]6)c(-c6c(F)c(F)c(F)c(F)c6F)c6nc(c(-c7c(F)c(F)c(F)c(F)c7F)c7ccc4[nH]7)C=C6)C=C5)cc3)cc(O)n2n1
REMARK SMILES IDX 19 1 18 2 17 3 16 4 14 5 15 6 13 8 12 9 8 10 9 11 93 12
REMARK SMILES IDX 10 13 92 14 11 15 90 16 89 17 7 18 1 19 2 20 3 21 4 22 6 23
REMARK SMILES IDX 5 24 91 25 20 27 21 28 22 29 23 30 24 31 25 33 26 34 27 35
REMARK SMILES IDX 88 36 28 37 87 38 29 39 30 40 31 41 81 42 32 43 86 44 80 45
REMARK SMILES IDX 82 46 33 47 85 48 79 49 78 50 34 52 66 53 46 54 65 55 47 56
REMARK SMILES IDX 50 57 64 58 83 59 48 60 49 61 63 63 84 64 51 65 35 66 36 67
REMARK SMILES IDX 44 68 37 69 38 70 42 71 45 72 39 73 40 74 43 75 41 76 67 77
REMARK SMILES IDX 68 78 76 79 69 80 70 81 74 82 77 83 71 84 72 85 75 86 73 87
REMARK SMILES IDX 52 88 53 89 61 90 54 91 55 92 59 93 62 94 56 95 57 96 60 97
REMARK SMILES IDX 58 98
REMARK H PARENT 16 7 91 26 23 32 82 51 50 62
REMARK Flexibility Score: inf
ROOT
ATOM      1  C   UNL     1      -0.433  -8.697  -1.621  1.00  0.00     0.002 C 
ENDROOT
BRANCH   1   2
ATOM      2  C   UNL     1       0.769  -7.774  -1.856  1.00  0.00     0.021 C 
BRANCH   2   3
ATOM      3  C   UNL     1       1.609  -8.169  -3.070  1.00  0.00     0.116 C 
BRANCH   3   4
ATOM      4  N   UNL     1       0.904  -7.911  -4.307  1.00  0.00    -0.356 N 
ATOM      5  C   UNL     1       1.099  -6.931  -5.235  1.00  0.00     0.226 C 
ATOM      6  O   UNL     1       0.359  -6.903  -6.218  1.00  0.00    -0.275 OA
ATOM      7  H   UNL     1       0.172  -8.538  -4.510  1.00  0.00     0.163 HD
BRANCH   5   8
ATOM      8  C   UNL     1       2.277  -5.996  -5.109  1.00  0.00     0.156 C 
BRANCH   8   9
ATOM      9  C   UNL     1       2.274  -5.117  -3.879  1.00  0.00     0.059 A 
ATOM     10  C   UNL     1       0.995  -2.191  -0.967  1.00  0.00     0.247 A 
ATOM     11  N   UNL     1       0.411  -2.709  -2.087  1.00  0.00    -0.173 NA
ATOM     12  N   UNL     1       2.149  -2.757  -0.628  1.00  0.00    -0.123 NA
ATOM     13  C   UNL     1       1.292  -3.572  -2.534  1.00  0.00     0.257 A 
ATOM     14  N   UNL     1       2.359  -3.628  -1.636  1.00  0.00    -0.161 N 
ATOM     15  N   UNL     1       1.256  -4.339  -3.663  1.00  0.00    -0.215 NA
ATOM     16  C   UNL     1       3.446  -4.488  -1.857  1.00  0.00     0.217 A 
ATOM     17  C   UNL     1       3.476  -5.220  -2.980  1.00  0.00     0.092 A 
BRANCH  10  18
ATOM     18  N   UNL     1       0.375  -1.178  -0.332  1.00  0.00    -0.337 N 
ATOM     19  C   UNL     1       2.537   0.127  -0.093  1.00  0.00     0.031 C 
ATOM     20  C   UNL     1       1.060  -0.032   0.277  1.00  0.00     0.082 C 
ATOM     21  C   UNL     1       0.316   1.248  -0.161  1.00  0.00     0.025 C 
ATOM     22  C   UNL     1      -1.171   1.183   0.181  1.00  0.00     0.004 C 
ATOM     23  C   UNL     1      -1.043  -1.325  -0.015  1.00  0.00     0.120 C 
ATOM     24  C   UNL     1      -1.810  -0.069  -0.411  1.00  0.00     0.022 C 
ENDBRANCH  10  18
BRANCH  16  25
ATOM     25  O   UNL     1       4.455  -4.559  -0.910  1.00  0.00    -0.493 OA
ATOM     26  H   UNL     1       5.186  -5.129  -1.046  1.00  0.00     0.295 HD
ENDBRANCH  16  25
ENDBRANCH   8   9
ENDBRANCH   5   8
ENDBRANCH   3   4
ENDBRANCH   2   3
ENDBRANCH   1   2
BRANCH   1  27
ATOM     27  C   UNL     1      -0.099 -10.194  -1.520  1.00  0.00     0.002 C 
BRANCH  27  28
ATOM     28  C   UNL     1       0.956 -10.570  -0.470  1.00  0.00     0.021 C 
BRANCH  28  29
ATOM     29  C   UNL     1       0.471 -10.355   0.954  1.00  0.00     0.116 C 
BRANCH  29  30
ATOM     30  N   UNL     1      -0.604 -11.282   1.300  1.00  0.00    -0.352 N 
ATOM     31  C   UNL     1      -1.195 -11.480   2.523  1.00  0.00     0.251 C 
ATOM     32  H   UNL     1      -0.948 -11.836   0.563  1.00  0.00     0.163 HD
ATOM     33  O   UNL     1      -1.823 -12.514   2.761  1.00  0.00    -0.269 OA
BRANCH  31  34
ATOM     34  C   UNL     1      -1.101 -10.428   3.542  1.00  0.00     0.039 A 
ATOM     35  C   UNL     1      -0.986 -10.744   4.901  1.00  0.00     0.014 A 
ATOM     36  C   UNL     1      -1.183  -9.102   3.119  1.00  0.00     0.014 A 
ATOM     37  C   UNL     1      -0.927  -9.710   5.829  1.00  0.00     0.010 A 
ATOM     38  C   UNL     1      -0.987  -8.086   4.012  1.00  0.00     0.010 A 
ATOM     39  C   UNL     1      -0.938  -8.389   5.368  1.00  0.00    -0.014 A 
BRANCH  39  40
ATOM     40  C   UNL     1      -0.829  -7.261   6.275  1.00  0.00     0.031 A 
ATOM     41  C   UNL     1       0.505  -7.118   6.915  1.00  0.00     0.074 A 
ATOM     42  C   UNL     1      -1.775  -6.297   6.276  1.00  0.00     0.049 A 
ATOM     43  N   UNL     1       0.783  -7.137   8.176  1.00  0.00    -0.248 NA
ATOM     44  C   UNL     1       1.696  -7.084   6.046  1.00  0.00     0.031 C 
ATOM     45  C   UNL     1      -2.975  -6.203   5.434  1.00  0.00     0.029 A 
ATOM     46  N   UNL     1      -1.796  -5.118   6.950  1.00  0.00    -0.354 N 
ATOM     47  C   UNL     1       2.156  -6.923   8.268  1.00  0.00     0.074 A 
ATOM     48  C   UNL     1       2.685  -7.092   6.941  1.00  0.00     0.031 C 
ATOM     49  C   UNL     1      -3.469  -4.947   5.485  1.00  0.00     0.029 A 
ATOM     50  C   UNL     1      -2.712  -4.189   6.463  1.00  0.00     0.049 A 
ATOM     51  H   UNL     1      -1.211  -4.935   7.721  1.00  0.00     0.167 HD
ATOM     52  C   UNL     1       2.709  -6.377   9.385  1.00  0.00     0.037 A 
ATOM     53  C   UNL     1      -2.780  -2.878   6.811  1.00  0.00     0.037 A 
ATOM     54  C   UNL     1       1.797  -6.439  10.498  1.00  0.00     0.049 A 
ATOM     55  C   UNL     1      -2.040  -2.734   8.094  1.00  0.00     0.074 A 
ATOM     56  C   UNL     1       1.178  -7.473  11.174  1.00  0.00     0.029 A 
ATOM     57  N   UNL     1       1.080  -5.308  10.805  1.00  0.00    -0.354 N 
ATOM     58  N   UNL     1      -2.448  -3.259   9.218  1.00  0.00    -0.248 NA
ATOM     59  C   UNL     1      -0.612  -2.460   8.012  1.00  0.00     0.031 C 
ATOM     60  C   UNL     1      -0.143  -7.004  11.427  1.00  0.00     0.029 A 
ATOM     61  C   UNL     1      -0.228  -5.687  10.973  1.00  0.00     0.049 A 
ATOM     62  H   UNL     1       1.438  -4.395  10.889  1.00  0.00     0.167 HD
ATOM     63  C   UNL     1      -1.300  -3.769   9.807  1.00  0.00     0.074 A 
ATOM     64  C   UNL     1      -0.191  -3.198   9.044  1.00  0.00     0.031 C 
ATOM     65  C   UNL     1      -1.353  -4.842  10.650  1.00  0.00     0.037 A 
BRANCH  52  66
ATOM     66  C   UNL     1       3.913  -5.469   9.388  1.00  0.00     0.064 A 
ATOM     67  C   UNL     1       4.494  -5.104  10.618  1.00  0.00     0.173 A 
ATOM     68  C   UNL     1       4.335  -4.719   8.269  1.00  0.00     0.173 A 
ATOM     69  F   UNL     1       4.149  -5.734  11.751  1.00  0.00    -0.203 F 
ATOM     70  C   UNL     1       5.375  -4.025  10.727  1.00  0.00     0.198 A 
ATOM     71  C   UNL     1       5.258  -3.680   8.372  1.00  0.00     0.198 A 
ATOM     72  F   UNL     1       3.793  -4.878   7.056  1.00  0.00    -0.203 F 
ATOM     73  F   UNL     1       5.806  -3.636  11.934  1.00  0.00    -0.200 F 
ATOM     74  C   UNL     1       5.754  -3.312   9.604  1.00  0.00     0.200 A 
ATOM     75  F   UNL     1       5.596  -2.990   7.274  1.00  0.00    -0.200 F 
ATOM     76  F   UNL     1       6.553  -2.243   9.712  1.00  0.00    -0.200 F 
ENDBRANCH  52  66
BRANCH  53  77
ATOM     77  C   UNL     1      -3.160  -1.718   5.965  1.00  0.00     0.064 A 
ATOM     78  C   UNL     1      -3.467  -0.467   6.528  1.00  0.00     0.173 A 
ATOM     79  C   UNL     1      -2.984  -1.742   4.568  1.00  0.00     0.173 A 
ATOM     80  F   UNL     1      -3.605  -0.341   7.856  1.00  0.00    -0.203 F 
ATOM     81  C   UNL     1      -3.574   0.689   5.743  1.00  0.00     0.198 A 
ATOM     82  C   UNL     1      -3.107  -0.592   3.786  1.00  0.00     0.198 A 
ATOM     83  F   UNL     1      -2.600  -2.861   3.939  1.00  0.00    -0.203 F 
ATOM     84  F   UNL     1      -3.813   1.874   6.322  1.00  0.00    -0.200 F 
ATOM     85  C   UNL     1      -3.385   0.626   4.373  1.00  0.00     0.200 A 
ATOM     86  F   UNL     1      -2.901  -0.664   2.465  1.00  0.00    -0.200 F 
ATOM     87  F   UNL     1      -3.432   1.738   3.625  1.00  0.00    -0.200 F 
ENDBRANCH  53  77
BRANCH  65  88
ATOM     88  C   UNL     1      -2.704  -5.341  11.090  1.00  0.00     0.064 A 
ATOM     89  C   UNL     1      -3.656  -5.900  10.218  1.00  0.00     0.173 A 
ATOM     90  C   UNL     1      -2.953  -5.450  12.464  1.00  0.00     0.173 A 
ATOM     91  F   UNL     1      -3.450  -5.924   8.897  1.00  0.00    -0.203 F 
ATOM     92  C   UNL     1      -4.808  -6.519  10.701  1.00  0.00     0.198 A 
ATOM     93  C   UNL     1      -4.086  -6.100  12.945  1.00  0.00     0.198 A 
ATOM     94  F   UNL     1      -2.054  -4.985  13.346  1.00  0.00    -0.203 F 
ATOM     95  F   UNL     1      -5.694  -7.052   9.846  1.00  0.00    -0.200 F 
ATOM     96  C   UNL     1      -5.015  -6.630  12.065  1.00  0.00     0.200 A 
ATOM     97  F   UNL     1      -4.255  -6.251  14.266  1.00  0.00    -0.200 F 
ATOM     98  F   UNL     1      -6.093  -7.276  12.532  1.00  0.00    -0.200 F 
ENDBRANCH  65  88
ENDBRANCH  39  40
ENDBRANCH  31  34
ENDBRANCH  29  30
ENDBRANCH  28  29
ENDBRANCH  27  28
ENDBRANCH   1  27
TORSDOF 16
