REMARK SMILES CCc1ccc(-c2cc(Cl)cc3c2O[C@H](C(F)(F)F)C(C(=O)NCCCCCCNC(=O)c2ccc(-c4c5nc(c(-c6c(F)c(F)c(F)c(F)c6F)c6ccc([nH]6)c(-c6c(F)c(F)c(F)c(F)c6F)c6nc(c(-c7c(F)c(F)c(F)c(F)c7F)c7ccc4[nH]7)C=C6)C=C5)cc2)=C3)cc1
REMARK SMILES IDX 26 1 25 2 24 3 23 4 21 5 22 6 20 8 7 9 8 10 13 11 9 12 12 13
REMARK SMILES IDX 14 14 10 15 11 16 96 17 15 18 6 19 3 20 4 21 98 22 5 23
REMARK SMILES IDX 97 24 2 25 1 26 16 27 17 28 18 29 19 30 27 31 28 32 29 33
REMARK SMILES IDX 30 34 31 35 32 37 33 38 34 39 95 40 35 41 94 42 36 43 37 44
REMARK SMILES IDX 38 45 88 46 39 47 93 48 87 49 89 50 40 51 92 52 86 53 85 54
REMARK SMILES IDX 41 56 73 57 53 58 72 59 54 60 57 61 71 62 90 63 55 64 56 65
REMARK SMILES IDX 70 67 91 68 58 69 42 70 43 71 51 72 44 73 45 74 49 75 52 76
REMARK SMILES IDX 46 77 47 78 50 79 48 80 74 81 75 82 83 83 76 84 77 85 81 86
REMARK SMILES IDX 84 87 78 88 79 89 82 90 80 91 59 92 60 93 68 94 61 95 62 96
REMARK SMILES IDX 66 97 69 98 63 99 64 100 67 101 65 102
REMARK H PARENT 23 7 30 36 89 55 57 66
REMARK Flexibility Score: inf
ROOT
ATOM      1  C   UNL     1       5.309  14.233   4.962  1.00  0.00     0.002 C 
ENDROOT
BRANCH   1   2
ATOM      2  C   UNL     1       4.035  13.534   5.466  1.00  0.00     0.021 C 
BRANCH   2   3
ATOM      3  C   UNL     1       3.086  13.047   4.360  1.00  0.00     0.116 C 
BRANCH   3   4
ATOM      4  N   UNL     1       3.776  12.114   3.493  1.00  0.00    -0.352 N 
ATOM      5  C   UNL     1       3.445  10.806   3.344  1.00  0.00     0.251 C 
ATOM      6  O   UNL     1       4.296   9.937   3.482  1.00  0.00    -0.270 OA
ATOM      7  H   UNL     1       4.541  12.453   2.974  1.00  0.00     0.163 HD
BRANCH   5   8
ATOM      8  C   UNL     1       2.067  10.529   2.844  1.00  0.00     0.067 C 
ATOM      9  C   UNL     1       2.400   6.528   2.196  1.00  0.00     0.026 A 
ATOM     10  C   UNL     1       3.662   6.344   1.567  1.00  0.00     0.033 A 
ATOM     11  C   UNL     1       1.931   7.855   2.260  1.00  0.00     0.135 A 
ATOM     12  C   UNL     1       4.314   7.360   0.873  1.00  0.00     0.042 A 
ATOM     13  C   UNL     1       2.544   8.840   1.444  1.00  0.00     0.019 A 
ATOM     14  O   UNL     1       0.938   8.286   3.136  1.00  0.00    -0.475 OA
ATOM     15  Cl  UNL     1       5.848   7.061   0.160  1.00  0.00    -0.084 Cl
ATOM     16  C   UNL     1       3.716   8.595   0.735  1.00  0.00     0.032 A 
ATOM     17  C   UNL     1       2.037  10.227   1.531  1.00  0.00     0.025 C 
ATOM     18  C   UNL     1       1.218   9.633   3.733  1.00  0.00     0.314 C 
BRANCH   9  19
ATOM     19  C   UNL     1       1.663   5.258   2.460  1.00  0.00    -0.015 A 
ATOM     20  C   UNL     1       0.827   2.563   1.953  1.00  0.00    -0.048 A 
ATOM     21  C   UNL     1       1.928   2.829   2.771  1.00  0.00     0.004 A 
ATOM     22  C   UNL     1       0.088   3.652   1.474  1.00  0.00     0.004 A 
ATOM     23  C   UNL     1       2.321   4.152   3.042  1.00  0.00     0.009 A 
ATOM     24  C   UNL     1       0.492   4.978   1.733  1.00  0.00     0.009 A 
BRANCH  20  25
ATOM     25  C   UNL     1       0.464   1.141   1.582  1.00  0.00     0.032 C 
ATOM     26  C   UNL     1       1.112   0.642   0.293  1.00  0.00     0.009 C 
ENDBRANCH  20  25
ENDBRANCH   9  19
BRANCH  18  27
ATOM     27  C   UNL     1      -0.073  10.416   4.074  1.00  0.00     0.429 C 
ATOM     28  F   UNL     1      -1.172   9.903   3.479  1.00  0.00    -0.167 F 
ATOM     29  F   UNL     1      -0.296  10.438   5.410  1.00  0.00    -0.167 F 
ATOM     30  F   UNL     1      -0.003  11.721   3.690  1.00  0.00    -0.167 F 
ENDBRANCH  18  27
ENDBRANCH   5   8
ENDBRANCH   3   4
ENDBRANCH   2   3
ENDBRANCH   1   2
BRANCH   1  31
ATOM     31  C   UNL     1       5.066  15.414   4.020  1.00  0.00     0.002 C 
BRANCH  31  32
ATOM     32  C   UNL     1       4.226  16.541   4.621  1.00  0.00     0.021 C 
BRANCH  32  33
ATOM     33  C   UNL     1       4.766  17.106   5.930  1.00  0.00     0.116 C 
BRANCH  33  34
ATOM     34  N   UNL     1       6.102  17.663   5.786  1.00  0.00    -0.352 N 
ATOM     35  C   UNL     1       6.590  18.870   6.208  1.00  0.00     0.251 C 
ATOM     36  H   UNL     1       6.749  17.088   5.317  1.00  0.00     0.163 HD
ATOM     37  O   UNL     1       7.705  19.247   5.845  1.00  0.00    -0.269 OA
BRANCH  35  38
ATOM     38  C   UNL     1       5.771  19.739   7.078  1.00  0.00     0.039 A 
ATOM     39  C   UNL     1       5.727  21.108   6.805  1.00  0.00     0.014 A 
ATOM     40  C   UNL     1       5.052  19.215   8.157  1.00  0.00     0.014 A 
ATOM     41  C   UNL     1       4.919  21.940   7.578  1.00  0.00     0.010 A 
ATOM     42  C   UNL     1       4.183  20.033   8.875  1.00  0.00     0.010 A 
ATOM     43  C   UNL     1       4.111  21.404   8.596  1.00  0.00    -0.014 A 
BRANCH  43  44
ATOM     44  C   UNL     1       3.175  22.278   9.350  1.00  0.00     0.031 A 
ATOM     45  C   UNL     1       3.348  22.499  10.826  1.00  0.00     0.074 A 
ATOM     46  C   UNL     1       2.147  22.853   8.698  1.00  0.00     0.049 A 
ATOM     47  N   UNL     1       2.648  23.253  11.636  1.00  0.00    -0.248 NA
ATOM     48  C   UNL     1       4.434  21.759  11.486  1.00  0.00     0.031 C 
ATOM     49  C   UNL     1       1.837  22.664   7.279  1.00  0.00     0.029 A 
ATOM     50  N   UNL     1       1.176  23.718   9.137  1.00  0.00    -0.354 N 
ATOM     51  C   UNL     1       3.207  23.078  12.896  1.00  0.00     0.074 A 
ATOM     52  C   UNL     1       4.261  22.097  12.755  1.00  0.00     0.031 C 
ATOM     53  C   UNL     1       0.779  23.424   6.955  1.00  0.00     0.029 A 
ATOM     54  C   UNL     1       0.313  24.123   8.148  1.00  0.00     0.049 A 
ATOM     55  H   UNL     1       1.105  24.019  10.071  1.00  0.00     0.167 HD
ATOM     56  C   UNL     1       2.888  23.700  14.057  1.00  0.00     0.037 A 
ATOM     57  C   UNL     1      -0.734  24.967   8.197  1.00  0.00     0.037 A 
ATOM     58  C   UNL     1       1.840  24.680  14.188  1.00  0.00     0.049 A 
ATOM     59  C   UNL     1      -1.072  25.637   9.501  1.00  0.00     0.074 A 
ATOM     60  C   UNL     1       1.475  25.410  15.306  1.00  0.00     0.029 A 
ATOM     61  N   UNL     1       0.981  25.062  13.167  1.00  0.00    -0.354 N 
ATOM     62  N   UNL     1      -0.482  25.530  10.666  1.00  0.00    -0.248 NA
ATOM     63  C   UNL     1      -2.219  26.555   9.490  1.00  0.00     0.031 C 
ATOM     64  C   UNL     1       0.357  26.185  14.979  1.00  0.00     0.029 A 
ATOM     65  C   UNL     1       0.066  25.991  13.638  1.00  0.00     0.049 A 
ATOM     66  H   UNL     1       1.016  24.722  12.243  1.00  0.00     0.167 HD
ATOM     67  C   UNL     1      -1.169  26.380  11.522  1.00  0.00     0.074 A 
ATOM     68  C   UNL     1      -2.201  27.019  10.731  1.00  0.00     0.031 C 
ATOM     69  C   UNL     1      -0.966  26.610  12.844  1.00  0.00     0.037 A 
BRANCH  56  70
ATOM     70  C   UNL     1       3.681  23.333  15.281  1.00  0.00     0.064 A 
ATOM     71  C   UNL     1       5.038  23.668  15.408  1.00  0.00     0.173 A 
ATOM     72  C   UNL     1       3.069  22.667  16.354  1.00  0.00     0.173 A 
ATOM     73  F   UNL     1       5.676  24.296  14.409  1.00  0.00    -0.203 F 
ATOM     74  C   UNL     1       5.761  23.318  16.547  1.00  0.00     0.198 A 
ATOM     75  C   UNL     1       3.786  22.351  17.506  1.00  0.00     0.198 A 
ATOM     76  F   UNL     1       1.773  22.329  16.291  1.00  0.00    -0.203 F 
ATOM     77  F   UNL     1       7.070  23.597  16.619  1.00  0.00    -0.200 F 
ATOM     78  C   UNL     1       5.133  22.667  17.597  1.00  0.00     0.200 A 
ATOM     79  F   UNL     1       3.173  21.735  18.526  1.00  0.00    -0.200 F 
ATOM     80  F   UNL     1       5.827  22.337  18.695  1.00  0.00    -0.200 F 
ENDBRANCH  56  70
BRANCH  57  81
ATOM     81  C   UNL     1      -1.518  25.249   6.965  1.00  0.00     0.064 A 
ATOM     82  C   UNL     1      -1.487  26.515   6.364  1.00  0.00     0.173 A 
ATOM     83  C   UNL     1      -2.314  24.263   6.366  1.00  0.00     0.173 A 
ATOM     84  F   UNL     1      -0.755  27.498   6.909  1.00  0.00    -0.203 F 
ATOM     85  C   UNL     1      -2.240  26.790   5.224  1.00  0.00     0.198 A 
ATOM     86  C   UNL     1      -3.041  24.529   5.207  1.00  0.00     0.198 A 
ATOM     87  F   UNL     1      -2.374  23.033   6.897  1.00  0.00    -0.203 F 
ATOM     88  F   UNL     1      -2.230  28.023   4.699  1.00  0.00    -0.200 F 
ATOM     89  C   UNL     1      -3.010  25.795   4.643  1.00  0.00     0.200 A 
ATOM     90  F   UNL     1      -3.770  23.559   4.639  1.00  0.00    -0.200 F 
ATOM     91  F   UNL     1      -3.729  26.057   3.543  1.00  0.00    -0.200 F 
ENDBRANCH  57  81
BRANCH  69  92
ATOM     92  C   UNL     1      -1.873  27.608  13.508  1.00  0.00     0.064 A 
ATOM     93  C   UNL     1      -3.239  27.349  13.704  1.00  0.00     0.173 A 
ATOM     94  C   UNL     1      -1.369  28.838  13.958  1.00  0.00     0.173 A 
ATOM     95  F   UNL     1      -3.775  26.194  13.281  1.00  0.00    -0.203 F 
ATOM     96  C   UNL     1      -4.073  28.302  14.283  1.00  0.00     0.198 A 
ATOM     97  C   UNL     1      -2.199  29.773  14.571  1.00  0.00     0.198 A 
ATOM     98  F   UNL     1      -0.070  29.135  13.805  1.00  0.00    -0.203 F 
ATOM     99  F   UNL     1      -5.387  28.060  14.393  1.00  0.00    -0.200 F 
ATOM    100  C   UNL     1      -3.552  29.510  14.720  1.00  0.00     0.200 A 
ATOM    101  F   UNL     1      -1.691  30.933  15.009  1.00  0.00    -0.200 F 
ATOM    102  F   UNL     1      -4.357  30.427  15.274  1.00  0.00    -0.200 F 
ENDBRANCH  69  92
ENDBRANCH  43  44
ENDBRANCH  35  38
ENDBRANCH  33  34
ENDBRANCH  32  33
ENDBRANCH  31  32
ENDBRANCH   1  31
TORSDOF 16
