REMARK SMILES Nc1c(CC(=O)NCCCCCCNC(=O)c2ccc(-c3c4nc(c(-c5c(F)c(F)c(F)c(F)c5F)c5ccc([nH]5)c(-c5c(F)c(F)c(F)c(F)c5F)c5nc(c(-c6c(F)c(F)c(F)c(F)c6F)c6ccc3[nH]6)C=C5)C=C4)cc2)cccc1C(=O)c1ccc(Br)cc1
REMARK SMILES IDX 10 1 9 2 8 3 7 4 5 5 6 6 4 8 3 9 2 10 83 11 80 12 82 13
REMARK SMILES IDX 81 14 1 15 84 18 85 19 86 20 87 21 92 22 88 23 91 24 89 25
REMARK SMILES IDX 90 26 11 27 12 28 13 29 14 30 15 31 16 33 17 34 18 35 79 36
REMARK SMILES IDX 19 37 78 38 20 39 21 40 22 41 72 42 23 43 77 44 71 45 73 46
REMARK SMILES IDX 24 47 76 48 70 49 69 50 25 52 57 53 37 54 56 55 38 56 41 57
REMARK SMILES IDX 55 58 74 59 39 60 40 61 54 63 75 64 42 65 26 66 27 67 35 68
REMARK SMILES IDX 28 69 29 70 33 71 36 72 30 73 31 74 34 75 32 76 58 77 59 78
REMARK SMILES IDX 67 79 60 80 61 81 65 82 68 83 62 84 63 85 66 86 64 87 43 88
REMARK SMILES IDX 44 89 52 90 45 91 46 92 50 93 53 94 47 95 48 96 51 97 49 98
REMARK H PARENT 7 7 1 16 1 17 14 32 73 51 41 62
REMARK Flexibility Score: inf
ROOT
ATOM      1  C   UNL     1       0.248  -1.368   4.929  1.00  0.00     0.002 C 
ENDROOT
BRANCH   1   2
ATOM      2  C   UNL     1       0.608  -0.919   3.507  1.00  0.00     0.021 C 
BRANCH   2   3
ATOM      3  C   UNL     1       1.568  -1.875   2.799  1.00  0.00     0.116 C 
BRANCH   3   4
ATOM      4  N   UNL     1       0.889  -3.085   2.385  1.00  0.00    -0.356 N 
ATOM      5  C   UNL     1       0.442  -3.438   1.145  1.00  0.00     0.224 C 
ATOM      6  O   UNL     1      -0.228  -4.468   1.041  1.00  0.00    -0.275 OA
ATOM      7  H   UNL     1       0.727  -3.744   3.097  1.00  0.00     0.163 HD
BRANCH   5   8
ATOM      8  C   UNL     1       0.834  -2.629  -0.081  1.00  0.00     0.137 C 
BRANCH   8   9
ATOM      9  C   UNL     1       0.228  -1.238  -0.160  1.00  0.00    -0.015 A 
ATOM     10  C   UNL     1       1.017  -0.053  -0.175  1.00  0.00     0.046 A 
ATOM     11  C   UNL     1       0.361   1.206  -0.167  1.00  0.00     0.046 A 
ATOM     12  C   UNL     1      -1.176  -1.149  -0.177  1.00  0.00     0.006 A 
ATOM     13  C   UNL     1      -1.048   1.249  -0.170  1.00  0.00     0.014 A 
ATOM     14  C   UNL     1      -1.810   0.085  -0.181  1.00  0.00     0.001 A 
BRANCH  10  15
ATOM     15  N   UNL     1       2.401  -0.183  -0.149  1.00  0.00    -0.398 N 
ATOM     16  H   UNL     1       2.812  -1.078  -0.155  1.00  0.00     0.156 HD
ATOM     17  H   UNL     1       2.971   0.620  -0.124  1.00  0.00     0.156 HD
ENDBRANCH  10  15
BRANCH  11  18
ATOM     18  C   UNL     1       1.026   2.553  -0.102  1.00  0.00     0.195 C 
ATOM     19  O   UNL     1       0.368   3.554   0.184  1.00  0.00    -0.289 OA
BRANCH  18  20
ATOM     20  C   UNL     1       2.474   2.759  -0.282  1.00  0.00     0.023 A 
ATOM     21  C   UNL     1       3.187   3.337   0.777  1.00  0.00     0.013 A 
ATOM     22  C   UNL     1       3.138   2.356  -1.445  1.00  0.00     0.013 A 
ATOM     23  C   UNL     1       4.576   3.441   0.705  1.00  0.00     0.016 A 
ATOM     24  C   UNL     1       4.531   2.450  -1.509  1.00  0.00     0.016 A 
ATOM     25  C   UNL     1       5.243   2.979  -0.429  1.00  0.00     0.018 A 
ATOM     26  Br  UNL     1       7.131   3.048  -0.494  1.00  0.00    -0.051 Br
ENDBRANCH  18  20
ENDBRANCH  11  18
ENDBRANCH   8   9
ENDBRANCH   5   8
ENDBRANCH   3   4
ENDBRANCH   2   3
ENDBRANCH   1   2
BRANCH   1  27
ATOM     27  C   UNL     1       1.441  -1.491   5.885  1.00  0.00     0.002 C 
BRANCH  27  28
ATOM     28  C   UNL     1       2.274  -0.216   6.044  1.00  0.00     0.021 C 
BRANCH  28  29
ATOM     29  C   UNL     1       1.502   0.971   6.609  1.00  0.00     0.116 C 
BRANCH  29  30
ATOM     30  N   UNL     1       1.023   0.712   7.959  1.00  0.00    -0.352 N 
ATOM     31  C   UNL     1       1.227   1.428   9.108  1.00  0.00     0.251 C 
ATOM     32  H   UNL     1       0.471  -0.097   8.061  1.00  0.00     0.163 HD
ATOM     33  O   UNL     1       0.926   0.945  10.201  1.00  0.00    -0.269 OA
BRANCH  31  34
ATOM     34  C   UNL     1       1.823   2.777   9.044  1.00  0.00     0.039 A 
ATOM     35  C   UNL     1       2.807   3.128   9.972  1.00  0.00     0.014 A 
ATOM     36  C   UNL     1       1.400   3.700   8.083  1.00  0.00     0.014 A 
ATOM     37  C   UNL     1       3.406   4.387   9.902  1.00  0.00     0.010 A 
ATOM     38  C   UNL     1       2.048   4.927   7.969  1.00  0.00     0.010 A 
ATOM     39  C   UNL     1       3.053   5.284   8.881  1.00  0.00    -0.014 A 
BRANCH  39  40
ATOM     40  C   UNL     1       3.718   6.605   8.754  1.00  0.00     0.031 A 
ATOM     41  C   UNL     1       2.926   7.869   8.936  1.00  0.00     0.074 A 
ATOM     42  C   UNL     1       5.020   6.665   8.414  1.00  0.00     0.049 A 
ATOM     43  N   UNL     1       3.308   9.114   8.796  1.00  0.00    -0.248 NA
ATOM     44  C   UNL     1       1.508   7.714   9.298  1.00  0.00     0.031 C 
ATOM     45  C   UNL     1       5.883   5.509   8.170  1.00  0.00     0.029 A 
ATOM     46  N   UNL     1       5.841   7.744   8.203  1.00  0.00    -0.354 N 
ATOM     47  C   UNL     1       2.178   9.885   9.038  1.00  0.00     0.074 A 
ATOM     48  C   UNL     1       1.085   8.969   9.279  1.00  0.00     0.031 C 
ATOM     49  C   UNL     1       7.118   5.939   7.864  1.00  0.00     0.029 A 
ATOM     50  C   UNL     1       7.123   7.399   7.851  1.00  0.00     0.049 A 
ATOM     51  H   UNL     1       5.540   8.677   8.296  1.00  0.00     0.167 HD
ATOM     52  C   UNL     1       2.069  11.234   9.078  1.00  0.00     0.037 A 
ATOM     53  C   UNL     1       8.180   8.174   7.543  1.00  0.00     0.037 A 
ATOM     54  C   UNL     1       3.165  12.141   8.858  1.00  0.00     0.049 A 
ATOM     55  C   UNL     1       8.028   9.671   7.581  1.00  0.00     0.074 A 
ATOM     56  C   UNL     1       3.171  13.523   8.933  1.00  0.00     0.029 A 
ATOM     57  N   UNL     1       4.453  11.754   8.515  1.00  0.00    -0.354 N 
ATOM     58  N   UNL     1       6.973  10.389   7.878  1.00  0.00    -0.248 NA
ATOM     59  C   UNL     1       9.219  10.465   7.247  1.00  0.00     0.031 C 
ATOM     60  C   UNL     1       4.449  13.975   8.587  1.00  0.00     0.029 A 
ATOM     61  C   UNL     1       5.255  12.873   8.351  1.00  0.00     0.049 A 
ATOM     62  H   UNL     1       4.752  10.823   8.404  1.00  0.00     0.167 HD
ATOM     63  C   UNL     1       7.377  11.714   7.796  1.00  0.00     0.074 A 
ATOM     64  C   UNL     1       8.780  11.701   7.436  1.00  0.00     0.031 C 
ATOM     65  C   UNL     1       6.652  12.842   8.000  1.00  0.00     0.037 A 
BRANCH  52  66
ATOM     66  C   UNL     1       0.715  11.812   9.374  1.00  0.00     0.064 A 
ATOM     67  C   UNL     1       0.124  11.692  10.642  1.00  0.00     0.173 A 
ATOM     68  C   UNL     1       0.013  12.525   8.390  1.00  0.00     0.173 A 
ATOM     69  F   UNL     1       0.748  11.012  11.616  1.00  0.00    -0.203 F 
ATOM     70  C   UNL     1      -1.131  12.235  10.903  1.00  0.00     0.198 A 
ATOM     71  C   UNL     1      -1.228  13.095   8.664  1.00  0.00     0.198 A 
ATOM     72  F   UNL     1       0.534  12.677   7.163  1.00  0.00    -0.203 F 
ATOM     73  F   UNL     1      -1.697  12.062  12.105  1.00  0.00    -0.200 F 
ATOM     74  C   UNL     1      -1.803  12.942   9.917  1.00  0.00     0.200 A 
ATOM     75  F   UNL     1      -1.869  13.790   7.715  1.00  0.00    -0.200 F 
ATOM     76  F   UNL     1      -3.007  13.470  10.172  1.00  0.00    -0.200 F 
ENDBRANCH  52  66
BRANCH  53  77
ATOM     77  C   UNL     1       9.483   7.549   7.193  1.00  0.00     0.064 A 
ATOM     78  C   UNL     1      10.586   7.658   8.052  1.00  0.00     0.173 A 
ATOM     79  C   UNL     1       9.655   6.838   5.997  1.00  0.00     0.173 A 
ATOM     80  F   UNL     1      10.476   8.345   9.199  1.00  0.00    -0.203 F 
ATOM     81  C   UNL     1      11.817   7.099   7.717  1.00  0.00     0.198 A 
ATOM     82  C   UNL     1      10.880   6.254   5.677  1.00  0.00     0.198 A 
ATOM     83  F   UNL     1       8.630   6.698   5.144  1.00  0.00    -0.203 F 
ATOM     84  F   UNL     1      12.867   7.260   8.534  1.00  0.00    -0.200 F 
ATOM     85  C   UNL     1      11.962   6.393   6.533  1.00  0.00     0.200 A 
ATOM     86  F   UNL     1      11.010   5.558   4.539  1.00  0.00    -0.200 F 
ATOM     87  F   UNL     1      13.145   5.852   6.213  1.00  0.00    -0.200 F 
ENDBRANCH  53  77
BRANCH  65  88
ATOM     88  C   UNL     1       7.371  14.154   7.877  1.00  0.00     0.064 A 
ATOM     89  C   UNL     1       7.788  14.652   6.634  1.00  0.00     0.173 A 
ATOM     90  C   UNL     1       7.609  14.941   9.014  1.00  0.00     0.173 A 
ATOM     91  F   UNL     1       7.598  13.931   5.519  1.00  0.00    -0.203 F 
ATOM     92  C   UNL     1       8.442  15.878   6.537  1.00  0.00     0.198 A 
ATOM     93  C   UNL     1       8.234  16.181   8.910  1.00  0.00     0.198 A 
ATOM     94  F   UNL     1       7.224  14.514  10.226  1.00  0.00    -0.203 F 
ATOM     95  F   UNL     1       8.876  16.311   5.346  1.00  0.00    -0.200 F 
ATOM     96  C   UNL     1       8.657  16.645   7.673  1.00  0.00     0.200 A 
ATOM     97  F   UNL     1       8.428  16.926  10.007  1.00  0.00    -0.200 F 
ATOM     98  F   UNL     1       9.279  17.828   7.577  1.00  0.00    -0.200 F 
ENDBRANCH  65  88
ENDBRANCH  39  40
ENDBRANCH  31  34
ENDBRANCH  29  30
ENDBRANCH  28  29
ENDBRANCH  27  28
ENDBRANCH   1  27
TORSDOF 17
