REMARK SMILES N#Cc1cccnc1N1CC[NH+]([C@@H](C(=O)NCCCCCCNC(=O)c2ccc(-c3c4nc(c(-c5c(F)c(F)c(F)c(F)c5F)c5ccc([nH]5)c(-c5c(F)c(F)c(F)c(F)c5F)c5nc(c(-c6c(F)c(F)c(F)c(F)c6F)c6ccc3[nH]6)C=C5)C=C4)cc2)c2c[nH]c3cc(CO)ccc23)CC1
REMARK SMILES IDX 19 1 18 2 17 3 16 4 14 5 15 6 13 8 12 9 9 10 10 11 101 12
REMARK SMILES IDX 11 13 100 14 8 16 3 17 4 18 5 19 7 20 6 21 2 22 1 23 89 24
REMARK SMILES IDX 90 25 99 26 91 27 92 28 98 29 93 31 97 32 94 33 95 34 96 35
REMARK SMILES IDX 20 37 21 38 22 39 23 40 24 41 25 43 26 44 27 45 88 46 28 47
REMARK SMILES IDX 87 48 29 49 30 50 31 51 81 52 32 53 86 54 80 55 82 56 33 57
REMARK SMILES IDX 85 58 79 59 78 60 34 62 66 63 46 64 65 65 47 66 50 67 64 68
REMARK SMILES IDX 83 69 48 70 49 71 63 73 84 74 51 75 35 76 36 77 44 78 37 79
REMARK SMILES IDX 38 80 42 81 45 82 39 83 40 84 43 85 41 86 67 87 68 88 76 89
REMARK SMILES IDX 69 90 70 91 74 92 77 93 71 94 72 95 75 96 73 97 52 98 53 99
REMARK SMILES IDX 61 100 54 101 55 102 59 103 62 104 56 105 57 106 60 107
REMARK SMILES IDX 58 108
REMARK H PARENT 16 7 12 15 91 30 96 36 23 42 82 61 50 72
REMARK Flexibility Score: inf
ROOT
ATOM      1  C   UNL     1       0.969  -2.116   3.597  1.00  0.00     0.002 C 
ENDROOT
BRANCH   1   2
ATOM      2  C   UNL     1       1.937  -3.263   3.247  1.00  0.00     0.021 C 
BRANCH   2   3
ATOM      3  C   UNL     1       1.305  -4.638   2.873  1.00  0.00     0.116 C 
BRANCH   3   4
ATOM      4  N   UNL     1       0.029  -4.593   2.149  1.00  0.00    -0.351 N 
ATOM      5  C   UNL     1      -0.458  -4.896   0.896  1.00  0.00     0.283 C 
ATOM      6  O   UNL     1      -1.686  -4.761   0.810  1.00  0.00    -0.268 OA
ATOM      7  H   UNL     1      -0.688  -4.244   2.727  1.00  0.00     0.163 HD
BRANCH   5   8
ATOM      8  C   UNL     1       0.402  -5.436  -0.294  1.00  0.00     0.307 C 
BRANCH   8   9
ATOM      9  N   UNL     1       1.401  -4.501  -0.959  1.00  0.00    -0.318 N 
ATOM     10  N   UNL     1       0.594  -1.650  -0.966  1.00  0.00    -0.344 N 
ATOM     11  C   UNL     1      -0.002  -2.609  -1.903  1.00  0.00     0.179 C 
ATOM     12  C   UNL     1       1.178  -2.265   0.235  1.00  0.00     0.179 C 
ATOM     13  C   UNL     1       1.028  -3.718  -2.154  1.00  0.00     0.284 C 
ATOM     14  C   UNL     1       2.043  -3.514  -0.091  1.00  0.00     0.284 C 
ATOM     15  H   UNL     1       2.011  -5.266  -1.245  1.00  0.00     0.349 HD
BRANCH  10  16
ATOM     16  C   UNL     1      -0.171  -0.514  -0.689  1.00  0.00     0.146 A 
ATOM     17  C   UNL     1       0.441   0.694  -0.332  1.00  0.00     0.095 A 
ATOM     18  C   UNL     1      -0.355   1.780   0.040  1.00  0.00     0.025 A 
ATOM     19  C   UNL     1      -1.736   1.642   0.053  1.00  0.00     0.022 A 
ATOM     20  N   UNL     1      -1.521  -0.633  -0.710  1.00  0.00    -0.238 NA
ATOM     21  C   UNL     1      -2.269   0.426  -0.331  1.00  0.00     0.113 A 
BRANCH  17  22
ATOM     22  C   UNL     1       1.875   0.837  -0.327  1.00  0.00     0.103 C 
ATOM     23  N   UNL     1       3.015   0.952  -0.260  1.00  0.00    -0.192 NA
ENDBRANCH  17  22
ENDBRANCH  10  16
ENDBRANCH   8   9
BRANCH   8  24
ATOM     24  C   UNL     1      -0.414  -6.230  -1.380  1.00  0.00     0.044 A 
ATOM     25  C   UNL     1       0.123  -7.261  -2.148  1.00  0.00     0.094 A 
ATOM     26  C   UNL     1      -1.460  -5.752  -2.259  1.00  0.00     0.009 A 
ATOM     27  N   UNL     1       0.160  -6.725  -3.418  1.00  0.00    -0.361 N 
ATOM     28  C   UNL     1      -0.877  -5.824  -3.532  1.00  0.00     0.046 A 
ATOM     29  C   UNL     1      -2.679  -5.058  -2.144  1.00  0.00     0.011 A 
ATOM     30  H   UNL     1       0.814  -6.947  -4.120  1.00  0.00     0.166 HD
ATOM     31  C   UNL     1      -1.236  -4.958  -4.574  1.00  0.00     0.032 A 
ATOM     32  C   UNL     1      -3.136  -4.293  -3.227  1.00  0.00     0.007 A 
ATOM     33  C   UNL     1      -2.334  -4.112  -4.361  1.00  0.00    -0.021 A 
BRANCH  33  34
ATOM     34  C   UNL     1      -2.595  -2.952  -5.291  1.00  0.00     0.191 C 
BRANCH  34  35
ATOM     35  O   UNL     1      -2.599  -1.710  -4.584  1.00  0.00    -0.392 OA
ATOM     36  H   UNL     1      -3.303  -1.720  -3.917  1.00  0.00     0.211 HD
ENDBRANCH  34  35
ENDBRANCH  33  34
ENDBRANCH   8  24
ENDBRANCH   5   8
ENDBRANCH   3   4
ENDBRANCH   2   3
ENDBRANCH   1   2
BRANCH   1  37
ATOM     37  C   UNL     1       1.099  -1.582   5.025  1.00  0.00     0.002 C 
BRANCH  37  38
ATOM     38  C   UNL     1       2.433  -0.908   5.359  1.00  0.00     0.021 C 
BRANCH  38  39
ATOM     39  C   UNL     1       2.741   0.355   4.558  1.00  0.00     0.116 C 
BRANCH  39  40
ATOM     40  N   UNL     1       1.914   1.479   4.976  1.00  0.00    -0.352 N 
ATOM     41  C   UNL     1       2.292   2.623   5.639  1.00  0.00     0.251 C 
ATOM     42  H   UNL     1       0.957   1.411   4.754  1.00  0.00     0.163 HD
ATOM     43  O   UNL     1       1.454   3.362   6.143  1.00  0.00    -0.269 OA
BRANCH  41  44
ATOM     44  C   UNL     1       3.728   2.953   5.751  1.00  0.00     0.039 A 
ATOM     45  C   UNL     1       4.263   3.287   6.997  1.00  0.00     0.014 A 
ATOM     46  C   UNL     1       4.546   2.924   4.617  1.00  0.00     0.014 A 
ATOM     47  C   UNL     1       5.633   3.534   7.116  1.00  0.00     0.010 A 
ATOM     48  C   UNL     1       5.920   3.099   4.751  1.00  0.00     0.010 A 
ATOM     49  C   UNL     1       6.478   3.413   6.000  1.00  0.00    -0.014 A 
BRANCH  49  50
ATOM     50  C   UNL     1       7.944   3.626   6.117  1.00  0.00     0.031 A 
ATOM     51  C   UNL     1       8.602   4.759   5.378  1.00  0.00     0.074 A 
ATOM     52  C   UNL     1       8.691   2.772   6.844  1.00  0.00     0.049 A 
ATOM     53  N   UNL     1       9.871   5.074   5.301  1.00  0.00    -0.248 NA
ATOM     54  C   UNL     1       7.718   5.642   4.600  1.00  0.00     0.031 C 
ATOM     55  C   UNL     1       8.179   1.607   7.567  1.00  0.00     0.029 A 
ATOM     56  N   UNL     1      10.043   2.743   7.084  1.00  0.00    -0.354 N 
ATOM     57  C   UNL     1       9.934   6.186   4.470  1.00  0.00     0.074 A 
ATOM     58  C   UNL     1       8.588   6.449   4.012  1.00  0.00     0.031 C 
ATOM     59  C   UNL     1       9.200   0.987   8.181  1.00  0.00     0.029 A 
ATOM     60  C   UNL     1      10.442   1.685   7.864  1.00  0.00     0.049 A 
ATOM     61  H   UNL     1      10.667   3.417   6.730  1.00  0.00     0.167 HD
ATOM     62  C   UNL     1      11.012   6.938   4.144  1.00  0.00     0.037 A 
ATOM     63  C   UNL     1      11.673   1.312   8.266  1.00  0.00     0.037 A 
ATOM     64  C   UNL     1      12.350   6.677   4.605  1.00  0.00     0.049 A 
ATOM     65  C   UNL     1      12.859   2.151   7.867  1.00  0.00     0.074 A 
ATOM     66  C   UNL     1      13.505   7.397   4.356  1.00  0.00     0.029 A 
ATOM     67  N   UNL     1      12.712   5.606   5.410  1.00  0.00    -0.354 N 
ATOM     68  N   UNL     1      12.897   3.237   7.134  1.00  0.00    -0.248 NA
ATOM     69  C   UNL     1      14.174   1.717   8.362  1.00  0.00     0.031 C 
ATOM     70  C   UNL     1      14.574   6.735   4.969  1.00  0.00     0.029 A 
ATOM     71  C   UNL     1      14.076   5.637   5.652  1.00  0.00     0.049 A 
ATOM     72  H   UNL     1      12.091   4.926   5.758  1.00  0.00     0.167 HD
ATOM     73  C   UNL     1      14.228   3.632   7.104  1.00  0.00     0.074 A 
ATOM     74  C   UNL     1      14.964   2.680   7.909  1.00  0.00     0.031 C 
ATOM     75  C   UNL     1      14.792   4.687   6.465  1.00  0.00     0.037 A 
BRANCH  62  76
ATOM     76  C   UNL     1      10.785   8.126   3.252  1.00  0.00     0.064 A 
ATOM     77  C   UNL     1      10.074   9.251   3.698  1.00  0.00     0.173 A 
ATOM     78  C   UNL     1      11.317   8.161   1.954  1.00  0.00     0.173 A 
ATOM     79  F   UNL     1       9.536   9.267   4.927  1.00  0.00    -0.203 F 
ATOM     80  C   UNL     1       9.879  10.353   2.869  1.00  0.00     0.198 A 
ATOM     81  C   UNL     1      11.149   9.278   1.140  1.00  0.00     0.198 A 
ATOM     82  F   UNL     1      12.011   7.116   1.478  1.00  0.00    -0.203 F 
ATOM     83  F   UNL     1       9.154  11.394   3.301  1.00  0.00    -0.200 F 
ATOM     84  C   UNL     1      10.424  10.369   1.594  1.00  0.00     0.200 A 
ATOM     85  F   UNL     1      11.690   9.299  -0.086  1.00  0.00    -0.200 F 
ATOM     86  F   UNL     1      10.245  11.435   0.802  1.00  0.00    -0.200 F 
ENDBRANCH  62  76
BRANCH  63  87
ATOM     87  C   UNL     1      11.849   0.089   9.095  1.00  0.00     0.064 A 
ATOM     88  C   UNL     1      12.285   0.170  10.425  1.00  0.00     0.173 A 
ATOM     89  C   UNL     1      11.607  -1.188   8.567  1.00  0.00     0.173 A 
ATOM     90  F   UNL     1      12.549   1.366  10.971  1.00  0.00    -0.203 F 
ATOM     91  C   UNL     1      12.502  -0.979  11.184  1.00  0.00     0.198 A 
ATOM     92  C   UNL     1      11.791  -2.334   9.338  1.00  0.00     0.198 A 
ATOM     93  F   UNL     1      11.183  -1.324   7.302  1.00  0.00    -0.203 F 
ATOM     94  F   UNL     1      12.976  -0.874  12.433  1.00  0.00    -0.200 F 
ATOM     95  C   UNL     1      12.250  -2.230  10.642  1.00  0.00     0.200 A 
ATOM     96  F   UNL     1      11.529  -3.540   8.815  1.00  0.00    -0.200 F 
ATOM     97  F   UNL     1      12.458  -3.334  11.372  1.00  0.00    -0.200 F 
ENDBRANCH  63  87
BRANCH  75  98
ATOM     98  C   UNL     1      16.269   4.893   6.644  1.00  0.00     0.064 A 
ATOM     99  C   UNL     1      17.212   4.027   6.069  1.00  0.00     0.173 A 
ATOM    100  C   UNL     1      16.748   5.997   7.367  1.00  0.00     0.173 A 
ATOM    101  F   UNL     1      16.807   2.949   5.381  1.00  0.00    -0.203 F 
ATOM    102  C   UNL     1      18.577   4.242   6.238  1.00  0.00     0.198 A 
ATOM    103  C   UNL     1      18.113   6.229   7.503  1.00  0.00     0.198 A 
ATOM    104  F   UNL     1      15.889   6.861   7.929  1.00  0.00    -0.203 F 
ATOM    105  F   UNL     1      19.458   3.372   5.726  1.00  0.00    -0.200 F 
ATOM    106  C   UNL     1      19.027   5.347   6.947  1.00  0.00     0.200 A 
ATOM    107  F   UNL     1      18.545   7.305   8.174  1.00  0.00    -0.200 F 
ATOM    108  F   UNL     1      20.341   5.556   7.100  1.00  0.00    -0.200 F 
ENDBRANCH  75  98
ENDBRANCH  49  50
ENDBRANCH  41  44
ENDBRANCH  39  40
ENDBRANCH  38  39
ENDBRANCH  37  38
ENDBRANCH   1  37
TORSDOF 19
