REMARK SMILES COc1ccccc1C(=O)N/C(=C/c1ccc2c(c1)OCO2)C(=O)Nc1ccc(C(=O)NCCCCCCNC(=O)c2ccc(-c3c4nc(c(-c5c(F)c(F)c(F)c(F)c5F)c5ccc([nH]5)c(-c5c(F)c(F)c(F)c(F)c5F)c5nc(c(-c6c(F)c(F)c(F)c(F)c6F)c6ccc3[nH]6)C=C5)C=C4)cc2)cc1
REMARK SMILES IDX 34 1 33 2 32 3 30 4 31 5 29 7 26 8 27 9 106 10 28 11 105 12
REMARK SMILES IDX 25 13 23 14 24 15 12 17 13 18 11 19 9 20 10 21 8 23 3 24
REMARK SMILES IDX 4 25 5 26 7 27 6 28 2 29 1 30 14 31 15 32 19 33 16 34 18 35
REMARK SMILES IDX 17 36 20 37 22 38 21 39 35 40 36 41 37 42 38 43 39 44 40 45
REMARK SMILES IDX 41 47 42 48 43 49 104 50 44 51 103 52 45 53 46 54 47 55
REMARK SMILES IDX 97 56 48 57 102 58 96 59 98 60 49 61 101 62 95 63 94 64
REMARK SMILES IDX 50 66 82 67 62 68 81 69 63 70 66 71 80 72 99 73 64 74 65 75
REMARK SMILES IDX 79 77 100 78 67 79 51 80 52 81 60 82 53 83 54 84 58 85 61 86
REMARK SMILES IDX 55 87 56 88 59 89 57 90 83 91 84 92 92 93 85 94 86 95 90 96
REMARK SMILES IDX 93 97 87 98 88 99 91 100 89 101 68 102 69 103 77 104 70 105
REMARK SMILES IDX 71 106 75 107 78 108 72 109 73 110 76 111 74 112
REMARK H PARENT 32 6 25 16 11 22 39 46 98 65 66 76
REMARK Flexibility Score: inf
ROOT
ATOM      1  C   UNL     1      -2.080   2.956   5.630  1.00  0.00     0.021 C 
ENDROOT
BRANCH   1   2
ATOM      2  C   UNL     1      -1.339   1.622   5.793  1.00  0.00     0.116 C 
BRANCH   2   3
ATOM      3  N   UNL     1      -2.268   0.596   6.203  1.00  0.00    -0.352 N 
ATOM      4  C   UNL     1      -2.840  -0.433   5.504  1.00  0.00     0.251 C 
ATOM      5  O   UNL     1      -3.538  -1.243   6.108  1.00  0.00    -0.269 OA
ATOM      6  H   UNL     1      -2.537   0.644   7.148  1.00  0.00     0.163 HD
BRANCH   4   7
ATOM      7  C   UNL     1      -2.643  -0.606   4.041  1.00  0.00     0.039 A 
ATOM      8  C   UNL     1      -2.054  -1.129   0.418  1.00  0.00     0.041 A 
ATOM      9  C   UNL     1      -2.679  -2.737   1.337  1.00  0.00     0.027 A 
ATOM     10  C   UNL     1      -1.901   0.734   1.050  1.00  0.00     0.027 A 
ATOM     11  C   UNL     1      -3.015  -2.449   3.439  1.00  0.00     0.016 A 
ATOM     12  C   UNL     1      -2.197   1.004   2.997  1.00  0.00     0.016 A 
BRANCH   8  13
ATOM     13  N   UNL     1      -0.960  -1.641  -0.372  1.00  0.00    -0.321 N 
ATOM     14  C   UNL     1       0.069  -0.788  -0.523  1.00  0.00     0.272 C 
ATOM     15  O   UNL     1      -0.306   0.240  -1.083  1.00  0.00    -0.267 OA
ATOM     16  H   UNL     1      -0.966  -2.543  -0.769  1.00  0.00     0.170 HD
BRANCH  14  17
ATOM     17  C   UNL     1       1.397  -0.925   0.293  1.00  0.00     0.108 C 
ATOM     18  C   UNL     1       1.338  -1.014   1.655  1.00  0.00     0.040 C 
BRANCH  17  19
ATOM     19  N   UNL     1       2.701  -0.771  -0.239  1.00  0.00    -0.317 N 
ATOM     20  C   UNL     1       3.349  -0.667  -1.473  1.00  0.00     0.259 C 
ATOM     21  O   UNL     1       4.583  -0.637  -1.478  1.00  0.00    -0.269 OA
ATOM     22  H   UNL     1       3.359  -0.722   0.491  1.00  0.00     0.170 HD
BRANCH  20  23
ATOM     23  C   UNL     1       2.655  -0.659  -2.766  1.00  0.00     0.082 A 
ATOM     24  C   UNL     1       1.426  -0.079  -2.849  1.00  0.00     0.131 A 
ATOM     25  C   UNL     1       0.475  -0.669  -3.687  1.00  0.00     0.047 A 
ATOM     26  C   UNL     1       0.893  -1.419  -4.771  1.00  0.00     0.004 A 
ATOM     27  C   UNL     1       3.151  -1.214  -3.952  1.00  0.00     0.018 A 
ATOM     28  C   UNL     1       2.260  -1.527  -4.994  1.00  0.00     0.001 A 
BRANCH  24  29
ATOM     29  O   UNL     1       1.250   1.272  -2.613  1.00  0.00    -0.496 OA
ATOM     30  C   UNL     1       1.543   1.910  -1.365  1.00  0.00     0.278 C 
ENDBRANCH  24  29
ENDBRANCH  20  23
ENDBRANCH  17  19
BRANCH  18  31
ATOM     31  C   UNL     1       0.132  -1.351   2.444  1.00  0.00    -0.019 A 
ATOM     32  C   UNL     1      -1.130  -0.483   2.329  1.00  0.00     0.012 A 
ATOM     33  C   UNL     1      -0.116  -2.600   2.741  1.00  0.00     0.058 A 
ATOM     34  C   UNL     1      -3.079  -0.283   2.038  1.00  0.00     0.051 A 
ATOM     35  C   UNL     1      -1.469  -2.467   2.591  1.00  0.00     0.166 A 
ATOM     36  C   UNL     1      -3.184  -1.390   2.171  1.00  0.00     0.165 A 
ATOM     37  O   UNL     1      -2.170  -4.165   2.696  1.00  0.00    -0.454 OA
ATOM     38  O   UNL     1      -4.548  -2.418   2.090  1.00  0.00    -0.454 OA
ATOM     39  C   UNL     1      -3.945  -4.077   2.325  1.00  0.00     0.468 C 
ENDBRANCH  18  31
ENDBRANCH  14  17
ENDBRANCH   8  13
ENDBRANCH   4   7
ENDBRANCH   2   3
ENDBRANCH   1   2
BRANCH   1  40
ATOM     40  C   UNL     1      -2.397   3.601   6.976  1.00  0.00     0.002 C 
BRANCH  40  41
ATOM     41  C   UNL     1      -1.142   3.825   7.821  1.00  0.00     0.002 C 
BRANCH  41  42
ATOM     42  C   UNL     1      -0.101   4.689   7.108  1.00  0.00     0.021 C 
BRANCH  42  43
ATOM     43  C   UNL     1      -0.631   6.086   6.835  1.00  0.00     0.116 C 
BRANCH  43  44
ATOM     44  N   UNL     1      -0.998   6.739   8.085  1.00  0.00    -0.352 N 
ATOM     45  C   UNL     1      -0.417   7.828   8.674  1.00  0.00     0.251 C 
ATOM     46  H   UNL     1      -1.760   6.346   8.568  1.00  0.00     0.163 HD
ATOM     47  O   UNL     1      -0.576   8.069   9.863  1.00  0.00    -0.269 OA
BRANCH  45  48
ATOM     48  C   UNL     1       0.409   8.701   7.827  1.00  0.00     0.039 A 
ATOM     49  C   UNL     1       1.637   9.156   8.300  1.00  0.00     0.014 A 
ATOM     50  C   UNL     1      -0.029   9.011   6.536  1.00  0.00     0.014 A 
ATOM     51  C   UNL     1       2.454   9.893   7.448  1.00  0.00     0.010 A 
ATOM     52  C   UNL     1       0.837   9.631   5.655  1.00  0.00     0.010 A 
ATOM     53  C   UNL     1       2.078  10.098   6.109  1.00  0.00    -0.014 A 
BRANCH  53  54
ATOM     54  C   UNL     1       2.951  10.819   5.158  1.00  0.00     0.031 A 
ATOM     55  C   UNL     1       2.457  12.076   4.506  1.00  0.00     0.074 A 
ATOM     56  C   UNL     1       4.154  10.311   4.832  1.00  0.00     0.049 A 
ATOM     57  N   UNL     1       3.028  12.799   3.578  1.00  0.00    -0.248 NA
ATOM     58  C   UNL     1       1.138  12.574   4.932  1.00  0.00     0.031 C 
ATOM     59  C   UNL     1       4.732   9.088   5.389  1.00  0.00     0.029 A 
ATOM     60  N   UNL     1       5.103  10.754   3.944  1.00  0.00    -0.354 N 
ATOM     61  C   UNL     1       2.140  13.829   3.310  1.00  0.00     0.074 A 
ATOM     62  C   UNL     1       0.964  13.603   4.119  1.00  0.00     0.031 C 
ATOM     63  C   UNL     1       5.947   8.896   4.854  1.00  0.00     0.029 A 
ATOM     64  C   UNL     1       6.205   9.939   3.866  1.00  0.00     0.049 A 
ATOM     65  H   UNL     1       5.002  11.578   3.414  1.00  0.00     0.167 HD
ATOM     66  C   UNL     1       2.305  14.880   2.475  1.00  0.00     0.037 A 
ATOM     67  C   UNL     1       7.288  10.006   3.068  1.00  0.00     0.037 A 
ATOM     68  C   UNL     1       3.472  15.088   1.664  1.00  0.00     0.049 A 
ATOM     69  C   UNL     1       7.403  11.136   2.080  1.00  0.00     0.074 A 
ATOM     70  C   UNL     1       3.741  16.140   0.808  1.00  0.00     0.029 A 
ATOM     71  N   UNL     1       4.550  14.219   1.585  1.00  0.00    -0.354 N 
ATOM     72  N   UNL     1       6.577  12.130   1.865  1.00  0.00    -0.248 NA
ATOM     73  C   UNL     1       8.598  11.158   1.223  1.00  0.00     0.031 C 
ATOM     74  C   UNL     1       4.926  15.855   0.131  1.00  0.00     0.029 A 
ATOM     75  C   UNL     1       5.461  14.690   0.656  1.00  0.00     0.049 A 
ATOM     76  H   UNL     1       4.651  13.392   2.111  1.00  0.00     0.167 HD
ATOM     77  C   UNL     1       7.171  12.916   0.887  1.00  0.00     0.074 A 
ATOM     78  C   UNL     1       8.428  12.286   0.549  1.00  0.00     0.031 C 
ATOM     79  C   UNL     1       6.718  14.066   0.334  1.00  0.00     0.037 A 
BRANCH  66  80
ATOM     80  C   UNL     1       1.180  15.867   2.367  1.00  0.00     0.064 A 
ATOM     81  C   UNL     1       0.787  16.668   3.450  1.00  0.00     0.173 A 
ATOM     82  C   UNL     1       0.507  16.037   1.147  1.00  0.00     0.173 A 
ATOM     83  F   UNL     1       1.401  16.550   4.637  1.00  0.00    -0.203 F 
ATOM     84  C   UNL     1      -0.274  17.560   3.330  1.00  0.00     0.198 A 
ATOM     85  C   UNL     1      -0.514  16.971   1.016  1.00  0.00     0.198 A 
ATOM     86  F   UNL     1       0.852  15.308   0.074  1.00  0.00    -0.203 F 
ATOM     87  F   UNL     1      -0.686  18.253   4.401  1.00  0.00    -0.200 F 
ATOM     88  C   UNL     1      -0.917  17.718   2.112  1.00  0.00     0.200 A 
ATOM     89  F   UNL     1      -1.110  17.145  -0.171  1.00  0.00    -0.200 F 
ATOM     90  F   UNL     1      -1.931  18.585   1.996  1.00  0.00    -0.200 F 
ENDBRANCH  66  80
BRANCH  67  91
ATOM     91  C   UNL     1       8.345   8.963   3.153  1.00  0.00     0.064 A 
ATOM     92  C   UNL     1       9.655   9.286   3.534  1.00  0.00     0.173 A 
ATOM     93  C   UNL     1       8.076   7.627   2.816  1.00  0.00     0.173 A 
ATOM     94  F   UNL     1       9.967  10.550   3.855  1.00  0.00    -0.203 F 
ATOM     95  C   UNL     1      10.663   8.325   3.529  1.00  0.00     0.198 A 
ATOM     96  C   UNL     1       9.073   6.657   2.863  1.00  0.00     0.198 A 
ATOM     97  F   UNL     1       6.839   7.260   2.450  1.00  0.00    -0.203 F 
ATOM     98  F   UNL     1      11.924   8.680   3.813  1.00  0.00    -0.200 F 
ATOM     99  C   UNL     1      10.370   7.010   3.201  1.00  0.00     0.200 A 
ATOM    100  F   UNL     1       8.778   5.383   2.572  1.00  0.00    -0.200 F 
ATOM    101  F   UNL     1      11.340   6.086   3.200  1.00  0.00    -0.200 F 
ENDBRANCH  67  91
BRANCH  79 102
ATOM    102  C   UNL     1       7.606  14.782  -0.643  1.00  0.00     0.064 A 
ATOM    103  C   UNL     1       7.893  14.270  -1.915  1.00  0.00     0.173 A 
ATOM    104  C   UNL     1       8.104  16.056  -0.321  1.00  0.00     0.173 A 
ATOM    105  F   UNL     1       7.441  13.059  -2.275  1.00  0.00    -0.203 F 
ATOM    106  C   UNL     1       8.668  14.994  -2.818  1.00  0.00     0.198 A 
ATOM    107  C   UNL     1       8.831  16.799  -1.244  1.00  0.00     0.198 A 
ATOM    108  F   UNL     1       7.848  16.600   0.879  1.00  0.00    -0.203 F 
ATOM    109  F   UNL     1       8.977  14.462  -4.008  1.00  0.00    -0.200 F 
ATOM    110  C   UNL     1       9.122  16.262  -2.488  1.00  0.00     0.200 A 
ATOM    111  F   UNL     1       9.236  18.038  -0.934  1.00  0.00    -0.200 F 
ATOM    112  F   UNL     1       9.842  16.969  -3.370  1.00  0.00    -0.200 F 
ENDBRANCH  79 102
ENDBRANCH  53  54
ENDBRANCH  45  48
ENDBRANCH  43  44
ENDBRANCH  42  43
ENDBRANCH  41  42
ENDBRANCH  40  41
ENDBRANCH   1  40
TORSDOF 19
