REMARK SMILES NS(=O)(=O)c1ccc(-n2nc(C(=O)NCCCCCCNC(=O)c3ccc(-c4c5nc(c(-c6c(F)c(F)c(F)c(F)c6F)c6ccc([nH]6)c(-c6c(F)c(F)c(F)c(F)c6F)c6nc(c(-c7c(F)c(F)c(F)c(F)c7F)c7ccc4[nH]7)C=C6)C=C5)cc3)c(Cl)c2-c2ccc(Cl)cc2)cc1
REMARK SMILES IDX 17 1 16 2 15 3 14 4 12 5 13 6 11 8 9 9 10 10 89 11 87 12
REMARK SMILES IDX 88 13 8 14 5 15 6 16 98 17 7 18 97 19 2 20 3 21 4 22 1 23
REMARK SMILES IDX 90 26 91 27 96 28 92 29 95 30 93 31 94 32 18 33 19 34 20 35
REMARK SMILES IDX 21 36 22 37 23 39 24 40 25 41 86 42 26 43 85 44 27 45 28 46
REMARK SMILES IDX 29 47 79 48 30 49 84 50 78 51 80 52 31 53 83 54 77 55 76 56
REMARK SMILES IDX 32 58 64 59 44 60 63 61 45 62 48 63 62 64 81 65 46 66 47 67
REMARK SMILES IDX 61 69 82 70 49 71 33 72 34 73 42 74 35 75 36 76 40 77 43 78
REMARK SMILES IDX 37 79 38 80 41 81 39 82 65 83 66 84 74 85 67 86 68 87 72 88
REMARK SMILES IDX 75 89 69 90 70 91 73 92 71 93 50 94 51 95 59 96 52 97 53 98
REMARK SMILES IDX 57 99 60 100 54 101 55 102 58 103 56 104
REMARK H PARENT 14 7 1 24 1 25 21 38 80 57 48 68
REMARK Flexibility Score: inf
ROOT
ATOM      1  C   UNL     1       5.049 -12.780  -4.951  1.00  0.00     0.002 C 
ENDROOT
BRANCH   1   2
ATOM      2  C   UNL     1       4.835 -11.458  -4.211  1.00  0.00     0.021 C 
BRANCH   2   3
ATOM      3  C   UNL     1       4.092 -10.372  -5.005  1.00  0.00     0.116 C 
BRANCH   3   4
ATOM      4  N   UNL     1       2.673 -10.373  -4.690  1.00  0.00    -0.351 N 
ATOM      5  C   UNL     1       1.863  -9.517  -3.973  1.00  0.00     0.273 C 
ATOM      6  O   UNL     1       0.661  -9.798  -3.977  1.00  0.00    -0.267 OA
ATOM      7  H   UNL     1       2.190 -11.144  -5.066  1.00  0.00     0.163 HD
BRANCH   5   8
ATOM      8  C   UNL     1       2.372  -8.302  -3.304  1.00  0.00     0.169 A 
ATOM      9  N   UNL     1       2.315  -6.271  -2.570  1.00  0.00    -0.231 N 
ATOM     10  N   UNL     1       1.556  -7.233  -3.146  1.00  0.00    -0.160 NA
ATOM     11  C   UNL     1       3.637  -6.661  -2.454  1.00  0.00     0.094 A 
ATOM     12  C   UNL     1       3.599  -8.028  -2.659  1.00  0.00     0.100 A 
ATOM     13  Cl  UNL     1       4.805  -9.097  -2.118  1.00  0.00    -0.079 Cl
BRANCH   9  14
ATOM     14  C   UNL     1       1.724  -5.119  -1.987  1.00  0.00     0.065 A 
ATOM     15  C   UNL     1       0.859  -3.001  -0.401  1.00  0.00     0.082 A 
ATOM     16  C   UNL     1       0.176  -4.223  -0.356  1.00  0.00     0.024 A 
ATOM     17  C   UNL     1       1.916  -2.808  -1.293  1.00  0.00     0.024 A 
ATOM     18  C   UNL     1       0.595  -5.281  -1.169  1.00  0.00     0.030 A 
ATOM     19  C   UNL     1       2.358  -3.873  -2.078  1.00  0.00     0.030 A 
BRANCH  15  20
ATOM     20  S   UNL     1       0.392  -1.731   0.740  1.00  0.00     0.238 S 
ATOM     21  O   UNL     1       1.122  -1.962   1.977  1.00  0.00    -0.207 OA
ATOM     22  O   UNL     1      -1.027  -1.556   0.693  1.00  0.00    -0.207 OA
BRANCH  20  23
ATOM     23  N   UNL     1       1.048  -0.322   0.096  1.00  0.00    -0.225 NA
ATOM     24  H   UNL     1       0.821   0.466   0.702  1.00  0.00     0.137 HD
ATOM     25  H   UNL     1       0.659  -0.160  -0.833  1.00  0.00     0.137 HD
ENDBRANCH  20  23
ENDBRANCH  15  20
ENDBRANCH   9  14
BRANCH  11  26
ATOM     26  C   UNL     1       4.754  -5.906  -1.899  1.00  0.00     0.002 A 
ATOM     27  C   UNL     1       5.801  -5.528  -2.752  1.00  0.00     0.012 A 
ATOM     28  C   UNL     1       4.884  -5.730  -0.517  1.00  0.00     0.012 A 
ATOM     29  C   UNL     1       6.986  -5.017  -2.222  1.00  0.00     0.021 A 
ATOM     30  C   UNL     1       6.071  -5.219   0.010  1.00  0.00     0.021 A 
ATOM     31  C   UNL     1       7.122  -4.882  -0.842  1.00  0.00     0.041 A 
ATOM     32  Cl  UNL     1       8.614  -4.336  -0.184  1.00  0.00    -0.084 Cl
ENDBRANCH  11  26
ENDBRANCH   5   8
ENDBRANCH   3   4
ENDBRANCH   2   3
ENDBRANCH   1   2
BRANCH   1  33
ATOM     33  C   UNL     1       5.947 -12.707  -6.194  1.00  0.00     0.002 C 
BRANCH  33  34
ATOM     34  C   UNL     1       7.333 -12.071  -6.008  1.00  0.00     0.021 C 
BRANCH  34  35
ATOM     35  C   UNL     1       8.276 -12.867  -5.113  1.00  0.00     0.116 C 
BRANCH  35  36
ATOM     36  N   UNL     1       8.631 -14.158  -5.697  1.00  0.00    -0.352 N 
ATOM     37  C   UNL     1       9.368 -15.185  -5.152  1.00  0.00     0.251 C 
ATOM     38  H   UNL     1       8.295 -14.316  -6.609  1.00  0.00     0.163 HD
ATOM     39  O   UNL     1       9.870 -16.044  -5.869  1.00  0.00    -0.269 OA
BRANCH  37  40
ATOM     40  C   UNL     1       9.565 -15.240  -3.694  1.00  0.00     0.039 A 
ATOM     41  C   UNL     1      10.809 -15.592  -3.161  1.00  0.00     0.014 A 
ATOM     42  C   UNL     1       8.496 -14.929  -2.857  1.00  0.00     0.014 A 
ATOM     43  C   UNL     1      10.993 -15.544  -1.782  1.00  0.00     0.010 A 
ATOM     44  C   UNL     1       8.711 -14.765  -1.508  1.00  0.00     0.010 A 
ATOM     45  C   UNL     1       9.946 -15.104  -0.958  1.00  0.00    -0.014 A 
BRANCH  45  46
ATOM     46  C   UNL     1      10.180 -14.877   0.468  1.00  0.00     0.031 A 
ATOM     47  C   UNL     1      11.281 -13.921   0.785  1.00  0.00     0.074 A 
ATOM     48  C   UNL     1       9.325 -15.292   1.427  1.00  0.00     0.049 A 
ATOM     49  N   UNL     1      12.347 -14.132   1.485  1.00  0.00    -0.248 NA
ATOM     50  C   UNL     1      11.229 -12.584   0.172  1.00  0.00     0.031 C 
ATOM     51  C   UNL     1       8.025 -15.950   1.246  1.00  0.00     0.029 A 
ATOM     52  N   UNL     1       9.378 -15.095   2.775  1.00  0.00    -0.354 N 
ATOM     53  C   UNL     1      13.022 -12.912   1.546  1.00  0.00     0.074 A 
ATOM     54  C   UNL     1      12.373 -12.045   0.600  1.00  0.00     0.031 C 
ATOM     55  C   UNL     1       7.319 -15.876   2.393  1.00  0.00     0.029 A 
ATOM     56  C   UNL     1       8.175 -15.329   3.429  1.00  0.00     0.049 A 
ATOM     57  H   UNL     1      10.196 -14.811   3.243  1.00  0.00     0.167 HD
ATOM     58  C   UNL     1      13.915 -12.650   2.542  1.00  0.00     0.037 A 
ATOM     59  C   UNL     1       7.886 -15.063   4.724  1.00  0.00     0.037 A 
ATOM     60  C   UNL     1      14.325 -13.867   3.195  1.00  0.00     0.049 A 
ATOM     61  C   UNL     1       9.170 -14.931   5.447  1.00  0.00     0.074 A 
ATOM     62  C   UNL     1      15.005 -15.007   2.823  1.00  0.00     0.029 A 
ATOM     63  N   UNL     1      13.711 -14.159   4.385  1.00  0.00    -0.354 N 
ATOM     64  N   UNL     1       9.994 -15.917   5.664  1.00  0.00    -0.248 NA
ATOM     65  C   UNL     1       9.727 -13.600   5.633  1.00  0.00     0.031 C 
ATOM     66  C   UNL     1      14.427 -16.059   3.595  1.00  0.00     0.029 A 
ATOM     67  C   UNL     1      13.457 -15.501   4.429  1.00  0.00     0.049 A 
ATOM     68  H   UNL     1      13.491 -13.509   5.091  1.00  0.00     0.167 HD
ATOM     69  C   UNL     1      11.251 -15.344   5.575  1.00  0.00     0.074 A 
ATOM     70  C   UNL     1      11.022 -13.911   5.718  1.00  0.00     0.031 C 
ATOM     71  C   UNL     1      12.308 -16.066   5.101  1.00  0.00     0.037 A 
BRANCH  58  72
ATOM     72  C   UNL     1      14.105 -11.299   3.212  1.00  0.00     0.064 A 
ATOM     73  C   UNL     1      15.075 -11.178   4.233  1.00  0.00     0.173 A 
ATOM     74  C   UNL     1      13.177 -10.238   3.141  1.00  0.00     0.173 A 
ATOM     75  F   UNL     1      16.014 -12.122   4.401  1.00  0.00    -0.203 F 
ATOM     76  C   UNL     1      15.042 -10.144   5.173  1.00  0.00     0.198 A 
ATOM     77  C   UNL     1      13.180  -9.179   4.050  1.00  0.00     0.198 A 
ATOM     78  F   UNL     1      12.164 -10.228   2.269  1.00  0.00    -0.203 F 
ATOM     79  F   UNL     1      15.893 -10.158   6.209  1.00  0.00    -0.200 F 
ATOM     80  C   UNL     1      14.085  -9.152   5.088  1.00  0.00     0.200 A 
ATOM     81  F   UNL     1      12.236  -8.231   3.958  1.00  0.00    -0.200 F 
ATOM     82  F   UNL     1      14.002  -8.201   6.029  1.00  0.00    -0.200 F 
ENDBRANCH  58  72
BRANCH  59  83
ATOM     83  C   UNL     1       6.589 -14.694   5.335  1.00  0.00     0.064 A 
ATOM     84  C   UNL     1       6.388 -14.798   6.721  1.00  0.00     0.173 A 
ATOM     85  C   UNL     1       5.619 -13.973   4.612  1.00  0.00     0.173 A 
ATOM     86  F   UNL     1       7.284 -15.437   7.486  1.00  0.00    -0.203 F 
ATOM     87  C   UNL     1       5.301 -14.185   7.352  1.00  0.00     0.198 A 
ATOM     88  C   UNL     1       4.530 -13.369   5.242  1.00  0.00     0.198 A 
ATOM     89  F   UNL     1       5.762 -13.757   3.297  1.00  0.00    -0.203 F 
ATOM     90  F   UNL     1       5.182 -14.246   8.685  1.00  0.00    -0.200 F 
ATOM     91  C   UNL     1       4.380 -13.461   6.613  1.00  0.00     0.200 A 
ATOM     92  F   UNL     1       3.665 -12.642   4.521  1.00  0.00    -0.200 F 
ATOM     93  F   UNL     1       3.377 -12.817   7.225  1.00  0.00    -0.200 F 
ENDBRANCH  59  83
BRANCH  71  94
ATOM     94  C   UNL     1      12.170 -17.561   5.071  1.00  0.00     0.064 A 
ATOM     95  C   UNL     1      11.233 -18.260   4.291  1.00  0.00     0.173 A 
ATOM     96  C   UNL     1      13.109 -18.319   5.784  1.00  0.00     0.173 A 
ATOM     97  F   UNL     1      10.365 -17.611   3.506  1.00  0.00    -0.203 F 
ATOM     98  C   UNL     1      11.211 -19.653   4.267  1.00  0.00     0.198 A 
ATOM     99  C   UNL     1      13.111 -19.709   5.726  1.00  0.00     0.198 A 
ATOM    100  F   UNL     1      14.060 -17.704   6.506  1.00  0.00    -0.203 F 
ATOM    101  F   UNL     1      10.293 -20.298   3.532  1.00  0.00    -0.200 F 
ATOM    102  C   UNL     1      12.154 -20.376   4.979  1.00  0.00     0.200 A 
ATOM    103  F   UNL     1      14.056 -20.401   6.377  1.00  0.00    -0.200 F 
ATOM    104  F   UNL     1      12.158 -21.715   4.925  1.00  0.00    -0.200 F 
ENDBRANCH  71  94
ENDBRANCH  45  46
ENDBRANCH  37  40
ENDBRANCH  35  36
ENDBRANCH  34  35
ENDBRANCH  33  34
ENDBRANCH   1  33
TORSDOF 17
