REMARK SMILES O=C(NCCCCCCNC(=O)[C@@H](c1ccccc1)[C@H](C(=O)c1ccccc1)c1ccccc1)c1ccc(-c2c3nc(c(-c4c(F)c(F)c(F)c(F)c4F)c4ccc([nH]4)c(-c4c(F)c(F)c(F)c(F)c4F)c4nc(c(-c5c(F)c(F)c(F)c(F)c5F)c5ccc2[nH]5)C=C4)C=C3)cc1
REMARK SMILES IDX 7 1 6 2 5 3 4 4 3 5 1 6 2 7 35 9 36 10 97 11 37 12 96 13
REMARK SMILES IDX 38 14 39 15 40 16 90 17 41 18 95 19 89 20 91 21 42 22 94 23
REMARK SMILES IDX 88 24 87 25 43 27 75 28 55 29 74 30 56 31 59 32 73 33 92 34
REMARK SMILES IDX 57 35 58 36 72 38 93 39 60 40 44 41 45 42 53 43 46 44 47 45
REMARK SMILES IDX 51 46 54 47 48 48 49 49 52 50 50 51 76 52 77 53 85 54 78 55
REMARK SMILES IDX 79 56 83 57 86 58 80 59 81 60 84 61 82 62 61 63 62 64 70 65
REMARK SMILES IDX 63 66 64 67 68 68 71 69 65 70 66 71 69 72 67 73 8 74 9 75
REMARK SMILES IDX 10 76 11 77 12 79 13 80 14 81 15 82 19 83 16 84 18 85 17 86
REMARK SMILES IDX 20 87 29 88 30 89 34 90 31 91 33 92 32 93 21 94 22 95 23 96
REMARK SMILES IDX 24 97 28 98 25 99 27 100 26 101
REMARK H PARENT 3 8 91 26 59 37 10 78
REMARK Flexibility Score: inf
ROOT
ATOM      1  C   UNL     1       6.017   1.669   6.632  1.00  0.00     0.002 C 
ENDROOT
BRANCH   1   2
ATOM      2  C   UNL     1       6.244   2.478   5.350  1.00  0.00     0.002 C 
BRANCH   2   3
ATOM      3  C   UNL     1       5.374   2.050   4.166  1.00  0.00     0.021 C 
BRANCH   3   4
ATOM      4  C   UNL     1       3.878   2.075   4.457  1.00  0.00     0.116 C 
BRANCH   4   5
ATOM      5  N   UNL     1       3.421   3.422   4.750  1.00  0.00    -0.352 N 
ATOM      6  O   UNL     1       2.472   5.408   4.254  1.00  0.00    -0.269 OA
ATOM      7  C   UNL     1       2.554   4.205   4.035  1.00  0.00     0.251 C 
ATOM      8  H   UNL     1       3.782   3.825   5.572  1.00  0.00     0.163 HD
BRANCH   7   9
ATOM      9  C   UNL     1       1.716   3.584   2.992  1.00  0.00     0.039 A 
ATOM     10  C   UNL     1       1.017   2.401   3.257  1.00  0.00     0.014 A 
ATOM     11  C   UNL     1       1.604   4.213   1.751  1.00  0.00     0.014 A 
ATOM     12  C   UNL     1       0.274   1.797   2.250  1.00  0.00     0.010 A 
ATOM     13  C   UNL     1       0.805   3.641   0.763  1.00  0.00     0.010 A 
ATOM     14  C   UNL     1       0.144   2.425   1.003  1.00  0.00    -0.014 A 
BRANCH  14  15
ATOM     15  C   UNL     1      -0.744   1.849  -0.032  1.00  0.00     0.031 A 
ATOM     16  C   UNL     1      -0.180   1.332  -1.320  1.00  0.00     0.074 A 
ATOM     17  C   UNL     1      -2.072   1.849   0.184  1.00  0.00     0.049 A 
ATOM     18  N   UNL     1      -0.809   0.905  -2.385  1.00  0.00    -0.248 NA
ATOM     19  C   UNL     1       1.285   1.300  -1.430  1.00  0.00     0.031 C 
ATOM     20  C   UNL     1      -2.725   2.333   1.401  1.00  0.00     0.029 A 
ATOM     21  N   UNL     1      -3.110   1.450  -0.618  1.00  0.00    -0.354 N 
ATOM     22  C   UNL     1       0.180   0.581  -3.302  1.00  0.00     0.074 A 
ATOM     23  C   UNL     1       1.451   0.876  -2.675  1.00  0.00     0.031 C 
ATOM     24  C   UNL     1      -4.053   2.204   1.267  1.00  0.00     0.029 A 
ATOM     25  C   UNL     1      -4.344   1.688  -0.066  1.00  0.00     0.049 A 
ATOM     26  H   UNL     1      -2.983   1.034  -1.501  1.00  0.00     0.167 HD
ATOM     27  C   UNL     1       0.032   0.082  -4.553  1.00  0.00     0.037 A 
ATOM     28  C   UNL     1      -5.575   1.546  -0.591  1.00  0.00     0.037 A 
ATOM     29  C   UNL     1      -1.241  -0.212  -5.159  1.00  0.00     0.049 A 
ATOM     30  C   UNL     1      -5.715   1.022  -1.990  1.00  0.00     0.074 A 
ATOM     31  C   UNL     1      -1.501  -0.762  -6.402  1.00  0.00     0.029 A 
ATOM     32  N   UNL     1      -2.473   0.033  -4.565  1.00  0.00    -0.354 N 
ATOM     33  N   UNL     1      -4.776   0.682  -2.839  1.00  0.00    -0.248 NA
ATOM     34  C   UNL     1      -7.080   0.861  -2.505  1.00  0.00     0.031 C 
ATOM     35  C   UNL     1      -2.888  -0.802  -6.581  1.00  0.00     0.029 A 
ATOM     36  C   UNL     1      -3.495  -0.330  -5.427  1.00  0.00     0.049 A 
ATOM     37  H   UNL     1      -2.601   0.408  -3.664  1.00  0.00     0.167 HD
ATOM     38  C   UNL     1      -5.432   0.244  -3.979  1.00  0.00     0.074 A 
ATOM     39  C   UNL     1      -6.852   0.359  -3.712  1.00  0.00     0.031 C 
ATOM     40  C   UNL     1      -4.904  -0.217  -5.139  1.00  0.00     0.037 A 
BRANCH  27  41
ATOM     41  C   UNL     1       1.278  -0.143  -5.360  1.00  0.00     0.064 A 
ATOM     42  C   UNL     1       2.195  -1.158  -5.043  1.00  0.00     0.173 A 
ATOM     43  C   UNL     1       1.553   0.661  -6.477  1.00  0.00     0.173 A 
ATOM     44  F   UNL     1       1.986  -1.948  -3.980  1.00  0.00    -0.203 F 
ATOM     45  C   UNL     1       3.357  -1.333  -5.791  1.00  0.00     0.198 A 
ATOM     46  C   UNL     1       2.701   0.464  -7.240  1.00  0.00     0.198 A 
ATOM     47  F   UNL     1       0.708   1.641  -6.829  1.00  0.00    -0.203 F 
ATOM     48  F   UNL     1       4.245  -2.271  -5.434  1.00  0.00    -0.200 F 
ATOM     49  C   UNL     1       3.607  -0.526  -6.891  1.00  0.00     0.200 A 
ATOM     50  F   UNL     1       2.935   1.237  -8.309  1.00  0.00    -0.200 F 
ATOM     51  F   UNL     1       4.727  -0.695  -7.607  1.00  0.00    -0.200 F 
ENDBRANCH  27  41
BRANCH  28  52
ATOM     52  C   UNL     1      -6.755   1.921   0.227  1.00  0.00     0.064 A 
ATOM     53  C   UNL     1      -7.596   0.942   0.769  1.00  0.00     0.173 A 
ATOM     54  C   UNL     1      -7.023   3.262   0.540  1.00  0.00     0.173 A 
ATOM     55  F   UNL     1      -7.386  -0.352   0.486  1.00  0.00    -0.203 F 
ATOM     56  C   UNL     1      -8.664   1.290   1.594  1.00  0.00     0.198 A 
ATOM     57  C   UNL     1      -8.074   3.607   1.385  1.00  0.00     0.198 A 
ATOM     58  F   UNL     1      -6.238   4.235   0.053  1.00  0.00    -0.203 F 
ATOM     59  F   UNL     1      -9.466   0.336   2.085  1.00  0.00    -0.200 F 
ATOM     60  C   UNL     1      -8.895   2.621   1.909  1.00  0.00     0.200 A 
ATOM     61  F   UNL     1      -8.282   4.892   1.704  1.00  0.00    -0.200 F 
ATOM     62  F   UNL     1      -9.909   2.952   2.721  1.00  0.00    -0.200 F 
ENDBRANCH  28  52
BRANCH  40  63
ATOM     63  C   UNL     1      -5.862  -0.675  -6.198  1.00  0.00     0.064 A 
ATOM     64  C   UNL     1      -6.597   0.234  -6.971  1.00  0.00     0.173 A 
ATOM     65  C   UNL     1      -5.989  -2.043  -6.487  1.00  0.00     0.173 A 
ATOM     66  F   UNL     1      -6.521   1.549  -6.720  1.00  0.00    -0.203 F 
ATOM     67  C   UNL     1      -7.433  -0.211  -7.991  1.00  0.00     0.198 A 
ATOM     68  C   UNL     1      -6.806  -2.482  -7.524  1.00  0.00     0.198 A 
ATOM     69  F   UNL     1      -5.303  -2.951  -5.776  1.00  0.00    -0.203 F 
ATOM     70  F   UNL     1      -8.151   0.672  -8.700  1.00  0.00    -0.200 F 
ATOM     71  C   UNL     1      -7.529  -1.566  -8.274  1.00  0.00     0.200 A 
ATOM     72  F   UNL     1      -6.888  -3.790  -7.803  1.00  0.00    -0.200 F 
ATOM     73  F   UNL     1      -8.322  -1.990  -9.268  1.00  0.00    -0.200 F 
ENDBRANCH  40  63
ENDBRANCH  14  15
ENDBRANCH   7   9
ENDBRANCH   4   5
ENDBRANCH   3   4
ENDBRANCH   2   3
ENDBRANCH   1   2
BRANCH   1  74
ATOM     74  C   UNL     1       6.079   0.148   6.449  1.00  0.00     0.021 C 
BRANCH  74  75
ATOM     75  C   UNL     1       7.403  -0.339   5.865  1.00  0.00     0.116 C 
BRANCH  75  76
ATOM     76  N   UNL     1       8.463  -0.200   6.837  1.00  0.00    -0.356 N 
ATOM     77  C   UNL     1       8.973  -1.114   7.705  1.00  0.00     0.228 C 
ATOM     78  H   UNL     1       8.878   0.691   6.877  1.00  0.00     0.163 HD
ATOM     79  O   UNL     1       9.703  -0.682   8.604  1.00  0.00    -0.274 OA
BRANCH  77  80
ATOM     80  C   UNL     1       8.697  -2.623   7.581  1.00  0.00     0.124 C 
BRANCH  80  81
ATOM     81  C   UNL     1       7.213  -2.920   7.850  1.00  0.00    -0.035 A 
ATOM     82  C   UNL     1       6.724  -2.737   9.157  1.00  0.00     0.004 A 
ATOM     83  C   UNL     1       6.320  -3.397   6.876  1.00  0.00     0.004 A 
ATOM     84  C   UNL     1       5.404  -3.055   9.482  1.00  0.00     0.000 A 
ATOM     85  C   UNL     1       5.002  -3.721   7.205  1.00  0.00     0.000 A 
ATOM     86  C   UNL     1       4.546  -3.557   8.508  1.00  0.00     0.000 A 
ENDBRANCH  80  81
BRANCH  80  87
ATOM     87  C   UNL     1       9.377  -3.283   6.336  1.00  0.00     0.108 C 
BRANCH  87  88
ATOM     88  C   UNL     1      10.889  -3.007   6.194  1.00  0.00    -0.036 A 
ATOM     89  C   UNL     1      11.857  -4.014   6.348  1.00  0.00     0.004 A 
ATOM     90  C   UNL     1      11.347  -1.726   5.830  1.00  0.00     0.004 A 
ATOM     91  C   UNL     1      13.216  -3.749   6.146  1.00  0.00     0.000 A 
ATOM     92  C   UNL     1      12.707  -1.452   5.667  1.00  0.00     0.000 A 
ATOM     93  C   UNL     1      13.643  -2.467   5.818  1.00  0.00     0.000 A 
ENDBRANCH  87  88
BRANCH  87  94
ATOM     94  C   UNL     1       9.068  -4.784   6.058  1.00  0.00     0.171 C 
ATOM     95  O   UNL     1       9.236  -5.242   4.922  1.00  0.00    -0.293 OA
BRANCH  94  96
ATOM     96  C   UNL     1       8.505  -5.725   7.077  1.00  0.00     0.018 A 
ATOM     97  C   UNL     1       7.596  -6.690   6.612  1.00  0.00     0.012 A 
ATOM     98  C   UNL     1       8.776  -5.657   8.446  1.00  0.00     0.012 A 
ATOM     99  C   UNL     1       6.888  -7.492   7.508  1.00  0.00     0.001 A 
ATOM    100  C   UNL     1       8.036  -6.433   9.345  1.00  0.00     0.001 A 
ATOM    101  C   UNL     1       7.083  -7.337   8.877  1.00  0.00     0.000 A 
ENDBRANCH  94  96
ENDBRANCH  87  94
ENDBRANCH  80  87
ENDBRANCH  77  80
ENDBRANCH  75  76
ENDBRANCH  74  75
ENDBRANCH   1  74
TORSDOF 18
