REMARK SMILES Cc1ccc(Cl)c(Nc2ccccc2C(=O)NCC(=O)NCCCCCCNC(=O)c2ccc(-c3c4nc(c(-c5c(F)c(F)c(F)c(F)c5F)c5ccc([nH]5)c(-c5c(F)c(F)c(F)c(F)c5F)c5nc(c(-c6c(F)c(F)c(F)c(F)c6F)c6ccc3[nH]6)C=C5)C=C4)cc2)c1Cl
REMARK SMILES IDX 23 1 22 2 21 3 19 4 20 5 18 7 17 8 15 9 16 10 14 12 9 13
REMARK SMILES IDX 10 14 11 15 13 16 12 17 8 18 7 20 1 21 2 22 3 23 94 24 4 25
REMARK SMILES IDX 95 26 5 27 6 28 24 29 25 30 26 31 27 32 28 33 29 34 30 36
REMARK SMILES IDX 31 37 32 38 93 39 33 40 92 41 34 42 35 43 36 44 86 45 37 46
REMARK SMILES IDX 91 47 85 48 87 49 38 50 90 51 84 52 83 53 39 55 71 56 51 57
REMARK SMILES IDX 70 58 52 59 55 60 69 61 88 62 53 63 54 64 68 66 89 67 56 68
REMARK SMILES IDX 40 69 41 70 49 71 42 72 43 73 47 74 50 75 44 76 45 77 48 78
REMARK SMILES IDX 46 79 72 80 73 81 81 82 74 83 75 84 79 85 82 86 76 87 77 88
REMARK SMILES IDX 80 89 78 90 57 91 58 92 66 93 59 94 60 95 64 96 67 97 61 98
REMARK SMILES IDX 62 99 65 100 63 101
REMARK H PARENT 21 6 17 11 8 19 28 35 87 54 55 65
REMARK Flexibility Score: inf
ROOT
ATOM      1  C   UNL     1      -1.500  -3.677   3.976  1.00  0.00     0.021 C 
ENDROOT
BRANCH   1   2
ATOM      2  C   UNL     1      -1.712  -3.490   2.479  1.00  0.00     0.116 C 
BRANCH   2   3
ATOM      3  N   UNL     1      -2.578  -2.359   2.265  1.00  0.00    -0.355 N 
ATOM      4  C   UNL     1      -2.208  -1.050   2.258  1.00  0.00     0.239 C 
ATOM      5  O   UNL     1      -3.095  -0.194   2.308  1.00  0.00    -0.273 OA
ATOM      6  H   UNL     1      -3.530  -2.553   2.109  1.00  0.00     0.163 HD
BRANCH   4   7
ATOM      7  C   UNL     1      -0.774  -0.680   1.888  1.00  0.00     0.216 C 
BRANCH   7   8
ATOM      8  N   UNL     1       0.431  -1.241   2.458  1.00  0.00    -0.343 N 
ATOM      9  C   UNL     1       1.516  -1.859   1.874  1.00  0.00     0.253 C 
ATOM     10  O   UNL     1       2.581  -1.701   2.485  1.00  0.00    -0.269 OA
ATOM     11  H   UNL     1       0.486  -1.168   3.438  1.00  0.00     0.164 HD
BRANCH   9  12
ATOM     12  C   UNL     1       1.492  -2.868   0.747  1.00  0.00     0.063 A 
ATOM     13  C   UNL     1       0.785  -2.909  -0.478  1.00  0.00     0.051 A 
ATOM     14  C   UNL     1       0.901  -4.080  -1.278  1.00  0.00     0.027 A 
ATOM     15  C   UNL     1       1.735  -5.146  -0.946  1.00  0.00     0.002 A 
ATOM     16  C   UNL     1       2.345  -3.969   1.048  1.00  0.00     0.016 A 
ATOM     17  C   UNL     1       2.480  -5.080   0.214  1.00  0.00     0.001 A 
BRANCH  13  18
ATOM     18  N   UNL     1       0.069  -1.878  -1.123  1.00  0.00    -0.352 N 
ATOM     19  H   UNL     1      -0.704  -2.208  -1.637  1.00  0.00     0.167 HD
BRANCH  18  20
ATOM     20  C   UNL     1       0.223  -0.470  -1.192  1.00  0.00     0.077 A 
ATOM     21  C   UNL     1       2.691   2.263  -0.155  1.00  0.00     0.046 C 
ATOM     22  C   UNL     1       1.431   1.570  -0.595  1.00  0.00    -0.030 A 
ATOM     23  C   UNL     1       0.225   2.287  -0.617  1.00  0.00     0.006 A 
ATOM     24  C   UNL     1       1.431   0.202  -0.931  1.00  0.00     0.069 A 
ATOM     25  C   UNL     1      -0.959   1.671  -1.009  1.00  0.00     0.023 A 
ATOM     26  Cl  UNL     1       2.954  -0.617  -1.111  1.00  0.00    -0.082 Cl
ATOM     27  C   UNL     1      -0.957   0.311  -1.308  1.00  0.00     0.066 A 
ATOM     28  Cl  UNL     1      -2.480  -0.439  -1.672  1.00  0.00    -0.082 Cl
ENDBRANCH  18  20
ENDBRANCH  13  18
ENDBRANCH   9  12
ENDBRANCH   7   8
ENDBRANCH   4   7
ENDBRANCH   2   3
ENDBRANCH   1   2
BRANCH   1  29
ATOM     29  C   UNL     1      -2.800  -4.071   4.687  1.00  0.00     0.002 C 
BRANCH  29  30
ATOM     30  C   UNL     1      -3.416  -5.372   4.162  1.00  0.00     0.002 C 
BRANCH  30  31
ATOM     31  C   UNL     1      -2.462  -6.566   4.199  1.00  0.00     0.021 C 
BRANCH  31  32
ATOM     32  C   UNL     1      -1.884  -6.837   5.582  1.00  0.00     0.116 C 
BRANCH  32  33
ATOM     33  N   UNL     1      -2.933  -7.117   6.548  1.00  0.00    -0.352 N 
ATOM     34  C   UNL     1      -3.051  -8.184   7.400  1.00  0.00     0.251 C 
ATOM     35  H   UNL     1      -3.656  -6.451   6.598  1.00  0.00     0.163 HD
ATOM     36  O   UNL     1      -4.102  -8.408   7.986  1.00  0.00    -0.269 OA
BRANCH  34  37
ATOM     37  C   UNL     1      -1.887  -9.069   7.590  1.00  0.00     0.039 A 
ATOM     38  C   UNL     1      -2.073 -10.451   7.538  1.00  0.00     0.014 A 
ATOM     39  C   UNL     1      -0.617  -8.526   7.805  1.00  0.00     0.014 A 
ATOM     40  C   UNL     1      -0.970 -11.293   7.659  1.00  0.00     0.010 A 
ATOM     41  C   UNL     1       0.490  -9.363   7.847  1.00  0.00     0.010 A 
ATOM     42  C   UNL     1       0.322 -10.754   7.787  1.00  0.00    -0.014 A 
BRANCH  42  43
ATOM     43  C   UNL     1       1.511 -11.633   7.871  1.00  0.00     0.031 A 
ATOM     44  C   UNL     1       2.343 -11.653   9.120  1.00  0.00     0.074 A 
ATOM     45  C   UNL     1       1.874 -12.361   6.799  1.00  0.00     0.049 A 
ATOM     46  N   UNL     1       3.447 -12.310   9.370  1.00  0.00    -0.248 NA
ATOM     47  C   UNL     1       1.892 -10.794  10.227  1.00  0.00     0.031 C 
ATOM     48  C   UNL     1       1.174 -12.377   5.514  1.00  0.00     0.029 A 
ATOM     49  N   UNL     1       2.928 -13.218   6.617  1.00  0.00    -0.354 N 
ATOM     50  C   UNL     1       3.826 -11.936  10.652  1.00  0.00     0.074 A 
ATOM     51  C   UNL     1       2.872 -10.946  11.104  1.00  0.00     0.031 C 
ATOM     52  C   UNL     1       1.806 -13.220   4.682  1.00  0.00     0.029 A 
ATOM     53  C   UNL     1       2.973 -13.773   5.362  1.00  0.00     0.049 A 
ATOM     54  H   UNL     1       3.590 -13.416   7.318  1.00  0.00     0.167 HD
ATOM     55  C   UNL     1       4.862 -12.395  11.394  1.00  0.00     0.037 A 
ATOM     56  C   UNL     1       3.861 -14.627   4.820  1.00  0.00     0.037 A 
ATOM     57  C   UNL     1       5.797 -13.391  10.940  1.00  0.00     0.049 A 
ATOM     58  C   UNL     1       5.005 -15.123   5.661  1.00  0.00     0.074 A 
ATOM     59  C   UNL     1       6.843 -13.973  11.633  1.00  0.00     0.029 A 
ATOM     60  N   UNL     1       5.801 -13.946   9.667  1.00  0.00    -0.354 N 
ATOM     61  N   UNL     1       5.312 -14.823   6.900  1.00  0.00    -0.248 NA
ATOM     62  C   UNL     1       5.921 -16.082   5.031  1.00  0.00     0.031 C 
ATOM     63  C   UNL     1       7.514 -14.839  10.763  1.00  0.00     0.029 A 
ATOM     64  C   UNL     1       6.850 -14.844   9.546  1.00  0.00     0.049 A 
ATOM     65  H   UNL     1       5.155 -13.734   8.956  1.00  0.00     0.167 HD
ATOM     66  C   UNL     1       6.439 -15.572   7.207  1.00  0.00     0.074 A 
ATOM     67  C   UNL     1       6.753 -16.353   6.028  1.00  0.00     0.031 C 
ATOM     68  C   UNL     1       7.150 -15.610   8.362  1.00  0.00     0.037 A 
BRANCH  55  69
ATOM     69  C   UNL     1       5.034 -11.816  12.769  1.00  0.00     0.064 A 
ATOM     70  C   UNL     1       4.106 -12.059  13.795  1.00  0.00     0.173 A 
ATOM     71  C   UNL     1       6.144 -11.012  13.070  1.00  0.00     0.173 A 
ATOM     72  F   UNL     1       3.020 -12.811  13.559  1.00  0.00    -0.203 F 
ATOM     73  C   UNL     1       4.260 -11.483  15.053  1.00  0.00     0.198 A 
ATOM     74  C   UNL     1       6.313 -10.467  14.340  1.00  0.00     0.198 A 
ATOM     75  F   UNL     1       7.066 -10.752  12.131  1.00  0.00    -0.203 F 
ATOM     76  F   UNL     1       3.325 -11.676  15.995  1.00  0.00    -0.200 F 
ATOM     77  C   UNL     1       5.365 -10.693  15.327  1.00  0.00     0.200 A 
ATOM     78  F   UNL     1       7.390  -9.715  14.607  1.00  0.00    -0.200 F 
ATOM     79  F   UNL     1       5.512 -10.140  16.539  1.00  0.00    -0.200 F 
ENDBRANCH  55  69
BRANCH  56  80
ATOM     80  C   UNL     1       3.677 -15.084   3.419  1.00  0.00     0.064 A 
ATOM     81  C   UNL     1       3.289 -16.400   3.136  1.00  0.00     0.173 A 
ATOM     82  C   UNL     1       3.855 -14.208   2.338  1.00  0.00     0.173 A 
ATOM     83  F   UNL     1       3.123 -17.278   4.136  1.00  0.00    -0.203 F 
ATOM     84  C   UNL     1       3.097 -16.827   1.824  1.00  0.00     0.198 A 
ATOM     85  C   UNL     1       3.636 -14.628   1.028  1.00  0.00     0.198 A 
ATOM     86  F   UNL     1       4.218 -12.935   2.557  1.00  0.00    -0.203 F 
ATOM     87  F   UNL     1       2.758 -18.100   1.579  1.00  0.00    -0.200 F 
ATOM     88  C   UNL     1       3.263 -15.939   0.771  1.00  0.00     0.200 A 
ATOM     89  F   UNL     1       3.779 -13.762   0.016  1.00  0.00    -0.200 F 
ATOM     90  F   UNL     1       3.065 -16.346  -0.489  1.00  0.00    -0.200 F 
ENDBRANCH  56  80
BRANCH  68  91
ATOM     91  C   UNL     1       8.323 -16.547   8.416  1.00  0.00     0.064 A 
ATOM     92  C   UNL     1       9.501 -16.295   7.698  1.00  0.00     0.173 A 
ATOM     93  C   UNL     1       8.281 -17.690   9.229  1.00  0.00     0.173 A 
ATOM     94  F   UNL     1       9.586 -15.224   6.894  1.00  0.00    -0.203 F 
ATOM     95  C   UNL     1      10.585 -17.166   7.774  1.00  0.00     0.198 A 
ATOM     96  C   UNL     1       9.377 -18.541   9.327  1.00  0.00     0.198 A 
ATOM     97  F   UNL     1       7.179 -17.973   9.941  1.00  0.00    -0.203 F 
ATOM     98  F   UNL     1      11.682 -16.932   7.041  1.00  0.00    -0.200 F 
ATOM     99  C   UNL     1      10.525 -18.283   8.594  1.00  0.00     0.200 A 
ATOM    100  F   UNL     1       9.323 -19.611  10.132  1.00  0.00    -0.200 F 
ATOM    101  F   UNL     1      11.572 -19.116   8.672  1.00  0.00    -0.200 F 
ENDBRANCH  68  91
ENDBRANCH  42  43
ENDBRANCH  34  37
ENDBRANCH  32  33
ENDBRANCH  31  32
ENDBRANCH  30  31
ENDBRANCH  29  30
ENDBRANCH   1  29
TORSDOF 17
