REMARK SMILES CC(C)(C)NC(=O)c1ccccc1C(=O)NCCCCCCNC(=O)c1ccc(-c2c3nc(c(-c4c(F)c(F)c(F)c(F)c4F)c4ccc([nH]4)c(-c4c(F)c(F)c(F)c(F)c4F)c4nc(c(-c5c(F)c(F)c(F)c(F)c5F)c5ccc2[nH]5)C=C4)C=C3)cc1
REMARK SMILES IDX 19 1 18 2 17 3 16 4 14 5 15 6 13 8 8 9 9 10 10 11 12 12
REMARK SMILES IDX 11 13 6 14 5 15 7 17 2 18 1 19 3 20 4 21 20 22 21 23 22 24
REMARK SMILES IDX 23 25 24 26 25 28 26 29 27 30 88 31 28 32 87 33 29 34 30 35
REMARK SMILES IDX 31 36 81 37 32 38 86 39 80 40 82 41 33 42 85 43 79 44 78 45
REMARK SMILES IDX 34 47 66 48 46 49 65 50 47 51 50 52 64 53 83 54 48 55 49 56
REMARK SMILES IDX 63 58 84 59 51 60 35 61 36 62 44 63 37 64 38 65 42 66 45 67
REMARK SMILES IDX 39 68 40 69 43 70 41 71 67 72 68 73 76 74 69 75 70 76 74 77
REMARK SMILES IDX 77 78 71 79 72 80 75 81 73 82 52 83 53 84 61 85 54 86 55 87
REMARK SMILES IDX 59 88 62 89 56 90 57 91 60 92 58 93
REMARK H PARENT 16 7 5 16 23 27 82 46 50 57
REMARK Flexibility Score: inf
ROOT
ATOM      1  C   UNL     1       3.443   3.751   3.489  1.00  0.00     0.002 C 
ENDROOT
BRANCH   1   2
ATOM      2  C   UNL     1       4.025   2.339   3.653  1.00  0.00     0.021 C 
BRANCH   2   3
ATOM      3  C   UNL     1       3.386   1.262   2.786  1.00  0.00     0.116 C 
BRANCH   3   4
ATOM      4  N   UNL     1       3.606   1.430   1.368  1.00  0.00    -0.352 N 
ATOM      5  C   UNL     1       3.401   0.573   0.317  1.00  0.00     0.252 C 
ATOM      6  O   UNL     1       3.636   1.006  -0.814  1.00  0.00    -0.269 OA
ATOM      7  H   UNL     1       3.964   2.310   1.112  1.00  0.00     0.163 HD
BRANCH   5   8
ATOM      8  C   UNL     1       2.981  -0.849   0.444  1.00  0.00     0.052 A 
ATOM      9  C   UNL     1       1.998  -1.384   1.283  1.00  0.00     0.052 A 
ATOM     10  C   UNL     1       1.766  -2.776   1.305  1.00  0.00     0.014 A 
ATOM     11  C   UNL     1       2.429  -3.628   0.426  1.00  0.00     0.001 A 
ATOM     12  C   UNL     1       3.608  -1.727  -0.469  1.00  0.00     0.014 A 
ATOM     13  C   UNL     1       3.331  -3.098  -0.485  1.00  0.00     0.001 A 
BRANCH   9  14
ATOM     14  C   UNL     1       1.162  -0.635   2.222  1.00  0.00     0.252 C 
ATOM     15  N   UNL     1       0.198   0.254   1.845  1.00  0.00    -0.347 N 
ATOM     16  H   UNL     1      -0.249   0.655   2.625  1.00  0.00     0.164 HD
ATOM     17  O   UNL     1       1.306  -0.871   3.424  1.00  0.00    -0.269 OA
BRANCH  15  18
ATOM     18  C   UNL     1      -0.353   0.775   0.577  1.00  0.00     0.032 C 
ATOM     19  C   UNL     1      -0.174  -0.152  -0.629  1.00  0.00     0.034 C 
ATOM     20  C   UNL     1       0.233   2.161   0.273  1.00  0.00     0.034 C 
ATOM     21  C   UNL     1      -1.867   0.958   0.811  1.00  0.00     0.034 C 
ENDBRANCH  15  18
ENDBRANCH   9  14
ENDBRANCH   5   8
ENDBRANCH   3   4
ENDBRANCH   2   3
ENDBRANCH   1   2
BRANCH   1  22
ATOM     22  C   UNL     1       1.921   3.909   3.600  1.00  0.00     0.002 C 
BRANCH  22  23
ATOM     23  C   UNL     1       1.237   3.321   4.835  1.00  0.00     0.021 C 
BRANCH  23  24
ATOM     24  C   UNL     1       1.839   3.700   6.181  1.00  0.00     0.116 C 
BRANCH  24  25
ATOM     25  N   UNL     1       1.943   5.133   6.387  1.00  0.00    -0.352 N 
ATOM     26  C   UNL     1       1.767   5.872   7.529  1.00  0.00     0.251 C 
ATOM     27  H   UNL     1       2.174   5.654   5.584  1.00  0.00     0.163 HD
ATOM     28  O   UNL     1       1.828   7.096   7.473  1.00  0.00    -0.269 OA
BRANCH  26  29
ATOM     29  C   UNL     1       1.473   5.214   8.825  1.00  0.00     0.039 A 
ATOM     30  C   UNL     1       0.556   5.830   9.683  1.00  0.00     0.014 A 
ATOM     31  C   UNL     1       2.108   4.035   9.223  1.00  0.00     0.014 A 
ATOM     32  C   UNL     1       0.254   5.250  10.916  1.00  0.00     0.010 A 
ATOM     33  C   UNL     1       1.745   3.413  10.417  1.00  0.00     0.010 A 
ATOM     34  C   UNL     1       0.831   4.024  11.286  1.00  0.00    -0.014 A 
BRANCH  34  35
ATOM     35  C   UNL     1       0.510   3.401  12.595  1.00  0.00     0.031 A 
ATOM     36  C   UNL     1       1.579   3.243  13.642  1.00  0.00     0.074 A 
ATOM     37  C   UNL     1      -0.739   2.957  12.834  1.00  0.00     0.049 A 
ATOM     38  N   UNL     1       1.493   2.735  14.846  1.00  0.00    -0.248 NA
ATOM     39  C   UNL     1       2.933   3.691  13.279  1.00  0.00     0.031 C 
ATOM     40  C   UNL     1      -1.848   3.002  11.879  1.00  0.00     0.029 A 
ATOM     41  N   UNL     1      -1.287   2.382  13.953  1.00  0.00    -0.354 N 
ATOM     42  C   UNL     1       2.776   2.793  15.375  1.00  0.00     0.074 A 
ATOM     43  C   UNL     1       3.635   3.327  14.341  1.00  0.00     0.031 C 
ATOM     44  C   UNL     1      -2.951   2.509  12.464  1.00  0.00     0.029 A 
ATOM     45  C   UNL     1      -2.622   2.087  13.822  1.00  0.00     0.049 A 
ATOM     46  H   UNL     1      -0.772   2.199  14.772  1.00  0.00     0.167 HD
ATOM     47  C   UNL     1       3.195   2.461  16.620  1.00  0.00     0.037 A 
ATOM     48  C   UNL     1      -3.483   1.543  14.702  1.00  0.00     0.037 A 
ATOM     49  C   UNL     1       2.332   1.953  17.653  1.00  0.00     0.049 A 
ATOM     50  C   UNL     1      -2.996   1.196  16.084  1.00  0.00     0.074 A 
ATOM     51  C   UNL     1       2.645   1.635  18.963  1.00  0.00     0.029 A 
ATOM     52  N   UNL     1       0.980   1.685  17.490  1.00  0.00    -0.354 N 
ATOM     53  N   UNL     1      -1.797   1.328  16.598  1.00  0.00    -0.248 NA
ATOM     54  C   UNL     1      -3.989   0.640  17.013  1.00  0.00     0.031 C 
ATOM     55  C   UNL     1       1.493   1.133  19.579  1.00  0.00     0.029 A 
ATOM     56  C   UNL     1       0.449   1.190  18.671  1.00  0.00     0.049 A 
ATOM     57  H   UNL     1       0.472   1.827  16.658  1.00  0.00     0.167 HD
ATOM     58  C   UNL     1      -1.897   0.902  17.915  1.00  0.00     0.074 A 
ATOM     59  C   UNL     1      -3.280   0.527  18.127  1.00  0.00     0.031 C 
ATOM     60  C   UNL     1      -0.932   0.827  18.865  1.00  0.00     0.037 A 
BRANCH  47  61
ATOM     61  C   UNL     1       4.654   2.643  16.932  1.00  0.00     0.064 A 
ATOM     62  C   UNL     1       5.233   3.919  17.029  1.00  0.00     0.173 A 
ATOM     63  C   UNL     1       5.478   1.532  17.165  1.00  0.00     0.173 A 
ATOM     64  F   UNL     1       4.493   5.015  16.804  1.00  0.00    -0.203 F 
ATOM     65  C   UNL     1       6.588   4.073  17.312  1.00  0.00     0.198 A 
ATOM     66  C   UNL     1       6.825   1.692  17.481  1.00  0.00     0.198 A 
ATOM     67  F   UNL     1       4.977   0.290  17.092  1.00  0.00    -0.203 F 
ATOM     68  F   UNL     1       7.129   5.299  17.343  1.00  0.00    -0.200 F 
ATOM     69  C   UNL     1       7.381   2.960  17.544  1.00  0.00     0.200 A 
ATOM     70  F   UNL     1       7.588   0.616  17.719  1.00  0.00    -0.200 F 
ATOM     71  F   UNL     1       8.683   3.110  17.823  1.00  0.00    -0.200 F 
ENDBRANCH  47  61
BRANCH  48  72
ATOM     72  C   UNL     1      -4.904   1.332  14.320  1.00  0.00     0.064 A 
ATOM     73  C   UNL     1      -5.928   2.092  14.903  1.00  0.00     0.173 A 
ATOM     74  C   UNL     1      -5.269   0.365  13.372  1.00  0.00     0.173 A 
ATOM     75  F   UNL     1      -5.632   3.016  15.829  1.00  0.00    -0.203 F 
ATOM     76  C   UNL     1      -7.264   1.875  14.572  1.00  0.00     0.198 A 
ATOM     77  C   UNL     1      -6.603   0.170  13.020  1.00  0.00     0.198 A 
ATOM     78  F   UNL     1      -4.328  -0.384  12.780  1.00  0.00    -0.203 F 
ATOM     79  F   UNL     1      -8.226   2.580  15.183  1.00  0.00    -0.200 F 
ATOM     80  C   UNL     1      -7.600   0.918  13.627  1.00  0.00     0.200 A 
ATOM     81  F   UNL     1      -6.923  -0.746  12.095  1.00  0.00    -0.200 F 
ATOM     82  F   UNL     1      -8.885   0.711  13.308  1.00  0.00    -0.200 F 
ENDBRANCH  48  72
BRANCH  60  83
ATOM     83  C   UNL     1      -1.350   0.357  20.229  1.00  0.00     0.064 A 
ATOM     84  C   UNL     1      -1.726  -0.972  20.471  1.00  0.00     0.173 A 
ATOM     85  C   UNL     1      -1.359   1.249  21.313  1.00  0.00     0.173 A 
ATOM     86  F   UNL     1      -1.748  -1.861  19.466  1.00  0.00    -0.203 F 
ATOM     87  C   UNL     1      -2.134  -1.382  21.738  1.00  0.00     0.198 A 
ATOM     88  C   UNL     1      -1.734   0.828  22.586  1.00  0.00     0.198 A 
ATOM     89  F   UNL     1      -1.000   2.530  21.139  1.00  0.00    -0.203 F 
ATOM     90  F   UNL     1      -2.550  -2.642  21.931  1.00  0.00    -0.200 F 
ATOM     91  C   UNL     1      -2.132  -0.484  22.794  1.00  0.00     0.200 A 
ATOM     92  F   UNL     1      -1.717   1.693  23.609  1.00  0.00    -0.200 F 
ATOM     93  F   UNL     1      -2.525  -0.880  24.013  1.00  0.00    -0.200 F 
ENDBRANCH  60  83
ENDBRANCH  34  35
ENDBRANCH  26  29
ENDBRANCH  24  25
ENDBRANCH  23  24
ENDBRANCH  22  23
ENDBRANCH   1  22
TORSDOF 15
