REMARK SMILES COCCNS(=O)(=O)c1c[nH]c(C(=O)NCCCCCCNC(=O)c2ccc(-c3c4nc(c(-c5c(F)c(F)c(F)c(F)c5F)c5ccc([nH]5)c(-c5c(F)c(F)c(F)c(F)c5F)c5nc(c(-c6c(F)c(F)c(F)c(F)c6F)c6ccc3[nH]6)C=C5)C=C4)cc2)c1
REMARK SMILES IDX 17 1 16 2 15 3 13 4 14 5 12 7 9 8 10 9 88 10 11 11 6 13 7 14
REMARK SMILES IDX 8 15 5 16 4 18 3 19 2 20 1 21 18 22 19 23 20 24 21 25 22 26
REMARK SMILES IDX 23 27 24 29 25 30 26 31 87 32 27 33 86 34 28 35 29 36 30 37
REMARK SMILES IDX 80 38 31 39 85 40 79 41 81 42 32 43 84 44 78 45 77 46 33 48
REMARK SMILES IDX 65 49 45 50 64 51 46 52 49 53 63 54 82 55 47 56 48 57 62 59
REMARK SMILES IDX 83 60 50 61 34 62 35 63 43 64 36 65 37 66 41 67 44 68 38 69
REMARK SMILES IDX 39 70 42 71 40 72 66 73 67 74 75 75 68 76 69 77 73 78 76 79
REMARK SMILES IDX 70 80 71 81 74 82 72 83 51 84 52 85 60 86 53 87 54 88 58 89
REMARK SMILES IDX 61 90 55 91 56 92 59 93 57 94
REMARK H PARENT 15 6 11 12 5 17 22 28 81 47 49 58
REMARK Flexibility Score: inf
ROOT
ATOM      1  C   UNL     1       3.505   5.182  -7.719  1.00  0.00     0.021 C 
ENDROOT
BRANCH   1   2
ATOM      2  C   UNL     1       2.193   4.487  -8.080  1.00  0.00     0.116 C 
BRANCH   2   3
ATOM      3  N   UNL     1       2.451   3.292  -8.854  1.00  0.00    -0.351 N 
ATOM      4  C   UNL     1       2.310   1.965  -8.559  1.00  0.00     0.267 C 
ATOM      5  O   UNL     1       2.563   1.163  -9.459  1.00  0.00    -0.268 OA
ATOM      6  H   UNL     1       2.792   3.467  -9.761  1.00  0.00     0.163 HD
BRANCH   4   7
ATOM      7  C   UNL     1       1.807   1.514  -7.281  1.00  0.00     0.105 A 
ATOM      8  C   UNL     1       0.903   1.217  -5.220  1.00  0.00     0.100 A 
ATOM      9  C   UNL     1       0.694   0.065  -5.945  1.00  0.00     0.104 A 
ATOM     10  C   UNL     1       1.700   2.077  -6.019  1.00  0.00     0.055 A 
ATOM     11  N   UNL     1       1.298   0.233  -7.162  1.00  0.00    -0.356 N 
ATOM     12  H   UNL     1       1.360  -0.462  -7.857  1.00  0.00     0.166 HD
BRANCH   8  13
ATOM     13  S   UNL     1       0.268   1.609  -3.664  1.00  0.00     0.242 S 
ATOM     14  O   UNL     1      -1.141   1.336  -3.757  1.00  0.00    -0.207 OA
ATOM     15  O   UNL     1       0.777   2.939  -3.379  1.00  0.00    -0.207 OA
BRANCH  13  16
ATOM     16  N   UNL     1       0.945   0.592  -2.505  1.00  0.00    -0.209 NA
ATOM     17  H   UNL     1       1.942   0.513  -2.704  1.00  0.00     0.141 HD
BRANCH  16  18
ATOM     18  C   UNL     1       0.388  -0.778  -2.434  1.00  0.00     0.127 C 
BRANCH  18  19
ATOM     19  C   UNL     1       1.112  -1.607  -1.367  1.00  0.00     0.176 C 
BRANCH  19  20
ATOM     20  O   UNL     1       0.593  -1.413  -0.049  1.00  0.00    -0.383 OA
ATOM     21  C   UNL     1       1.038  -0.230   0.595  1.00  0.00     0.194 C 
ENDBRANCH  19  20
ENDBRANCH  18  19
ENDBRANCH  16  18
ENDBRANCH  13  16
ENDBRANCH   8  13
ENDBRANCH   4   7
ENDBRANCH   2   3
ENDBRANCH   1   2
BRANCH   1  22
ATOM     22  C   UNL     1       4.091   5.997  -8.879  1.00  0.00     0.002 C 
BRANCH  22  23
ATOM     23  C   UNL     1       3.153   7.072  -9.447  1.00  0.00     0.002 C 
BRANCH  23  24
ATOM     24  C   UNL     1       2.546   8.019  -8.401  1.00  0.00     0.021 C 
BRANCH  24  25
ATOM     25  C   UNL     1       3.581   8.949  -7.769  1.00  0.00     0.116 C 
BRANCH  25  26
ATOM     26  N   UNL     1       4.073   9.880  -8.769  1.00  0.00    -0.352 N 
ATOM     27  C   UNL     1       5.036  10.846  -8.725  1.00  0.00     0.251 C 
ATOM     28  H   UNL     1       3.629   9.799  -9.644  1.00  0.00     0.163 HD
ATOM     29  O   UNL     1       5.018  11.724  -9.586  1.00  0.00    -0.269 OA
BRANCH  27  30
ATOM     30  C   UNL     1       6.085  10.885  -7.687  1.00  0.00     0.039 A 
ATOM     31  C   UNL     1       6.559  12.151  -7.311  1.00  0.00     0.014 A 
ATOM     32  C   UNL     1       6.684   9.733  -7.168  1.00  0.00     0.014 A 
ATOM     33  C   UNL     1       7.586  12.269  -6.383  1.00  0.00     0.010 A 
ATOM     34  C   UNL     1       7.697   9.844  -6.219  1.00  0.00     0.010 A 
ATOM     35  C   UNL     1       8.131  11.113  -5.815  1.00  0.00    -0.014 A 
BRANCH  35  36
ATOM     36  C   UNL     1       9.016  11.255  -4.638  1.00  0.00     0.031 A 
ATOM     37  C   UNL     1       8.202  11.438  -3.338  1.00  0.00     0.074 A 
ATOM     38  C   UNL     1      10.363  11.197  -4.870  1.00  0.00     0.049 A 
ATOM     39  N   UNL     1       8.569  11.883  -2.175  1.00  0.00    -0.248 NA
ATOM     40  C   UNL     1       6.749  11.099  -3.337  1.00  0.00     0.031 C 
ATOM     41  C   UNL     1      10.972  10.973  -6.198  1.00  0.00     0.029 A 
ATOM     42  N   UNL     1      11.487  11.308  -4.071  1.00  0.00    -0.354 N 
ATOM     43  C   UNL     1       7.495  11.672  -1.278  1.00  0.00     0.074 A 
ATOM     44  C   UNL     1       6.370  11.294  -2.073  1.00  0.00     0.031 C 
ATOM     45  C   UNL     1      12.319  11.036  -6.131  1.00  0.00     0.029 A 
ATOM     46  C   UNL     1      12.731  11.284  -4.764  1.00  0.00     0.049 A 
ATOM     47  H   UNL     1      11.431  11.398  -3.092  1.00  0.00     0.167 HD
ATOM     48  C   UNL     1       7.649  11.674   0.079  1.00  0.00     0.037 A 
ATOM     49  C   UNL     1      13.999  11.476  -4.277  1.00  0.00     0.037 A 
ATOM     50  C   UNL     1       8.981  12.045   0.409  1.00  0.00     0.049 A 
ATOM     51  C   UNL     1      13.849  11.470  -2.817  1.00  0.00     0.074 A 
ATOM     52  C   UNL     1       9.652  13.235   0.326  1.00  0.00     0.029 A 
ATOM     53  N   UNL     1       9.883  11.025   0.572  1.00  0.00    -0.354 N 
ATOM     54  N   UNL     1      13.636  10.401  -2.111  1.00  0.00    -0.248 NA
ATOM     55  C   UNL     1      13.887  12.745  -2.092  1.00  0.00     0.031 C 
ATOM     56  C   UNL     1      10.958  12.847  -0.029  1.00  0.00     0.029 A 
ATOM     57  C   UNL     1      11.076  11.455   0.056  1.00  0.00     0.049 A 
ATOM     58  H   UNL     1       9.706  10.148   0.982  1.00  0.00     0.167 HD
ATOM     59  C   UNL     1      13.173  10.929  -0.932  1.00  0.00     0.074 A 
ATOM     60  C   UNL     1      13.661  12.289  -0.863  1.00  0.00     0.031 C 
ATOM     61  C   UNL     1      12.006  10.462  -0.423  1.00  0.00     0.037 A 
BRANCH  48  62
ATOM     62  C   UNL     1       6.806  11.126   1.202  1.00  0.00     0.064 A 
ATOM     63  C   UNL     1       7.135  11.514   2.528  1.00  0.00     0.173 A 
ATOM     64  C   UNL     1       6.004   9.985   1.077  1.00  0.00     0.173 A 
ATOM     65  F   UNL     1       7.851  12.626   2.762  1.00  0.00    -0.203 F 
ATOM     66  C   UNL     1       6.830  10.718   3.630  1.00  0.00     0.198 A 
ATOM     67  C   UNL     1       5.653   9.218   2.193  1.00  0.00     0.198 A 
ATOM     68  F   UNL     1       5.633   9.525  -0.124  1.00  0.00    -0.203 F 
ATOM     69  F   UNL     1       7.309  11.040   4.840  1.00  0.00    -0.200 F 
ATOM     70  C   UNL     1       6.107   9.556   3.458  1.00  0.00     0.200 A 
ATOM     71  F   UNL     1       4.939   8.096   2.026  1.00  0.00    -0.200 F 
ATOM     72  F   UNL     1       5.881   8.743   4.498  1.00  0.00    -0.200 F 
ENDBRANCH  48  62
BRANCH  49  73
ATOM     73  C   UNL     1      15.411  11.706  -4.784  1.00  0.00     0.064 A 
ATOM     74  C   UNL     1      15.824  11.693  -6.121  1.00  0.00     0.173 A 
ATOM     75  C   UNL     1      16.442  12.079  -3.868  1.00  0.00     0.173 A 
ATOM     76  F   UNL     1      15.016  11.257  -7.091  1.00  0.00    -0.203 F 
ATOM     77  C   UNL     1      17.106  12.129  -6.512  1.00  0.00     0.198 A 
ATOM     78  C   UNL     1      17.690  12.564  -4.257  1.00  0.00     0.198 A 
ATOM     79  F   UNL     1      16.274  11.998  -2.541  1.00  0.00    -0.203 F 
ATOM     80  F   UNL     1      17.448  12.105  -7.808  1.00  0.00    -0.200 F 
ATOM     81  C   UNL     1      18.019  12.606  -5.587  1.00  0.00     0.200 A 
ATOM     82  F   UNL     1      18.549  13.008  -3.327  1.00  0.00    -0.200 F 
ATOM     83  F   UNL     1      19.206  13.092  -5.972  1.00  0.00    -0.200 F 
ENDBRANCH  49  73
BRANCH  61  84
ATOM     84  C   UNL     1      11.683   9.037  -0.835  1.00  0.00     0.064 A 
ATOM     85  C   UNL     1      12.552   7.994  -0.477  1.00  0.00     0.173 A 
ATOM     86  C   UNL     1      10.617   8.683  -1.680  1.00  0.00     0.173 A 
ATOM     87  F   UNL     1      13.584   8.239   0.346  1.00  0.00    -0.203 F 
ATOM     88  C   UNL     1      12.378   6.692  -0.955  1.00  0.00     0.198 A 
ATOM     89  C   UNL     1      10.437   7.382  -2.156  1.00  0.00     0.198 A 
ATOM     90  F   UNL     1       9.721   9.591  -2.059  1.00  0.00    -0.203 F 
ATOM     91  F   UNL     1      13.235   5.728  -0.591  1.00  0.00    -0.200 F 
ATOM     92  C   UNL     1      11.323   6.387  -1.798  1.00  0.00     0.200 A 
ATOM     93  F   UNL     1       9.397   7.099  -2.957  1.00  0.00    -0.200 F 
ATOM     94  F   UNL     1      11.151   5.136  -2.248  1.00  0.00    -0.200 F 
ENDBRANCH  61  84
ENDBRANCH  35  36
ENDBRANCH  27  30
ENDBRANCH  25  26
ENDBRANCH  24  25
ENDBRANCH  23  24
ENDBRANCH  22  23
ENDBRANCH   1  22
TORSDOF 18
