REMARK SMILES Cc1ccc(C(=O)N[C@@H](CC(=O)NCCCCCCNC(=O)c2ccc(-c3c4nc(c(-c5c(F)c(F)c(F)c(F)c5F)c5ccc([nH]5)c(-c5c(F)c(F)c(F)c(F)c5F)c5nc(c(-c6c(F)c(F)c(F)c(F)c6F)c6ccc3[nH]6)C=C5)C=C4)cc2)c2cccs2)o1
REMARK SMILES IDX 16 1 15 2 14 3 13 4 11 5 12 6 10 8 9 9 8 10 6 11 7 12 5 14
REMARK SMILES IDX 1 15 2 16 3 17 91 18 4 19 86 20 87 21 90 22 88 23 89 24
REMARK SMILES IDX 17 25 18 26 19 27 20 28 21 29 22 31 23 32 24 33 85 34 25 35
REMARK SMILES IDX 84 36 26 37 27 38 28 39 78 40 29 41 83 42 77 43 79 44 30 45
REMARK SMILES IDX 82 46 76 47 75 48 31 50 63 51 43 52 62 53 44 54 47 55 61 56
REMARK SMILES IDX 80 57 45 58 46 59 60 61 81 62 48 63 32 64 33 65 41 66 34 67
REMARK SMILES IDX 35 68 39 69 42 70 36 71 37 72 40 73 38 74 64 75 65 76 73 77
REMARK SMILES IDX 66 78 67 79 71 80 74 81 68 82 69 83 72 84 70 85 49 86 50 87
REMARK SMILES IDX 58 88 51 89 52 90 56 91 59 92 53 93 54 94 57 95 55 96
REMARK H PARENT 13 7 8 13 20 30 79 49 47 60
REMARK Flexibility Score: inf
ROOT
ATOM      1  C   UNL     1      -6.387   4.515   0.435  1.00  0.00     0.002 C 
ENDROOT
BRANCH   1   2
ATOM      2  C   UNL     1      -5.276   3.464   0.370  1.00  0.00     0.021 C 
BRANCH   2   3
ATOM      3  C   UNL     1      -5.226   2.535   1.583  1.00  0.00     0.116 C 
BRANCH   3   4
ATOM      4  N   UNL     1      -6.303   1.567   1.520  1.00  0.00    -0.356 N 
ATOM      5  C   UNL     1      -6.262   0.227   1.296  1.00  0.00     0.222 C 
ATOM      6  O   UNL     1      -7.330  -0.384   1.222  1.00  0.00    -0.275 OA
ATOM      7  H   UNL     1      -7.204   1.938   1.662  1.00  0.00     0.163 HD
BRANCH   5   8
ATOM      8  C   UNL     1      -4.941  -0.507   1.210  1.00  0.00     0.130 C 
BRANCH   8   9
ATOM      9  C   UNL     1      -4.226  -0.523  -0.145  1.00  0.00     0.132 C 
BRANCH   9  10
ATOM     10  N   UNL     1      -3.470   0.685  -0.418  1.00  0.00    -0.341 N 
ATOM     11  C   UNL     1      -2.159   1.057  -0.298  1.00  0.00     0.287 C 
ATOM     12  O   UNL     1      -1.970   2.275  -0.393  1.00  0.00    -0.266 OA
ATOM     13  H   UNL     1      -4.034   1.409  -0.773  1.00  0.00     0.164 HD
BRANCH  11  14
ATOM     14  C   UNL     1      -1.075   0.110  -0.115  1.00  0.00     0.191 A 
ATOM     15  C   UNL     1       2.509   0.070   0.119  1.00  0.00     0.087 C 
ATOM     16  C   UNL     1       1.092  -0.338   0.065  1.00  0.00     0.101 A 
ATOM     17  C   UNL     1       0.454  -1.553   0.020  1.00  0.00     0.046 A 
ATOM     18  O   UNL     1       0.180   0.665   0.013  1.00  0.00    -0.456 OA
ATOM     19  C   UNL     1      -0.931  -1.267  -0.104  1.00  0.00     0.056 A 
ENDBRANCH  11  14
ENDBRANCH   9  10
BRANCH   9  20
ATOM     20  C   UNL     1      -5.100  -0.826  -1.339  1.00  0.00     0.027 A 
ATOM     21  C   UNL     1      -5.303  -2.056  -1.938  1.00  0.00     0.017 A 
ATOM     22  S   UNL     1      -5.949   0.410  -2.184  1.00  0.00    -0.147 S 
ATOM     23  C   UNL     1      -6.114  -1.971  -3.107  1.00  0.00     0.012 A 
ATOM     24  C   UNL     1      -6.525  -0.683  -3.358  1.00  0.00     0.065 A 
ENDBRANCH   9  20
ENDBRANCH   8   9
ENDBRANCH   5   8
ENDBRANCH   3   4
ENDBRANCH   2   3
ENDBRANCH   1   2
BRANCH   1  25
ATOM     25  C   UNL     1      -6.248   5.515   1.584  1.00  0.00     0.002 C 
BRANCH  25  26
ATOM     26  C   UNL     1      -4.890   6.218   1.658  1.00  0.00     0.021 C 
BRANCH  26  27
ATOM     27  C   UNL     1      -4.480   6.931   0.374  1.00  0.00     0.116 C 
BRANCH  27  28
ATOM     28  N   UNL     1      -5.426   7.978   0.017  1.00  0.00    -0.352 N 
ATOM     29  C   UNL     1      -5.217   9.326  -0.104  1.00  0.00     0.251 C 
ATOM     30  H   UNL     1      -6.345   7.675  -0.163  1.00  0.00     0.163 HD
ATOM     31  O   UNL     1      -6.169  10.101  -0.169  1.00  0.00    -0.269 OA
BRANCH  29  32
ATOM     32  C   UNL     1      -3.838   9.850  -0.146  1.00  0.00     0.039 A 
ATOM     33  C   UNL     1      -3.515  10.974   0.616  1.00  0.00     0.014 A 
ATOM     34  C   UNL     1      -2.869   9.234  -0.945  1.00  0.00     0.014 A 
ATOM     35  C   UNL     1      -2.204  11.451   0.618  1.00  0.00     0.010 A 
ATOM     36  C   UNL     1      -1.547   9.664  -0.882  1.00  0.00     0.010 A 
ATOM     37  C   UNL     1      -1.203  10.781  -0.107  1.00  0.00    -0.014 A 
BRANCH  37  38
ATOM     38  C   UNL     1       0.208  11.240  -0.069  1.00  0.00     0.031 A 
ATOM     39  C   UNL     1       0.874  11.737  -1.321  1.00  0.00     0.074 A 
ATOM     40  C   UNL     1       0.902  11.158   1.082  1.00  0.00     0.049 A 
ATOM     41  N   UNL     1       2.111  12.124  -1.504  1.00  0.00    -0.248 NA
ATOM     42  C   UNL     1       0.046  11.783  -2.538  1.00  0.00     0.031 C 
ATOM     43  C   UNL     1       0.379  10.650   2.351  1.00  0.00     0.029 A 
ATOM     44  N   UNL     1       2.203  11.491   1.370  1.00  0.00    -0.354 N 
ATOM     45  C   UNL     1       2.210  12.450  -2.850  1.00  0.00     0.074 A 
ATOM     46  C   UNL     1       0.927  12.161  -3.452  1.00  0.00     0.031 C 
ATOM     47  C   UNL     1       1.340  10.723   3.285  1.00  0.00     0.029 A 
ATOM     48  C   UNL     1       2.560  11.241   2.672  1.00  0.00     0.049 A 
ATOM     49  H   UNL     1       2.821  11.871   0.705  1.00  0.00     0.167 HD
ATOM     50  C   UNL     1       3.268  12.969  -3.517  1.00  0.00     0.037 A 
ATOM     51  C   UNL     1       3.741  11.401   3.298  1.00  0.00     0.037 A 
ATOM     52  C   UNL     1       4.539  13.268  -2.910  1.00  0.00     0.049 A 
ATOM     53  C   UNL     1       4.908  11.959   2.526  1.00  0.00     0.074 A 
ATOM     54  C   UNL     1       5.660  13.837  -3.489  1.00  0.00     0.029 A 
ATOM     55  N   UNL     1       4.859  13.014  -1.584  1.00  0.00    -0.354 N 
ATOM     56  N   UNL     1       4.970  12.329   1.270  1.00  0.00    -0.248 NA
ATOM     57  C   UNL     1       6.168  12.129   3.263  1.00  0.00     0.031 C 
ATOM     58  C   UNL     1       6.675  13.879  -2.528  1.00  0.00     0.029 A 
ATOM     59  C   UNL     1       6.168  13.394  -1.333  1.00  0.00     0.049 A 
ATOM     60  H   UNL     1       4.247  12.622  -0.920  1.00  0.00     0.167 HD
ATOM     61  C   UNL     1       6.260  12.803   1.074  1.00  0.00     0.074 A 
ATOM     62  C   UNL     1       6.942  12.691   2.346  1.00  0.00     0.031 C 
ATOM     63  C   UNL     1       6.829  13.286  -0.057  1.00  0.00     0.037 A 
BRANCH  50  64
ATOM     64  C   UNL     1       3.097  13.255  -4.982  1.00  0.00     0.064 A 
ATOM     65  C   UNL     1       2.259  14.286  -5.436  1.00  0.00     0.173 A 
ATOM     66  C   UNL     1       3.815  12.525  -5.941  1.00  0.00     0.173 A 
ATOM     67  F   UNL     1       1.542  15.009  -4.562  1.00  0.00    -0.203 F 
ATOM     68  C   UNL     1       2.126  14.556  -6.796  1.00  0.00     0.198 A 
ATOM     69  C   UNL     1       3.705  12.820  -7.297  1.00  0.00     0.198 A 
ATOM     70  F   UNL     1       4.635  11.534  -5.562  1.00  0.00    -0.203 F 
ATOM     71  F   UNL     1       1.284  15.514  -7.208  1.00  0.00    -0.200 F 
ATOM     72  C   UNL     1       2.856  13.829  -7.724  1.00  0.00     0.200 A 
ATOM     73  F   UNL     1       4.423  12.127  -8.192  1.00  0.00    -0.200 F 
ATOM     74  F   UNL     1       2.737  14.099  -9.031  1.00  0.00    -0.200 F 
ENDBRANCH  50  64
BRANCH  51  75
ATOM     75  C   UNL     1       3.881  11.038   4.734  1.00  0.00     0.064 A 
ATOM     76  C   UNL     1       4.106  12.020   5.709  1.00  0.00     0.173 A 
ATOM     77  C   UNL     1       3.814   9.703   5.158  1.00  0.00     0.173 A 
ATOM     78  F   UNL     1       4.198  13.310   5.351  1.00  0.00    -0.203 F 
ATOM     79  C   UNL     1       4.289  11.678   7.047  1.00  0.00     0.198 A 
ATOM     80  C   UNL     1       3.963   9.366   6.502  1.00  0.00     0.198 A 
ATOM     81  F   UNL     1       3.595   8.724   4.268  1.00  0.00    -0.203 F 
ATOM     82  F   UNL     1       4.561  12.632   7.948  1.00  0.00    -0.200 F 
ATOM     83  C   UNL     1       4.212  10.352   7.443  1.00  0.00     0.200 A 
ATOM     84  F   UNL     1       3.872   8.084   6.883  1.00  0.00    -0.200 F 
ATOM     85  F   UNL     1       4.389  10.024   8.730  1.00  0.00    -0.200 F 
ENDBRANCH  51  75
BRANCH  63  86
ATOM     86  C   UNL     1       8.248  13.771   0.038  1.00  0.00     0.064 A 
ATOM     87  C   UNL     1       9.322  12.887   0.214  1.00  0.00     0.173 A 
ATOM     88  C   UNL     1       8.538  15.139  -0.089  1.00  0.00     0.173 A 
ATOM     89  F   UNL     1       9.098  11.571   0.356  1.00  0.00    -0.203 F 
ATOM     90  C   UNL     1      10.631  13.356   0.290  1.00  0.00     0.198 A 
ATOM     91  C   UNL     1       9.850  15.601  -0.048  1.00  0.00     0.198 A 
ATOM     92  F   UNL     1       7.549  16.027  -0.268  1.00  0.00    -0.203 F 
ATOM     93  F   UNL     1      11.636  12.498   0.514  1.00  0.00    -0.200 F 
ATOM     94  C   UNL     1      10.894  14.710   0.151  1.00  0.00     0.200 A 
ATOM     95  F   UNL     1      10.104  16.908  -0.201  1.00  0.00    -0.200 F 
ATOM     96  F   UNL     1      12.155  15.159   0.215  1.00  0.00    -0.200 F 
ENDBRANCH  63  86
ENDBRANCH  37  38
ENDBRANCH  29  32
ENDBRANCH  27  28
ENDBRANCH  26  27
ENDBRANCH  25  26
ENDBRANCH   1  25
TORSDOF 17
