REMARK SMILES Cc1ccc(C(=O)NCCCCCCNC(=O)c2ccc(-c3c4nc(c(-c5c(F)c(F)c(F)c(F)c5F)c5ccc([nH]5)c(-c5c(F)c(F)c(F)c(F)c5F)c5nc(c(-c6c(F)c(F)c(F)c(F)c6F)c6ccc3[nH]6)C=C5)C=C4)cc2)c2c1N[C@H](c1ccccc1F)[C@H]1CC=C[C@@H]21
REMARK SMILES IDX 12 1 11 2 10 3 9 4 8 5 6 6 7 7 5 9 1 10 2 11 3 12 82 13 4 14
REMARK SMILES IDX 81 15 83 16 96 17 84 18 92 20 95 21 93 22 94 23 85 24 86 25
REMARK SMILES IDX 90 26 87 27 89 28 91 29 88 30 13 31 14 32 15 33 16 34 17 36
REMARK SMILES IDX 18 37 19 38 80 39 20 40 79 41 21 42 22 43 23 44 73 45 24 46
REMARK SMILES IDX 78 47 72 48 74 49 25 50 77 51 71 52 70 53 26 55 58 56 38 57
REMARK SMILES IDX 57 58 39 59 42 60 56 61 75 62 40 63 41 64 55 66 76 67 43 68
REMARK SMILES IDX 27 69 28 70 36 71 29 72 30 73 34 74 37 75 31 76 32 77 35 78
REMARK SMILES IDX 33 79 59 80 60 81 68 82 61 83 62 84 66 85 69 86 63 87 64 88
REMARK SMILES IDX 67 89 65 90 44 91 45 92 53 93 46 94 47 95 51 96 54 97 48 98
REMARK SMILES IDX 49 99 52 100 50 101
REMARK H PARENT 8 8 83 19 15 35 74 54 42 65
REMARK Flexibility Score: inf
ROOT
ATOM      1  C   UNL     1       1.091  -7.556   5.784  1.00  0.00     0.002 C 
ENDROOT
BRANCH   1   2
ATOM      2  C   UNL     1       1.700  -6.162   5.983  1.00  0.00     0.002 C 
BRANCH   2   3
ATOM      3  C   UNL     1       1.794  -5.316   4.701  1.00  0.00     0.021 C 
BRANCH   3   4
ATOM      4  C   UNL     1       0.430  -5.077   4.044  1.00  0.00     0.116 C 
BRANCH   4   5
ATOM      5  N   UNL     1      -0.286  -4.080   4.806  1.00  0.00    -0.352 N 
ATOM      6  C   UNL     1      -0.360  -2.713   4.771  1.00  0.00     0.251 C 
ATOM      7  O   UNL     1      -0.785  -2.221   5.816  1.00  0.00    -0.269 OA
ATOM      8  H   UNL     1      -0.850  -4.473   5.511  1.00  0.00     0.163 HD
BRANCH   6   9
ATOM      9  C   UNL     1      -0.010  -1.853   3.579  1.00  0.00     0.045 A 
ATOM     10  C   UNL     1       0.905   0.404  -0.018  1.00  0.00     0.046 C 
ATOM     11  C   UNL     1       0.594  -0.290   1.283  1.00  0.00    -0.028 A 
ATOM     12  C   UNL     1       1.190  -1.537   1.485  1.00  0.00     0.006 A 
ATOM     13  C   UNL     1      -0.253   0.239   2.279  1.00  0.00     0.042 A 
ATOM     14  C   UNL     1       0.930  -2.277   2.636  1.00  0.00     0.014 A 
ATOM     15  C   UNL     1      -0.595  -0.559   3.406  1.00  0.00    -0.005 A 
ATOM     16  N   UNL     1      -0.772   1.515   2.132  1.00  0.00    -0.377 N 
ATOM     17  C   UNL     1      -1.513   0.035   4.458  1.00  0.00     0.050 C 
ATOM     18  C   UNL     1      -1.941   1.962   2.872  1.00  0.00     0.117 C 
ATOM     19  H   UNL     1      -0.336   2.139   1.508  1.00  0.00     0.161 HD
ATOM     20  C   UNL     1      -1.807   1.543   4.341  1.00  0.00     0.031 C 
ATOM     21  C   UNL     1      -2.907  -0.540   4.512  1.00  0.00    -0.023 C 
ATOM     22  C   UNL     1      -3.135   1.708   5.105  1.00  0.00     0.034 C 
ATOM     23  C   UNL     1      -3.797   0.384   4.894  1.00  0.00    -0.030 C 
BRANCH  18  24
ATOM     24  C   UNL     1      -2.154   3.445   2.588  1.00  0.00     0.010 A 
ATOM     25  C   UNL     1      -2.576   3.821   1.296  1.00  0.00     0.009 A 
ATOM     26  C   UNL     1      -1.973   4.469   3.526  1.00  0.00     0.128 A 
ATOM     27  C   UNL     1      -2.826   5.158   0.975  1.00  0.00     0.001 A 
ATOM     28  C   UNL     1      -2.229   5.804   3.213  1.00  0.00     0.039 A 
ATOM     29  F   UNL     1      -1.566   4.207   4.775  1.00  0.00    -0.207 F 
ATOM     30  C   UNL     1      -2.660   6.150   1.937  1.00  0.00     0.003 A 
ENDBRANCH  18  24
ENDBRANCH   6   9
ENDBRANCH   4   5
ENDBRANCH   3   4
ENDBRANCH   2   3
ENDBRANCH   1   2
BRANCH   1  31
ATOM     31  C   UNL     1       1.732  -8.365   4.655  1.00  0.00     0.021 C 
BRANCH  31  32
ATOM     32  C   UNL     1       3.215  -8.637   4.876  1.00  0.00     0.116 C 
BRANCH  32  33
ATOM     33  N   UNL     1       3.417  -9.533   6.003  1.00  0.00    -0.352 N 
ATOM     34  C   UNL     1       3.960 -10.793   5.996  1.00  0.00     0.251 C 
ATOM     35  H   UNL     1       3.127  -9.194   6.881  1.00  0.00     0.163 HD
ATOM     36  O   UNL     1       3.831 -11.546   6.950  1.00  0.00    -0.269 OA
BRANCH  34  37
ATOM     37  C   UNL     1       4.713 -11.223   4.804  1.00  0.00     0.039 A 
ATOM     38  C   UNL     1       4.408 -12.445   4.205  1.00  0.00     0.014 A 
ATOM     39  C   UNL     1       5.714 -10.396   4.283  1.00  0.00     0.014 A 
ATOM     40  C   UNL     1       5.091 -12.829   3.051  1.00  0.00     0.010 A 
ATOM     41  C   UNL     1       6.353 -10.752   3.103  1.00  0.00     0.010 A 
ATOM     42  C   UNL     1       6.058 -11.979   2.490  1.00  0.00    -0.014 A 
BRANCH  42  43
ATOM     43  C   UNL     1       6.829 -12.381   1.293  1.00  0.00     0.031 A 
ATOM     44  C   UNL     1       8.287 -12.704   1.437  1.00  0.00     0.074 A 
ATOM     45  C   UNL     1       6.234 -12.408   0.087  1.00  0.00     0.049 A 
ATOM     46  N   UNL     1       9.161 -13.012   0.514  1.00  0.00    -0.248 NA
ATOM     47  C   UNL     1       8.842 -12.657   2.800  1.00  0.00     0.031 C 
ATOM     48  C   UNL     1       4.828 -12.097  -0.168  1.00  0.00     0.029 A 
ATOM     49  N   UNL     1       6.744 -12.702  -1.152  1.00  0.00    -0.354 N 
ATOM     50  C   UNL     1      10.362 -13.198   1.185  1.00  0.00     0.074 A 
ATOM     51  C   UNL     1      10.123 -12.908   2.581  1.00  0.00     0.031 C 
ATOM     52  C   UNL     1       4.582 -12.232  -1.482  1.00  0.00     0.029 A 
ATOM     53  C   UNL     1       5.820 -12.604  -2.163  1.00  0.00     0.049 A 
ATOM     54  H   UNL     1       7.682 -12.958  -1.302  1.00  0.00     0.167 HD
ATOM     55  C   UNL     1      11.550 -13.604   0.681  1.00  0.00     0.037 A 
ATOM     56  C   UNL     1       5.963 -12.791  -3.489  1.00  0.00     0.037 A 
ATOM     57  C   UNL     1      11.777 -13.897  -0.709  1.00  0.00     0.049 A 
ATOM     58  C   UNL     1       7.311 -13.189  -4.031  1.00  0.00     0.074 A 
ATOM     59  C   UNL     1      12.938 -14.340  -1.317  1.00  0.00     0.029 A 
ATOM     60  N   UNL     1      10.822 -13.773  -1.708  1.00  0.00    -0.354 N 
ATOM     61  N   UNL     1       8.431 -13.408  -3.385  1.00  0.00    -0.248 NA
ATOM     62  C   UNL     1       7.413 -13.370  -5.485  1.00  0.00     0.031 C 
ATOM     63  C   UNL     1      12.700 -14.434  -2.691  1.00  0.00     0.029 A 
ATOM     64  C   UNL     1      11.375 -14.108  -2.932  1.00  0.00     0.049 A 
ATOM     65  H   UNL     1       9.890 -13.488  -1.567  1.00  0.00     0.167 HD
ATOM     66  C   UNL     1       9.361 -13.781  -4.346  1.00  0.00     0.074 A 
ATOM     67  C   UNL     1       8.670 -13.772  -5.619  1.00  0.00     0.031 C 
ATOM     68  C   UNL     1      10.669 -14.102  -4.189  1.00  0.00     0.037 A 
BRANCH  55  69
ATOM     69  C   UNL     1      12.693 -13.770   1.638  1.00  0.00     0.064 A 
ATOM     70  C   UNL     1      12.714 -14.810   2.580  1.00  0.00     0.173 A 
ATOM     71  C   UNL     1      13.807 -12.919   1.575  1.00  0.00     0.173 A 
ATOM     72  F   UNL     1      11.667 -15.642   2.690  1.00  0.00    -0.203 F 
ATOM     73  C   UNL     1      13.801 -14.984   3.432  1.00  0.00     0.198 A 
ATOM     74  C   UNL     1      14.905 -13.115   2.409  1.00  0.00     0.198 A 
ATOM     75  F   UNL     1      13.838 -11.909   0.693  1.00  0.00    -0.203 F 
ATOM     76  F   UNL     1      13.782 -15.962   4.348  1.00  0.00    -0.200 F 
ATOM     77  C   UNL     1      14.900 -14.143   3.338  1.00  0.00     0.200 A 
ATOM     78  F   UNL     1      15.972 -12.310   2.307  1.00  0.00    -0.200 F 
ATOM     79  F   UNL     1      15.953 -14.324   4.146  1.00  0.00    -0.200 F 
ENDBRANCH  55  69
BRANCH  56  80
ATOM     80  C   UNL     1       4.790 -12.638  -4.388  1.00  0.00     0.064 A 
ATOM     81  C   UNL     1       4.226 -13.752  -5.026  1.00  0.00     0.173 A 
ATOM     82  C   UNL     1       4.199 -11.387  -4.618  1.00  0.00     0.173 A 
ATOM     83  F   UNL     1       4.768 -14.967  -4.853  1.00  0.00    -0.203 F 
ATOM     84  C   UNL     1       3.125 -13.619  -5.869  1.00  0.00     0.198 A 
ATOM     85  C   UNL     1       3.080 -11.259  -5.439  1.00  0.00     0.198 A 
ATOM     86  F   UNL     1       4.698 -10.290  -4.030  1.00  0.00    -0.203 F 
ATOM     87  F   UNL     1       2.630 -14.695  -6.495  1.00  0.00    -0.200 F 
ATOM     88  C   UNL     1       2.548 -12.374  -6.069  1.00  0.00     0.200 A 
ATOM     89  F   UNL     1       2.517 -10.057  -5.617  1.00  0.00    -0.200 F 
ATOM     90  F   UNL     1       1.482 -12.248  -6.870  1.00  0.00    -0.200 F 
ENDBRANCH  56  80
BRANCH  68  91
ATOM     91  C   UNL     1      11.441 -14.498  -5.415  1.00  0.00     0.064 A 
ATOM     92  C   UNL     1      11.798 -13.560  -6.394  1.00  0.00     0.173 A 
ATOM     93  C   UNL     1      11.894 -15.818  -5.573  1.00  0.00     0.173 A 
ATOM     94  F   UNL     1      11.381 -12.289  -6.295  1.00  0.00    -0.203 F 
ATOM     95  C   UNL     1      12.564 -13.932  -7.495  1.00  0.00     0.198 A 
ATOM     96  C   UNL     1      12.687 -16.178  -6.657  1.00  0.00     0.198 A 
ATOM     97  F   UNL     1      11.589 -16.751  -4.659  1.00  0.00    -0.203 F 
ATOM     98  F   UNL     1      12.859 -13.028  -8.439  1.00  0.00    -0.200 F 
ATOM     99  C   UNL     1      13.017 -15.237  -7.621  1.00  0.00     0.200 A 
ATOM    100  F   UNL     1      13.140 -17.435  -6.766  1.00  0.00    -0.200 F 
ATOM    101  F   UNL     1      13.769 -15.588  -8.672  1.00  0.00    -0.200 F 
ENDBRANCH  68  91
ENDBRANCH  42  43
ENDBRANCH  34  37
ENDBRANCH  32  33
ENDBRANCH  31  32
ENDBRANCH   1  31
TORSDOF 14
