REMARK SMILES O=C(NCCCCCCNC(=O)[C@H](c1ccc(O)cc1)[NH+]1CC[NH+](Cc2cccc(Cl)c2)CC1)c1ccc(-c2c3nc(c(-c4c(F)c(F)c(F)c(F)c4F)c4ccc([nH]4)c(-c4c(F)c(F)c(F)c(F)c4F)c4nc(c(-c5c(F)c(F)c(F)c(F)c5F)c5ccc2[nH]5)C=C4)C=C3)cc1
REMARK SMILES IDX 7 1 6 2 5 3 4 4 3 5 1 6 2 7 35 9 36 10 97 11 37 12 96 13
REMARK SMILES IDX 38 14 39 15 40 16 90 17 41 18 95 19 89 20 91 21 42 22 94 23
REMARK SMILES IDX 88 24 87 25 43 27 75 28 55 29 74 30 56 31 59 32 73 33 92 34
REMARK SMILES IDX 57 35 58 36 72 38 93 39 60 40 44 41 45 42 53 43 46 44 47 45
REMARK SMILES IDX 51 46 54 47 48 48 49 49 52 50 50 51 76 52 77 53 85 54 78 55
REMARK SMILES IDX 79 56 83 57 86 58 80 59 81 60 84 61 82 62 61 63 62 64 70 65
REMARK SMILES IDX 63 66 64 67 68 68 71 69 65 70 66 71 69 72 67 73 8 74 9 75
REMARK SMILES IDX 10 76 11 77 12 79 13 80 21 81 22 82 34 83 23 85 33 86 24 87
REMARK SMILES IDX 25 89 26 90 27 91 32 92 28 93 30 94 29 95 31 96 14 97 15 98
REMARK SMILES IDX 20 99 16 100 19 101 17 102 18 103
REMARK H PARENT 3 8 91 26 59 37 10 78 21 84 24 88 18 104
REMARK Flexibility Score: inf
ROOT
ATOM      1  C   UNL     1       7.578  -8.653  -0.944  1.00  0.00     0.002 C 
ENDROOT
BRANCH   1   2
ATOM      2  C   UNL     1       8.678  -9.509  -1.579  1.00  0.00     0.002 C 
BRANCH   2   3
ATOM      3  C   UNL     1       8.552 -11.008  -1.328  1.00  0.00     0.021 C 
BRANCH   3   4
ATOM      4  C   UNL     1       7.206 -11.591  -1.721  1.00  0.00     0.116 C 
BRANCH   4   5
ATOM      5  N   UNL     1       6.995 -11.558  -3.157  1.00  0.00    -0.352 N 
ATOM      6  O   UNL     1       6.698 -12.476  -5.205  1.00  0.00    -0.269 OA
ATOM      7  C   UNL     1       6.668 -12.601  -3.985  1.00  0.00     0.251 C 
ATOM      8  H   UNL     1       7.100 -10.680  -3.589  1.00  0.00     0.163 HD
BRANCH   7   9
ATOM      9  C   UNL     1       6.302 -13.896  -3.378  1.00  0.00     0.039 A 
ATOM     10  C   UNL     1       5.375 -13.945  -2.333  1.00  0.00     0.014 A 
ATOM     11  C   UNL     1       6.920 -15.060  -3.837  1.00  0.00     0.014 A 
ATOM     12  C   UNL     1       5.156 -15.141  -1.664  1.00  0.00     0.010 A 
ATOM     13  C   UNL     1       6.633 -16.277  -3.219  1.00  0.00     0.010 A 
ATOM     14  C   UNL     1       5.764 -16.322  -2.116  1.00  0.00    -0.014 A 
BRANCH  14  15
ATOM     15  C   UNL     1       5.422 -17.614  -1.476  1.00  0.00     0.031 A 
ATOM     16  C   UNL     1       6.456 -18.413  -0.741  1.00  0.00     0.074 A 
ATOM     17  C   UNL     1       4.158 -18.064  -1.583  1.00  0.00     0.049 A 
ATOM     18  N   UNL     1       6.343 -19.591  -0.180  1.00  0.00    -0.248 NA
ATOM     19  C   UNL     1       7.796 -17.820  -0.627  1.00  0.00     0.031 C 
ATOM     20  C   UNL     1       3.074 -17.368  -2.280  1.00  0.00     0.029 A 
ATOM     21  N   UNL     1       3.569 -19.208  -1.111  1.00  0.00    -0.354 N 
ATOM     22  C   UNL     1       7.598 -19.891   0.331  1.00  0.00     0.074 A 
ATOM     23  C   UNL     1       8.465 -18.781  -0.004  1.00  0.00     0.031 C 
ATOM     24  C   UNL     1       1.947 -18.084  -2.168  1.00  0.00     0.029 A 
ATOM     25  C   UNL     1       2.244 -19.319  -1.452  1.00  0.00     0.049 A 
ATOM     26  H   UNL     1       4.049 -19.883  -0.579  1.00  0.00     0.167 HD
ATOM     27  C   UNL     1       7.984 -20.994   1.018  1.00  0.00     0.037 A 
ATOM     28  C   UNL     1       1.371 -20.319  -1.239  1.00  0.00     0.037 A 
ATOM     29  C   UNL     1       7.106 -22.086   1.353  1.00  0.00     0.049 A 
ATOM     30  C   UNL     1       1.833 -21.541  -0.502  1.00  0.00     0.074 A 
ATOM     31  C   UNL     1       7.388 -23.233   2.075  1.00  0.00     0.029 A 
ATOM     32  N   UNL     1       5.771 -22.170   0.980  1.00  0.00    -0.354 N 
ATOM     33  N   UNL     1       3.015 -21.804  -0.001  1.00  0.00    -0.248 NA
ATOM     34  C   UNL     1       0.842 -22.605  -0.303  1.00  0.00     0.031 C 
ATOM     35  C   UNL     1       6.239 -24.031   2.098  1.00  0.00     0.029 A 
ATOM     36  C   UNL     1       5.224 -23.359   1.437  1.00  0.00     0.049 A 
ATOM     37  H   UNL     1       5.284 -21.485   0.466  1.00  0.00     0.167 HD
ATOM     38  C   UNL     1       2.908 -23.053   0.592  1.00  0.00     0.074 A 
ATOM     39  C   UNL     1       1.539 -23.489   0.399  1.00  0.00     0.031 C 
ATOM     40  C   UNL     1       3.857 -23.773   1.237  1.00  0.00     0.037 A 
BRANCH  27  41
ATOM     41  C   UNL     1       9.425 -21.087   1.432  1.00  0.00     0.064 A 
ATOM     42  C   UNL     1       9.961 -20.270   2.438  1.00  0.00     0.173 A 
ATOM     43  C   UNL     1      10.274 -22.032   0.835  1.00  0.00     0.173 A 
ATOM     44  F   UNL     1       9.196 -19.342   3.034  1.00  0.00    -0.203 F 
ATOM     45  C   UNL     1      11.299 -20.375   2.811  1.00  0.00     0.198 A 
ATOM     46  C   UNL     1      11.604 -22.154   1.230  1.00  0.00     0.198 A 
ATOM     47  F   UNL     1       9.813 -22.844  -0.128  1.00  0.00    -0.203 F 
ATOM     48  F   UNL     1      11.801 -19.550   3.741  1.00  0.00    -0.200 F 
ATOM     49  C   UNL     1      12.118 -21.320   2.212  1.00  0.00     0.200 A 
ATOM     50  F   UNL     1      12.390 -23.077   0.658  1.00  0.00    -0.200 F 
ATOM     51  F   UNL     1      13.404 -21.422   2.574  1.00  0.00    -0.200 F 
ENDBRANCH  27  41
BRANCH  28  52
ATOM     52  C   UNL     1      -0.020 -20.192  -1.741  1.00  0.00     0.064 A 
ATOM     53  C   UNL     1      -1.091 -20.015  -0.856  1.00  0.00     0.173 A 
ATOM     54  C   UNL     1      -0.300 -20.202  -3.116  1.00  0.00     0.173 A 
ATOM     55  F   UNL     1      -0.872 -20.013   0.467  1.00  0.00    -0.203 F 
ATOM     56  C   UNL     1      -2.393 -19.862  -1.327  1.00  0.00     0.198 A 
ATOM     57  C   UNL     1      -1.598 -20.020  -3.586  1.00  0.00     0.198 A 
ATOM     58  F   UNL     1       0.693 -20.359  -4.003  1.00  0.00    -0.203 F 
ATOM     59  F   UNL     1      -3.404 -19.725  -0.459  1.00  0.00    -0.200 F 
ATOM     60  C   UNL     1      -2.644 -19.856  -2.691  1.00  0.00     0.200 A 
ATOM     61  F   UNL     1      -1.833 -19.995  -4.905  1.00  0.00    -0.200 F 
ATOM     62  F   UNL     1      -3.895 -19.694  -3.143  1.00  0.00    -0.200 F 
ENDBRANCH  28  52
BRANCH  40  63
ATOM     63  C   UNL     1       3.436 -25.092   1.814  1.00  0.00     0.064 A 
ATOM     64  C   UNL     1       3.180 -26.204   1.000  1.00  0.00     0.173 A 
ATOM     65  C   UNL     1       3.321 -25.252   3.203  1.00  0.00     0.173 A 
ATOM     66  F   UNL     1       3.259 -26.096  -0.335  1.00  0.00    -0.203 F 
ATOM     67  C   UNL     1       2.801 -27.424   1.554  1.00  0.00     0.198 A 
ATOM     68  C   UNL     1       2.970 -26.480   3.756  1.00  0.00     0.198 A 
ATOM     69  F   UNL     1       3.559 -24.219   4.025  1.00  0.00    -0.203 F 
ATOM     70  F   UNL     1       2.516 -28.461   0.756  1.00  0.00    -0.200 F 
ATOM     71  C   UNL     1       2.704 -27.562   2.931  1.00  0.00     0.200 A 
ATOM     72  F   UNL     1       2.888 -26.615   5.087  1.00  0.00    -0.200 F 
ATOM     73  F   UNL     1       2.346 -28.739   3.464  1.00  0.00    -0.200 F 
ENDBRANCH  40  63
ENDBRANCH  14  15
ENDBRANCH   7   9
ENDBRANCH   4   5
ENDBRANCH   3   4
ENDBRANCH   2   3
ENDBRANCH   1   2
BRANCH   1  74
ATOM     74  C   UNL     1       7.321  -8.904   0.551  1.00  0.00     0.021 C 
BRANCH  74  75
ATOM     75  C   UNL     1       8.573  -8.853   1.434  1.00  0.00     0.116 C 
BRANCH  75  76
ATOM     76  N   UNL     1       9.317  -7.640   1.183  1.00  0.00    -0.351 N 
ATOM     77  C   UNL     1       9.073  -6.403   1.712  1.00  0.00     0.283 C 
ATOM     78  H   UNL     1      10.081  -7.713   0.567  1.00  0.00     0.163 HD
ATOM     79  O   UNL     1       9.333  -5.452   0.973  1.00  0.00    -0.268 OA
BRANCH  77  80
ATOM     80  C   UNL     1       8.567  -6.293   3.181  1.00  0.00     0.305 C 
BRANCH  80  81
ATOM     81  N   UNL     1       9.059  -5.116   3.931  1.00  0.00    -0.312 N 
ATOM     82  C   UNL     1      10.279  -4.452   3.471  1.00  0.00     0.325 C 
ATOM     83  C   UNL     1       8.135  -4.175   4.558  1.00  0.00     0.325 C 
ATOM     84  H   UNL     1       9.322  -5.719   4.710  1.00  0.00     0.349 HD
ATOM     85  C   UNL     1      10.054  -3.127   2.687  1.00  0.00     0.324 C 
ATOM     86  C   UNL     1       7.894  -2.864   3.771  1.00  0.00     0.324 C 
ATOM     87  N   UNL     1       9.088  -2.180   3.259  1.00  0.00    -0.322 N 
ATOM     88  H   UNL     1       8.750  -1.611   2.483  1.00  0.00     0.348 HD
BRANCH  87  89
ATOM     89  C   UNL     1       9.659  -1.133   4.107  1.00  0.00     0.299 C 
BRANCH  89  90
ATOM     90  C   UNL     1      10.261  -1.588   5.415  1.00  0.00     0.008 A 
ATOM     91  C   UNL     1      11.594  -2.020   5.477  1.00  0.00     0.009 A 
ATOM     92  C   UNL     1       9.466  -1.670   6.567  1.00  0.00     0.030 A 
ATOM     93  C   UNL     1      12.091  -2.623   6.633  1.00  0.00     0.002 A 
ATOM     94  C   UNL     1       9.967  -2.271   7.720  1.00  0.00     0.041 A 
ATOM     95  C   UNL     1      11.269  -2.766   7.750  1.00  0.00     0.020 A 
ATOM     96  Cl  UNL     1       8.948  -2.453   9.093  1.00  0.00    -0.084 Cl
ENDBRANCH  89  90
ENDBRANCH  87  89
ENDBRANCH  80  81
BRANCH  80  97
ATOM     97  C   UNL     1       7.069  -6.560   3.286  1.00  0.00     0.019 A 
ATOM     98  C   UNL     1       6.143  -5.834   2.519  1.00  0.00     0.014 A 
ATOM     99  C   UNL     1       6.590  -7.534   4.182  1.00  0.00     0.014 A 
ATOM    100  C   UNL     1       4.773  -6.063   2.656  1.00  0.00     0.046 A 
ATOM    101  C   UNL     1       5.223  -7.783   4.295  1.00  0.00     0.046 A 
ATOM    102  C   UNL     1       4.326  -7.037   3.542  1.00  0.00     0.115 A 
BRANCH 102 103
ATOM    103  O   UNL     1       2.997  -7.289   3.710  1.00  0.00    -0.508 OA
ATOM    104  H   UNL     1       2.363  -6.805   3.219  1.00  0.00     0.293 HD
ENDBRANCH 102 103
ENDBRANCH  80  97
ENDBRANCH  77  80
ENDBRANCH  75  76
ENDBRANCH  74  75
ENDBRANCH   1  74
TORSDOF 18
