REMARK SMILES C[NH2+][C@]1(C(=O)NCCCCCCNC(=O)c2ccc(-c3c4nc(c(-c5c(F)c(F)c(F)c(F)c5F)c5ccc([nH]5)c(-c5c(F)c(F)c(F)c(F)c5F)c5nc(c(-c6c(F)c(F)c(F)c(F)c6F)c6ccc3[nH]6)C=C5)C=C4)cc2)CC[C@@H](OCCCc2ccccc2)C1
REMARK SMILES IDX 8 1 7 2 6 3 4 4 5 5 3 7 79 8 92 9 80 10 81 11 2 12 1 13
REMARK SMILES IDX 82 16 83 17 84 18 85 19 86 20 87 21 91 22 88 23 90 24 89 25
REMARK SMILES IDX 9 26 10 27 11 28 12 29 13 30 14 31 15 33 16 34 17 35 78 36
REMARK SMILES IDX 18 37 77 38 19 39 20 40 21 41 71 42 22 43 76 44 70 45 72 46
REMARK SMILES IDX 23 47 75 48 69 49 68 50 24 52 56 53 36 54 55 55 37 56 40 57
REMARK SMILES IDX 54 58 73 59 38 60 39 61 53 63 74 64 41 65 25 66 26 67 34 68
REMARK SMILES IDX 27 69 28 70 32 71 35 72 29 73 30 74 33 75 31 76 57 77 58 78
REMARK SMILES IDX 66 79 59 80 60 81 64 82 67 83 61 84 62 85 65 86 63 87 42 88
REMARK SMILES IDX 43 89 51 90 44 91 45 92 49 93 52 94 46 95 47 96 50 97 48 98
REMARK H PARENT 6 6 2 14 2 15 13 32 72 51 40 62
REMARK Flexibility Score: inf
ROOT
ATOM      1  C   UNL     1       1.559   1.827  -5.271  1.00  0.00     0.021 C 
ENDROOT
BRANCH   1   2
ATOM      2  C   UNL     1       0.934   0.637  -4.557  1.00  0.00     0.116 C 
BRANCH   2   3
ATOM      3  N   UNL     1       1.108   0.800  -2.960  1.00  0.00    -0.351 N 
ATOM      4  C   UNL     1       0.203   0.615  -1.242  1.00  0.00     0.281 C 
ATOM      5  O   UNL     1       0.765   0.560  -0.085  1.00  0.00    -0.268 OA
ATOM      6  H   UNL     1       2.025   1.115  -2.787  1.00  0.00     0.163 HD
BRANCH   4   7
ATOM      7  C   UNL     1      -1.617   0.478  -0.797  1.00  0.00     0.177 C 
ATOM      8  C   UNL     1      -2.561   1.730  -0.817  1.00  0.00     0.082 C 
ATOM      9  C   UNL     1      -2.548  -0.704  -1.280  1.00  0.00     0.111 C 
ATOM     10  C   UNL     1      -3.921   1.327  -1.390  1.00  0.00     0.039 C 
ATOM     11  C   UNL     1      -3.828  -0.106  -1.871  1.00  0.00     0.125 C 
BRANCH   7  12
ATOM     12  N   UNL     1      -1.537   0.131   0.725  1.00  0.00    -0.336 N 
ATOM     13  C   UNL     1      -1.074   1.230   1.594  1.00  0.00     0.331 C 
ATOM     14  H   UNL     1      -2.468  -0.147   1.035  1.00  0.00     0.346 HD
ATOM     15  H   UNL     1      -0.842  -0.611   0.811  1.00  0.00     0.346 HD
ENDBRANCH   7  12
BRANCH  11  16
ATOM     16  O   UNL     1      -4.209  -0.221  -3.235  1.00  0.00    -0.378 OA
BRANCH  16  17
ATOM     17  C   UNL     1      -3.290  -0.398  -4.285  1.00  0.00     0.161 C 
BRANCH  17  18
ATOM     18  C   UNL     1      -2.678   0.877  -4.838  1.00  0.00     0.033 C 
BRANCH  18  19
ATOM     19  C   UNL     1      -1.892   1.782  -3.901  1.00  0.00     0.038 C 
BRANCH  19  20
ATOM     20  C   UNL     1      -0.830   1.217  -2.970  1.00  0.00    -0.048 A 
ATOM     21  C   UNL     1      -0.324  -0.567  -2.864  1.00  0.00     0.004 A 
ATOM     22  C   UNL     1       0.279   2.482  -2.232  1.00  0.00     0.004 A 
ATOM     23  C   UNL     1       1.264  -1.030  -2.090  1.00  0.00     0.000 A 
ATOM     24  C   UNL     1       1.865   2.003  -1.481  1.00  0.00     0.000 A 
ATOM     25  C   UNL     1       2.378   0.242  -1.431  1.00  0.00     0.000 A 
ENDBRANCH  19  20
ENDBRANCH  18  19
ENDBRANCH  17  18
ENDBRANCH  16  17
ENDBRANCH  11  16
ENDBRANCH   4   7
ENDBRANCH   2   3
ENDBRANCH   1   2
BRANCH   1  26
ATOM     26  C   UNL     1       3.075   1.699  -5.410  1.00  0.00     0.002 C 
BRANCH  26  27
ATOM     27  C   UNL     1       3.553   0.352  -5.970  1.00  0.00     0.002 C 
BRANCH  27  28
ATOM     28  C   UNL     1       2.797  -0.126  -7.214  1.00  0.00     0.021 C 
BRANCH  28  29
ATOM     29  C   UNL     1       2.737   0.909  -8.321  1.00  0.00     0.116 C 
BRANCH  29  30
ATOM     30  N   UNL     1       4.064   1.333  -8.722  1.00  0.00    -0.352 N 
ATOM     31  C   UNL     1       4.545   1.464  -9.995  1.00  0.00     0.251 C 
ATOM     32  H   UNL     1       4.691   1.551  -7.995  1.00  0.00     0.163 HD
ATOM     33  O   UNL     1       5.739   1.614 -10.215  1.00  0.00    -0.269 OA
BRANCH  31  34
ATOM     34  C   UNL     1       3.574   1.399 -11.097  1.00  0.00     0.039 A 
ATOM     35  C   UNL     1       3.798   0.500 -12.137  1.00  0.00     0.014 A 
ATOM     36  C   UNL     1       2.412   2.179 -11.047  1.00  0.00     0.014 A 
ATOM     37  C   UNL     1       2.838   0.372 -13.134  1.00  0.00     0.010 A 
ATOM     38  C   UNL     1       1.418   1.982 -11.992  1.00  0.00     0.010 A 
ATOM     39  C   UNL     1       1.636   1.098 -13.059  1.00  0.00    -0.014 A 
BRANCH  39  40
ATOM     40  C   UNL     1       0.615   0.975 -14.123  1.00  0.00     0.031 A 
ATOM     41  C   UNL     1       0.282   2.167 -14.973  1.00  0.00     0.074 A 
ATOM     42  C   UNL     1      -0.023  -0.197 -14.298  1.00  0.00     0.049 A 
ATOM     43  N   UNL     1      -0.588   2.273 -15.944  1.00  0.00    -0.248 NA
ATOM     44  C   UNL     1       1.001   3.417 -14.674  1.00  0.00     0.031 C 
ATOM     45  C   UNL     1       0.189  -1.402 -13.495  1.00  0.00     0.029 A 
ATOM     46  N   UNL     1      -0.980  -0.565 -15.207  1.00  0.00    -0.354 N 
ATOM     47  C   UNL     1      -0.525   3.596 -16.360  1.00  0.00     0.074 A 
ATOM     48  C   UNL     1       0.413   4.273 -15.494  1.00  0.00     0.031 C 
ATOM     49  C   UNL     1      -0.591  -2.386 -13.968  1.00  0.00     0.029 A 
ATOM     50  C   UNL     1      -1.387  -1.869 -15.076  1.00  0.00     0.049 A 
ATOM     51  H   UNL     1      -1.340   0.047 -15.889  1.00  0.00     0.167 HD
ATOM     52  C   UNL     1      -1.171   4.184 -17.394  1.00  0.00     0.037 A 
ATOM     53  C   UNL     1      -2.307  -2.564 -15.772  1.00  0.00     0.037 A 
ATOM     54  C   UNL     1      -2.090   3.494 -18.259  1.00  0.00     0.049 A 
ATOM     55  C   UNL     1      -3.025  -1.882 -16.906  1.00  0.00     0.074 A 
ATOM     56  C   UNL     1      -2.757   3.975 -19.370  1.00  0.00     0.029 A 
ATOM     57  N   UNL     1      -2.478   2.170 -18.100  1.00  0.00    -0.354 N 
ATOM     58  N   UNL     1      -2.900  -0.652 -17.345  1.00  0.00    -0.248 NA
ATOM     59  C   UNL     1      -4.004  -2.687 -17.647  1.00  0.00     0.031 C 
ATOM     60  C   UNL     1      -3.599   2.965 -19.843  1.00  0.00     0.029 A 
ATOM     61  C   UNL     1      -3.402   1.829 -19.073  1.00  0.00     0.049 A 
ATOM     62  H   UNL     1      -2.145   1.564 -17.399  1.00  0.00     0.167 HD
ATOM     63  C   UNL     1      -3.761  -0.543 -18.428  1.00  0.00     0.074 A 
ATOM     64  C   UNL     1      -4.388  -1.839 -18.591  1.00  0.00     0.031 C 
ATOM     65  C   UNL     1      -4.012   0.530 -19.218  1.00  0.00     0.037 A 
BRANCH  52  66
ATOM     66  C   UNL     1      -0.912   5.645 -17.635  1.00  0.00     0.064 A 
ATOM     67  C   UNL     1       0.339   6.115 -18.064  1.00  0.00     0.173 A 
ATOM     68  C   UNL     1      -1.936   6.586 -17.454  1.00  0.00     0.173 A 
ATOM     69  F   UNL     1       1.359   5.261 -18.241  1.00  0.00    -0.203 F 
ATOM     70  C   UNL     1       0.565   7.474 -18.266  1.00  0.00     0.198 A 
ATOM     71  C   UNL     1      -1.718   7.941 -17.693  1.00  0.00     0.198 A 
ATOM     72  F   UNL     1      -3.153   6.194 -17.047  1.00  0.00    -0.203 F 
ATOM     73  F   UNL     1       1.786   7.905 -18.615  1.00  0.00    -0.200 F 
ATOM     74  C   UNL     1      -0.465   8.385 -18.088  1.00  0.00     0.200 A 
ATOM     75  F   UNL     1      -2.719   8.817 -17.534  1.00  0.00    -0.200 F 
ATOM     76  F   UNL     1      -0.249   9.692 -18.289  1.00  0.00    -0.200 F 
ENDBRANCH  52  66
BRANCH  53  77
ATOM     77  C   UNL     1      -2.588  -3.981 -15.422  1.00  0.00     0.064 A 
ATOM     78  C   UNL     1      -2.256  -5.024 -16.298  1.00  0.00     0.173 A 
ATOM     79  C   UNL     1      -3.196  -4.323 -14.205  1.00  0.00     0.173 A 
ATOM     80  F   UNL     1      -1.687  -4.749 -17.481  1.00  0.00    -0.203 F 
ATOM     81  C   UNL     1      -2.544  -6.350 -15.982  1.00  0.00     0.198 A 
ATOM     82  C   UNL     1      -3.452  -5.651 -13.874  1.00  0.00     0.198 A 
ATOM     83  F   UNL     1      -3.525  -3.365 -13.326  1.00  0.00    -0.203 F 
ATOM     84  F   UNL     1      -2.262  -7.322 -16.860  1.00  0.00    -0.200 F 
ATOM     85  C   UNL     1      -3.136  -6.663 -14.768  1.00  0.00     0.200 A 
ATOM     86  F   UNL     1      -4.006  -5.950 -12.691  1.00  0.00    -0.200 F 
ATOM     87  F   UNL     1      -3.408  -7.939 -14.461  1.00  0.00    -0.200 F 
ENDBRANCH  53  77
BRANCH  65  88
ATOM     88  C   UNL     1      -4.978   0.339 -20.353  1.00  0.00     0.064 A 
ATOM     89  C   UNL     1      -6.351   0.152 -20.132  1.00  0.00     0.173 A 
ATOM     90  C   UNL     1      -4.527   0.388 -21.681  1.00  0.00     0.173 A 
ATOM     91  F   UNL     1      -6.831   0.085 -18.881  1.00  0.00    -0.203 F 
ATOM     92  C   UNL     1      -7.231  -0.011 -21.199  1.00  0.00     0.198 A 
ATOM     93  C   UNL     1      -5.415   0.263 -22.745  1.00  0.00     0.198 A 
ATOM     94  F   UNL     1      -3.226   0.574 -21.948  1.00  0.00    -0.203 F 
ATOM     95  F   UNL     1      -8.529  -0.245 -20.963  1.00  0.00    -0.200 F 
ATOM     96  C   UNL     1      -6.764   0.054 -22.503  1.00  0.00     0.200 A 
ATOM     97  F   UNL     1      -4.965   0.345 -24.005  1.00  0.00    -0.200 F 
ATOM     98  F   UNL     1      -7.614  -0.093 -23.529  1.00  0.00    -0.200 F 
ENDBRANCH  65  88
ENDBRANCH  39  40
ENDBRANCH  31  34
ENDBRANCH  29  30
ENDBRANCH  28  29
ENDBRANCH  27  28
ENDBRANCH  26  27
ENDBRANCH   1  26
TORSDOF 19
