REMARK SMILES COc1ccc(NCc2cc(C(=O)NCCCCCCNC(=O)c3ccc(-c4c5nc(c(-c6c(F)c(F)c(F)c(F)c6F)c6ccc([nH]6)c(-c6c(F)c(F)c(F)c(F)c6F)c6nc(c(-c7c(F)c(F)c(F)c(F)c7F)c7ccc4[nH]7)C=C6)C=C5)cc3)cs2)cc1Br
REMARK SMILES IDX 16 1 15 2 14 3 12 4 13 5 11 7 9 8 10 9 88 10 87 11 8 12 7 13
REMARK SMILES IDX 6 15 3 16 4 17 90 18 5 19 89 20 91 21 2 22 1 23 17 24 18 25
REMARK SMILES IDX 19 26 20 27 21 28 22 29 23 31 24 32 25 33 86 34 26 35 85 36
REMARK SMILES IDX 27 37 28 38 29 39 79 40 30 41 84 42 78 43 80 44 31 45 83 46
REMARK SMILES IDX 77 47 76 48 32 50 64 51 44 52 63 53 45 54 48 55 62 56 81 57
REMARK SMILES IDX 46 58 47 59 61 61 82 62 49 63 33 64 34 65 42 66 35 67 36 68
REMARK SMILES IDX 40 69 43 70 37 71 38 72 41 73 39 74 65 75 66 76 74 77 67 78
REMARK SMILES IDX 68 79 72 80 75 81 69 82 70 83 73 84 71 85 50 86 51 87 59 88
REMARK SMILES IDX 52 89 53 90 57 91 60 92 54 93 55 94 58 95 56 96
REMARK H PARENT 14 6 7 14 21 30 80 49 48 60
REMARK Flexibility Score: inf
ROOT
ATOM      1  C   UNL     1      -1.152  -9.754   7.551  1.00  0.00     0.021 C 
ENDROOT
BRANCH   1   2
ATOM      2  C   UNL     1       0.295  -9.931   7.090  1.00  0.00     0.116 C 
BRANCH   2   3
ATOM      3  N   UNL     1       0.343 -10.744   5.893  1.00  0.00    -0.352 N 
ATOM      4  C   UNL     1       0.553 -10.437   4.574  1.00  0.00     0.252 C 
ATOM      5  O   UNL     1       0.561 -11.376   3.779  1.00  0.00    -0.269 OA
ATOM      6  H   UNL     1       0.195 -11.704   6.059  1.00  0.00     0.163 HD
BRANCH   4   7
ATOM      7  C   UNL     1       0.827  -9.066   4.139  1.00  0.00     0.050 A 
ATOM      8  C   UNL     1       1.124  -6.727   4.146  1.00  0.00     0.024 A 
ATOM      9  C   UNL     1       0.506  -7.808   4.748  1.00  0.00     0.031 A 
ATOM     10  S   UNL     1       1.844  -7.188   2.668  1.00  0.00    -0.146 S 
ATOM     11  C   UNL     1       1.475  -8.832   2.935  1.00  0.00     0.079 A 
BRANCH   8  12
ATOM     12  C   UNL     1       1.182  -5.320   4.680  1.00  0.00     0.159 C 
BRANCH  12  13
ATOM     13  N   UNL     1       2.095  -4.410   4.018  1.00  0.00    -0.380 N 
ATOM     14  H   UNL     1       3.054  -4.625   4.079  1.00  0.00     0.160 HD
BRANCH  13  15
ATOM     15  C   UNL     1       1.760  -3.275   3.313  1.00  0.00     0.036 A 
ATOM     16  C   UNL     1       1.221  -0.887   1.900  1.00  0.00     0.133 A 
ATOM     17  C   UNL     1       0.182  -1.615   2.475  1.00  0.00     0.050 A 
ATOM     18  C   UNL     1       2.536  -1.315   2.069  1.00  0.00     0.062 A 
ATOM     19  C   UNL     1       0.453  -2.797   3.172  1.00  0.00     0.029 A 
ATOM     20  C   UNL     1       2.795  -2.503   2.761  1.00  0.00     0.045 A 
ATOM     21  Br  UNL     1       4.015  -0.315   1.429  1.00  0.00    -0.047 Br
BRANCH  16  22
ATOM     22  O   UNL     1       0.892   0.273   1.252  1.00  0.00    -0.496 OA
ATOM     23  C   UNL     1       0.816   0.053  -0.158  1.00  0.00     0.278 C 
ENDBRANCH  16  22
ENDBRANCH  13  15
ENDBRANCH  12  13
ENDBRANCH   8  12
ENDBRANCH   4   7
ENDBRANCH   2   3
ENDBRANCH   1   2
BRANCH   1  24
ATOM     24  C   UNL     1      -1.678 -10.964   8.336  1.00  0.00     0.002 C 
BRANCH  24  25
ATOM     25  C   UNL     1      -0.917 -11.262   9.636  1.00  0.00     0.002 C 
BRANCH  25  26
ATOM     26  C   UNL     1      -0.828 -10.087  10.612  1.00  0.00     0.021 C 
BRANCH  26  27
ATOM     27  C   UNL     1      -2.181  -9.593  11.113  1.00  0.00     0.116 C 
BRANCH  27  28
ATOM     28  N   UNL     1      -2.871 -10.616  11.883  1.00  0.00    -0.352 N 
ATOM     29  C   UNL     1      -3.347 -10.565  13.167  1.00  0.00     0.251 C 
ATOM     30  H   UNL     1      -3.019 -11.469  11.413  1.00  0.00     0.163 HD
ATOM     31  O   UNL     1      -3.687 -11.593  13.743  1.00  0.00    -0.269 OA
BRANCH  29  32
ATOM     32  C   UNL     1      -3.441  -9.265  13.862  1.00  0.00     0.039 A 
ATOM     33  C   UNL     1      -3.040  -9.180  15.197  1.00  0.00     0.014 A 
ATOM     34  C   UNL     1      -3.941  -8.138  13.202  1.00  0.00     0.014 A 
ATOM     35  C   UNL     1      -3.096  -7.951  15.856  1.00  0.00     0.010 A 
ATOM     36  C   UNL     1      -3.923  -6.900  13.835  1.00  0.00     0.010 A 
ATOM     37  C   UNL     1      -3.511  -6.796  15.172  1.00  0.00    -0.014 A 
BRANCH  37  38
ATOM     38  C   UNL     1      -3.528  -5.473  15.845  1.00  0.00     0.031 A 
ATOM     39  C   UNL     1      -4.827  -4.745  16.048  1.00  0.00     0.074 A 
ATOM     40  C   UNL     1      -2.366  -4.906  16.223  1.00  0.00     0.049 A 
ATOM     41  N   UNL     1      -5.042  -3.565  16.572  1.00  0.00    -0.248 NA
ATOM     42  C   UNL     1      -6.046  -5.421  15.575  1.00  0.00     0.031 C 
ATOM     43  C   UNL     1      -1.039  -5.492  16.033  1.00  0.00     0.029 A 
ATOM     44  N   UNL     1      -2.114  -3.706  16.839  1.00  0.00    -0.354 N 
ATOM     45  C   UNL     1      -6.412  -3.354  16.480  1.00  0.00     0.074 A 
ATOM     46  C   UNL     1      -6.971  -4.500  15.797  1.00  0.00     0.031 C 
ATOM     47  C   UNL     1      -0.115  -4.665  16.547  1.00  0.00     0.029 A 
ATOM     48  C   UNL     1      -0.780  -3.474  17.066  1.00  0.00     0.049 A 
ATOM     49  H   UNL     1      -2.823  -3.072  17.093  1.00  0.00     0.167 HD
ATOM     50  C   UNL     1      -7.139  -2.312  16.948  1.00  0.00     0.037 A 
ATOM     51  C   UNL     1      -0.163  -2.416  17.626  1.00  0.00     0.037 A 
ATOM     52  C   UNL     1      -6.578  -1.185  17.646  1.00  0.00     0.049 A 
ATOM     53  C   UNL     1      -0.995  -1.268  18.132  1.00  0.00     0.074 A 
ATOM     54  C   UNL     1      -7.234  -0.104  18.207  1.00  0.00     0.029 A 
ATOM     55  N   UNL     1      -5.223  -0.993  17.873  1.00  0.00    -0.354 N 
ATOM     56  N   UNL     1      -2.296  -1.113  18.105  1.00  0.00    -0.248 NA
ATOM     57  C   UNL     1      -0.271  -0.151  18.755  1.00  0.00     0.031 C 
ATOM     58  C   UNL     1      -6.273   0.769  18.728  1.00  0.00     0.029 A 
ATOM     59  C   UNL     1      -5.021   0.201  18.547  1.00  0.00     0.049 A 
ATOM     60  H   UNL     1      -4.510  -1.613  17.597  1.00  0.00     0.167 HD
ATOM     61  C   UNL     1      -2.550   0.097  18.738  1.00  0.00     0.074 A 
ATOM     62  C   UNL     1      -1.267   0.629  19.149  1.00  0.00     0.031 C 
ATOM     63  C   UNL     1      -3.738   0.710  18.961  1.00  0.00     0.037 A 
BRANCH  50  64
ATOM     64  C   UNL     1      -8.624  -2.343  16.722  1.00  0.00     0.064 A 
ATOM     65  C   UNL     1      -9.451  -3.270  17.376  1.00  0.00     0.173 A 
ATOM     66  C   UNL     1      -9.235  -1.411  15.869  1.00  0.00     0.173 A 
ATOM     67  F   UNL     1      -8.918  -4.191  18.194  1.00  0.00    -0.203 F 
ATOM     68  C   UNL     1     -10.826  -3.284  17.160  1.00  0.00     0.198 A 
ATOM     69  C   UNL     1     -10.615  -1.405  15.682  1.00  0.00     0.198 A 
ATOM     70  F   UNL     1      -8.494  -0.498  15.223  1.00  0.00    -0.203 F 
ATOM     71  F   UNL     1     -11.587  -4.214  17.753  1.00  0.00    -0.200 F 
ATOM     72  C   UNL     1     -11.408  -2.347  16.319  1.00  0.00     0.200 A 
ATOM     73  F   UNL     1     -11.177  -0.489  14.881  1.00  0.00    -0.200 F 
ATOM     74  F   UNL     1     -12.733  -2.356  16.119  1.00  0.00    -0.200 F 
ENDBRANCH  50  64
BRANCH  51  75
ATOM     75  C   UNL     1       1.317  -2.406  17.766  1.00  0.00     0.064 A 
ATOM     76  C   UNL     1       1.922  -2.486  19.028  1.00  0.00     0.173 A 
ATOM     77  C   UNL     1       2.156  -2.312  16.646  1.00  0.00     0.173 A 
ATOM     78  F   UNL     1       1.163  -2.560  20.131  1.00  0.00    -0.203 F 
ATOM     79  C   UNL     1       3.308  -2.446  19.166  1.00  0.00     0.198 A 
ATOM     80  C   UNL     1       3.542  -2.304  16.783  1.00  0.00     0.198 A 
ATOM     81  F   UNL     1       1.628  -2.243  15.415  1.00  0.00    -0.203 F 
ATOM     82  F   UNL     1       3.858  -2.473  20.388  1.00  0.00    -0.200 F 
ATOM     83  C   UNL     1       4.117  -2.361  18.044  1.00  0.00     0.200 A 
ATOM     84  F   UNL     1       4.321  -2.240  15.694  1.00  0.00    -0.200 F 
ATOM     85  F   UNL     1       5.450  -2.326  18.177  1.00  0.00    -0.200 F 
ENDBRANCH  51  75
BRANCH  63  86
ATOM     86  C   UNL     1      -3.715   2.002  19.727  1.00  0.00     0.064 A 
ATOM     87  C   UNL     1      -3.204   3.184  19.172  1.00  0.00     0.173 A 
ATOM     88  C   UNL     1      -4.250   2.064  21.024  1.00  0.00     0.173 A 
ATOM     89  F   UNL     1      -2.668   3.176  17.942  1.00  0.00    -0.203 F 
ATOM     90  C   UNL     1      -3.202   4.373  19.897  1.00  0.00     0.198 A 
ATOM     91  C   UNL     1      -4.278   3.261  21.732  1.00  0.00     0.198 A 
ATOM     92  F   UNL     1      -4.759   0.964  21.599  1.00  0.00    -0.203 F 
ATOM     93  F   UNL     1      -2.660   5.478  19.367  1.00  0.00    -0.200 F 
ATOM     94  C   UNL     1      -3.746   4.412  21.172  1.00  0.00     0.200 A 
ATOM     95  F   UNL     1      -4.820   3.300  22.957  1.00  0.00    -0.200 F 
ATOM     96  F   UNL     1      -3.752   5.559  21.865  1.00  0.00    -0.200 F 
ENDBRANCH  63  86
ENDBRANCH  37  38
ENDBRANCH  29  32
ENDBRANCH  27  28
ENDBRANCH  26  27
ENDBRANCH  25  26
ENDBRANCH  24  25
ENDBRANCH   1  24
TORSDOF 17
