REMARK SMILES O=C(CCCOc1ccc([N+](=O)[O-])cc1F)NCCCCCCNC(=O)c1ccc(-c2c3nc(c(-c4c(F)c(F)c(F)c(F)c4F)c4ccc([nH]4)c(-c4c(F)c(F)c(F)c(F)c4F)c4nc(c(-c5c(F)c(F)c(F)c(F)c5F)c5ccc2[nH]5)C=C4)C=C3)cc1
REMARK SMILES IDX 19 1 18 2 17 3 1 4 2 5 3 7 4 8 5 9 6 10 7 11 8 12 15 13 9 14
REMARK SMILES IDX 14 15 16 16 10 17 11 18 12 19 13 20 20 21 21 22 22 23 23 24
REMARK SMILES IDX 24 25 25 26 26 28 27 29 28 30 89 31 29 32 88 33 30 34 31 35
REMARK SMILES IDX 32 36 82 37 33 38 87 39 81 40 83 41 34 42 86 43 80 44 79 45
REMARK SMILES IDX 35 47 67 48 47 49 66 50 48 51 51 52 65 53 84 54 49 55 50 56
REMARK SMILES IDX 64 58 85 59 52 60 36 61 37 62 45 63 38 64 39 65 43 66 46 67
REMARK SMILES IDX 40 68 41 69 44 70 42 71 68 72 69 73 77 74 70 75 71 76 75 77
REMARK SMILES IDX 78 78 72 79 73 80 76 81 74 82 53 83 54 84 62 85 55 86 56 87
REMARK SMILES IDX 60 88 63 89 57 90 58 91 61 92 59 93
REMARK H PARENT 17 6 24 27 83 46 51 57
REMARK Flexibility Score: inf
ROOT
ATOM      1  C   UNL     1       2.569  -3.408   1.159  1.00  0.00     0.021 C 
ENDROOT
BRANCH   1   2
ATOM      2  C   UNL     1       1.942  -2.064   1.521  1.00  0.00     0.116 C 
BRANCH   2   3
ATOM      3  N   UNL     1       2.448  -1.006   0.675  1.00  0.00    -0.356 N 
ATOM      4  O   UNL     1       0.860   0.537   1.261  1.00  0.00    -0.275 OA
ATOM      5  C   UNL     1       1.858   0.232   0.619  1.00  0.00     0.220 C 
ATOM      6  H   UNL     1       3.242  -1.180   0.120  1.00  0.00     0.163 HD
BRANCH   5   7
ATOM      7  C   UNL     1       2.530   1.183  -0.347  1.00  0.00     0.103 C 
BRANCH   7   8
ATOM      8  C   UNL     1       3.841   1.792   0.162  1.00  0.00     0.051 C 
BRANCH   8   9
ATOM      9  C   UNL     1       5.067   0.875   0.299  1.00  0.00     0.230 C 
BRANCH   9  10
ATOM     10  O   UNL     1       5.794   0.701  -0.928  1.00  0.00    -0.490 OA
BRANCH  10  11
ATOM     11  C   UNL     1       5.362  -0.346  -1.689  1.00  0.00     0.155 A 
ATOM     12  C   UNL     1       5.807  -1.645  -1.447  1.00  0.00     0.056 A 
ATOM     13  C   UNL     1       4.540  -0.088  -2.787  1.00  0.00     0.171 A 
ATOM     14  C   UNL     1       5.343  -2.696  -2.249  1.00  0.00     0.089 A 
ATOM     15  C   UNL     1       4.043  -1.118  -3.573  1.00  0.00     0.128 A 
ATOM     16  F   UNL     1       4.171   1.171  -3.062  1.00  0.00    -0.203 F 
ATOM     17  C   UNL     1       4.441  -2.427  -3.292  1.00  0.00     0.272 A 
BRANCH  17  18
ATOM     18  N   UNL     1       3.903  -3.527  -4.098  1.00  0.00     0.062 N 
ATOM     19  O   UNL     1       4.483  -4.619  -4.037  1.00  0.00    -0.258 OA
ATOM     20  O   UNL     1       2.890  -3.298  -4.772  1.00  0.00    -0.258 OA
ENDBRANCH  17  18
ENDBRANCH  10  11
ENDBRANCH   9  10
ENDBRANCH   8   9
ENDBRANCH   7   8
ENDBRANCH   5   7
ENDBRANCH   2   3
ENDBRANCH   1   2
BRANCH   1  21
ATOM     21  C   UNL     1       4.083  -3.489   1.393  1.00  0.00     0.002 C 
BRANCH  21  22
ATOM     22  C   UNL     1       4.551  -3.239   2.828  1.00  0.00     0.002 C 
BRANCH  22  23
ATOM     23  C   UNL     1       3.905  -4.137   3.881  1.00  0.00     0.021 C 
BRANCH  23  24
ATOM     24  C   UNL     1       4.070  -5.630   3.628  1.00  0.00     0.116 C 
BRANCH  24  25
ATOM     25  N   UNL     1       5.457  -6.059   3.707  1.00  0.00    -0.352 N 
ATOM     26  C   UNL     1       6.001  -7.105   4.413  1.00  0.00     0.251 C 
ATOM     27  H   UNL     1       6.095  -5.526   3.180  1.00  0.00     0.163 HD
ATOM     28  O   UNL     1       7.216  -7.223   4.502  1.00  0.00    -0.269 OA
BRANCH  26  29
ATOM     29  C   UNL     1       5.112  -8.077   5.088  1.00  0.00     0.039 A 
ATOM     30  C   UNL     1       5.424  -8.489   6.386  1.00  0.00     0.014 A 
ATOM     31  C   UNL     1       3.982  -8.588   4.444  1.00  0.00     0.014 A 
ATOM     32  C   UNL     1       4.576  -9.376   7.054  1.00  0.00     0.010 A 
ATOM     33  C   UNL     1       3.095  -9.405   5.139  1.00  0.00     0.010 A 
ATOM     34  C   UNL     1       3.390  -9.820   6.447  1.00  0.00    -0.014 A 
BRANCH  34  35
ATOM     35  C   UNL     1       2.465 -10.750   7.147  1.00  0.00     0.031 A 
ATOM     36  C   UNL     1       2.219 -12.126   6.586  1.00  0.00     0.074 A 
ATOM     37  C   UNL     1       1.821 -10.349   8.261  1.00  0.00     0.049 A 
ATOM     38  N   UNL     1       1.401 -13.057   7.008  1.00  0.00    -0.248 NA
ATOM     39  C   UNL     1       2.976 -12.500   5.379  1.00  0.00     0.031 C 
ATOM     40  C   UNL     1       1.954  -9.034   8.889  1.00  0.00     0.029 A 
ATOM     41  N   UNL     1       0.924 -11.009   9.066  1.00  0.00    -0.354 N 
ATOM     42  C   UNL     1       1.542 -14.115   6.120  1.00  0.00     0.074 A 
ATOM     43  C   UNL     1       2.477 -13.695   5.101  1.00  0.00     0.031 C 
ATOM     44  C   UNL     1       1.196  -8.995   9.996  1.00  0.00     0.029 A 
ATOM     45  C   UNL     1       0.487 -10.264  10.135  1.00  0.00     0.049 A 
ATOM     46  H   UNL     1       0.622 -11.930   8.892  1.00  0.00     0.167 HD
ATOM     47  C   UNL     1       0.968 -15.339   6.170  1.00  0.00     0.037 A 
ATOM     48  C   UNL     1      -0.389 -10.569  11.113  1.00  0.00     0.037 A 
ATOM     49  C   UNL     1       0.065 -15.769   7.204  1.00  0.00     0.049 A 
ATOM     50  C   UNL     1      -1.033 -11.931  11.123  1.00  0.00     0.074 A 
ATOM     51  C   UNL     1      -0.546 -17.002   7.352  1.00  0.00     0.029 A 
ATOM     52  N   UNL     1      -0.346 -14.985   8.270  1.00  0.00    -0.354 N 
ATOM     53  N   UNL     1      -0.861 -12.935  10.298  1.00  0.00    -0.248 NA
ATOM     54  C   UNL     1      -1.987 -12.208  12.207  1.00  0.00     0.031 C 
ATOM     55  C   UNL     1      -1.363 -16.951   8.483  1.00  0.00     0.029 A 
ATOM     56  C   UNL     1      -1.210 -15.708   9.076  1.00  0.00     0.049 A 
ATOM     57  H   UNL     1      -0.067 -14.055   8.431  1.00  0.00     0.167 HD
ATOM     58  C   UNL     1      -1.644 -13.972  10.788  1.00  0.00     0.074 A 
ATOM     59  C   UNL     1      -2.288 -13.480  11.986  1.00  0.00     0.031 C 
ATOM     60  C   UNL     1      -1.812 -15.220  10.289  1.00  0.00     0.037 A 
BRANCH  47  61
ATOM     61  C   UNL     1       1.315 -16.331   5.099  1.00  0.00     0.064 A 
ATOM     62  C   UNL     1       0.345 -16.756   4.179  1.00  0.00     0.173 A 
ATOM     63  C   UNL     1       2.572 -16.951   5.063  1.00  0.00     0.173 A 
ATOM     64  F   UNL     1      -0.875 -16.197   4.175  1.00  0.00    -0.203 F 
ATOM     65  C   UNL     1       0.612 -17.788   3.284  1.00  0.00     0.198 A 
ATOM     66  C   UNL     1       2.845 -17.964   4.147  1.00  0.00     0.198 A 
ATOM     67  F   UNL     1       3.538 -16.571   5.914  1.00  0.00    -0.203 F 
ATOM     68  F   UNL     1      -0.347 -18.213   2.448  1.00  0.00    -0.200 F 
ATOM     69  C   UNL     1       1.860 -18.392   3.270  1.00  0.00     0.200 A 
ATOM     70  F   UNL     1       4.058 -18.532   4.121  1.00  0.00    -0.200 F 
ATOM     71  F   UNL     1       2.113 -19.391   2.413  1.00  0.00    -0.200 F 
ENDBRANCH  47  61
BRANCH  48  72
ATOM     72  C   UNL     1      -0.689  -9.582  12.186  1.00  0.00     0.064 A 
ATOM     73  C   UNL     1      -1.377  -8.390  11.918  1.00  0.00     0.173 A 
ATOM     74  C   UNL     1      -0.310  -9.829  13.514  1.00  0.00     0.173 A 
ATOM     75  F   UNL     1      -1.760  -8.102  10.665  1.00  0.00    -0.203 F 
ATOM     76  C   UNL     1      -1.670  -7.482  12.934  1.00  0.00     0.198 A 
ATOM     77  C   UNL     1      -0.634  -8.937  14.535  1.00  0.00     0.198 A 
ATOM     78  F   UNL     1       0.332 -10.964  13.828  1.00  0.00    -0.203 F 
ATOM     79  F   UNL     1      -2.308  -6.340  12.645  1.00  0.00    -0.200 F 
ATOM     80  C   UNL     1      -1.308  -7.761  14.243  1.00  0.00     0.200 A 
ATOM     81  F   UNL     1      -0.310  -9.227  15.803  1.00  0.00    -0.200 F 
ATOM     82  F   UNL     1      -1.619  -6.903  15.224  1.00  0.00    -0.200 F 
ENDBRANCH  48  72
BRANCH  60  83
ATOM     83  C   UNL     1      -2.668 -16.180  11.064  1.00  0.00     0.064 A 
ATOM     84  C   UNL     1      -2.088 -17.303  11.675  1.00  0.00     0.173 A 
ATOM     85  C   UNL     1      -4.062 -16.044  11.129  1.00  0.00     0.173 A 
ATOM     86  F   UNL     1      -0.760 -17.487  11.632  1.00  0.00    -0.203 F 
ATOM     87  C   UNL     1      -2.874 -18.262  12.308  1.00  0.00     0.198 A 
ATOM     88  C   UNL     1      -4.842 -16.987  11.792  1.00  0.00     0.198 A 
ATOM     89  F   UNL     1      -4.664 -14.984  10.568  1.00  0.00    -0.203 F 
ATOM     90  F   UNL     1      -2.301 -19.347  12.846  1.00  0.00    -0.200 F 
ATOM     91  C   UNL     1      -4.249 -18.100  12.370  1.00  0.00     0.200 A 
ATOM     92  F   UNL     1      -6.168 -16.818  11.874  1.00  0.00    -0.200 F 
ATOM     93  F   UNL     1      -5.004 -19.018  12.989  1.00  0.00    -0.200 F 
ENDBRANCH  60  83
ENDBRANCH  34  35
ENDBRANCH  26  29
ENDBRANCH  24  25
ENDBRANCH  23  24
ENDBRANCH  22  23
ENDBRANCH  21  22
ENDBRANCH   1  21
TORSDOF 18
