REMARK SMILES COc1c(C(=O)NCCCCCCNC(=O)c2ccc(-c3c4nc(c(-c5c(F)c(F)c(F)c(F)c5F)c5ccc([nH]5)c(-c5c(F)c(F)c(F)c(F)c5F)c5nc(c(-c6c(F)c(F)c(F)c(F)c6F)c6ccc3[nH]6)C=C5)C=C4)cc2)cccc1-c1cc(C)ccc1C
REMARK SMILES IDX 11 1 10 2 9 3 8 4 7 5 5 6 6 7 4 9 3 10 83 11 80 12 82 13
REMARK SMILES IDX 81 14 2 15 1 16 84 17 85 18 90 19 86 20 89 21 91 22 87 23
REMARK SMILES IDX 88 24 12 25 13 26 14 27 15 28 16 30 17 31 18 32 79 33 19 34
REMARK SMILES IDX 78 35 20 36 21 37 22 38 72 39 23 40 77 41 71 42 73 43 24 44
REMARK SMILES IDX 76 45 70 46 69 47 25 49 57 50 37 51 56 52 38 53 41 54 55 55
REMARK SMILES IDX 74 56 39 57 40 58 54 60 75 61 42 62 26 63 27 64 35 65 28 66
REMARK SMILES IDX 29 67 33 68 36 69 30 70 31 71 34 72 32 73 58 74 59 75 67 76
REMARK SMILES IDX 60 77 61 78 65 79 68 80 62 81 63 82 66 83 64 84 43 85 44 86
REMARK SMILES IDX 52 87 45 88 46 89 50 90 53 91 47 92 48 93 51 94 49 95
REMARK H PARENT 7 8 14 29 73 48 41 59
REMARK Flexibility Score: inf
ROOT
ATOM      1  C   UNL     1      -3.394   1.736  -0.529  1.00  0.00     0.002 C 
ENDROOT
BRANCH   1   2
ATOM      2  C   UNL     1      -3.710   0.295  -0.948  1.00  0.00     0.002 C 
BRANCH   2   3
ATOM      3  C   UNL     1      -2.558  -0.705  -1.001  1.00  0.00     0.021 C 
BRANCH   3   4
ATOM      4  C   UNL     1      -1.624  -0.746   0.194  1.00  0.00     0.116 C 
BRANCH   4   5
ATOM      5  N   UNL     1      -2.125  -1.238   1.441  1.00  0.00    -0.352 N 
ATOM      6  C   UNL     1      -1.385  -1.710   2.507  1.00  0.00     0.255 C 
ATOM      7  O   UNL     1      -1.992  -1.935   3.557  1.00  0.00    -0.269 OA
ATOM      8  H   UNL     1      -3.103  -1.241   1.551  1.00  0.00     0.163 HD
BRANCH   6   9
ATOM      9  C   UNL     1       0.073  -2.081   2.426  1.00  0.00     0.082 A 
ATOM     10  C   UNL     1       1.129  -1.371   1.800  1.00  0.00     0.139 A 
ATOM     11  C   UNL     1       2.462  -1.880   1.854  1.00  0.00     0.025 A 
ATOM     12  C   UNL     1       0.375  -3.280   3.107  1.00  0.00     0.018 A 
ATOM     13  C   UNL     1       2.701  -3.088   2.538  1.00  0.00     0.012 A 
ATOM     14  C   UNL     1       1.672  -3.781   3.164  1.00  0.00     0.002 A 
BRANCH  10  15
ATOM     15  O   UNL     1       0.865  -0.131   1.258  1.00  0.00    -0.495 OA
ATOM     16  C   UNL     1       1.311   0.063  -0.093  1.00  0.00     0.278 C 
ENDBRANCH  10  15
BRANCH  11  17
ATOM     17  C   UNL     1       3.614  -1.228   1.190  1.00  0.00    -0.011 A 
ATOM     18  C   UNL     1       4.198  -1.891   0.087  1.00  0.00     0.012 A 
ATOM     19  C   UNL     1       4.089   0.058   1.531  1.00  0.00    -0.043 A 
ATOM     20  C   UNL     1       5.165  -1.279  -0.719  1.00  0.00    -0.050 A 
ATOM     21  C   UNL     1       5.046   0.674   0.704  1.00  0.00     0.004 A 
ATOM     22  C   UNL     1       3.518   0.864   2.668  1.00  0.00     0.045 C 
ATOM     23  C   UNL     1       5.726  -2.013  -1.901  1.00  0.00     0.044 C 
ATOM     24  C   UNL     1       5.570   0.019  -0.413  1.00  0.00     0.004 A 
ENDBRANCH  11  17
ENDBRANCH   6   9
ENDBRANCH   4   5
ENDBRANCH   3   4
ENDBRANCH   2   3
ENDBRANCH   1   2
BRANCH   1  25
ATOM     25  C   UNL     1      -2.274   2.473  -1.267  1.00  0.00     0.021 C 
BRANCH  25  26
ATOM     26  C   UNL     1      -2.310   2.440  -2.791  1.00  0.00     0.116 C 
BRANCH  26  27
ATOM     27  N   UNL     1      -3.550   2.951  -3.346  1.00  0.00    -0.352 N 
ATOM     28  C   UNL     1      -3.760   3.905  -4.312  1.00  0.00     0.251 C 
ATOM     29  H   UNL     1      -4.368   2.551  -2.972  1.00  0.00     0.163 HD
ATOM     30  O   UNL     1      -4.901   4.280  -4.562  1.00  0.00    -0.269 OA
BRANCH  28  31
ATOM     31  C   UNL     1      -2.620   4.508  -5.039  1.00  0.00     0.039 A 
ATOM     32  C   UNL     1      -2.613   5.892  -5.239  1.00  0.00     0.014 A 
ATOM     33  C   UNL     1      -1.578   3.727  -5.545  1.00  0.00     0.014 A 
ATOM     34  C   UNL     1      -1.535   6.499  -5.890  1.00  0.00     0.010 A 
ATOM     35  C   UNL     1      -0.471   4.339  -6.132  1.00  0.00     0.010 A 
ATOM     36  C   UNL     1      -0.438   5.732  -6.311  1.00  0.00    -0.014 A 
BRANCH  36  37
ATOM     37  C   UNL     1       0.752   6.365  -6.941  1.00  0.00     0.031 A 
ATOM     38  C   UNL     1       1.117   6.039  -8.364  1.00  0.00     0.074 A 
ATOM     39  C   UNL     1       1.541   7.179  -6.212  1.00  0.00     0.049 A 
ATOM     40  N   UNL     1       2.166   6.409  -9.056  1.00  0.00    -0.248 NA
ATOM     41  C   UNL     1       0.194   5.161  -9.102  1.00  0.00     0.031 C 
ATOM     42  C   UNL     1       1.315   7.547  -4.813  1.00  0.00     0.029 A 
ATOM     43  N   UNL     1       2.704   7.834  -6.541  1.00  0.00    -0.354 N 
ATOM     44  C   UNL     1       2.039   5.794 -10.295  1.00  0.00     0.074 A 
ATOM     45  C   UNL     1       0.835   4.995 -10.250  1.00  0.00     0.031 C 
ATOM     46  C   UNL     1       2.298   8.368  -4.409  1.00  0.00     0.029 A 
ATOM     47  C   UNL     1       3.247   8.551  -5.502  1.00  0.00     0.049 A 
ATOM     48  H   UNL     1       3.110   7.793  -7.437  1.00  0.00     0.167 HD
ATOM     49  C   UNL     1       2.847   5.902 -11.377  1.00  0.00     0.037 A 
ATOM     50  C   UNL     1       4.391   9.261  -5.434  1.00  0.00     0.037 A 
ATOM     51  C   UNL     1       4.024   6.729 -11.432  1.00  0.00     0.049 A 
ATOM     52  C   UNL     1       5.273   9.351  -6.653  1.00  0.00     0.074 A 
ATOM     53  C   UNL     1       4.864   6.960 -12.507  1.00  0.00     0.029 A 
ATOM     54  N   UNL     1       4.527   7.460 -10.366  1.00  0.00    -0.354 N 
ATOM     55  N   UNL     1       5.101   8.824  -7.841  1.00  0.00    -0.248 NA
ATOM     56  C   UNL     1       6.507  10.140  -6.522  1.00  0.00     0.031 C 
ATOM     57  C   UNL     1       5.907   7.785 -12.078  1.00  0.00     0.029 A 
ATOM     58  C   UNL     1       5.683   8.119 -10.753  1.00  0.00     0.049 A 
ATOM     59  H   UNL     1       4.124   7.503  -9.469  1.00  0.00     0.167 HD
ATOM     60  C   UNL     1       6.179   9.251  -8.606  1.00  0.00     0.074 A 
ATOM     61  C   UNL     1       6.993  10.089  -7.753  1.00  0.00     0.031 C 
ATOM     62  C   UNL     1       6.468   8.973  -9.900  1.00  0.00     0.037 A 
BRANCH  49  63
ATOM     63  C   UNL     1       2.496   5.111 -12.604  1.00  0.00     0.064 A 
ATOM     64  C   UNL     1       1.399   5.448 -13.409  1.00  0.00     0.173 A 
ATOM     65  C   UNL     1       3.320   4.056 -13.025  1.00  0.00     0.173 A 
ATOM     66  F   UNL     1       0.574   6.442 -13.047  1.00  0.00    -0.203 F 
ATOM     67  C   UNL     1       1.132   4.750 -14.585  1.00  0.00     0.198 A 
ATOM     68  C   UNL     1       3.068   3.380 -14.216  1.00  0.00     0.198 A 
ATOM     69  F   UNL     1       4.387   3.697 -12.294  1.00  0.00    -0.203 F 
ATOM     70  F   UNL     1       0.060   5.069 -15.323  1.00  0.00    -0.200 F 
ATOM     71  C   UNL     1       1.973   3.725 -14.993  1.00  0.00     0.200 A 
ATOM     72  F   UNL     1       3.891   2.401 -14.616  1.00  0.00    -0.200 F 
ATOM     73  F   UNL     1       1.727   3.069 -16.135  1.00  0.00    -0.200 F 
ENDBRANCH  49  63
BRANCH  50  74
ATOM     74  C   UNL     1       4.781   9.946  -4.171  1.00  0.00     0.064 A 
ATOM     75  C   UNL     1       4.846  11.345  -4.099  1.00  0.00     0.173 A 
ATOM     76  C   UNL     1       5.148   9.219  -3.029  1.00  0.00     0.173 A 
ATOM     77  F   UNL     1       4.527  12.085  -5.171  1.00  0.00    -0.203 F 
ATOM     78  C   UNL     1       5.301  11.988  -2.950  1.00  0.00     0.198 A 
ATOM     79  C   UNL     1       5.569   9.865  -1.868  1.00  0.00     0.198 A 
ATOM     80  F   UNL     1       5.101   7.879  -3.040  1.00  0.00    -0.203 F 
ATOM     81  F   UNL     1       5.422  13.323  -2.936  1.00  0.00    -0.200 F 
ATOM     82  C   UNL     1       5.660  11.248  -1.834  1.00  0.00     0.200 A 
ATOM     83  F   UNL     1       5.901   9.145  -0.787  1.00  0.00    -0.200 F 
ATOM     84  F   UNL     1       6.107  11.866  -0.733  1.00  0.00    -0.200 F 
ENDBRANCH  50  74
BRANCH  62  85
ATOM     85  C   UNL     1       7.682   9.625 -10.497  1.00  0.00     0.064 A 
ATOM     86  C   UNL     1       8.982   9.244 -10.132  1.00  0.00     0.173 A 
ATOM     87  C   UNL     1       7.540  10.611 -11.485  1.00  0.00     0.173 A 
ATOM     88  F   UNL     1       9.172   8.316  -9.182  1.00  0.00    -0.203 F 
ATOM     89  C   UNL     1      10.093   9.844 -10.718  1.00  0.00     0.198 A 
ATOM     90  C   UNL     1       8.653  11.184 -12.093  1.00  0.00     0.198 A 
ATOM     91  F   UNL     1       6.318  11.006 -11.876  1.00  0.00    -0.203 F 
ATOM     92  F   UNL     1      11.326   9.499 -10.320  1.00  0.00    -0.200 F 
ATOM     93  C   UNL     1       9.928  10.806 -11.703  1.00  0.00     0.200 A 
ATOM     94  F   UNL     1       8.490  12.101 -13.057  1.00  0.00    -0.200 F 
ATOM     95  F   UNL     1      11.000  11.373 -12.274  1.00  0.00    -0.200 F 
ENDBRANCH  62  85
ENDBRANCH  36  37
ENDBRANCH  28  31
ENDBRANCH  26  27
ENDBRANCH  25  26
ENDBRANCH   1  25
TORSDOF 15
