REMARK SMILES CCCCCCNC(=O)Oc1cccc(-c2ccc([C@@H](C)C(=O)NCCCCCCNC(=O)c3ccc(-c4c5nc(c(-c6c(F)c(F)c(F)c(F)c6F)c6ccc([nH]6)c(-c6c(F)c(F)c(F)c(F)c6F)c6nc(c(-c7c(F)c(F)c(F)c(F)c7F)c7ccc4[nH]7)C=C6)C=C5)cc3)cc2O)c1
REMARK SMILES IDX 22 1 23 2 24 3 20 5 21 6 19 7 16 8 17 9 98 10 18 11 97 12
REMARK SMILES IDX 15 13 11 14 12 15 100 16 13 17 14 18 10 19 8 20 7 21 9 23
REMARK SMILES IDX 6 24 5 25 4 26 3 27 2 28 1 29 99 30 25 32 26 33 27 34 28 35
REMARK SMILES IDX 29 36 30 37 31 38 32 39 33 41 34 42 35 43 96 44 36 45 95 46
REMARK SMILES IDX 37 47 38 48 39 49 89 50 40 51 94 52 88 53 90 54 41 55 93 56
REMARK SMILES IDX 87 57 86 58 42 60 74 61 54 62 73 63 55 64 58 65 72 66 91 67
REMARK SMILES IDX 56 68 57 69 71 71 92 72 59 73 43 74 44 75 52 76 45 77 46 78
REMARK SMILES IDX 50 79 53 80 47 81 48 82 51 83 49 84 75 85 76 86 84 87 77 88
REMARK SMILES IDX 78 89 82 90 85 91 79 92 80 93 83 94 81 95 60 96 61 97 69 98
REMARK SMILES IDX 62 99 63 100 67 101 70 102 64 103 65 104 68 105 66 106
REMARK H PARENT 24 4 7 22 99 31 31 40 90 59 58 70
REMARK Flexibility Score: inf
ROOT
ATOM      1  C   UNL     1      -3.406 -13.941  -3.150  1.00  0.00     0.227 C 
ATOM      2  O   UNL     1      -2.479 -14.148  -2.357  1.00  0.00    -0.274 OA
ATOM      3  N   UNL     1      -3.193 -14.326  -4.437  1.00  0.00    -0.356 N 
ATOM      4  H   UNL     1      -2.338 -14.794  -4.580  1.00  0.00     0.163 HD
ENDROOT
BRANCH   1   5
ATOM      5  C   UNL     1      -4.714 -13.310  -2.650  1.00  0.00     0.105 C 
ATOM      6  C   UNL     1      -5.944 -14.201  -2.829  1.00  0.00     0.023 C 
BRANCH   5   7
ATOM      7  C   UNL     1      -4.896 -11.854  -3.049  1.00  0.00    -0.032 A 
ATOM      8  C   UNL     1      -5.111  -9.084  -3.762  1.00  0.00     0.024 A 
ATOM      9  C   UNL     1      -5.571 -10.108  -4.608  1.00  0.00     0.013 A 
ATOM     10  C   UNL     1      -4.587  -9.491  -2.523  1.00  0.00     0.123 A 
ATOM     11  C   UNL     1      -5.504 -11.457  -4.242  1.00  0.00     0.005 A 
ATOM     12  C   UNL     1      -4.441 -10.843  -2.190  1.00  0.00     0.051 A 
BRANCH   8  13
ATOM     13  C   UNL     1      -5.189  -7.674  -4.210  1.00  0.00    -0.011 A 
ATOM     14  C   UNL     1      -4.245  -5.440  -4.397  1.00  0.00     0.133 A 
ATOM     15  C   UNL     1      -5.369  -4.982  -5.076  1.00  0.00     0.047 A 
ATOM     16  C   UNL     1      -4.140  -6.768  -3.978  1.00  0.00     0.056 A 
ATOM     17  C   UNL     1      -6.404  -5.869  -5.344  1.00  0.00     0.004 A 
ATOM     18  C   UNL     1      -6.320  -7.193  -4.903  1.00  0.00     0.009 A 
BRANCH  14  19
ATOM     19  O   UNL     1      -3.302  -4.473  -4.011  1.00  0.00    -0.410 OA
BRANCH  19  20
ATOM     20  C   UNL     1      -1.958  -4.703  -4.260  1.00  0.00     0.412 C 
ATOM     21  N   UNL     1      -1.147  -3.763  -3.686  1.00  0.00    -0.321 N 
ATOM     22  H   UNL     1      -0.180  -3.857  -3.846  1.00  0.00     0.167 HD
ATOM     23  O   UNL     1      -1.497  -5.624  -4.920  1.00  0.00    -0.224 OA
BRANCH  21  24
ATOM     24  C   UNL     1      -1.565  -2.642  -2.865  1.00  0.00     0.119 C 
BRANCH  24  25
ATOM     25  C   UNL     1      -0.970  -2.707  -1.459  1.00  0.00     0.021 C 
BRANCH  25  26
ATOM     26  C   UNL     1       0.559  -2.607  -1.401  1.00  0.00     0.002 C 
BRANCH  26  27
ATOM     27  C   UNL     1       1.164  -1.353  -2.042  1.00  0.00    -0.000 C 
BRANCH  27  28
ATOM     28  C   UNL     1       0.673  -0.021  -1.471  1.00  0.00    -0.003 C 
ATOM     29  C   UNL     1       1.028   0.173  -0.006  1.00  0.00     0.004 C 
ENDBRANCH  27  28
ENDBRANCH  26  27
ENDBRANCH  25  26
ENDBRANCH  24  25
ENDBRANCH  21  24
ENDBRANCH  19  20
ENDBRANCH  14  19
ENDBRANCH   8  13
BRANCH  10  30
ATOM     30  O   UNL     1      -4.221  -8.607  -1.542  1.00  0.00    -0.507 OA
ATOM     31  H   UNL     1      -4.291  -7.684  -1.692  1.00  0.00     0.293 HD
ENDBRANCH  10  30
ENDBRANCH   5   7
ENDBRANCH   1   5
BRANCH   3  32
ATOM     32  C   UNL     1      -3.991 -14.175  -5.633  1.00  0.00     0.116 C 
BRANCH  32  33
ATOM     33  C   UNL     1      -3.489 -13.023  -6.507  1.00  0.00     0.021 C 
BRANCH  33  34
ATOM     34  C   UNL     1      -2.423 -13.439  -7.526  1.00  0.00     0.002 C 
BRANCH  34  35
ATOM     35  C   UNL     1      -2.896 -14.434  -8.593  1.00  0.00     0.002 C 
BRANCH  35  36
ATOM     36  C   UNL     1      -4.128 -14.005  -9.397  1.00  0.00     0.021 C 
BRANCH  36  37
ATOM     37  C   UNL     1      -3.961 -12.703 -10.177  1.00  0.00     0.116 C 
BRANCH  37  38
ATOM     38  N   UNL     1      -2.926 -12.809 -11.193  1.00  0.00    -0.352 N 
ATOM     39  C   UNL     1      -3.015 -12.685 -12.556  1.00  0.00     0.251 C 
ATOM     40  H   UNL     1      -2.023 -12.999 -10.850  1.00  0.00     0.163 HD
ATOM     41  O   UNL     1      -2.079 -13.036 -13.269  1.00  0.00    -0.269 OA
BRANCH  39  42
ATOM     42  C   UNL     1      -4.240 -12.138 -13.177  1.00  0.00     0.039 A 
ATOM     43  C   UNL     1      -4.753 -12.758 -14.320  1.00  0.00     0.014 A 
ATOM     44  C   UNL     1      -4.859 -10.996 -12.661  1.00  0.00     0.014 A 
ATOM     45  C   UNL     1      -5.920 -12.268 -14.911  1.00  0.00     0.010 A 
ATOM     46  C   UNL     1      -6.057 -10.547 -13.213  1.00  0.00     0.010 A 
ATOM     47  C   UNL     1      -6.598 -11.178 -14.343  1.00  0.00    -0.014 A 
BRANCH  47  48
ATOM     48  C   UNL     1      -7.879 -10.688 -14.913  1.00  0.00     0.031 A 
ATOM     49  C   UNL     1      -7.966  -9.313 -15.513  1.00  0.00     0.074 A 
ATOM     50  C   UNL     1      -8.982 -11.456 -14.819  1.00  0.00     0.049 A 
ATOM     51  N   UNL     1      -9.011  -8.679 -15.983  1.00  0.00    -0.248 NA
ATOM     52  C   UNL     1      -6.718  -8.535 -15.568  1.00  0.00     0.031 C 
ATOM     53  C   UNL     1      -9.036 -12.786 -14.212  1.00  0.00     0.029 A 
ATOM     54  N   UNL     1     -10.275 -11.220 -15.217  1.00  0.00    -0.354 N 
ATOM     55  C   UNL     1      -8.552  -7.426 -16.368  1.00  0.00     0.074 A 
ATOM     56  C   UNL     1      -7.144  -7.372 -16.041  1.00  0.00     0.031 C 
ATOM     57  C   UNL     1     -10.292 -13.253 -14.286  1.00  0.00     0.029 A 
ATOM     58  C   UNL     1     -11.139 -12.243 -14.913  1.00  0.00     0.049 A 
ATOM     59  H   UNL     1     -10.556 -10.395 -15.676  1.00  0.00     0.167 HD
ATOM     60  C   UNL     1      -9.241  -6.421 -16.958  1.00  0.00     0.037 A 
ATOM     61  C   UNL     1     -12.467 -12.349 -15.107  1.00  0.00     0.037 A 
ATOM     62  C   UNL     1     -10.634  -6.492 -17.315  1.00  0.00     0.049 A 
ATOM     63  C   UNL     1     -13.205 -11.222 -15.777  1.00  0.00     0.074 A 
ATOM     64  C   UNL     1     -11.400  -5.560 -17.992  1.00  0.00     0.029 A 
ATOM     65  N   UNL     1     -11.471  -7.558 -17.019  1.00  0.00    -0.354 N 
ATOM     66  N   UNL     1     -12.743 -10.074 -16.209  1.00  0.00    -0.248 NA
ATOM     67  C   UNL     1     -14.647 -11.408 -15.991  1.00  0.00     0.031 C 
ATOM     68  C   UNL     1     -12.712  -6.040 -18.065  1.00  0.00     0.029 A 
ATOM     69  C   UNL     1     -12.752  -7.294 -17.477  1.00  0.00     0.049 A 
ATOM     70  H   UNL     1     -11.195  -8.381 -16.554  1.00  0.00     0.167 HD
ATOM     71  C   UNL     1     -13.829  -9.412 -16.767  1.00  0.00     0.074 A 
ATOM     72  C   UNL     1     -14.969 -10.294 -16.633  1.00  0.00     0.031 C 
ATOM     73  C   UNL     1     -13.876  -8.184 -17.338  1.00  0.00     0.037 A 
BRANCH  60  74
ATOM     74  C   UNL     1      -8.501  -5.150 -17.260  1.00  0.00     0.064 A 
ATOM     75  C   UNL     1      -7.536  -5.083 -18.276  1.00  0.00     0.173 A 
ATOM     76  C   UNL     1      -8.799  -3.971 -16.560  1.00  0.00     0.173 A 
ATOM     77  F   UNL     1      -7.208  -6.184 -18.969  1.00  0.00    -0.203 F 
ATOM     78  C   UNL     1      -6.878  -3.890 -18.563  1.00  0.00     0.198 A 
ATOM     79  C   UNL     1      -8.160  -2.773 -16.868  1.00  0.00     0.198 A 
ATOM     80  F   UNL     1      -9.719  -3.978 -15.583  1.00  0.00    -0.203 F 
ATOM     81  F   UNL     1      -5.930  -3.860 -19.509  1.00  0.00    -0.200 F 
ATOM     82  C   UNL     1      -7.197  -2.735 -17.864  1.00  0.00     0.200 A 
ATOM     83  F   UNL     1      -8.478  -1.655 -16.201  1.00  0.00    -0.200 F 
ATOM     84  F   UNL     1      -6.571  -1.584 -18.149  1.00  0.00    -0.200 F 
ENDBRANCH  60  74
BRANCH  61  85
ATOM     85  C   UNL     1     -13.184 -13.576 -14.672  1.00  0.00     0.064 A 
ATOM     86  C   UNL     1     -13.703 -14.478 -15.611  1.00  0.00     0.173 A 
ATOM     87  C   UNL     1     -13.368 -13.870 -13.313  1.00  0.00     0.173 A 
ATOM     88  F   UNL     1     -13.570 -14.229 -16.922  1.00  0.00    -0.203 F 
ATOM     89  C   UNL     1     -14.399 -15.616 -15.207  1.00  0.00     0.198 A 
ATOM     90  C   UNL     1     -14.039 -15.022 -12.911  1.00  0.00     0.198 A 
ATOM     91  F   UNL     1     -12.886 -13.041 -12.375  1.00  0.00    -0.203 F 
ATOM     92  F   UNL     1     -14.925 -16.437 -16.126  1.00  0.00    -0.200 F 
ATOM     93  C   UNL     1     -14.561 -15.890 -13.858  1.00  0.00     0.200 A 
ATOM     94  F   UNL     1     -14.182 -15.291 -11.606  1.00  0.00    -0.200 F 
ATOM     95  F   UNL     1     -15.227 -16.986 -13.470  1.00  0.00    -0.200 F 
ENDBRANCH  61  85
BRANCH  73  96
ATOM     96  C   UNL     1     -15.198  -7.731 -17.884  1.00  0.00     0.064 A 
ATOM     97  C   UNL     1     -16.252  -7.356 -17.038  1.00  0.00     0.173 A 
ATOM     98  C   UNL     1     -15.399  -7.632 -19.270  1.00  0.00     0.173 A 
ATOM     99  F   UNL     1     -16.114  -7.448 -15.707  1.00  0.00    -0.203 F 
ATOM    100  C   UNL     1     -17.467  -6.919 -17.561  1.00  0.00     0.198 A 
ATOM    101  C   UNL     1     -16.604  -7.168 -19.787  1.00  0.00     0.198 A 
ATOM    102  F   UNL     1     -14.419  -7.973 -20.121  1.00  0.00    -0.203 F 
ATOM    103  F   UNL     1     -18.475  -6.608 -16.734  1.00  0.00    -0.200 F 
ATOM    104  C   UNL     1     -17.639  -6.818 -18.933  1.00  0.00     0.200 A 
ATOM    105  F   UNL     1     -16.765  -7.058 -21.113  1.00  0.00    -0.200 F 
ATOM    106  F   UNL     1     -18.806  -6.390 -19.433  1.00  0.00    -0.200 F 
ENDBRANCH  73  96
ENDBRANCH  47  48
ENDBRANCH  39  42
ENDBRANCH  37  38
ENDBRANCH  36  37
ENDBRANCH  35  36
ENDBRANCH  34  35
ENDBRANCH  33  34
ENDBRANCH  32  33
ENDBRANCH   3  32
TORSDOF 23
