REMARK SMILES Cc1cc(NC(=O)N2CCO[C@@H](CC(=O)NCCCCCCNC(=O)c3ccc(-c4c5nc(c(-c6c(F)c(F)c(F)c(F)c6F)c6ccc([nH]6)c(-c6c(F)c(F)c(F)c(F)c6F)c6nc(c(-c7c(F)c(F)c(F)c(F)c7F)c7ccc4[nH]7)C=C6)C=C5)cc3)C2)ccc1F
REMARK SMILES IDX 19 1 18 2 17 3 16 4 14 5 15 6 13 8 12 9 8 10 9 11 89 12
REMARK SMILES IDX 10 13 11 14 6 15 5 16 7 18 4 19 1 20 2 21 3 22 92 23 91 24
REMARK SMILES IDX 93 25 90 26 20 27 21 28 22 29 23 30 24 31 25 33 26 34 27 35
REMARK SMILES IDX 88 36 28 37 87 38 29 39 30 40 31 41 81 42 32 43 86 44 80 45
REMARK SMILES IDX 82 46 33 47 85 48 79 49 78 50 34 52 66 53 46 54 65 55 47 56
REMARK SMILES IDX 50 57 64 58 83 59 48 60 49 61 63 63 84 64 51 65 35 66 36 67
REMARK SMILES IDX 44 68 37 69 38 70 42 71 45 72 39 73 40 74 43 75 41 76 67 77
REMARK SMILES IDX 68 78 76 79 69 80 70 81 74 82 77 83 71 84 72 85 75 86 73 87
REMARK SMILES IDX 52 88 53 89 61 90 54 91 55 92 59 93 62 94 56 95 57 96 60 97
REMARK SMILES IDX 58 98
REMARK H PARENT 16 7 5 17 23 32 82 51 50 62
REMARK Flexibility Score: inf
ROOT
ATOM      1  C   UNL     1      -9.001  -1.008  -2.142  1.00  0.00     0.002 C 
ENDROOT
BRANCH   1   2
ATOM      2  C   UNL     1      -7.793  -1.541  -1.378  1.00  0.00     0.021 C 
BRANCH   2   3
ATOM      3  C   UNL     1      -7.885  -3.033  -1.046  1.00  0.00     0.116 C 
BRANCH   3   4
ATOM      4  N   UNL     1      -7.240  -3.816  -2.082  1.00  0.00    -0.356 N 
ATOM      5  C   UNL     1      -6.086  -4.538  -2.040  1.00  0.00     0.222 C 
ATOM      6  O   UNL     1      -5.628  -4.976  -3.095  1.00  0.00    -0.275 OA
ATOM      7  H   UNL     1      -7.708  -3.828  -2.949  1.00  0.00     0.163 HD
BRANCH   5   8
ATOM      8  C   UNL     1      -5.394  -4.794  -0.721  1.00  0.00     0.133 C 
BRANCH   8   9
ATOM      9  C   UNL     1      -4.267  -3.808  -0.417  1.00  0.00     0.147 C 
ATOM     10  N   UNL     1      -3.786  -1.460   0.268  1.00  0.00    -0.320 N 
ATOM     11  C   UNL     1      -3.062  -1.966   1.437  1.00  0.00     0.150 C 
ATOM     12  C   UNL     1      -4.786  -2.373  -0.243  1.00  0.00     0.154 C 
ATOM     13  C   UNL     1      -2.553  -3.388   1.184  1.00  0.00     0.182 C 
ATOM     14  O   UNL     1      -3.632  -4.257   0.803  1.00  0.00    -0.374 OA
BRANCH  10  15
ATOM     15  C   UNL     1      -3.966  -0.116   0.035  1.00  0.00     0.322 C 
ATOM     16  N   UNL     1      -2.874   0.700   0.012  1.00  0.00    -0.308 N 
ATOM     17  H   UNL     1      -3.061   1.648   0.200  1.00  0.00     0.171 HD
ATOM     18  O   UNL     1      -5.082   0.373  -0.148  1.00  0.00    -0.248 OA
BRANCH  16  19
ATOM     19  C   UNL     1      -1.524   0.399  -0.238  1.00  0.00     0.043 A 
ATOM     20  C   UNL     1       1.832   2.127   0.266  1.00  0.00     0.047 C 
ATOM     21  C   UNL     1       0.796   1.101  -0.072  1.00  0.00    -0.013 A 
ATOM     22  C   UNL     1      -0.572   1.379   0.060  1.00  0.00     0.032 A 
ATOM     23  C   UNL     1       1.190  -0.173  -0.487  1.00  0.00     0.126 A 
ATOM     24  C   UNL     1       0.255  -1.125  -0.862  1.00  0.00     0.041 A 
ATOM     25  F   UNL     1       2.491  -0.488  -0.541  1.00  0.00    -0.207 F 
ATOM     26  C   UNL     1      -1.101  -0.820  -0.777  1.00  0.00     0.029 A 
ENDBRANCH  16  19
ENDBRANCH  10  15
ENDBRANCH   8   9
ENDBRANCH   5   8
ENDBRANCH   3   4
ENDBRANCH   2   3
ENDBRANCH   1   2
BRANCH   1  27
ATOM     27  C   UNL     1     -10.333  -1.139  -1.394  1.00  0.00     0.002 C 
BRANCH  27  28
ATOM     28  C   UNL     1     -10.339  -0.586   0.039  1.00  0.00     0.021 C 
BRANCH  28  29
ATOM     29  C   UNL     1     -10.015   0.895   0.092  1.00  0.00     0.116 C 
BRANCH  29  30
ATOM     30  N   UNL     1     -11.046   1.675  -0.582  1.00  0.00    -0.352 N 
ATOM     31  C   UNL     1     -11.368   2.999  -0.443  1.00  0.00     0.251 C 
ATOM     32  H   UNL     1     -11.591   1.176  -1.233  1.00  0.00     0.163 HD
ATOM     33  O   UNL     1     -12.454   3.415  -0.827  1.00  0.00    -0.269 OA
BRANCH  31  34
ATOM     34  C   UNL     1     -10.377   3.933   0.115  1.00  0.00     0.039 A 
ATOM     35  C   UNL     1     -10.794   5.120   0.738  1.00  0.00     0.014 A 
ATOM     36  C   UNL     1      -9.027   3.691  -0.118  1.00  0.00     0.014 A 
ATOM     37  C   UNL     1      -9.847   6.079   1.093  1.00  0.00     0.010 A 
ATOM     38  C   UNL     1      -8.089   4.564   0.343  1.00  0.00     0.010 A 
ATOM     39  C   UNL     1      -8.506   5.791   0.858  1.00  0.00    -0.014 A 
BRANCH  39  40
ATOM     40  C   UNL     1      -7.405   6.720   0.987  1.00  0.00     0.031 A 
ATOM     41  C   UNL     1      -6.769   6.943   2.284  1.00  0.00     0.074 A 
ATOM     42  C   UNL     1      -6.817   7.052  -0.183  1.00  0.00     0.049 A 
ATOM     43  N   UNL     1      -5.927   7.887   2.506  1.00  0.00    -0.248 NA
ATOM     44  C   UNL     1      -7.022   6.102   3.448  1.00  0.00     0.031 C 
ATOM     45  C   UNL     1      -5.463   7.518  -0.432  1.00  0.00     0.029 A 
ATOM     46  N   UNL     1      -7.422   7.065  -1.451  1.00  0.00    -0.354 N 
ATOM     47  C   UNL     1      -5.311   7.617   3.705  1.00  0.00     0.074 A 
ATOM     48  C   UNL     1      -6.097   6.560   4.301  1.00  0.00     0.031 C 
ATOM     49  C   UNL     1      -5.415   8.045  -1.669  1.00  0.00     0.029 A 
ATOM     50  C   UNL     1      -6.780   8.092  -2.172  1.00  0.00     0.049 A 
ATOM     51  H   UNL     1      -8.144   6.477  -1.771  1.00  0.00     0.167 HD
ATOM     52  C   UNL     1      -4.122   8.230   3.972  1.00  0.00     0.037 A 
ATOM     53  C   UNL     1      -7.492   9.235  -2.425  1.00  0.00     0.037 A 
ATOM     54  C   UNL     1      -3.727   9.090   2.854  1.00  0.00     0.049 A 
ATOM     55  C   UNL     1      -7.001  10.439  -1.650  1.00  0.00     0.074 A 
ATOM     56  C   UNL     1      -2.889   8.929   1.762  1.00  0.00     0.029 A 
ATOM     57  N   UNL     1      -4.508  10.190   2.570  1.00  0.00    -0.354 N 
ATOM     58  N   UNL     1      -6.064  10.388  -0.745  1.00  0.00    -0.248 NA
ATOM     59  C   UNL     1      -7.559  11.783  -1.788  1.00  0.00     0.031 C 
ATOM     60  C   UNL     1      -3.211   9.939   0.805  1.00  0.00     0.029 A 
ATOM     61  C   UNL     1      -4.233  10.714   1.324  1.00  0.00     0.049 A 
ATOM     62  H   UNL     1      -5.184  10.559   3.184  1.00  0.00     0.167 HD
ATOM     63  C   UNL     1      -5.909  11.612  -0.166  1.00  0.00     0.074 A 
ATOM     64  C   UNL     1      -6.864  12.461  -0.855  1.00  0.00     0.031 C 
ATOM     65  C   UNL     1      -5.033  11.834   0.855  1.00  0.00     0.037 A 
BRANCH  52  66
ATOM     66  C   UNL     1      -3.200   7.908   5.122  1.00  0.00     0.064 A 
ATOM     67  C   UNL     1      -1.821   8.201   5.030  1.00  0.00     0.173 A 
ATOM     68  C   UNL     1      -3.599   7.327   6.340  1.00  0.00     0.173 A 
ATOM     69  F   UNL     1      -1.306   8.830   3.965  1.00  0.00    -0.203 F 
ATOM     70  C   UNL     1      -0.910   7.863   6.033  1.00  0.00     0.198 A 
ATOM     71  C   UNL     1      -2.681   6.947   7.325  1.00  0.00     0.198 A 
ATOM     72  F   UNL     1      -4.890   7.162   6.648  1.00  0.00    -0.203 F 
ATOM     73  F   UNL     1       0.385   8.172   5.883  1.00  0.00    -0.200 F 
ATOM     74  C   UNL     1      -1.335   7.210   7.169  1.00  0.00     0.200 A 
ATOM     75  F   UNL     1      -3.114   6.330   8.435  1.00  0.00    -0.200 F 
ATOM     76  F   UNL     1      -0.458   6.861   8.119  1.00  0.00    -0.200 F 
ENDBRANCH  52  66
BRANCH  53  77
ATOM     77  C   UNL     1      -8.918   8.915  -2.752  1.00  0.00     0.064 A 
ATOM     78  C   UNL     1      -9.151   8.180  -3.933  1.00  0.00     0.173 A 
ATOM     79  C   UNL     1      -9.893   8.844  -1.745  1.00  0.00     0.173 A 
ATOM     80  F   UNL     1      -8.255   8.221  -4.932  1.00  0.00    -0.203 F 
ATOM     81  C   UNL     1     -10.214   7.283  -4.030  1.00  0.00     0.198 A 
ATOM     82  C   UNL     1     -10.967   7.955  -1.855  1.00  0.00     0.198 A 
ATOM     83  F   UNL     1      -9.734   9.523  -0.600  1.00  0.00    -0.203 F 
ATOM     84  F   UNL     1     -10.323   6.492  -5.107  1.00  0.00    -0.200 F 
ATOM     85  C   UNL     1     -11.098   7.143  -2.974  1.00  0.00     0.200 A 
ATOM     86  F   UNL     1     -11.830   7.824  -0.836  1.00  0.00    -0.200 F 
ATOM     87  F   UNL     1     -12.053   6.204  -3.022  1.00  0.00    -0.200 F 
ENDBRANCH  53  77
BRANCH  65  88
ATOM     88  C   UNL     1      -4.867  13.168   1.508  1.00  0.00     0.064 A 
ATOM     89  C   UNL     1      -4.629  14.329   0.762  1.00  0.00     0.173 A 
ATOM     90  C   UNL     1      -4.806  13.295   2.912  1.00  0.00     0.173 A 
ATOM     91  F   UNL     1      -4.627  14.290  -0.579  1.00  0.00    -0.203 F 
ATOM     92  C   UNL     1      -4.375  15.550   1.385  1.00  0.00     0.198 A 
ATOM     93  C   UNL     1      -4.487  14.499   3.529  1.00  0.00     0.198 A 
ATOM     94  F   UNL     1      -5.080  12.262   3.722  1.00  0.00    -0.203 F 
ATOM     95  F   UNL     1      -4.209  16.652   0.642  1.00  0.00    -0.200 F 
ATOM     96  C   UNL     1      -4.286  15.631   2.766  1.00  0.00     0.200 A 
ATOM     97  F   UNL     1      -4.382  14.553   4.864  1.00  0.00    -0.200 F 
ATOM     98  F   UNL     1      -4.015  16.800   3.361  1.00  0.00    -0.200 F 
ENDBRANCH  65  88
ENDBRANCH  39  40
ENDBRANCH  31  34
ENDBRANCH  29  30
ENDBRANCH  28  29
ENDBRANCH  27  28
ENDBRANCH   1  27
TORSDOF 16
