REMARK SMILES O=C(COc1ccccc1Br)Nc1cccc(C(=O)Nc2ccc(C(=O)NCCCCCCNC(=O)c3ccc(-c4c5nc(c(-c6c(F)c(F)c(F)c(F)c6F)c6ccc([nH]6)c(-c6c(F)c(F)c(F)c(F)c6F)c6nc(c(-c7c(F)c(F)c(F)c(F)c7F)c7ccc4[nH]7)C=C6)C=C5)cc3)cc2)c1
REMARK SMILES IDX 28 1 27 2 25 3 26 4 24 6 21 7 22 8 101 9 23 10 100 11 20 12
REMARK SMILES IDX 18 13 19 14 17 16 13 17 14 18 102 19 15 20 16 21 12 22 1 23
REMARK SMILES IDX 2 24 3 26 4 27 5 28 6 29 10 30 7 31 9 32 11 33 8 34 29 35
REMARK SMILES IDX 30 36 31 37 32 38 33 39 34 40 35 41 36 43 37 44 38 45 99 46
REMARK SMILES IDX 39 47 98 48 40 49 41 50 42 51 92 52 43 53 97 54 91 55 93 56
REMARK SMILES IDX 44 57 96 58 90 59 89 60 45 62 77 63 57 64 76 65 58 66 61 67
REMARK SMILES IDX 75 68 94 69 59 70 60 71 74 73 95 74 62 75 46 76 47 77 55 78
REMARK SMILES IDX 48 79 49 80 53 81 56 82 50 83 51 84 54 85 52 86 78 87 79 88
REMARK SMILES IDX 87 89 80 90 81 91 85 92 88 93 82 94 83 95 86 96 84 97 63 98
REMARK SMILES IDX 64 99 72 100 65 101 66 102 70 103 73 104 67 105 68 106
REMARK SMILES IDX 71 107 69 108
REMARK H PARENT 27 5 20 15 12 25 34 42 93 61 61 72
REMARK Flexibility Score: inf
ROOT
ATOM      1  C   UNL     1       4.521   2.338  -1.284  1.00  0.00     0.116 C 
ENDROOT
BRANCH   1   2
ATOM      2  N   UNL     1       3.628   3.327  -0.711  1.00  0.00    -0.352 N 
ATOM      3  C   UNL     1       2.335   3.698  -0.988  1.00  0.00     0.251 C 
ATOM      4  O   UNL     1       1.855   4.606  -0.308  1.00  0.00    -0.269 OA
ATOM      5  H   UNL     1       4.032   3.837   0.028  1.00  0.00     0.163 HD
BRANCH   3   6
ATOM      6  C   UNL     1       1.478   3.013  -1.997  1.00  0.00     0.039 A 
ATOM      7  C   UNL     1      -0.221   1.383  -3.521  1.00  0.00     0.041 A 
ATOM      8  C   UNL     1      -0.756   2.177  -2.508  1.00  0.00     0.027 A 
ATOM      9  C   UNL     1       1.116   1.548  -3.893  1.00  0.00     0.027 A 
ATOM     10  C   UNL     1       0.100   2.962  -1.728  1.00  0.00     0.016 A 
ATOM     11  C   UNL     1       1.955   2.391  -3.152  1.00  0.00     0.016 A 
BRANCH   7  12
ATOM     12  N   UNL     1      -1.027   0.359  -4.046  1.00  0.00    -0.322 N 
ATOM     13  C   UNL     1      -0.708  -0.972  -4.273  1.00  0.00     0.255 C 
ATOM     14  O   UNL     1      -1.472  -1.675  -4.935  1.00  0.00    -0.269 OA
ATOM     15  H   UNL     1      -1.944   0.622  -4.287  1.00  0.00     0.170 HD
BRANCH  13  16
ATOM     16  C   UNL     1       0.489  -1.611  -3.642  1.00  0.00     0.042 A 
ATOM     17  C   UNL     1       2.199  -1.647  -1.909  1.00  0.00     0.042 A 
ATOM     18  C   UNL     1       2.797  -2.742  -2.537  1.00  0.00     0.026 A 
ATOM     19  C   UNL     1       1.011  -1.145  -2.430  1.00  0.00     0.040 A 
ATOM     20  C   UNL     1       2.204  -3.318  -3.665  1.00  0.00     0.003 A 
ATOM     21  C   UNL     1       1.060  -2.744  -4.226  1.00  0.00     0.014 A 
BRANCH  17  22
ATOM     22  N   UNL     1       2.805  -1.129  -0.750  1.00  0.00    -0.323 N 
ATOM     23  O   UNL     1       1.266   0.484  -0.030  1.00  0.00    -0.271 OA
ATOM     24  C   UNL     1       2.285  -0.181   0.122  1.00  0.00     0.262 C 
ATOM     25  H   UNL     1       3.700  -1.478  -0.532  1.00  0.00     0.170 HD
BRANCH  24  26
ATOM     26  C   UNL     1       3.141  -0.006   1.369  1.00  0.00     0.329 C 
BRANCH  26  27
ATOM     27  O   UNL     1       3.765  -1.250   1.715  1.00  0.00    -0.483 OA
BRANCH  27  28
ATOM     28  C   UNL     1       3.166  -1.784   2.825  1.00  0.00     0.134 A 
ATOM     29  C   UNL     1       3.600  -1.332   4.073  1.00  0.00     0.047 A 
ATOM     30  C   UNL     1       2.190  -2.783   2.741  1.00  0.00     0.060 A 
ATOM     31  C   UNL     1       3.024  -1.843   5.235  1.00  0.00     0.004 A 
ATOM     32  C   UNL     1       1.599  -3.272   3.906  1.00  0.00     0.019 A 
ATOM     33  Br  UNL     1       1.633  -3.567   1.112  1.00  0.00    -0.047 Br
ATOM     34  C   UNL     1       2.016  -2.802   5.150  1.00  0.00     0.001 A 
ENDBRANCH  27  28
ENDBRANCH  26  27
ENDBRANCH  24  26
ENDBRANCH  17  22
ENDBRANCH  13  16
ENDBRANCH   7  12
ENDBRANCH   3   6
ENDBRANCH   1   2
BRANCH   1  35
ATOM     35  C   UNL     1       5.618   3.020  -2.098  1.00  0.00     0.021 C 
BRANCH  35  36
ATOM     36  C   UNL     1       6.711   3.659  -1.226  1.00  0.00     0.002 C 
BRANCH  36  37
ATOM     37  C   UNL     1       7.508   2.679  -0.353  1.00  0.00     0.002 C 
BRANCH  37  38
ATOM     38  C   UNL     1       8.137   1.504  -1.105  1.00  0.00     0.021 C 
BRANCH  38  39
ATOM     39  C   UNL     1       9.095   1.909  -2.222  1.00  0.00     0.116 C 
BRANCH  39  40
ATOM     40  N   UNL     1      10.259   2.616  -1.711  1.00  0.00    -0.352 N 
ATOM     41  C   UNL     1      11.592   2.299  -1.823  1.00  0.00     0.251 C 
ATOM     42  H   UNL     1      10.064   3.442  -1.212  1.00  0.00     0.163 HD
ATOM     43  O   UNL     1      12.429   2.888  -1.154  1.00  0.00    -0.269 OA
BRANCH  41  44
ATOM     44  C   UNL     1      12.007   1.219  -2.742  1.00  0.00     0.039 A 
ATOM     45  C   UNL     1      12.896   0.244  -2.282  1.00  0.00     0.014 A 
ATOM     46  C   UNL     1      11.509   1.161  -4.046  1.00  0.00     0.014 A 
ATOM     47  C   UNL     1      13.218  -0.839  -3.103  1.00  0.00     0.010 A 
ATOM     48  C   UNL     1      11.777   0.048  -4.838  1.00  0.00     0.010 A 
ATOM     49  C   UNL     1      12.621  -0.970  -4.368  1.00  0.00    -0.014 A 
BRANCH  49  50
ATOM     50  C   UNL     1      12.821  -2.189  -5.194  1.00  0.00     0.031 A 
ATOM     51  C   UNL     1      13.496  -2.097  -6.532  1.00  0.00     0.074 A 
ATOM     52  C   UNL     1      12.306  -3.361  -4.772  1.00  0.00     0.049 A 
ATOM     53  N   UNL     1      13.655  -3.025  -7.442  1.00  0.00    -0.248 NA
ATOM     54  C   UNL     1      14.047  -0.786  -6.909  1.00  0.00     0.031 C 
ATOM     55  C   UNL     1      11.591  -3.565  -3.510  1.00  0.00     0.029 A 
ATOM     56  N   UNL     1      12.281  -4.598  -5.368  1.00  0.00    -0.354 N 
ATOM     57  C   UNL     1      14.306  -2.408  -8.502  1.00  0.00     0.074 A 
ATOM     58  C   UNL     1      14.483  -1.018  -8.140  1.00  0.00     0.031 C 
ATOM     59  C   UNL     1      11.202  -4.847  -3.426  1.00  0.00     0.029 A 
ATOM     60  C   UNL     1      11.593  -5.544  -4.646  1.00  0.00     0.049 A 
ATOM     61  H   UNL     1      12.715  -4.789  -6.231  1.00  0.00     0.167 HD
ATOM     62  C   UNL     1      14.727  -2.959  -9.665  1.00  0.00     0.037 A 
ATOM     63  C   UNL     1      11.286  -6.820  -4.947  1.00  0.00     0.037 A 
ATOM     64  C   UNL     1      14.571  -4.348 -10.008  1.00  0.00     0.049 A 
ATOM     65  C   UNL     1      11.752  -7.396  -6.258  1.00  0.00     0.074 A 
ATOM     66  C   UNL     1      15.039  -5.016 -11.126  1.00  0.00     0.029 A 
ATOM     67  N   UNL     1      13.885  -5.280  -9.244  1.00  0.00    -0.354 N 
ATOM     68  N   UNL     1      12.442  -6.825  -7.214  1.00  0.00    -0.248 NA
ATOM     69  C   UNL     1      11.396  -8.796  -6.532  1.00  0.00     0.031 C 
ATOM     70  C   UNL     1      14.581  -6.335 -11.072  1.00  0.00     0.029 A 
ATOM     71  C   UNL     1      13.882  -6.508  -9.888  1.00  0.00     0.049 A 
ATOM     72  H   UNL     1      13.463  -5.098  -8.373  1.00  0.00     0.167 HD
ATOM     73  C   UNL     1      12.624  -7.798  -8.188  1.00  0.00     0.074 A 
ATOM     74  C   UNL     1      11.993  -9.004  -7.696  1.00  0.00     0.031 C 
ATOM     75  C   UNL     1      13.252  -7.701  -9.385  1.00  0.00     0.037 A 
BRANCH  62  76
ATOM     76  C   UNL     1      15.399  -2.067 -10.668  1.00  0.00     0.064 A 
ATOM     77  C   UNL     1      16.690  -1.561 -10.460  1.00  0.00     0.173 A 
ATOM     78  C   UNL     1      14.775  -1.789 -11.895  1.00  0.00     0.173 A 
ATOM     79  F   UNL     1      17.326  -1.790  -9.301  1.00  0.00    -0.203 F 
ATOM     80  C   UNL     1      17.328  -0.801 -11.438  1.00  0.00     0.198 A 
ATOM     81  C   UNL     1      15.427  -1.054 -12.881  1.00  0.00     0.198 A 
ATOM     82  F   UNL     1      13.542  -2.254 -12.147  1.00  0.00    -0.203 F 
ATOM     83  F   UNL     1      18.551  -0.304 -11.205  1.00  0.00    -0.200 F 
ATOM     84  C   UNL     1      16.702  -0.559 -12.651  1.00  0.00     0.200 A 
ATOM     85  F   UNL     1      14.826  -0.835 -14.059  1.00  0.00    -0.200 F 
ATOM     86  F   UNL     1      17.326   0.153 -13.599  1.00  0.00    -0.200 F 
ENDBRANCH  62  76
BRANCH  63  87
ATOM     87  C   UNL     1      10.475  -7.640  -4.005  1.00  0.00     0.064 A 
ATOM     88  C   UNL     1      11.018  -8.767  -3.372  1.00  0.00     0.173 A 
ATOM     89  C   UNL     1       9.128  -7.338  -3.752  1.00  0.00     0.173 A 
ATOM     90  F   UNL     1      12.295  -9.110  -3.596  1.00  0.00    -0.203 F 
ATOM     91  C   UNL     1      10.236  -9.579  -2.552  1.00  0.00     0.198 A 
ATOM     92  C   UNL     1       8.358  -8.130  -2.903  1.00  0.00     0.198 A 
ATOM     93  F   UNL     1       8.558  -6.268  -4.326  1.00  0.00    -0.203 F 
ATOM     94  F   UNL     1      10.764 -10.687  -2.014  1.00  0.00    -0.200 F 
ATOM     95  C   UNL     1       8.909  -9.258  -2.316  1.00  0.00     0.200 A 
ATOM     96  F   UNL     1       7.081  -7.804  -2.663  1.00  0.00    -0.200 F 
ATOM     97  F   UNL     1       8.156 -10.042  -1.531  1.00  0.00    -0.200 F 
ENDBRANCH  63  87
BRANCH  75  98
ATOM     98  C   UNL     1      13.311  -8.937 -10.235  1.00  0.00     0.064 A 
ATOM     99  C   UNL     1      12.167  -9.455 -10.861  1.00  0.00     0.173 A 
ATOM    100  C   UNL     1      14.533  -9.590 -10.459  1.00  0.00     0.173 A 
ATOM    101  F   UNL     1      10.972  -8.878 -10.666  1.00  0.00    -0.203 F 
ATOM    102  C   UNL     1      12.241 -10.595 -11.657  1.00  0.00     0.198 A 
ATOM    103  C   UNL     1      14.609 -10.708 -11.283  1.00  0.00     0.198 A 
ATOM    104  F   UNL     1      15.659  -9.132  -9.890  1.00  0.00    -0.203 F 
ATOM    105  F   UNL     1      11.126 -11.102 -12.201  1.00  0.00    -0.200 F 
ATOM    106  C   UNL     1      13.462 -11.215 -11.874  1.00  0.00     0.200 A 
ATOM    107  F   UNL     1      15.793 -11.296 -11.506  1.00  0.00    -0.200 F 
ATOM    108  F   UNL     1      13.532 -12.307 -12.649  1.00  0.00    -0.200 F 
ENDBRANCH  75  98
ENDBRANCH  49  50
ENDBRANCH  41  44
ENDBRANCH  39  40
ENDBRANCH  38  39
ENDBRANCH  37  38
ENDBRANCH  36  37
ENDBRANCH  35  36
ENDBRANCH   1  35
TORSDOF 19
