REMARK SMILES O=C(COc1ccc(/C=C2\C(=O)N(c3ccc(Cl)cc3Cl)C(=O)N=C2O)cc1Cl)NCCCCCCNC(=O)c1ccc(-c2c3nc(c(-c4c(F)c(F)c(F)c(F)c4F)c4ccc([nH]4)c(-c4c(F)c(F)c(F)c(F)c4F)c4nc(c(-c5c(F)c(F)c(F)c(F)c5F)c5ccc2[nH]5)C=C4)C=C3)cc1
REMARK SMILES IDX 32 1 31 2 30 3 1 4 2 5 3 7 4 8 5 9 6 10 28 11 7 12 27 13
REMARK SMILES IDX 29 14 8 15 9 16 10 17 11 18 25 19 12 20 13 21 24 22 22 23
REMARK SMILES IDX 23 24 26 25 14 27 15 28 20 29 16 30 19 31 21 32 17 33 18 34
REMARK SMILES IDX 33 35 34 36 35 37 36 38 37 39 38 40 39 42 40 43 41 44 102 45
REMARK SMILES IDX 42 46 101 47 43 48 44 49 45 50 95 51 46 52 100 53 94 54
REMARK SMILES IDX 96 55 47 56 99 57 93 58 92 59 48 61 80 62 60 63 79 64 61 65
REMARK SMILES IDX 64 66 78 67 97 68 62 69 63 70 77 72 98 73 65 74 49 75 50 76
REMARK SMILES IDX 58 77 51 78 52 79 56 80 59 81 53 82 54 83 57 84 55 85 81 86
REMARK SMILES IDX 82 87 90 88 83 89 84 90 88 91 91 92 85 93 86 94 89 95 87 96
REMARK SMILES IDX 66 97 67 98 75 99 68 100 69 101 73 102 76 103 70 104 71 105
REMARK SMILES IDX 74 106 72 107
REMARK H PARENT 30 6 26 26 37 41 96 60 64 71
REMARK Flexibility Score: inf
ROOT
ATOM      1  C   UNL     1       2.879   3.417   1.365  1.00  0.00     0.021 C 
ENDROOT
BRANCH   1   2
ATOM      2  C   UNL     1       2.091   2.507   0.435  1.00  0.00     0.116 C 
BRANCH   2   3
ATOM      3  N   UNL     1       2.703   1.214   0.244  1.00  0.00    -0.353 N 
ATOM      4  O   UNL     1       1.184  -0.034   1.447  1.00  0.00    -0.271 OA
ATOM      5  C   UNL     1       2.105   0.035   0.639  1.00  0.00     0.257 C 
ATOM      6  H   UNL     1       3.587   1.172  -0.186  1.00  0.00     0.163 HD
BRANCH   5   7
ATOM      7  C   UNL     1       2.691  -1.199  -0.051  1.00  0.00     0.329 C 
BRANCH   7   8
ATOM      8  O   UNL     1       3.424  -0.836  -1.227  1.00  0.00    -0.482 OA
BRANCH   8   9
ATOM      9  C   UNL     1       2.848  -1.248  -2.399  1.00  0.00     0.138 A 
ATOM     10  C   UNL     1       3.599  -2.154  -3.147  1.00  0.00     0.048 A 
ATOM     11  C   UNL     1       1.674  -0.722  -2.950  1.00  0.00     0.083 A 
ATOM     12  C   UNL     1       3.181  -2.539  -4.425  1.00  0.00     0.012 A 
ATOM     13  C   UNL     1       1.246  -1.133  -4.217  1.00  0.00     0.032 A 
ATOM     14  Cl  UNL     1       0.725   0.503  -2.200  1.00  0.00    -0.080 Cl
ATOM     15  C   UNL     1       1.986  -2.051  -4.969  1.00  0.00    -0.023 A 
BRANCH  15  16
ATOM     16  C   UNL     1       1.526  -2.324  -6.342  1.00  0.00     0.027 C 
ATOM     17  C   UNL     1       1.645  -3.440  -7.085  1.00  0.00     0.103 C 
ATOM     18  C   UNL     1       2.273  -4.698  -6.636  1.00  0.00     0.272 C 
ATOM     19  C   UNL     1       1.264  -3.447  -8.491  1.00  0.00     0.228 C 
ATOM     20  O   UNL     1       2.159  -5.094  -5.481  1.00  0.00    -0.268 OA
ATOM     21  N   UNL     1       2.990  -5.312  -7.654  1.00  0.00    -0.224 N 
ATOM     22  N   UNL     1       1.665  -4.278  -9.374  1.00  0.00    -0.156 NA
ATOM     23  C   UNL     1       2.592  -5.225  -9.000  1.00  0.00     0.358 C 
ATOM     24  O   UNL     1       3.005  -6.021  -9.844  1.00  0.00    -0.245 OA
BRANCH  19  25
ATOM     25  O   UNL     1       0.396  -2.500  -8.867  1.00  0.00    -0.493 OA
ATOM     26  H   UNL     1       0.084  -1.876  -8.241  1.00  0.00     0.295 HD
ENDBRANCH  19  25
BRANCH  21  27
ATOM     27  C   UNL     1       4.090  -6.165  -7.310  1.00  0.00     0.073 A 
ATOM     28  C   UNL     1       3.951  -7.144  -6.312  1.00  0.00     0.030 A 
ATOM     29  C   UNL     1       5.363  -5.984  -7.894  1.00  0.00     0.066 A 
ATOM     30  C   UNL     1       5.038  -7.932  -5.924  1.00  0.00     0.023 A 
ATOM     31  C   UNL     1       6.447  -6.780  -7.511  1.00  0.00     0.043 A 
ATOM     32  Cl  UNL     1       5.715  -4.661  -8.960  1.00  0.00    -0.082 Cl
ATOM     33  C   UNL     1       6.278  -7.750  -6.528  1.00  0.00     0.042 A 
ATOM     34  Cl  UNL     1       7.619  -8.703  -6.029  1.00  0.00    -0.084 Cl
ENDBRANCH  21  27
ENDBRANCH  15  16
ENDBRANCH   8   9
ENDBRANCH   7   8
ENDBRANCH   5   7
ENDBRANCH   2   3
ENDBRANCH   1   2
BRANCH   1  35
ATOM     35  C   UNL     1       4.350   3.628   0.991  1.00  0.00     0.002 C 
BRANCH  35  36
ATOM     36  C   UNL     1       4.633   4.101  -0.438  1.00  0.00     0.002 C 
BRANCH  36  37
ATOM     37  C   UNL     1       3.918   5.377  -0.884  1.00  0.00     0.021 C 
BRANCH  37  38
ATOM     38  C   UNL     1       4.066   6.581   0.038  1.00  0.00     0.116 C 
BRANCH  38  39
ATOM     39  N   UNL     1       5.445   6.999   0.224  1.00  0.00    -0.352 N 
ATOM     40  C   UNL     1       5.970   8.268   0.272  1.00  0.00     0.251 C 
ATOM     41  H   UNL     1       6.097   6.269   0.331  1.00  0.00     0.163 HD
ATOM     42  O   UNL     1       7.184   8.431   0.346  1.00  0.00    -0.269 OA
BRANCH  40  43
ATOM     43  C   UNL     1       5.077   9.447   0.195  1.00  0.00     0.039 A 
ATOM     44  C   UNL     1       5.432  10.499  -0.654  1.00  0.00     0.014 A 
ATOM     45  C   UNL     1       3.902   9.523   0.948  1.00  0.00     0.014 A 
ATOM     46  C   UNL     1       4.578  11.595  -0.800  1.00  0.00     0.010 A 
ATOM     47  C   UNL     1       3.020  10.584   0.753  1.00  0.00     0.010 A 
ATOM     48  C   UNL     1       3.348  11.629  -0.124  1.00  0.00    -0.014 A 
BRANCH  48  49
ATOM     49  C   UNL     1       2.389  12.743  -0.331  1.00  0.00     0.031 A 
ATOM     50  C   UNL     1       2.054  13.675   0.798  1.00  0.00     0.074 A 
ATOM     51  C   UNL     1       1.763  12.870  -1.516  1.00  0.00     0.049 A 
ATOM     52  N   UNL     1       1.191  14.660   0.832  1.00  0.00    -0.248 NA
ATOM     53  C   UNL     1       2.765  13.454   2.067  1.00  0.00     0.031 C 
ATOM     54  C   UNL     1       1.961  11.997  -2.673  1.00  0.00     0.029 A 
ATOM     55  N   UNL     1       0.821  13.775  -1.938  1.00  0.00    -0.354 N 
ATOM     56  C   UNL     1       1.242  15.162   2.125  1.00  0.00     0.074 A 
ATOM     57  C   UNL     1       2.186  14.345   2.858  1.00  0.00     0.031 C 
ATOM     58  C   UNL     1       1.175  12.415  -3.678  1.00  0.00     0.029 A 
ATOM     59  C   UNL     1       0.398  13.566  -3.228  1.00  0.00     0.049 A 
ATOM     60  H   UNL     1       0.481  14.504  -1.371  1.00  0.00     0.167 HD
ATOM     61  C   UNL     1       0.578  16.220   2.648  1.00  0.00     0.037 A 
ATOM     62  C   UNL     1      -0.519  14.224  -3.962  1.00  0.00     0.037 A 
ATOM     63  C   UNL     1      -0.341  17.048   1.910  1.00  0.00     0.049 A 
ATOM     64  C   UNL     1      -1.234  15.404  -3.366  1.00  0.00     0.074 A 
ATOM     65  C   UNL     1      -1.008  18.185   2.330  1.00  0.00     0.029 A 
ATOM     66  N   UNL     1      -0.723  16.822   0.596  1.00  0.00    -0.354 N 
ATOM     67  N   UNL     1      -1.125  15.915  -2.164  1.00  0.00    -0.248 NA
ATOM     68  C   UNL     1      -2.193  16.104  -4.231  1.00  0.00     0.031 C 
ATOM     69  C   UNL     1      -1.826  18.625   1.283  1.00  0.00     0.029 A 
ATOM     70  C   UNL     1      -1.635  17.787   0.196  1.00  0.00     0.049 A 
ATOM     71  H   UNL     1      -0.396  16.085   0.031  1.00  0.00     0.167 HD
ATOM     72  C   UNL     1      -1.982  17.006  -2.133  1.00  0.00     0.074 A 
ATOM     73  C   UNL     1      -2.596  17.091  -3.442  1.00  0.00     0.031 C 
ATOM     74  C   UNL     1      -2.238  17.859  -1.111  1.00  0.00     0.037 A 
BRANCH  61  75
ATOM     75  C   UNL     1       0.824  16.541   4.093  1.00  0.00     0.064 A 
ATOM     76  C   UNL     1       2.050  17.067   4.531  1.00  0.00     0.173 A 
ATOM     77  C   UNL     1      -0.181  16.336   5.050  1.00  0.00     0.173 A 
ATOM     78  F   UNL     1       3.047  17.271   3.658  1.00  0.00    -0.203 F 
ATOM     79  C   UNL     1       2.272  17.341   5.878  1.00  0.00     0.198 A 
ATOM     80  C   UNL     1       0.035  16.639   6.392  1.00  0.00     0.198 A 
ATOM     81  F   UNL     1      -1.373  15.842   4.684  1.00  0.00    -0.203 F 
ATOM     82  F   UNL     1       3.469  17.790   6.280  1.00  0.00    -0.200 F 
ATOM     83  C   UNL     1       1.264  17.132   6.806  1.00  0.00     0.200 A 
ATOM     84  F   UNL     1      -0.944  16.447   7.287  1.00  0.00    -0.200 F 
ATOM     85  F   UNL     1       1.479  17.396   8.102  1.00  0.00    -0.200 F 
ENDBRANCH  61  75
BRANCH  62  86
ATOM     86  C   UNL     1      -0.786  13.793  -5.357  1.00  0.00     0.064 A 
ATOM     87  C   UNL     1      -0.336  14.556  -6.442  1.00  0.00     0.173 A 
ATOM     88  C   UNL     1      -1.471  12.601  -5.634  1.00  0.00     0.173 A 
ATOM     89  F   UNL     1       0.306  15.713  -6.226  1.00  0.00    -0.203 F 
ATOM     90  C   UNL     1      -0.570  14.149  -7.754  1.00  0.00     0.198 A 
ATOM     91  C   UNL     1      -1.684  12.183  -6.946  1.00  0.00     0.198 A 
ATOM     92  F   UNL     1      -1.917  11.833  -4.628  1.00  0.00    -0.203 F 
ATOM     93  F   UNL     1      -0.156  14.913  -8.774  1.00  0.00    -0.200 F 
ATOM     94  C   UNL     1      -1.237  12.959  -8.005  1.00  0.00     0.200 A 
ATOM     95  F   UNL     1      -2.317  11.026  -7.184  1.00  0.00    -0.200 F 
ATOM     96  F   UNL     1      -1.452  12.562  -9.266  1.00  0.00    -0.200 F 
ENDBRANCH  62  86
BRANCH  74  97
ATOM     97  C   UNL     1      -3.207  18.973  -1.373  1.00  0.00     0.064 A 
ATOM     98  C   UNL     1      -4.586  18.738  -1.472  1.00  0.00     0.173 A 
ATOM     99  C   UNL     1      -2.754  20.296  -1.488  1.00  0.00     0.173 A 
ATOM    100  F   UNL     1      -5.065  17.488  -1.387  1.00  0.00    -0.203 F 
ATOM    101  C   UNL     1      -5.475  19.786  -1.697  1.00  0.00     0.198 A 
ATOM    102  C   UNL     1      -3.648  21.344  -1.686  1.00  0.00     0.198 A 
ATOM    103  F   UNL     1      -1.445  20.573  -1.396  1.00  0.00    -0.203 F 
ATOM    104  F   UNL     1      -6.785  19.534  -1.829  1.00  0.00    -0.200 F 
ATOM    105  C   UNL     1      -5.007  21.088  -1.797  1.00  0.00     0.200 A 
ATOM    106  F   UNL     1      -3.196  22.603  -1.772  1.00  0.00    -0.200 F 
ATOM    107  F   UNL     1      -5.865  22.095  -2.006  1.00  0.00    -0.200 F 
ENDBRANCH  74  97
ENDBRANCH  48  49
ENDBRANCH  40  43
ENDBRANCH  38  39
ENDBRANCH  37  38
ENDBRANCH  36  37
ENDBRANCH  35  36
ENDBRANCH   1  35
TORSDOF 18
