REMARK SMILES C/C(=C(\C#N)C(=O)NCCCCCCNC(=O)c1ccc(-c2c3nc(c(-c4c(F)c(F)c(F)c(F)c4F)c4ccc([nH]4)c(-c4c(F)c(F)c(F)c(F)c4F)c4nc(c(-c5c(F)c(F)c(F)c(F)c5F)c5ccc2[nH]5)C=C4)C=C3)cc1)c1cccc2ccccc12
REMARK SMILES IDX 12 1 11 2 10 3 9 4 8 5 6 6 7 7 3 9 1 10 2 11 81 12 82 13
REMARK SMILES IDX 90 14 83 15 85 16 89 17 84 18 86 19 88 20 87 21 4 22 5 23
REMARK SMILES IDX 13 24 14 25 15 26 16 27 17 29 18 30 19 31 80 32 20 33 79 34
REMARK SMILES IDX 21 35 22 36 23 37 73 38 24 39 78 40 72 41 74 42 25 43 77 44
REMARK SMILES IDX 71 45 70 46 26 48 58 49 38 50 57 51 39 52 42 53 56 54 75 55
REMARK SMILES IDX 40 56 41 57 55 59 76 60 43 61 27 62 28 63 36 64 29 65 30 66
REMARK SMILES IDX 34 67 37 68 31 69 32 70 35 71 33 72 59 73 60 74 68 75 61 76
REMARK SMILES IDX 62 77 66 78 69 79 63 80 64 81 67 82 65 83 44 84 45 85 53 86
REMARK SMILES IDX 46 87 47 88 51 89 54 90 48 91 49 92 52 93 50 94
REMARK H PARENT 8 8 15 28 74 47 42 58
REMARK Flexibility Score: inf
ROOT
ATOM      1  C   UNL     1      -3.791  -6.823   1.995  1.00  0.00     0.002 C 
ENDROOT
BRANCH   1   2
ATOM      2  C   UNL     1      -4.150  -5.626   1.103  1.00  0.00     0.002 C 
BRANCH   2   3
ATOM      3  C   UNL     1      -3.470  -4.311   1.496  1.00  0.00     0.021 C 
BRANCH   3   4
ATOM      4  C   UNL     1      -1.961  -4.452   1.639  1.00  0.00     0.116 C 
BRANCH   4   5
ATOM      5  N   UNL     1      -1.289  -4.473   0.356  1.00  0.00    -0.351 N 
ATOM      6  C   UNL     1      -0.481  -3.628  -0.336  1.00  0.00     0.262 C 
ATOM      7  O   UNL     1       0.068  -4.162  -1.301  1.00  0.00    -0.268 OA
ATOM      8  H   UNL     1      -1.459  -5.308  -0.137  1.00  0.00     0.163 HD
BRANCH   6   9
ATOM      9  C   UNL     1      -0.216  -2.180   0.052  1.00  0.00     0.120 C 
ATOM     10  C   UNL     1       0.959   0.027  -0.240  1.00  0.00     0.046 C 
ATOM     11  C   UNL     1       0.465  -1.302  -0.753  1.00  0.00    -0.020 C 
BRANCH  11  12
ATOM     12  C   UNL     1       0.760  -1.599  -2.212  1.00  0.00    -0.013 A 
ATOM     13  C   UNL     1      -0.361  -1.989  -2.976  1.00  0.00     0.009 A 
ATOM     14  C   UNL     1       2.051  -1.616  -2.855  1.00  0.00    -0.011 A 
ATOM     15  C   UNL     1      -0.217  -2.636  -4.198  1.00  0.00     0.001 A 
ATOM     16  C   UNL     1       2.178  -2.345  -4.074  1.00  0.00    -0.018 A 
ATOM     17  C   UNL     1       3.232  -0.950  -2.426  1.00  0.00     0.009 A 
ATOM     18  C   UNL     1       1.052  -2.884  -4.699  1.00  0.00     0.009 A 
ATOM     19  C   UNL     1       3.424  -2.513  -4.702  1.00  0.00     0.009 A 
ATOM     20  C   UNL     1       4.442  -1.021  -3.137  1.00  0.00     0.001 A 
ATOM     21  C   UNL     1       4.550  -1.839  -4.250  1.00  0.00     0.001 A 
ENDBRANCH  11  12
BRANCH   9  22
ATOM     22  C   UNL     1      -0.583  -1.831   1.486  1.00  0.00     0.105 C 
ATOM     23  N   UNL     1      -0.888  -1.542   2.675  1.00  0.00    -0.192 NA
ENDBRANCH   9  22
ENDBRANCH   6   9
ENDBRANCH   4   5
ENDBRANCH   3   4
ENDBRANCH   2   3
ENDBRANCH   1   2
BRANCH   1  24
ATOM     24  C   UNL     1      -3.941  -6.569   3.498  1.00  0.00     0.021 C 
BRANCH  24  25
ATOM     25  C   UNL     1      -5.361  -6.221   3.914  1.00  0.00     0.116 C 
BRANCH  25  26
ATOM     26  N   UNL     1      -6.271  -7.328   3.665  1.00  0.00    -0.352 N 
ATOM     27  C   UNL     1      -7.102  -7.968   4.551  1.00  0.00     0.251 C 
ATOM     28  H   UNL     1      -6.295  -7.662   2.739  1.00  0.00     0.163 HD
ATOM     29  O   UNL     1      -7.629  -9.032   4.270  1.00  0.00    -0.269 OA
BRANCH  27  30
ATOM     30  C   UNL     1      -7.335  -7.338   5.865  1.00  0.00     0.039 A 
ATOM     31  C   UNL     1      -7.199  -8.101   7.026  1.00  0.00     0.014 A 
ATOM     32  C   UNL     1      -7.643  -5.977   5.933  1.00  0.00     0.014 A 
ATOM     33  C   UNL     1      -7.314  -7.479   8.269  1.00  0.00     0.010 A 
ATOM     34  C   UNL     1      -7.675  -5.346   7.167  1.00  0.00     0.010 A 
ATOM     35  C   UNL     1      -7.517  -6.091   8.346  1.00  0.00    -0.014 A 
BRANCH  35  36
ATOM     36  C   UNL     1      -7.592  -5.377   9.643  1.00  0.00     0.031 A 
ATOM     37  C   UNL     1      -8.860  -4.667  10.020  1.00  0.00     0.074 A 
ATOM     38  C   UNL     1      -6.499  -5.281  10.421  1.00  0.00     0.049 A 
ATOM     39  N   UNL     1      -9.092  -3.851  11.015  1.00  0.00    -0.248 NA
ATOM     40  C   UNL     1     -10.015  -4.879   9.132  1.00  0.00     0.031 C 
ATOM     41  C   UNL     1      -5.206  -5.909  10.150  1.00  0.00     0.029 A 
ATOM     42  N   UNL     1      -6.297  -4.596  11.593  1.00  0.00    -0.354 N 
ATOM     43  C   UNL     1     -10.408  -3.438  10.861  1.00  0.00     0.074 A 
ATOM     44  C   UNL     1     -10.903  -4.042   9.643  1.00  0.00     0.031 C 
ATOM     45  C   UNL     1      -4.350  -5.595  11.136  1.00  0.00     0.029 A 
ATOM     46  C   UNL     1      -5.017  -4.702  12.078  1.00  0.00     0.049 A 
ATOM     47  H   UNL     1      -7.003  -4.077  12.043  1.00  0.00     0.167 HD
ATOM     48  C   UNL     1     -11.145  -2.644  11.675  1.00  0.00     0.037 A 
ATOM     49  C   UNL     1      -4.445  -4.126  13.152  1.00  0.00     0.037 A 
ATOM     50  C   UNL     1     -10.643  -2.054  12.888  1.00  0.00     0.049 A 
ATOM     51  C   UNL     1      -5.266  -3.203  14.013  1.00  0.00     0.074 A 
ATOM     52  C   UNL     1     -11.311  -1.262  13.804  1.00  0.00     0.029 A 
ATOM     53  N   UNL     1      -9.341  -2.189  13.350  1.00  0.00    -0.354 N 
ATOM     54  N   UNL     1      -6.523  -2.852  13.888  1.00  0.00    -0.248 NA
ATOM     55  C   UNL     1      -4.587  -2.596  15.165  1.00  0.00     0.031 C 
ATOM     56  C   UNL     1     -10.399  -0.871  14.789  1.00  0.00     0.029 A 
ATOM     57  C   UNL     1      -9.180  -1.475  14.526  1.00  0.00     0.049 A 
ATOM     58  H   UNL     1      -8.635  -2.714  12.907  1.00  0.00     0.167 HD
ATOM     59  C   UNL     1      -6.798  -2.022  14.966  1.00  0.00     0.074 A 
ATOM     60  C   UNL     1      -5.575  -1.921  15.736  1.00  0.00     0.031 C 
ATOM     61  C   UNL     1      -7.960  -1.404  15.292  1.00  0.00     0.037 A 
BRANCH  48  62
ATOM     62  C   UNL     1     -12.563  -2.365  11.265  1.00  0.00     0.064 A 
ATOM     63  C   UNL     1     -13.536  -3.378  11.233  1.00  0.00     0.173 A 
ATOM     64  C   UNL     1     -12.958  -1.070  10.897  1.00  0.00     0.173 A 
ATOM     65  F   UNL     1     -13.211  -4.637  11.564  1.00  0.00    -0.203 F 
ATOM     66  C   UNL     1     -14.833  -3.115  10.802  1.00  0.00     0.198 A 
ATOM     67  C   UNL     1     -14.267  -0.803  10.505  1.00  0.00     0.198 A 
ATOM     68  F   UNL     1     -12.074  -0.061  10.915  1.00  0.00    -0.203 F 
ATOM     69  F   UNL     1     -15.722  -4.114  10.710  1.00  0.00    -0.200 F 
ATOM     70  C   UNL     1     -15.199  -1.827  10.444  1.00  0.00     0.200 A 
ATOM     71  F   UNL     1     -14.624   0.446  10.174  1.00  0.00    -0.200 F 
ATOM     72  F   UNL     1     -16.448  -1.575  10.028  1.00  0.00    -0.200 F 
ENDBRANCH  48  62
BRANCH  49  73
ATOM     73  C   UNL     1      -3.030  -4.430  13.491  1.00  0.00     0.064 A 
ATOM     74  C   UNL     1      -2.716  -5.177  14.635  1.00  0.00     0.173 A 
ATOM     75  C   UNL     1      -1.968  -3.990  12.688  1.00  0.00     0.173 A 
ATOM     76  F   UNL     1      -3.696  -5.604  15.445  1.00  0.00    -0.203 F 
ATOM     77  C   UNL     1      -1.394  -5.456  14.974  1.00  0.00     0.198 A 
ATOM     78  C   UNL     1      -0.647  -4.296  13.011  1.00  0.00     0.198 A 
ATOM     79  F   UNL     1      -2.213  -3.276  11.580  1.00  0.00    -0.203 F 
ATOM     80  F   UNL     1      -1.121  -6.134  16.097  1.00  0.00    -0.200 F 
ATOM     81  C   UNL     1      -0.361  -5.021  14.158  1.00  0.00     0.200 A 
ATOM     82  F   UNL     1       0.348  -3.887  12.212  1.00  0.00    -0.200 F 
ATOM     83  F   UNL     1       0.911  -5.296  14.480  1.00  0.00    -0.200 F 
ENDBRANCH  49  73
BRANCH  61  84
ATOM     84  C   UNL     1      -7.993  -0.618  16.572  1.00  0.00     0.064 A 
ATOM     85  C   UNL     1      -7.322   0.606  16.712  1.00  0.00     0.173 A 
ATOM     86  C   UNL     1      -8.762  -1.072  17.655  1.00  0.00     0.173 A 
ATOM     87  F   UNL     1      -6.561   1.077  15.712  1.00  0.00    -0.203 F 
ATOM     88  C   UNL     1      -7.404   1.335  17.895  1.00  0.00     0.198 A 
ATOM     89  C   UNL     1      -8.869  -0.324  18.824  1.00  0.00     0.198 A 
ATOM     90  F   UNL     1      -9.429  -2.233  17.571  1.00  0.00    -0.203 F 
ATOM     91  F   UNL     1      -6.718   2.479  18.023  1.00  0.00    -0.200 F 
ATOM     92  C   UNL     1      -8.185   0.875  18.946  1.00  0.00     0.200 A 
ATOM     93  F   UNL     1      -9.639  -0.762  19.830  1.00  0.00    -0.200 F 
ATOM     94  F   UNL     1      -8.275   1.586  20.078  1.00  0.00    -0.200 F 
ENDBRANCH  61  84
ENDBRANCH  35  36
ENDBRANCH  27  30
ENDBRANCH  25  26
ENDBRANCH  24  25
ENDBRANCH   1  24
TORSDOF 15
