REMARK SMILES Cc1ccc(C(=O)N2C[C@@H](C(=O)NCCCCCCNC(=O)c3ccc(-c4c5nc(c(-c6c(F)c(F)c(F)c(F)c6F)c6ccc([nH]6)c(-c6c(F)c(F)c(F)c(F)c6F)c6nc(c(-c7c(F)c(F)c(F)c(F)c7F)c7ccc4[nH]7)C=C6)C=C5)cc3)C[C@H](C(=O)N3CCOCC3)C2)cc1F
REMARK SMILES IDX 16 1 15 2 14 3 13 4 11 5 12 6 10 8 8 9 9 10 96 11 87 12
REMARK SMILES IDX 86 13 6 14 7 15 5 16 1 17 2 18 3 19 98 20 4 21 97 22 99 23
REMARK SMILES IDX 88 24 89 25 90 26 91 27 95 28 92 29 94 30 93 31 17 32 18 33
REMARK SMILES IDX 19 34 20 35 21 36 22 38 23 39 24 40 85 41 25 42 84 43 26 44
REMARK SMILES IDX 27 45 28 46 78 47 29 48 83 49 77 50 79 51 30 52 82 53 76 54
REMARK SMILES IDX 75 55 31 57 63 58 43 59 62 60 44 61 47 62 61 63 80 64 45 65
REMARK SMILES IDX 46 66 60 68 81 69 48 70 32 71 33 72 41 73 34 74 35 75 39 76
REMARK SMILES IDX 42 77 36 78 37 79 40 80 38 81 64 82 65 83 73 84 66 85 67 86
REMARK SMILES IDX 71 87 74 88 68 89 69 90 72 91 70 92 49 93 50 94 58 95 51 96
REMARK SMILES IDX 52 97 56 98 59 99 53 100 54 101 57 102 55 103
REMARK H PARENT 13 7 20 37 79 56 47 67
REMARK Flexibility Score: inf
ROOT
ATOM      1  C   UNL     1     -10.123   1.403   2.613  1.00  0.00     0.002 C 
ENDROOT
BRANCH   1   2
ATOM      2  C   UNL     1      -9.218   1.246   1.391  1.00  0.00     0.021 C 
BRANCH   2   3
ATOM      3  C   UNL     1      -7.936   0.502   1.709  1.00  0.00     0.116 C 
BRANCH   3   4
ATOM      4  N   UNL     1      -8.229  -0.827   2.186  1.00  0.00    -0.356 N 
ATOM      5  C   UNL     1      -7.694  -2.005   1.805  1.00  0.00     0.224 C 
ATOM      6  O   UNL     1      -8.149  -3.045   2.281  1.00  0.00    -0.275 OA
ATOM      7  H   UNL     1      -8.916  -0.882   2.888  1.00  0.00     0.163 HD
BRANCH   5   8
ATOM      8  C   UNL     1      -6.563  -2.029   0.813  1.00  0.00     0.099 C 
ATOM      9  N   UNL     1      -4.276  -1.189   0.349  1.00  0.00    -0.337 N 
ATOM     10  C   UNL     1      -5.345  -1.285   1.328  1.00  0.00     0.133 C 
ATOM     11  C   UNL     1      -4.642  -0.745  -0.996  1.00  0.00     0.133 C 
ATOM     12  C   UNL     1      -5.844  -1.510  -1.591  1.00  0.00     0.099 C 
ATOM     13  C   UNL     1      -7.000  -1.705  -0.618  1.00  0.00     0.030 C 
BRANCH   9  14
ATOM     14  C   UNL     1      -2.983  -1.335   0.840  1.00  0.00     0.254 C 
ATOM     15  O   UNL     1      -2.729  -2.014   1.834  1.00  0.00    -0.269 OA
BRANCH  14  16
ATOM     16  C   UNL     1      -1.861  -0.566   0.266  1.00  0.00     0.042 A 
ATOM     17  C   UNL     1       1.705   1.784  -0.198  1.00  0.00     0.047 C 
ATOM     18  C   UNL     1       0.444   0.976  -0.133  1.00  0.00    -0.015 A 
ATOM     19  C   UNL     1      -0.813   1.591  -0.087  1.00  0.00     0.007 A 
ATOM     20  C   UNL     1       0.520  -0.417  -0.034  1.00  0.00     0.126 A 
ATOM     21  C   UNL     1      -1.964   0.824   0.118  1.00  0.00     0.014 A 
ATOM     22  C   UNL     1      -0.615  -1.190   0.172  1.00  0.00     0.053 A 
ATOM     23  F   UNL     1       1.716  -1.021  -0.068  1.00  0.00    -0.207 F 
ENDBRANCH  14  16
ENDBRANCH   9  14
BRANCH  12  24
ATOM     24  C   UNL     1      -5.344  -2.713  -2.400  1.00  0.00     0.227 C 
ATOM     25  O   UNL     1      -5.103  -2.532  -3.600  1.00  0.00    -0.275 OA
ATOM     26  N   UNL     1      -4.916  -3.856  -1.774  1.00  0.00    -0.338 N 
ATOM     27  C   UNL     1      -5.633  -4.711  -0.825  1.00  0.00     0.148 C 
ATOM     28  C   UNL     1      -3.653  -4.452  -2.195  1.00  0.00     0.148 C 
ATOM     29  C   UNL     1      -4.735  -5.005   0.391  1.00  0.00     0.181 C 
ATOM     30  C   UNL     1      -2.803  -4.720  -0.947  1.00  0.00     0.181 C 
ATOM     31  O   UNL     1      -3.493  -5.594  -0.036  1.00  0.00    -0.378 OA
ENDBRANCH  12  24
ENDBRANCH   5   8
ENDBRANCH   3   4
ENDBRANCH   2   3
ENDBRANCH   1   2
BRANCH   1  32
ATOM     32  C   UNL     1      -9.392   1.834   3.897  1.00  0.00     0.002 C 
BRANCH  32  33
ATOM     33  C   UNL     1      -8.444   3.036   3.755  1.00  0.00     0.021 C 
BRANCH  33  34
ATOM     34  C   UNL     1      -9.184   4.278   3.341  1.00  0.00     0.116 C 
BRANCH  34  35
ATOM     35  N   UNL     1     -10.022   4.750   4.434  1.00  0.00    -0.352 N 
ATOM     36  C   UNL     1     -10.572   6.004   4.556  1.00  0.00     0.251 C 
ATOM     37  H   UNL     1     -10.214   4.108   5.156  1.00  0.00     0.163 HD
ATOM     38  O   UNL     1     -10.862   6.484   5.634  1.00  0.00    -0.269 OA
BRANCH  36  39
ATOM     39  C   UNL     1     -10.838   6.717   3.302  1.00  0.00     0.039 A 
ATOM     40  C   UNL     1     -10.693   8.101   3.187  1.00  0.00     0.014 A 
ATOM     41  C   UNL     1     -11.268   5.933   2.235  1.00  0.00     0.014 A 
ATOM     42  C   UNL     1     -10.998   8.698   1.971  1.00  0.00     0.010 A 
ATOM     43  C   UNL     1     -11.330   6.477   1.000  1.00  0.00     0.010 A 
ATOM     44  C   UNL     1     -11.323   7.864   0.901  1.00  0.00    -0.014 A 
BRANCH  44  45
ATOM     45  C   UNL     1     -11.747   8.306  -0.404  1.00  0.00     0.031 A 
ATOM     46  C   UNL     1     -10.775   8.976  -1.255  1.00  0.00     0.074 A 
ATOM     47  C   UNL     1     -12.960   7.845  -0.785  1.00  0.00     0.049 A 
ATOM     48  N   UNL     1     -11.089   9.812  -2.172  1.00  0.00    -0.248 NA
ATOM     49  C   UNL     1      -9.334   8.786  -1.114  1.00  0.00     0.031 C 
ATOM     50  C   UNL     1     -13.595   7.764  -2.085  1.00  0.00     0.029 A 
ATOM     51  N   UNL     1     -13.957   7.380   0.094  1.00  0.00    -0.354 N 
ATOM     52  C   UNL     1      -9.984   9.920  -2.984  1.00  0.00     0.074 A 
ATOM     53  C   UNL     1      -8.880   9.448  -2.184  1.00  0.00     0.031 C 
ATOM     54  C   UNL     1     -14.926   7.638  -1.898  1.00  0.00     0.029 A 
ATOM     55  C   UNL     1     -15.182   7.767  -0.470  1.00  0.00     0.049 A 
ATOM     56  H   UNL     1     -13.822   6.885   0.934  1.00  0.00     0.167 HD
ATOM     57  C   UNL     1     -10.194  10.169  -4.309  1.00  0.00     0.037 A 
ATOM     58  C   UNL     1     -15.856   8.778   0.159  1.00  0.00     0.037 A 
ATOM     59  C   UNL     1     -11.639  10.226  -4.576  1.00  0.00     0.049 A 
ATOM     60  C   UNL     1     -15.822  10.060  -0.647  1.00  0.00     0.074 A 
ATOM     61  C   UNL     1     -12.555   9.334  -5.112  1.00  0.00     0.029 A 
ATOM     62  N   UNL     1     -12.396  11.169  -3.903  1.00  0.00    -0.354 N 
ATOM     63  N   UNL     1     -15.066  10.239  -1.698  1.00  0.00    -0.248 NA
ATOM     64  C   UNL     1     -16.613  11.243  -0.336  1.00  0.00     0.031 C 
ATOM     65  C   UNL     1     -13.869   9.781  -4.767  1.00  0.00     0.029 A 
ATOM     66  C   UNL     1     -13.750  10.940  -4.023  1.00  0.00     0.049 A 
ATOM     67  H   UNL     1     -12.011  11.920  -3.396  1.00  0.00     0.167 HD
ATOM     68  C   UNL     1     -15.277  11.477  -2.234  1.00  0.00     0.074 A 
ATOM     69  C   UNL     1     -16.218  12.088  -1.306  1.00  0.00     0.031 C 
ATOM     70  C   UNL     1     -14.661  11.884  -3.390  1.00  0.00     0.037 A 
BRANCH  57  71
ATOM     71  C   UNL     1      -9.153  10.082  -5.404  1.00  0.00     0.064 A 
ATOM     72  C   UNL     1      -9.548   9.912  -6.750  1.00  0.00     0.173 A 
ATOM     73  C   UNL     1      -7.760  10.175  -5.213  1.00  0.00     0.173 A 
ATOM     74  F   UNL     1     -10.839   9.890  -7.104  1.00  0.00    -0.203 F 
ATOM     75  C   UNL     1      -8.633   9.771  -7.795  1.00  0.00     0.198 A 
ATOM     76  C   UNL     1      -6.841   9.995  -6.255  1.00  0.00     0.198 A 
ATOM     77  F   UNL     1      -7.231  10.505  -4.030  1.00  0.00    -0.203 F 
ATOM     78  F   UNL     1      -9.080   9.614  -9.049  1.00  0.00    -0.200 F 
ATOM     79  C   UNL     1      -7.278   9.790  -7.546  1.00  0.00     0.200 A 
ATOM     80  F   UNL     1      -5.526  10.038  -5.996  1.00  0.00    -0.200 F 
ATOM     81  F   UNL     1      -6.401   9.642  -8.547  1.00  0.00    -0.200 F 
ENDBRANCH  57  71
BRANCH  58  82
ATOM     82  C   UNL     1     -15.749   8.629   1.656  1.00  0.00     0.064 A 
ATOM     83  C   UNL     1     -16.205   7.400   2.192  1.00  0.00     0.173 A 
ATOM     84  C   UNL     1     -14.793   9.330   2.405  1.00  0.00     0.173 A 
ATOM     85  F   UNL     1     -17.145   6.696   1.539  1.00  0.00    -0.203 F 
ATOM     86  C   UNL     1     -15.566   6.796   3.273  1.00  0.00     0.198 A 
ATOM     87  C   UNL     1     -14.198   8.744   3.531  1.00  0.00     0.198 A 
ATOM     88  F   UNL     1     -14.337  10.517   1.982  1.00  0.00    -0.203 F 
ATOM     89  F   UNL     1     -15.876   5.536   3.615  1.00  0.00    -0.200 F 
ATOM     90  C   UNL     1     -14.535   7.454   3.918  1.00  0.00     0.200 A 
ATOM     91  F   UNL     1     -13.229   9.398   4.188  1.00  0.00    -0.200 F 
ATOM     92  F   UNL     1     -13.843   6.824   4.878  1.00  0.00    -0.200 F 
ENDBRANCH  58  82
BRANCH  70  93
ATOM     93  C   UNL     1     -14.805  13.253  -4.015  1.00  0.00     0.064 A 
ATOM     94  C   UNL     1     -15.982  14.007  -3.944  1.00  0.00     0.173 A 
ATOM     95  C   UNL     1     -13.759  13.846  -4.769  1.00  0.00     0.173 A 
ATOM     96  F   UNL     1     -17.113  13.480  -3.456  1.00  0.00    -0.203 F 
ATOM     97  C   UNL     1     -16.044  15.319  -4.423  1.00  0.00     0.198 A 
ATOM     98  C   UNL     1     -13.838  15.132  -5.288  1.00  0.00     0.198 A 
ATOM     99  F   UNL     1     -12.609  13.218  -5.038  1.00  0.00    -0.203 F 
ATOM    100  F   UNL     1     -17.163  16.033  -4.246  1.00  0.00    -0.200 F 
ATOM    101  C   UNL     1     -14.966  15.887  -5.077  1.00  0.00     0.200 A 
ATOM    102  F   UNL     1     -12.803  15.630  -5.978  1.00  0.00    -0.200 F 
ATOM    103  F   UNL     1     -15.022  17.148  -5.521  1.00  0.00    -0.200 F 
ENDBRANCH  70  93
ENDBRANCH  44  45
ENDBRANCH  36  39
ENDBRANCH  34  35
ENDBRANCH  33  34
ENDBRANCH  32  33
ENDBRANCH   1  32
TORSDOF 16
