REMARK SMILES C[C@@H](CC(=O)NCCCCCCNC(=O)c1ccc(-c2c3nc(c(-c4c(F)c(F)c(F)c(F)c4F)c4ccc([nH]4)c(-c4c(F)c(F)c(F)c(F)c4F)c4nc(c(-c5c(F)c(F)c(F)c(F)c5F)c5ccc2[nH]5)C=C4)C=C3)cc1)CC(=O)NC[C@@]1(C)CCCO1
REMARK SMILES IDX 8 1 7 2 6 3 4 4 5 5 3 7 2 8 1 9 79 10 80 11 81 12 82 13
REMARK SMILES IDX 83 15 84 16 85 17 86 18 89 19 87 20 88 21 9 22 10 23 11 24
REMARK SMILES IDX 12 25 13 26 14 27 15 29 16 30 17 31 78 32 18 33 77 34 19 35
REMARK SMILES IDX 20 36 21 37 71 38 22 39 76 40 70 41 72 42 23 43 75 44 69 45
REMARK SMILES IDX 68 46 24 48 56 49 36 50 55 51 37 52 40 53 54 54 73 55 38 56
REMARK SMILES IDX 39 57 53 59 74 60 41 61 25 62 26 63 34 64 27 65 28 66 32 67
REMARK SMILES IDX 35 68 29 69 30 70 33 71 31 72 57 73 58 74 66 75 59 76 60 77
REMARK SMILES IDX 64 78 67 79 61 80 62 81 65 82 63 83 42 84 43 85 51 86 44 87
REMARK SMILES IDX 45 88 49 89 52 90 46 91 47 92 50 93 48 94
REMARK H PARENT 6 6 82 14 13 28 72 47 40 58
REMARK Flexibility Score: inf
ROOT
ATOM      1  C   UNL     1       1.032   0.139   2.854  1.00  0.00     0.021 C 
ENDROOT
BRANCH   1   2
ATOM      2  C   UNL     1       1.718  -1.202   2.588  1.00  0.00     0.116 C 
BRANCH   2   3
ATOM      3  N   UNL     1       0.730  -2.262   2.547  1.00  0.00    -0.356 N 
ATOM      4  C   UNL     1       0.223  -2.953   1.490  1.00  0.00     0.220 C 
ATOM      5  O   UNL     1      -0.762  -3.667   1.688  1.00  0.00    -0.275 OA
ATOM      6  H   UNL     1       0.367  -2.523   3.424  1.00  0.00     0.163 HD
BRANCH   4   7
ATOM      7  C   UNL     1       0.872  -2.887   0.119  1.00  0.00     0.103 C 
BRANCH   7   8
ATOM      8  C   UNL     1       0.439  -1.767  -0.853  1.00  0.00     0.004 C 
ATOM      9  C   UNL     1       1.581  -0.774  -1.052  1.00  0.00     0.009 C 
BRANCH   8  10
ATOM     10  C   UNL     1      -0.886  -1.077  -0.491  1.00  0.00     0.103 C 
BRANCH  10  11
ATOM     11  C   UNL     1      -1.305  -0.045  -1.522  1.00  0.00     0.220 C 
ATOM     12  O   UNL     1      -1.837  -0.389  -2.580  1.00  0.00    -0.275 OA
ATOM     13  N   UNL     1      -1.078   1.283  -1.328  1.00  0.00    -0.353 N 
ATOM     14  H   UNL     1      -1.333   1.848  -2.093  1.00  0.00     0.163 HD
BRANCH  13  15
ATOM     15  C   UNL     1      -0.528   2.028  -0.198  1.00  0.00     0.151 C 
BRANCH  15  16
ATOM     16  C   UNL     1       0.760   2.856  -0.488  1.00  0.00     0.083 C 
ATOM     17  C   UNL     1       0.930   3.191  -1.976  1.00  0.00     0.044 C 
ATOM     18  C   UNL     1       0.812   4.110   0.389  1.00  0.00     0.039 C 
ATOM     19  O   UNL     1       1.932   2.119  -0.074  1.00  0.00    -0.373 OA
ATOM     20  C   UNL     1       2.291   4.401   0.491  1.00  0.00     0.031 C 
ATOM     21  C   UNL     1       2.907   3.019   0.471  1.00  0.00     0.161 C 
ENDBRANCH  15  16
ENDBRANCH  13  15
ENDBRANCH  10  11
ENDBRANCH   8  10
ENDBRANCH   7   8
ENDBRANCH   4   7
ENDBRANCH   2   3
ENDBRANCH   1   2
BRANCH   1  22
ATOM     22  C   UNL     1       0.730   0.426   4.328  1.00  0.00     0.002 C 
BRANCH  22  23
ATOM     23  C   UNL     1       1.952   0.722   5.201  1.00  0.00     0.002 C 
BRANCH  23  24
ATOM     24  C   UNL     1       2.868   1.845   4.704  1.00  0.00     0.021 C 
BRANCH  24  25
ATOM     25  C   UNL     1       2.185   3.192   4.477  1.00  0.00     0.116 C 
BRANCH  25  26
ATOM     26  N   UNL     1       1.706   3.781   5.716  1.00  0.00    -0.352 N 
ATOM     27  C   UNL     1       2.054   4.968   6.314  1.00  0.00     0.251 C 
ATOM     28  H   UNL     1       1.032   3.251   6.199  1.00  0.00     0.163 HD
ATOM     29  O   UNL     1       1.697   5.210   7.462  1.00  0.00    -0.269 OA
BRANCH  27  30
ATOM     30  C   UNL     1       2.868   5.961   5.580  1.00  0.00     0.039 A 
ATOM     31  C   UNL     1       3.947   6.568   6.229  1.00  0.00     0.014 A 
ATOM     32  C   UNL     1       2.539   6.331   4.273  1.00  0.00     0.014 A 
ATOM     33  C   UNL     1       4.729   7.508   5.552  1.00  0.00     0.010 A 
ATOM     34  C   UNL     1       3.350   7.229   3.581  1.00  0.00     0.010 A 
ATOM     35  C   UNL     1       4.450   7.830   4.215  1.00  0.00    -0.014 A 
BRANCH  35  36
ATOM     36  C   UNL     1       5.271   8.811   3.460  1.00  0.00     0.031 A 
ATOM     37  C   UNL     1       4.661  10.110   3.015  1.00  0.00     0.074 A 
ATOM     38  C   UNL     1       6.533   8.502   3.103  1.00  0.00     0.049 A 
ATOM     39  N   UNL     1       5.150  11.030   2.223  1.00  0.00    -0.248 NA
ATOM     40  C   UNL     1       3.306  10.401   3.510  1.00  0.00     0.031 C 
ATOM     41  C   UNL     1       7.235   7.270   3.460  1.00  0.00     0.029 A 
ATOM     42  N   UNL     1       7.441   9.195   2.340  1.00  0.00    -0.354 N 
ATOM     43  C   UNL     1       4.157  11.993   2.104  1.00  0.00     0.074 A 
ATOM     44  C   UNL     1       3.024  11.530   2.876  1.00  0.00     0.031 C 
ATOM     45  C   UNL     1       8.464   7.293   2.918  1.00  0.00     0.029 A 
ATOM     46  C   UNL     1       8.621   8.520   2.142  1.00  0.00     0.049 A 
ATOM     47  H   UNL     1       7.263  10.090   1.971  1.00  0.00     0.167 HD
ATOM     48  C   UNL     1       4.194  13.164   1.425  1.00  0.00     0.037 A 
ATOM     49  C   UNL     1       9.698   8.844   1.401  1.00  0.00     0.037 A 
ATOM     50  C   UNL     1       5.334  13.637   0.685  1.00  0.00     0.049 A 
ATOM     51  C   UNL     1       9.709  10.145   0.642  1.00  0.00     0.074 A 
ATOM     52  C   UNL     1       5.485  14.832   0.004  1.00  0.00     0.029 A 
ATOM     53  N   UNL     1       6.522  12.937   0.534  1.00  0.00    -0.354 N 
ATOM     54  N   UNL     1       8.780  11.066   0.568  1.00  0.00    -0.248 NA
ATOM     55  C   UNL     1      10.919  10.452  -0.135  1.00  0.00     0.031 C 
ATOM     56  C   UNL     1       6.749  14.838  -0.595  1.00  0.00     0.029 A 
ATOM     57  C   UNL     1       7.404  13.668  -0.245  1.00  0.00     0.049 A 
ATOM     58  H   UNL     1       6.710  12.052   0.922  1.00  0.00     0.167 HD
ATOM     59  C   UNL     1       9.305  12.076  -0.226  1.00  0.00     0.074 A 
ATOM     60  C   UNL     1      10.635  11.656  -0.614  1.00  0.00     0.031 C 
ATOM     61  C   UNL     1       8.736  13.249  -0.597  1.00  0.00     0.037 A 
BRANCH  48  62
ATOM     62  C   UNL     1       2.960  14.019   1.443  1.00  0.00     0.064 A 
ATOM     63  C   UNL     1       2.551  14.699   2.600  1.00  0.00     0.173 A 
ATOM     64  C   UNL     1       2.200  14.193   0.277  1.00  0.00     0.173 A 
ATOM     65  F   UNL     1       3.238  14.557   3.744  1.00  0.00    -0.203 F 
ATOM     66  C   UNL     1       1.412  15.499   2.595  1.00  0.00     0.198 A 
ATOM     67  C   UNL     1       1.078  15.018   0.268  1.00  0.00     0.198 A 
ATOM     68  F   UNL     1       2.550  13.570  -0.859  1.00  0.00    -0.203 F 
ATOM     69  F   UNL     1       1.014  16.101   3.725  1.00  0.00    -0.200 F 
ATOM     70  C   UNL     1       0.681  15.664   1.429  1.00  0.00     0.200 A 
ATOM     71  F   UNL     1       0.380  15.186  -0.864  1.00  0.00    -0.200 F 
ATOM     72  F   UNL     1      -0.412  16.440   1.425  1.00  0.00    -0.200 F 
ENDBRANCH  48  62
BRANCH  49  73
ATOM     73  C   UNL     1      10.865   7.925   1.347  1.00  0.00     0.064 A 
ATOM     74  C   UNL     1      12.079   8.268   1.959  1.00  0.00     0.173 A 
ATOM     75  C   UNL     1      10.794   6.691   0.685  1.00  0.00     0.173 A 
ATOM     76  F   UNL     1      12.202   9.447   2.586  1.00  0.00    -0.203 F 
ATOM     77  C   UNL     1      13.182   7.420   1.895  1.00  0.00     0.198 A 
ATOM     78  C   UNL     1      11.890   5.832   0.645  1.00  0.00     0.198 A 
ATOM     79  F   UNL     1       9.654   6.314   0.088  1.00  0.00    -0.203 F 
ATOM     80  F   UNL     1      14.343   7.792   2.451  1.00  0.00    -0.200 F 
ATOM     81  C   UNL     1      13.085   6.200   1.243  1.00  0.00     0.200 A 
ATOM     82  F   UNL     1      11.787   4.647   0.026  1.00  0.00    -0.200 F 
ATOM     83  F   UNL     1      14.146   5.383   1.185  1.00  0.00    -0.200 F 
ENDBRANCH  49  73
BRANCH  61  84
ATOM     84  C   UNL     1       9.562  14.197  -1.415  1.00  0.00     0.064 A 
ATOM     85  C   UNL     1       9.818  13.970  -2.774  1.00  0.00     0.173 A 
ATOM     86  C   UNL     1      10.039  15.387  -0.844  1.00  0.00     0.173 A 
ATOM     87  F   UNL     1       9.395  12.840  -3.361  1.00  0.00    -0.203 F 
ATOM     88  C   UNL     1      10.531  14.897  -3.531  1.00  0.00     0.198 A 
ATOM     89  C   UNL     1      10.729  16.323  -1.609  1.00  0.00     0.198 A 
ATOM     90  F   UNL     1       9.815  15.652   0.452  1.00  0.00    -0.203 F 
ATOM     91  F   UNL     1      10.790  14.647  -4.822  1.00  0.00    -0.200 F 
ATOM     92  C   UNL     1      10.976  16.076  -2.951  1.00  0.00     0.200 A 
ATOM     93  F   UNL     1      11.146  17.467  -1.050  1.00  0.00    -0.200 F 
ATOM     94  F   UNL     1      11.646  16.974  -3.686  1.00  0.00    -0.200 F 
ENDBRANCH  61  84
ENDBRANCH  35  36
ENDBRANCH  27  30
ENDBRANCH  25  26
ENDBRANCH  24  25
ENDBRANCH  23  24
ENDBRANCH  22  23
ENDBRANCH   1  22
TORSDOF 18
