REMARK SMILES COc1cccc(-c2ccc(=O)n(CC(=O)N[C@@H](C(=O)NCCCCCCNC(=O)c3ccc(-c4c5nc(c(-c6c(F)c(F)c(F)c(F)c6F)c6ccc([nH]6)c(-c6c(F)c(F)c(F)c(F)c6F)c6nc(c(-c7c(F)c(F)c(F)c(F)c7F)c7ccc4[nH]7)C=C6)C=C5)cc3)C(C)C)n2)c1
REMARK SMILES IDX 23 1 22 2 21 3 19 4 20 5 18 7 17 8 15 9 16 10 14 12 13 13
REMARK SMILES IDX 8 14 9 15 97 16 10 17 11 18 12 19 7 20 3 21 4 22 98 23 5 24
REMARK SMILES IDX 6 25 2 26 1 27 94 28 95 29 96 30 24 31 25 32 26 33 27 34
REMARK SMILES IDX 28 35 29 36 30 38 31 39 32 40 93 41 33 42 92 43 34 44 35 45
REMARK SMILES IDX 36 46 86 47 37 48 91 49 85 50 87 51 38 52 90 53 84 54 83 55
REMARK SMILES IDX 39 57 71 58 51 59 70 60 52 61 55 62 69 63 88 64 53 65 54 66
REMARK SMILES IDX 68 68 89 69 56 70 40 71 41 72 49 73 42 74 43 75 47 76 50 77
REMARK SMILES IDX 44 78 45 79 48 80 46 81 72 82 73 83 81 84 74 85 75 86 79 87
REMARK SMILES IDX 82 88 76 89 77 90 80 91 78 92 57 93 58 94 66 95 59 96 60 97
REMARK SMILES IDX 64 98 67 99 61 100 62 101 65 102 63 103
REMARK H PARENT 21 6 17 11 28 37 87 56 55 67
REMARK Flexibility Score: inf
ROOT
ATOM      1  C   UNL     1       6.994   7.837  -1.155  1.00  0.00     0.021 C 
ENDROOT
BRANCH   1   2
ATOM      2  C   UNL     1       5.994   6.892  -1.813  1.00  0.00     0.116 C 
BRANCH   2   3
ATOM      3  N   UNL     1       5.349   7.479  -2.966  1.00  0.00    -0.354 N 
ATOM      4  C   UNL     1       5.077   6.933  -4.190  1.00  0.00     0.242 C 
ATOM      5  O   UNL     1       4.380   7.617  -4.944  1.00  0.00    -0.273 OA
ATOM      6  H   UNL     1       5.063   8.414  -2.853  1.00  0.00     0.163 HD
BRANCH   4   7
ATOM      7  C   UNL     1       5.519   5.477  -4.547  1.00  0.00     0.173 C 
BRANCH   7   8
ATOM      8  N   UNL     1       6.962   5.337  -4.325  1.00  0.00    -0.342 N 
ATOM      9  C   UNL     1       7.669   4.385  -3.644  1.00  0.00     0.242 C 
ATOM     10  O   UNL     1       8.897   4.516  -3.623  1.00  0.00    -0.273 OA
ATOM     11  H   UNL     1       7.512   6.044  -4.734  1.00  0.00     0.164 HD
BRANCH   9  12
ATOM     12  C   UNL     1       6.995   3.158  -3.012  1.00  0.00     0.248 C 
BRANCH  12  13
ATOM     13  N   UNL     1       6.085   3.432  -1.900  1.00  0.00    -0.220 N 
ATOM     14  C   UNL     1       3.911   3.536  -1.198  1.00  0.00     0.091 A 
ATOM     15  C   UNL     1       4.287   3.901   0.177  1.00  0.00     0.036 A 
ATOM     16  N   UNL     1       4.736   3.309  -2.166  1.00  0.00    -0.169 NA
ATOM     17  C   UNL     1       5.594   3.919   0.436  1.00  0.00     0.075 A 
ATOM     18  C   UNL     1       6.593   3.680  -0.631  1.00  0.00     0.267 A 
ATOM     19  O   UNL     1       7.785   3.759  -0.346  1.00  0.00    -0.268 OA
BRANCH  14  20
ATOM     20  C   UNL     1       2.472   3.356  -1.420  1.00  0.00     0.006 A 
ATOM     21  C   UNL     1       0.578   1.874  -1.316  1.00  0.00     0.119 A 
ATOM     22  C   UNL     1      -0.227   2.907  -1.807  1.00  0.00     0.046 A 
ATOM     23  C   UNL     1       1.939   2.095  -1.141  1.00  0.00     0.056 A 
ATOM     24  C   UNL     1       0.317   4.165  -2.093  1.00  0.00     0.005 A 
ATOM     25  C   UNL     1       1.677   4.398  -1.898  1.00  0.00     0.011 A 
BRANCH  21  26
ATOM     26  O   UNL     1      -0.059   0.690  -1.066  1.00  0.00    -0.497 OA
ATOM     27  C   UNL     1       0.581  -0.164  -0.120  1.00  0.00     0.278 C 
ENDBRANCH  21  26
ENDBRANCH  14  20
ENDBRANCH  12  13
ENDBRANCH   9  12
ENDBRANCH   7   8
BRANCH   7  28
ATOM     28  C   UNL     1       5.124   5.114  -6.008  1.00  0.00     0.015 C 
ATOM     29  C   UNL     1       5.878   3.902  -6.568  1.00  0.00     0.010 C 
ATOM     30  C   UNL     1       3.618   4.830  -6.111  1.00  0.00     0.010 C 
ENDBRANCH   7  28
ENDBRANCH   4   7
ENDBRANCH   2   3
ENDBRANCH   1   2
BRANCH   1  31
ATOM     31  C   UNL     1       6.364   8.829  -0.174  1.00  0.00     0.002 C 
BRANCH  31  32
ATOM     32  C   UNL     1       5.658   8.198   1.032  1.00  0.00     0.002 C 
BRANCH  32  33
ATOM     33  C   UNL     1       6.504   7.228   1.860  1.00  0.00     0.021 C 
BRANCH  33  34
ATOM     34  C   UNL     1       7.789   7.803   2.443  1.00  0.00     0.116 C 
BRANCH  34  35
ATOM     35  N   UNL     1       7.540   8.925   3.331  1.00  0.00    -0.352 N 
ATOM     36  C   UNL     1       7.918   9.134   4.632  1.00  0.00     0.251 C 
ATOM     37  H   UNL     1       7.013   9.655   2.933  1.00  0.00     0.163 HD
ATOM     38  O   UNL     1       7.449  10.087   5.250  1.00  0.00    -0.269 OA
BRANCH  36  39
ATOM     39  C   UNL     1       8.862   8.219   5.314  1.00  0.00     0.039 A 
ATOM     40  C   UNL     1       8.638   7.920   6.662  1.00  0.00     0.014 A 
ATOM     41  C   UNL     1       9.981   7.689   4.665  1.00  0.00     0.014 A 
ATOM     42  C   UNL     1       9.499   7.054   7.339  1.00  0.00     0.010 A 
ATOM     43  C   UNL     1      10.796   6.766   5.319  1.00  0.00     0.010 A 
ATOM     44  C   UNL     1      10.569   6.444   6.664  1.00  0.00    -0.014 A 
BRANCH  44  45
ATOM     45  C   UNL     1      11.443   5.465   7.361  1.00  0.00     0.031 A 
ATOM     46  C   UNL     1      12.898   5.764   7.592  1.00  0.00     0.074 A 
ATOM     47  C   UNL     1      10.928   4.284   7.755  1.00  0.00     0.049 A 
ATOM     48  N   UNL     1      13.810   5.031   8.181  1.00  0.00    -0.248 NA
ATOM     49  C   UNL     1      13.403   7.044   7.073  1.00  0.00     0.031 C 
ATOM     50  C   UNL     1       9.548   3.850   7.535  1.00  0.00     0.029 A 
ATOM     51  N   UNL     1      11.505   3.232   8.420  1.00  0.00    -0.354 N 
ATOM     52  C   UNL     1      14.992   5.755   8.095  1.00  0.00     0.074 A 
ATOM     53  C   UNL     1      14.696   6.959   7.350  1.00  0.00     0.031 C 
ATOM     54  C   UNL     1       9.376   2.637   8.083  1.00  0.00     0.029 A 
ATOM     55  C   UNL     1      10.639   2.194   8.665  1.00  0.00     0.049 A 
ATOM     56  H   UNL     1      12.450   3.221   8.697  1.00  0.00     0.167 HD
ATOM     57  C   UNL     1      16.209   5.454   8.611  1.00  0.00     0.037 A 
ATOM     58  C   UNL     1      10.840   1.019   9.290  1.00  0.00     0.037 A 
ATOM     59  C   UNL     1      16.497   4.264   9.370  1.00  0.00     0.049 A 
ATOM     60  C   UNL     1      12.196   0.716   9.865  1.00  0.00     0.074 A 
ATOM     61  C   UNL     1      17.680   3.900   9.989  1.00  0.00     0.029 A 
ATOM     62  N   UNL     1      15.591   3.242   9.608  1.00  0.00    -0.354 N 
ATOM     63  N   UNL     1      13.285   1.446   9.847  1.00  0.00    -0.248 NA
ATOM     64  C   UNL     1      12.346  -0.571  10.557  1.00  0.00     0.031 C 
ATOM     65  C   UNL     1      17.502   2.637  10.566  1.00  0.00     0.029 A 
ATOM     66  C   UNL     1      16.194   2.236  10.347  1.00  0.00     0.049 A 
ATOM     67  H   UNL     1      14.656   3.232   9.299  1.00  0.00     0.167 HD
ATOM     68  C   UNL     1      14.242   0.718  10.540  1.00  0.00     0.074 A 
ATOM     69  C   UNL     1      13.598  -0.499  10.988  1.00  0.00     0.031 C 
ATOM     70  C   UNL     1      15.541   1.027  10.780  1.00  0.00     0.037 A 
BRANCH  57  71
ATOM     71  C   UNL     1      17.323   6.434   8.377  1.00  0.00     0.064 A 
ATOM     72  C   UNL     1      17.342   7.688   9.007  1.00  0.00     0.173 A 
ATOM     73  C   UNL     1      18.402   6.103   7.544  1.00  0.00     0.173 A 
ATOM     74  F   UNL     1      16.329   8.058   9.805  1.00  0.00    -0.203 F 
ATOM     75  C   UNL     1      18.385   8.585   8.789  1.00  0.00     0.198 A 
ATOM     76  C   UNL     1      19.458   6.990   7.352  1.00  0.00     0.198 A 
ATOM     77  F   UNL     1      18.438   4.915   6.923  1.00  0.00    -0.203 F 
ATOM     78  F   UNL     1      18.357   9.795   9.365  1.00  0.00    -0.200 F 
ATOM     79  C   UNL     1      19.445   8.233   7.968  1.00  0.00     0.200 A 
ATOM     80  F   UNL     1      20.489   6.644   6.569  1.00  0.00    -0.200 F 
ATOM     81  F   UNL     1      20.452   9.094   7.765  1.00  0.00    -0.200 F 
ENDBRANCH  57  71
BRANCH  58  82
ATOM     82  C   UNL     1       9.718   0.056   9.437  1.00  0.00     0.064 A 
ATOM     83  C   UNL     1       9.141  -0.190  10.691  1.00  0.00     0.173 A 
ATOM     84  C   UNL     1       9.201  -0.636   8.332  1.00  0.00     0.173 A 
ATOM     85  F   UNL     1       9.614   0.434  11.779  1.00  0.00    -0.203 F 
ATOM     86  C   UNL     1       8.103  -1.107  10.837  1.00  0.00     0.198 A 
ATOM     87  C   UNL     1       8.144  -1.532   8.476  1.00  0.00     0.198 A 
ATOM     88  F   UNL     1       9.713  -0.431   7.110  1.00  0.00    -0.203 F 
ATOM     89  F   UNL     1       7.599  -1.357  12.054  1.00  0.00    -0.200 F 
ATOM     90  C   UNL     1       7.601  -1.773   9.729  1.00  0.00     0.200 A 
ATOM     91  F   UNL     1       7.651  -2.162   7.401  1.00  0.00    -0.200 F 
ATOM     92  F   UNL     1       6.599  -2.651   9.870  1.00  0.00    -0.200 F 
ENDBRANCH  58  82
BRANCH  70  93
ATOM     93  C   UNL     1      16.340   0.038  11.577  1.00  0.00     0.064 A 
ATOM     94  C   UNL     1      16.721  -1.201  11.040  1.00  0.00     0.173 A 
ATOM     95  C   UNL     1      16.739   0.336  12.889  1.00  0.00     0.173 A 
ATOM     96  F   UNL     1      16.350  -1.540   9.796  1.00  0.00    -0.203 F 
ATOM     97  C   UNL     1      17.443  -2.119  11.799  1.00  0.00     0.198 A 
ATOM     98  C   UNL     1      17.487  -0.571  13.634  1.00  0.00     0.198 A 
ATOM     99  F   UNL     1      16.406   1.509  13.447  1.00  0.00    -0.203 F 
ATOM    100  F   UNL     1      17.745  -3.319  11.286  1.00  0.00    -0.200 F 
ATOM    101  C   UNL     1      17.829  -1.801  13.092  1.00  0.00     0.200 A 
ATOM    102  F   UNL     1      17.870  -0.258  14.879  1.00  0.00    -0.200 F 
ATOM    103  F   UNL     1      18.522  -2.686  13.822  1.00  0.00    -0.200 F 
ENDBRANCH  70  93
ENDBRANCH  44  45
ENDBRANCH  36  39
ENDBRANCH  34  35
ENDBRANCH  33  34
ENDBRANCH  32  33
ENDBRANCH  31  32
ENDBRANCH   1  31
TORSDOF 19
