REMARK SMILES COc1ccccc1[C@@H]1C[N@@H+](Cc2cn3cc(C)ccc3n2)C[C@H]1C(=O)NCCCCCCNC(=O)c1ccc(-c2c3nc(c(-c4c(F)c(F)c(F)c(F)c4F)c4ccc([nH]4)c(-c4c(F)c(F)c(F)c(F)c4F)c4nc(c(-c5c(F)c(F)c(F)c(F)c5F)c5ccc2[nH]5)C=C4)C=C3)cc1
REMARK SMILES IDX 30 1 29 2 28 3 27 4 25 5 26 6 24 8 9 9 10 10 11 11 23 12
REMARK SMILES IDX 8 14 3 15 4 16 5 17 7 18 6 19 2 20 1 21 12 22 13 23 14 24
REMARK SMILES IDX 22 25 15 26 21 27 16 28 20 29 17 30 19 31 18 32 31 33 32 34
REMARK SMILES IDX 33 35 34 36 35 37 36 39 37 40 38 41 99 42 39 43 98 44 40 45
REMARK SMILES IDX 41 46 42 47 92 48 43 49 97 50 91 51 93 52 44 53 96 54 90 55
REMARK SMILES IDX 89 56 45 58 77 59 57 60 76 61 58 62 61 63 75 64 94 65 59 66
REMARK SMILES IDX 60 67 74 69 95 70 62 71 46 72 47 73 55 74 48 75 49 76 53 77
REMARK SMILES IDX 56 78 50 79 51 80 54 81 52 82 78 83 79 84 87 85 80 86 81 87
REMARK SMILES IDX 85 88 88 89 82 90 83 91 86 92 84 93 63 94 64 95 72 96 65 97
REMARK SMILES IDX 66 98 70 99 73 100 67 101 68 102 71 103 69 104
REMARK H PARENT 27 7 11 13 34 38 93 57 61 68
REMARK Flexibility Score: inf
ROOT
ATOM      1  C   UNL     1       7.105  -4.420  -2.377  1.00  0.00     0.002 C 
ENDROOT
BRANCH   1   2
ATOM      2  C   UNL     1       6.314  -3.393  -1.580  1.00  0.00     0.021 C 
BRANCH   2   3
ATOM      3  C   UNL     1       5.264  -2.513  -2.283  1.00  0.00     0.116 C 
BRANCH   3   4
ATOM      4  N   UNL     1       3.886  -2.936  -1.960  1.00  0.00    -0.356 N 
ATOM      5  C   UNL     1       2.899  -2.547  -1.100  1.00  0.00     0.229 C 
ATOM      6  O   UNL     1       2.073  -3.447  -0.863  1.00  0.00    -0.275 OA
ATOM      7  H   UNL     1       3.605  -3.701  -2.511  1.00  0.00     0.163 HD
BRANCH   5   8
ATOM      8  C   UNL     1       2.603  -1.144  -0.516  1.00  0.00     0.146 C 
ATOM      9  C   UNL     1       2.503  -1.040   1.039  1.00  0.00     0.096 C 
ATOM     10  C   UNL     1       3.066   0.348   1.385  1.00  0.00     0.272 C 
ATOM     11  N   UNL     1       4.054   0.644   0.334  1.00  0.00    -0.329 N 
ATOM     12  C   UNL     1       3.493   0.042  -0.891  1.00  0.00     0.276 C 
ATOM     13  H   UNL     1       4.177   1.650   0.215  1.00  0.00     0.348 HD
BRANCH   9  14
ATOM     14  C   UNL     1       1.381  -1.564   1.921  1.00  0.00     0.004 A 
ATOM     15  C   UNL     1       0.112  -1.022   2.134  1.00  0.00     0.122 A 
ATOM     16  C   UNL     1      -0.747  -1.600   3.094  1.00  0.00     0.047 A 
ATOM     17  C   UNL     1      -0.357  -2.686   3.881  1.00  0.00     0.004 A 
ATOM     18  C   UNL     1       1.749  -2.660   2.761  1.00  0.00     0.008 A 
ATOM     19  C   UNL     1       0.912  -3.206   3.729  1.00  0.00     0.001 A 
BRANCH  15  20
ATOM     20  O   UNL     1      -0.354   0.165   1.641  1.00  0.00    -0.496 OA
ATOM     21  C   UNL     1      -0.371   0.284   0.230  1.00  0.00     0.278 C 
ENDBRANCH  15  20
ENDBRANCH   9  14
BRANCH  11  22
ATOM     22  C   UNL     1       5.464   0.290   0.655  1.00  0.00     0.321 C 
BRANCH  22  23
ATOM     23  C   UNL     1       5.724  -1.092   1.204  1.00  0.00     0.114 A 
ATOM     24  C   UNL     1       6.556  -1.573   2.207  1.00  0.00     0.122 A 
ATOM     25  N   UNL     1       5.081  -2.152   0.639  1.00  0.00    -0.228 NA
ATOM     26  N   UNL     1       6.335  -2.941   2.266  1.00  0.00    -0.306 N 
ATOM     27  C   UNL     1       5.301  -3.195   1.396  1.00  0.00     0.137 A 
ATOM     28  C   UNL     1       7.003  -3.973   2.924  1.00  0.00     0.096 A 
ATOM     29  C   UNL     1       4.762  -4.506   1.329  1.00  0.00     0.048 A 
ATOM     30  C   UNL     1       6.631  -5.256   2.697  1.00  0.00    -0.034 A 
ATOM     31  C   UNL     1       5.419  -5.509   1.926  1.00  0.00     0.009 A 
ATOM     32  C   UNL     1       7.375  -6.483   3.105  1.00  0.00     0.046 C 
ENDBRANCH  22  23
ENDBRANCH  11  22
ENDBRANCH   5   8
ENDBRANCH   3   4
ENDBRANCH   2   3
ENDBRANCH   1   2
BRANCH   1  33
ATOM     33  C   UNL     1       8.272  -3.882  -3.201  1.00  0.00     0.002 C 
BRANCH  33  34
ATOM     34  C   UNL     1       9.321  -3.038  -2.458  1.00  0.00     0.021 C 
BRANCH  34  35
ATOM     35  C   UNL     1       9.918  -3.687  -1.214  1.00  0.00     0.116 C 
BRANCH  35  36
ATOM     36  N   UNL     1      10.674  -4.898  -1.513  1.00  0.00    -0.352 N 
ATOM     37  C   UNL     1      11.628  -5.542  -0.751  1.00  0.00     0.251 C 
ATOM     38  H   UNL     1      10.476  -5.315  -2.382  1.00  0.00     0.163 HD
ATOM     39  O   UNL     1      12.382  -6.354  -1.257  1.00  0.00    -0.269 OA
BRANCH  37  40
ATOM     40  C   UNL     1      11.706  -5.279   0.701  1.00  0.00     0.039 A 
ATOM     41  C   UNL     1      12.932  -5.339   1.381  1.00  0.00     0.014 A 
ATOM     42  C   UNL     1      10.529  -5.059   1.405  1.00  0.00     0.014 A 
ATOM     43  C   UNL     1      12.965  -5.158   2.765  1.00  0.00     0.010 A 
ATOM     44  C   UNL     1      10.582  -4.782   2.746  1.00  0.00     0.010 A 
ATOM     45  C   UNL     1      11.773  -4.899   3.443  1.00  0.00    -0.014 A 
BRANCH  45  46
ATOM     46  C   UNL     1      11.724  -4.561   4.859  1.00  0.00     0.031 A 
ATOM     47  C   UNL     1      12.356  -3.253   5.160  1.00  0.00     0.074 A 
ATOM     48  C   UNL     1      10.911  -5.194   5.734  1.00  0.00     0.049 A 
ATOM     49  N   UNL     1      13.421  -3.041   5.856  1.00  0.00    -0.248 NA
ATOM     50  C   UNL     1      11.849  -2.054   4.467  1.00  0.00     0.031 C 
ATOM     51  C   UNL     1       9.973  -6.284   5.454  1.00  0.00     0.029 A 
ATOM     52  N   UNL     1      10.652  -4.918   7.043  1.00  0.00    -0.354 N 
ATOM     53  C   UNL     1      13.584  -1.659   5.881  1.00  0.00     0.074 A 
ATOM     54  C   UNL     1      12.758  -1.145   4.825  1.00  0.00     0.031 C 
ATOM     55  C   UNL     1       9.091  -6.405   6.472  1.00  0.00     0.029 A 
ATOM     56  C   UNL     1       9.503  -5.525   7.548  1.00  0.00     0.049 A 
ATOM     57  H   UNL     1      11.230  -4.336   7.588  1.00  0.00     0.167 HD
ATOM     58  C   UNL     1      14.120  -1.057   6.980  1.00  0.00     0.037 A 
ATOM     59  C   UNL     1       8.924  -5.296   8.755  1.00  0.00     0.037 A 
ATOM     60  C   UNL     1      14.807  -2.037   7.797  1.00  0.00     0.049 A 
ATOM     61  C   UNL     1       9.947  -4.645   9.610  1.00  0.00     0.074 A 
ATOM     62  C   UNL     1      15.840  -2.933   7.599  1.00  0.00     0.029 A 
ATOM     63  N   UNL     1      14.167  -2.459   8.936  1.00  0.00    -0.354 N 
ATOM     64  N   UNL     1      11.023  -5.242  10.037  1.00  0.00    -0.248 NA
ATOM     65  C   UNL     1       9.995  -3.192   9.617  1.00  0.00     0.031 C 
ATOM     66  C   UNL     1      15.487  -4.089   8.361  1.00  0.00     0.029 A 
ATOM     67  C   UNL     1      14.299  -3.815   9.040  1.00  0.00     0.049 A 
ATOM     68  H   UNL     1      13.690  -1.880   9.573  1.00  0.00     0.167 HD
ATOM     69  C   UNL     1      12.020  -4.285   9.928  1.00  0.00     0.074 A 
ATOM     70  C   UNL     1      11.310  -3.017   9.773  1.00  0.00     0.031 C 
ATOM     71  C   UNL     1      13.309  -4.657   9.668  1.00  0.00     0.037 A 
BRANCH  58  72
ATOM     72  C   UNL     1      13.613   0.254   7.572  1.00  0.00     0.064 A 
ATOM     73  C   UNL     1      14.191   0.692   8.785  1.00  0.00     0.173 A 
ATOM     74  C   UNL     1      12.402   0.894   7.228  1.00  0.00     0.173 A 
ATOM     75  F   UNL     1      15.364   0.194   9.204  1.00  0.00    -0.203 F 
ATOM     76  C   UNL     1      13.521   1.551   9.660  1.00  0.00     0.198 A 
ATOM     77  C   UNL     1      11.758   1.787   8.085  1.00  0.00     0.198 A 
ATOM     78  F   UNL     1      11.730   0.634   6.104  1.00  0.00    -0.203 F 
ATOM     79  F   UNL     1      14.034   1.792  10.873  1.00  0.00    -0.200 F 
ATOM     80  C   UNL     1      12.292   2.078   9.319  1.00  0.00     0.200 A 
ATOM     81  F   UNL     1      10.567   2.291   7.731  1.00  0.00    -0.200 F 
ATOM     82  F   UNL     1      11.604   2.827  10.190  1.00  0.00    -0.200 F 
ENDBRANCH  58  72
BRANCH  59  83
ATOM     83  C   UNL     1       7.490  -5.340   9.142  1.00  0.00     0.064 A 
ATOM     84  C   UNL     1       7.103  -5.343  10.495  1.00  0.00     0.173 A 
ATOM     85  C   UNL     1       6.470  -5.087   8.205  1.00  0.00     0.173 A 
ATOM     86  F   UNL     1       8.018  -5.533  11.457  1.00  0.00    -0.203 F 
ATOM     87  C   UNL     1       5.786  -5.075  10.886  1.00  0.00     0.198 A 
ATOM     88  C   UNL     1       5.154  -4.827   8.597  1.00  0.00     0.198 A 
ATOM     89  F   UNL     1       6.748  -4.987   6.897  1.00  0.00    -0.203 F 
ATOM     90  F   UNL     1       5.473  -5.018  12.189  1.00  0.00    -0.200 F 
ATOM     91  C   UNL     1       4.815  -4.806   9.937  1.00  0.00     0.200 A 
ATOM     92  F   UNL     1       4.232  -4.532   7.669  1.00  0.00    -0.200 F 
ATOM     93  F   UNL     1       3.569  -4.484  10.312  1.00  0.00    -0.200 F 
ENDBRANCH  59  83
BRANCH  71  94
ATOM     94  C   UNL     1      13.667  -6.105   9.854  1.00  0.00     0.064 A 
ATOM     95  C   UNL     1      13.113  -7.165   9.115  1.00  0.00     0.173 A 
ATOM     96  C   UNL     1      14.704  -6.413  10.744  1.00  0.00     0.173 A 
ATOM     97  F   UNL     1      12.188  -6.944   8.174  1.00  0.00    -0.203 F 
ATOM     98  C   UNL     1      13.546  -8.478   9.301  1.00  0.00     0.198 A 
ATOM     99  C   UNL     1      15.162  -7.717  10.898  1.00  0.00     0.198 A 
ATOM    100  F   UNL     1      15.305  -5.434  11.438  1.00  0.00    -0.203 F 
ATOM    101  F   UNL     1      12.987  -9.475   8.600  1.00  0.00    -0.200 F 
ATOM    102  C   UNL     1      14.574  -8.751  10.187  1.00  0.00     0.200 A 
ATOM    103  F   UNL     1      16.189  -7.968  11.721  1.00  0.00    -0.200 F 
ATOM    104  F   UNL     1      15.016 -10.007  10.339  1.00  0.00    -0.200 F 
ENDBRANCH  71  94
ENDBRANCH  45  46
ENDBRANCH  37  40
ENDBRANCH  35  36
ENDBRANCH  34  35
ENDBRANCH  33  34
ENDBRANCH   1  33
TORSDOF 17
