REMARK SMILES CC[C@@H](C)[C@H](C(=O)NCCCCCCNC(=O)c1ccc(-c2c3nc(c(-c4c(F)c(F)c(F)c(F)c4F)c4ccc([nH]4)c(-c4c(F)c(F)c(F)c(F)c4F)c4nc(c(-c5c(F)c(F)c(F)c(F)c5F)c5ccc2[nH]5)C=C4)C=C3)cc1)N1C(=O)/C(=C/c2ccc3c(c2)OCO3)SC1=S
REMARK SMILES IDX 11 1 10 2 9 3 8 4 6 5 7 6 5 8 3 9 4 10 2 11 1 12 81 13 82 14
REMARK SMILES IDX 96 15 83 16 84 17 95 18 97 19 85 20 86 21 87 22 91 23 88 24
REMARK SMILES IDX 90 25 89 26 92 27 94 28 93 29 12 30 13 31 14 32 15 33 16 34
REMARK SMILES IDX 17 36 18 37 19 38 80 39 20 40 79 41 21 42 22 43 23 44 73 45
REMARK SMILES IDX 24 46 78 47 72 48 74 49 25 50 77 51 71 52 70 53 26 55 58 56
REMARK SMILES IDX 38 57 57 58 39 59 42 60 56 61 75 62 40 63 41 64 55 66 76 67
REMARK SMILES IDX 43 68 27 69 28 70 36 71 29 72 30 73 34 74 37 75 31 76 32 77
REMARK SMILES IDX 35 78 33 79 59 80 60 81 68 82 61 83 62 84 66 85 69 86 63 87
REMARK SMILES IDX 64 88 67 89 65 90 44 91 45 92 53 93 46 94 47 95 51 96 54 97
REMARK SMILES IDX 48 98 49 99 52 100 50 101
REMARK H PARENT 8 7 15 35 74 54 42 65
REMARK Flexibility Score: inf
ROOT
ATOM      1  C   UNL     1       0.282   0.624   2.089  1.00  0.00     0.002 C 
ENDROOT
BRANCH   1   2
ATOM      2  C   UNL     1      -0.651   1.247   1.044  1.00  0.00     0.021 C 
BRANCH   2   3
ATOM      3  C   UNL     1       0.006   1.896  -0.166  1.00  0.00     0.116 C 
BRANCH   3   4
ATOM      4  N   UNL     1       0.865   1.068  -0.987  1.00  0.00    -0.354 N 
ATOM      5  C   UNL     1       1.486   1.422  -2.167  1.00  0.00     0.243 C 
ATOM      6  O   UNL     1       2.483   0.782  -2.511  1.00  0.00    -0.273 OA
ATOM      7  H   UNL     1       1.022   0.150  -0.668  1.00  0.00     0.163 HD
BRANCH   5   8
ATOM      8  C   UNL     1       0.939   2.605  -3.025  1.00  0.00     0.184 C 
BRANCH   8   9
ATOM      9  C   UNL     1       1.782   3.923  -2.703  1.00  0.00     0.018 C 
ATOM     10  C   UNL     1       3.160   3.946  -3.393  1.00  0.00     0.010 C 
BRANCH   9  11
ATOM     11  C   UNL     1       1.923   4.224  -1.203  1.00  0.00     0.002 C 
ATOM     12  C   UNL     1       2.619   5.526  -0.838  1.00  0.00     0.004 C 
ENDBRANCH   9  11
ENDBRANCH   8   9
BRANCH   8  13
ATOM     13  N   UNL     1       0.978   2.283  -4.490  1.00  0.00    -0.280 N 
ATOM     14  C   UNL     1       0.912   3.323  -5.396  1.00  0.00     0.266 C 
ATOM     15  C   UNL     1       0.712   1.072  -5.100  1.00  0.00     0.149 C 
ATOM     16  O   UNL     1       0.487   4.454  -5.192  1.00  0.00    -0.268 OA
ATOM     17  C   UNL     1       1.335   2.872  -6.731  1.00  0.00     0.081 C 
ATOM     18  S   UNL     1       1.162   1.171  -6.814  1.00  0.00    -0.054 SA
ATOM     19  S   UNL     1       0.023  -0.313  -4.476  1.00  0.00    -0.052 S 
ATOM     20  C   UNL     1       1.779   3.744  -7.646  1.00  0.00     0.029 C 
BRANCH  20  21
ATOM     21  C   UNL     1       2.100   3.354  -9.013  1.00  0.00    -0.020 A 
ATOM     22  C   UNL     1       3.430   3.139  -9.431  1.00  0.00     0.012 A 
ATOM     23  C   UNL     1       1.027   3.073  -9.865  1.00  0.00     0.058 A 
ATOM     24  C   UNL     1       3.689   2.570 -10.684  1.00  0.00     0.051 A 
ATOM     25  C   UNL     1       1.313   2.472 -11.063  1.00  0.00     0.166 A 
ATOM     26  C   UNL     1       2.605   2.212 -11.457  1.00  0.00     0.165 A 
ATOM     27  O   UNL     1       0.391   2.000 -11.942  1.00  0.00    -0.454 OA
ATOM     28  O   UNL     1       2.646   1.532 -12.635  1.00  0.00    -0.454 OA
ATOM     29  C   UNL     1       1.245   1.215 -12.796  1.00  0.00     0.468 C 
ENDBRANCH  20  21
ENDBRANCH   8  13
ENDBRANCH   5   8
ENDBRANCH   3   4
ENDBRANCH   2   3
ENDBRANCH   1   2
BRANCH   1  30
ATOM     30  C   UNL     1       1.573   1.367   2.456  1.00  0.00     0.002 C 
BRANCH  30  31
ATOM     31  C   UNL     1       1.462   2.805   2.969  1.00  0.00     0.021 C 
BRANCH  31  32
ATOM     32  C   UNL     1       0.497   3.053   4.122  1.00  0.00     0.116 C 
BRANCH  32  33
ATOM     33  N   UNL     1       0.777   2.248   5.295  1.00  0.00    -0.352 N 
ATOM     34  C   UNL     1       0.800   2.593   6.628  1.00  0.00     0.251 C 
ATOM     35  H   UNL     1       0.984   1.304   5.108  1.00  0.00     0.163 HD
ATOM     36  O   UNL     1       1.148   1.769   7.457  1.00  0.00    -0.269 OA
BRANCH  34  37
ATOM     37  C   UNL     1       0.432   3.963   7.067  1.00  0.00     0.039 A 
ATOM     38  C   UNL     1       1.169   4.546   8.104  1.00  0.00     0.014 A 
ATOM     39  C   UNL     1      -0.647   4.657   6.514  1.00  0.00     0.014 A 
ATOM     40  C   UNL     1       0.855   5.832   8.554  1.00  0.00     0.010 A 
ATOM     41  C   UNL     1      -0.913   5.968   6.910  1.00  0.00     0.010 A 
ATOM     42  C   UNL     1      -0.176   6.564   7.945  1.00  0.00    -0.014 A 
BRANCH  42  43
ATOM     43  C   UNL     1      -0.523   7.934   8.405  1.00  0.00     0.031 A 
ATOM     44  C   UNL     1      -1.871   8.203   9.020  1.00  0.00     0.074 A 
ATOM     45  C   UNL     1       0.348   8.946   8.229  1.00  0.00     0.049 A 
ATOM     46  N   UNL     1      -2.389   9.336   9.425  1.00  0.00    -0.248 NA
ATOM     47  C   UNL     1      -2.768   7.047   9.172  1.00  0.00     0.031 C 
ATOM     48  C   UNL     1       1.670   8.825   7.613  1.00  0.00     0.029 A 
ATOM     49  N   UNL     1       0.249  10.278   8.546  1.00  0.00    -0.354 N 
ATOM     50  C   UNL     1      -3.672   9.031   9.861  1.00  0.00     0.074 A 
ATOM     51  C   UNL     1      -3.876   7.619   9.618  1.00  0.00     0.031 C 
ATOM     52  C   UNL     1       2.268  10.028   7.617  1.00  0.00     0.029 A 
ATOM     53  C   UNL     1       1.360  11.010   8.203  1.00  0.00     0.049 A 
ATOM     54  H   UNL     1      -0.543  10.672   8.977  1.00  0.00     0.167 HD
ATOM     55  C   UNL     1      -4.589   9.846  10.437  1.00  0.00     0.037 A 
ATOM     56  C   UNL     1       1.615  12.325   8.345  1.00  0.00     0.037 A 
ATOM     57  C   UNL     1      -4.375  11.245  10.702  1.00  0.00     0.049 A 
ATOM     58  C   UNL     1       0.583  13.209   8.992  1.00  0.00     0.074 A 
ATOM     59  C   UNL     1      -5.224  12.149  11.316  1.00  0.00     0.029 A 
ATOM     60  N   UNL     1      -3.223  11.943  10.368  1.00  0.00    -0.354 N 
ATOM     61  N   UNL     1      -0.606  12.899   9.450  1.00  0.00    -0.248 NA
ATOM     62  C   UNL     1       0.935  14.627   9.153  1.00  0.00     0.031 C 
ATOM     63  C   UNL     1      -4.603  13.403  11.317  1.00  0.00     0.029 A 
ATOM     64  C   UNL     1      -3.344  13.269  10.755  1.00  0.00     0.049 A 
ATOM     65  H   UNL     1      -2.436  11.555   9.922  1.00  0.00     0.167 HD
ATOM     66  C   UNL     1      -1.124  14.068   9.991  1.00  0.00     0.074 A 
ATOM     67  C   UNL     1      -0.117  15.093   9.810  1.00  0.00     0.031 C 
ATOM     68  C   UNL     1      -2.325  14.273  10.587  1.00  0.00     0.037 A 
BRANCH  55  69
ATOM     69  C   UNL     1      -5.910   9.240  10.820  1.00  0.00     0.064 A 
ATOM     70  C   UNL     1      -6.018   8.307  11.863  1.00  0.00     0.173 A 
ATOM     71  C   UNL     1      -7.086   9.612  10.151  1.00  0.00     0.173 A 
ATOM     72  F   UNL     1      -4.923   7.908  12.528  1.00  0.00    -0.203 F 
ATOM     73  C   UNL     1      -7.246   7.741  12.196  1.00  0.00     0.198 A 
ATOM     74  C   UNL     1      -8.318   9.070  10.510  1.00  0.00     0.198 A 
ATOM     75  F   UNL     1      -7.043  10.505   9.151  1.00  0.00    -0.203 F 
ATOM     76  F   UNL     1      -7.313   6.807  13.155  1.00  0.00    -0.200 F 
ATOM     77  C   UNL     1      -8.395   8.127  11.524  1.00  0.00     0.200 A 
ATOM     78  F   UNL     1      -9.430   9.454   9.869  1.00  0.00    -0.200 F 
ATOM     79  F   UNL     1      -9.577   7.585  11.848  1.00  0.00    -0.200 F 
ENDBRANCH  55  69
BRANCH  56  80
ATOM     80  C   UNL     1       2.922  12.880   7.904  1.00  0.00     0.064 A 
ATOM     81  C   UNL     1       3.862  13.335   8.840  1.00  0.00     0.173 A 
ATOM     82  C   UNL     1       3.254  12.978   6.545  1.00  0.00     0.173 A 
ATOM     83  F   UNL     1       3.582  13.281  10.150  1.00  0.00    -0.203 F 
ATOM     84  C   UNL     1       5.075  13.888   8.433  1.00  0.00     0.198 A 
ATOM     85  C   UNL     1       4.480  13.505   6.141  1.00  0.00     0.198 A 
ATOM     86  F   UNL     1       2.392  12.553   5.610  1.00  0.00    -0.203 F 
ATOM     87  F   UNL     1       5.933  14.360   9.347  1.00  0.00    -0.200 F 
ATOM     88  C   UNL     1       5.385  13.967   7.084  1.00  0.00     0.200 A 
ATOM     89  F   UNL     1       4.782  13.567   4.837  1.00  0.00    -0.200 F 
ATOM     90  F   UNL     1       6.552  14.497   6.693  1.00  0.00    -0.200 F 
ENDBRANCH  56  80
BRANCH  68  91
ATOM     91  C   UNL     1      -2.591  15.641  11.148  1.00  0.00     0.064 A 
ATOM     92  C   UNL     1      -2.808  16.754  10.322  1.00  0.00     0.173 A 
ATOM     93  C   UNL     1      -2.655  15.832  12.537  1.00  0.00     0.173 A 
ATOM     94  F   UNL     1      -2.744  16.627   8.988  1.00  0.00    -0.203 F 
ATOM     95  C   UNL     1      -3.045  18.013  10.866  1.00  0.00     0.198 A 
ATOM     96  C   UNL     1      -2.926  17.086  13.077  1.00  0.00     0.198 A 
ATOM     97  F   UNL     1      -2.464  14.800  13.372  1.00  0.00    -0.203 F 
ATOM     98  F   UNL     1      -3.193  19.073  10.059  1.00  0.00    -0.200 F 
ATOM     99  C   UNL     1      -3.110  18.177  12.242  1.00  0.00     0.200 A 
ATOM    100  F   UNL     1      -3.003  17.239  14.406  1.00  0.00    -0.200 F 
ATOM    101  F   UNL     1      -3.342  19.390  12.764  1.00  0.00    -0.200 F 
ENDBRANCH  68  91
ENDBRANCH  42  43
ENDBRANCH  34  37
ENDBRANCH  32  33
ENDBRANCH  31  32
ENDBRANCH  30  31
ENDBRANCH   1  30
TORSDOF 17
