REMARK SMILES C[C@H](CNc1cccc(F)c1C(=O)NCCCCCCNC(=O)c1ccc(-c2c3nc(c(-c4c(F)c(F)c(F)c(F)c4F)c4ccc([nH]4)c(-c4c(F)c(F)c(F)c(F)c4F)c4nc(c(-c5c(F)c(F)c(F)c(F)c5F)c5ccc2[nH]5)C=C4)C=C3)cc1)C[NH+]1CCCC1
REMARK SMILES IDX 16 1 15 2 14 3 12 4 13 5 11 7 5 8 6 9 7 10 9 11 8 12 10 13
REMARK SMILES IDX 4 14 3 16 2 17 1 18 87 19 88 20 89 21 92 22 90 24 91 25
REMARK SMILES IDX 17 26 18 27 19 28 20 29 21 30 22 31 23 33 24 34 25 35 86 36
REMARK SMILES IDX 26 37 85 38 27 39 28 40 29 41 79 42 30 43 84 44 78 45 80 46
REMARK SMILES IDX 31 47 83 48 77 49 76 50 32 52 64 53 44 54 63 55 45 56 48 57
REMARK SMILES IDX 62 58 81 59 46 60 47 61 61 63 82 64 49 65 33 66 34 67 42 68
REMARK SMILES IDX 35 69 36 70 40 71 43 72 37 73 38 74 41 75 39 76 65 77 66 78
REMARK SMILES IDX 74 79 67 80 68 81 72 82 75 83 69 84 70 85 73 86 71 87 50 88
REMARK SMILES IDX 51 89 59 90 52 91 53 92 57 93 60 94 54 95 55 96 58 97 56 98
REMARK H PARENT 14 6 4 15 88 23 21 32 80 51 48 62
REMARK Flexibility Score: inf
ROOT
ATOM      1  C   UNL     1      -2.513   6.502  -1.962  1.00  0.00     0.021 C 
ENDROOT
BRANCH   1   2
ATOM      2  C   UNL     1      -1.177   6.025  -1.397  1.00  0.00     0.116 C 
BRANCH   2   3
ATOM      3  N   UNL     1      -1.313   4.899  -0.501  1.00  0.00    -0.352 N 
ATOM      4  C   UNL     1      -0.541   3.783  -0.298  1.00  0.00     0.256 C 
ATOM      5  O   UNL     1      -0.987   2.978   0.522  1.00  0.00    -0.269 OA
ATOM      6  H   UNL     1      -2.112   4.940   0.072  1.00  0.00     0.163 HD
BRANCH   4   7
ATOM      7  C   UNL     1       0.722   3.484  -1.041  1.00  0.00     0.098 A 
ATOM      8  C   UNL     1       1.086   2.135  -1.302  1.00  0.00     0.050 A 
ATOM      9  C   UNL     1       2.242   1.882  -2.066  1.00  0.00     0.027 A 
ATOM     10  C   UNL     1       3.059   2.914  -2.520  1.00  0.00     0.005 A 
ATOM     11  C   UNL     1       1.612   4.494  -1.422  1.00  0.00     0.138 A 
ATOM     12  C   UNL     1       2.756   4.221  -2.173  1.00  0.00     0.040 A 
ATOM     13  F   UNL     1       1.435   5.766  -1.036  1.00  0.00    -0.206 F 
BRANCH   8  14
ATOM     14  N   UNL     1       0.361   1.062  -0.789  1.00  0.00    -0.384 N 
ATOM     15  H   UNL     1      -0.621   1.070  -0.869  1.00  0.00     0.160 HD
BRANCH  14  16
ATOM     16  C   UNL     1       1.004  -0.076  -0.137  1.00  0.00     0.122 C 
BRANCH  16  17
ATOM     17  C   UNL     1       0.679  -0.170   1.372  1.00  0.00     0.060 C 
ATOM     18  C   UNL     1       1.309   0.987   2.161  1.00  0.00     0.015 C 
BRANCH  17  19
ATOM     19  C   UNL     1      -0.830  -0.265   1.691  1.00  0.00     0.267 C 
BRANCH  19  20
ATOM     20  N   UNL     1      -1.509  -1.307   0.903  1.00  0.00    -0.335 N 
ATOM     21  C   UNL     1      -2.964  -1.098   0.868  1.00  0.00     0.262 C 
ATOM     22  C   UNL     1      -1.326  -2.649   1.477  1.00  0.00     0.262 C 
ATOM     23  H   UNL     1      -1.092  -1.244  -0.026  1.00  0.00     0.348 HD
ATOM     24  C   UNL     1      -3.480  -1.755   2.131  1.00  0.00     0.067 C 
ATOM     25  C   UNL     1      -2.578  -2.965   2.292  1.00  0.00     0.067 C 
ENDBRANCH  19  20
ENDBRANCH  17  19
ENDBRANCH  16  17
ENDBRANCH  14  16
ENDBRANCH   8  14
ENDBRANCH   4   7
ENDBRANCH   2   3
ENDBRANCH   1   2
BRANCH   1  26
ATOM     26  C   UNL     1      -3.583   6.921  -0.948  1.00  0.00     0.002 C 
BRANCH  26  27
ATOM     27  C   UNL     1      -3.177   7.954   0.106  1.00  0.00     0.002 C 
BRANCH  27  28
ATOM     28  C   UNL     1      -2.529   9.241  -0.406  1.00  0.00     0.021 C 
BRANCH  28  29
ATOM     29  C   UNL     1      -3.272   9.981  -1.514  1.00  0.00     0.116 C 
BRANCH  29  30
ATOM     30  N   UNL     1      -4.608  10.398  -1.133  1.00  0.00    -0.352 N 
ATOM     31  C   UNL     1      -5.243  11.602  -1.308  1.00  0.00     0.251 C 
ATOM     32  H   UNL     1      -5.144   9.708  -0.677  1.00  0.00     0.163 HD
ATOM     33  O   UNL     1      -6.355  11.776  -0.816  1.00  0.00    -0.269 OA
BRANCH  31  34
ATOM     34  C   UNL     1      -4.597  12.712  -2.050  1.00  0.00     0.039 A 
ATOM     35  C   UNL     1      -4.735  14.008  -1.543  1.00  0.00     0.014 A 
ATOM     36  C   UNL     1      -3.901  12.509  -3.245  1.00  0.00     0.014 A 
ATOM     37  C   UNL     1      -4.132  15.084  -2.198  1.00  0.00     0.010 A 
ATOM     38  C   UNL     1      -3.245  13.576  -3.866  1.00  0.00     0.010 A 
ATOM     39  C   UNL     1      -3.356  14.875  -3.349  1.00  0.00    -0.014 A 
BRANCH  39  40
ATOM     40  C   UNL     1      -2.642  16.012  -3.987  1.00  0.00     0.031 A 
ATOM     41  C   UNL     1      -3.024  16.497  -5.357  1.00  0.00     0.074 A 
ATOM     42  C   UNL     1      -1.623  16.601  -3.328  1.00  0.00     0.049 A 
ATOM     43  N   UNL     1      -2.528  17.495  -6.047  1.00  0.00    -0.248 NA
ATOM     44  C   UNL     1      -4.085  15.756  -6.057  1.00  0.00     0.031 C 
ATOM     45  C   UNL     1      -1.114  16.183  -2.021  1.00  0.00     0.029 A 
ATOM     46  N   UNL     1      -0.837  17.675  -3.663  1.00  0.00    -0.354 N 
ATOM     47  C   UNL     1      -3.209  17.497  -7.256  1.00  0.00     0.074 A 
ATOM     48  C   UNL     1      -4.123  16.376  -7.229  1.00  0.00     0.031 C 
ATOM     49  C   UNL     1      -0.123  17.009  -1.651  1.00  0.00     0.029 A 
ATOM     50  C   UNL     1       0.091  17.999  -2.704  1.00  0.00     0.049 A 
ATOM     51  H   UNL     1      -0.928  18.167  -4.511  1.00  0.00     0.167 HD
ATOM     52  C   UNL     1      -3.096  18.370  -8.286  1.00  0.00     0.037 A 
ATOM     53  C   UNL     1       1.008  18.985  -2.669  1.00  0.00     0.037 A 
ATOM     54  C   UNL     1      -2.213  19.508  -8.297  1.00  0.00     0.049 A 
ATOM     55  C   UNL     1       1.087  19.960  -3.811  1.00  0.00     0.074 A 
ATOM     56  C   UNL     1      -2.098  20.496  -9.259  1.00  0.00     0.029 A 
ATOM     57  N   UNL     1      -1.296  19.808  -7.302  1.00  0.00    -0.354 N 
ATOM     58  N   UNL     1       0.378  19.999  -4.912  1.00  0.00    -0.248 NA
ATOM     59  C   UNL     1       2.087  21.032  -3.702  1.00  0.00     0.031 C 
ATOM     60  C   UNL     1      -1.078  21.369  -8.869  1.00  0.00     0.029 A 
ATOM     61  C   UNL     1      -0.591  20.952  -7.642  1.00  0.00     0.049 A 
ATOM     62  H   UNL     1      -1.165  19.287  -6.477  1.00  0.00     0.167 HD
ATOM     63  C   UNL     1       0.838  21.099  -5.622  1.00  0.00     0.074 A 
ATOM     64  C   UNL     1       1.868  21.718  -4.815  1.00  0.00     0.031 C 
ATOM     65  C   UNL     1       0.443  21.551  -6.837  1.00  0.00     0.037 A 
BRANCH  52  66
ATOM     66  C   UNL     1      -3.961  18.154  -9.493  1.00  0.00     0.064 A 
ATOM     67  C   UNL     1      -3.391  17.764 -10.714  1.00  0.00     0.173 A 
ATOM     68  C   UNL     1      -5.335  18.431  -9.467  1.00  0.00     0.173 A 
ATOM     69  F   UNL     1      -2.079  17.495 -10.794  1.00  0.00    -0.203 F 
ATOM     70  C   UNL     1      -4.164  17.677 -11.869  1.00  0.00     0.198 A 
ATOM     71  C   UNL     1      -6.109  18.320 -10.619  1.00  0.00     0.198 A 
ATOM     72  F   UNL     1      -5.927  18.801  -8.321  1.00  0.00    -0.203 F 
ATOM     73  F   UNL     1      -3.592  17.338 -13.033  1.00  0.00    -0.200 F 
ATOM     74  C   UNL     1      -5.522  17.954 -11.820  1.00  0.00     0.200 A 
ATOM     75  F   UNL     1      -7.425  18.570 -10.566  1.00  0.00    -0.200 F 
ATOM     76  F   UNL     1      -6.264  17.870 -12.933  1.00  0.00    -0.200 F 
ENDBRANCH  52  66
BRANCH  53  77
ATOM     77  C   UNL     1       1.902  19.113  -1.490  1.00  0.00     0.064 A 
ATOM     78  C   UNL     1       2.915  18.175  -1.240  1.00  0.00     0.173 A 
ATOM     79  C   UNL     1       1.744  20.162  -0.575  1.00  0.00     0.173 A 
ATOM     80  F   UNL     1       3.103  17.149  -2.084  1.00  0.00    -0.203 F 
ATOM     81  C   UNL     1       3.724  18.273  -0.110  1.00  0.00     0.198 A 
ATOM     82  C   UNL     1       2.571  20.275   0.541  1.00  0.00     0.198 A 
ATOM     83  F   UNL     1       0.803  21.095  -0.783  1.00  0.00    -0.203 F 
ATOM     84  F   UNL     1       4.663  17.346   0.122  1.00  0.00    -0.200 F 
ATOM     85  C   UNL     1       3.554  19.326   0.777  1.00  0.00     0.200 A 
ATOM     86  F   UNL     1       2.420  21.306   1.383  1.00  0.00    -0.200 F 
ATOM     87  F   UNL     1       4.341  19.427   1.857  1.00  0.00    -0.200 F 
ENDBRANCH  53  77
BRANCH  65  88
ATOM     88  C   UNL     1       1.132  22.768  -7.380  1.00  0.00     0.064 A 
ATOM     89  C   UNL     1       0.452  23.990  -7.482  1.00  0.00     0.173 A 
ATOM     90  C   UNL     1       2.451  22.707  -7.854  1.00  0.00     0.173 A 
ATOM     91  F   UNL     1      -0.813  24.099  -7.050  1.00  0.00    -0.203 F 
ATOM     92  C   UNL     1       1.064  25.105  -8.049  1.00  0.00     0.198 A 
ATOM     93  C   UNL     1       3.069  23.831  -8.396  1.00  0.00     0.198 A 
ATOM     94  F   UNL     1       3.147  21.564  -7.767  1.00  0.00    -0.203 F 
ATOM     95  F   UNL     1       0.385  26.255  -8.163  1.00  0.00    -0.200 F 
ATOM     96  C   UNL     1       2.372  25.026  -8.501  1.00  0.00     0.200 A 
ATOM     97  F   UNL     1       4.341  23.759  -8.810  1.00  0.00    -0.200 F 
ATOM     98  F   UNL     1       2.965  26.103  -9.034  1.00  0.00    -0.200 F 
ENDBRANCH  65  88
ENDBRANCH  39  40
ENDBRANCH  31  34
ENDBRANCH  29  30
ENDBRANCH  28  29
ENDBRANCH  27  28
ENDBRANCH  26  27
ENDBRANCH   1  26
TORSDOF 18
