REMARK SMILES N#Cc1ccccc1NC(=O)C[N@H+]1CCCC[C@H]1C(=O)NCCCCCCNC(=O)c1ccc(-c2c3nc(c(-c4c(F)c(F)c(F)c(F)c4F)c4ccc([nH]4)c(-c4c(F)c(F)c(F)c(F)c4F)c4nc(c(-c5c(F)c(F)c(F)c(F)c5F)c5ccc2[nH]5)C=C4)C=C3)cc1
REMARK SMILES IDX 23 1 22 2 21 3 19 4 20 5 18 7 13 8 14 9 15 11 17 12 16 13
REMARK SMILES IDX 12 14 10 15 9 16 11 18 8 19 3 20 4 21 5 22 7 23 6 24 2 25
REMARK SMILES IDX 1 26 24 27 25 28 26 29 27 30 28 31 29 32 30 34 31 35 32 36
REMARK SMILES IDX 93 37 33 38 92 39 34 40 35 41 36 42 86 43 37 44 91 45 85 46
REMARK SMILES IDX 87 47 38 48 90 49 84 50 83 51 39 53 71 54 51 55 70 56 52 57
REMARK SMILES IDX 55 58 69 59 88 60 53 61 54 62 68 64 89 65 56 66 40 67 41 68
REMARK SMILES IDX 49 69 42 70 43 71 47 72 50 73 44 74 45 75 48 76 46 77 72 78
REMARK SMILES IDX 73 79 81 80 74 81 75 82 79 83 82 84 76 85 77 86 80 87 78 88
REMARK SMILES IDX 57 89 58 90 66 91 59 92 60 93 64 94 67 95 61 96 62 97 65 98
REMARK SMILES IDX 63 99
REMARK H PARENT 21 6 13 10 9 17 28 33 87 52 55 63
REMARK Flexibility Score: inf
ROOT
ATOM      1  C   UNL     1      -0.337   1.140  -3.757  1.00  0.00     0.021 C 
ENDROOT
BRANCH   1   2
ATOM      2  C   UNL     1       0.181   0.844  -2.354  1.00  0.00     0.116 C 
BRANCH   2   3
ATOM      3  N   UNL     1      -0.359  -0.427  -1.953  1.00  0.00    -0.351 N 
ATOM      4  C   UNL     1       0.211  -1.653  -2.039  1.00  0.00     0.278 C 
ATOM      5  O   UNL     1      -0.581  -2.585  -2.185  1.00  0.00    -0.268 OA
ATOM      6  H   UNL     1      -1.263  -0.403  -1.564  1.00  0.00     0.163 HD
BRANCH   4   7
ATOM      7  C   UNL     1       1.742  -1.820  -1.841  1.00  0.00     0.274 C 
ATOM      8  N   UNL     1       2.113  -3.213  -1.522  1.00  0.00    -0.317 N 
ATOM      9  C   UNL     1       1.855  -4.150  -2.624  1.00  0.00     0.263 C 
ATOM     10  H   UNL     1       3.127  -3.148  -1.434  1.00  0.00     0.349 HD
ATOM     11  C   UNL     1       2.456  -3.675  -3.964  1.00  0.00     0.062 C 
ATOM     12  C   UNL     1       2.576  -1.377  -3.048  1.00  0.00     0.076 C 
ATOM     13  C   UNL     1       2.222  -2.201  -4.267  1.00  0.00     0.012 C 
BRANCH   8  14
ATOM     14  C   UNL     1       1.778  -3.728  -0.173  1.00  0.00     0.364 C 
BRANCH  14  15
ATOM     15  C   UNL     1       0.341  -3.593   0.353  1.00  0.00     0.279 C 
ATOM     16  N   UNL     1      -0.183  -2.450   0.910  1.00  0.00    -0.320 N 
ATOM     17  H   UNL     1      -1.127  -2.545   1.173  1.00  0.00     0.170 HD
ATOM     18  O   UNL     1      -0.423  -4.568   0.294  1.00  0.00    -0.268 OA
BRANCH  16  19
ATOM     19  C   UNL     1       0.346  -1.167   1.188  1.00  0.00     0.059 A 
ATOM     20  C   UNL     1      -0.495  -0.033   1.116  1.00  0.00     0.076 A 
ATOM     21  C   UNL     1       0.060   1.261   1.127  1.00  0.00     0.021 A 
ATOM     22  C   UNL     1       1.435   1.439   1.238  1.00  0.00     0.002 A 
ATOM     23  C   UNL     1       1.699  -0.955   1.458  1.00  0.00     0.027 A 
ATOM     24  C   UNL     1       2.248   0.332   1.442  1.00  0.00     0.002 A 
BRANCH  20  25
ATOM     25  C   UNL     1      -1.904  -0.133   0.875  1.00  0.00     0.101 C 
ATOM     26  N   UNL     1      -3.042  -0.179   0.633  1.00  0.00    -0.192 NA
ENDBRANCH  20  25
ENDBRANCH  16  19
ENDBRANCH  14  15
ENDBRANCH   8  14
ENDBRANCH   4   7
ENDBRANCH   2   3
ENDBRANCH   1   2
BRANCH   1  27
ATOM     27  C   UNL     1      -1.867   1.325  -3.773  1.00  0.00     0.002 C 
BRANCH  27  28
ATOM     28  C   UNL     1      -2.370   2.414  -2.817  1.00  0.00     0.002 C 
BRANCH  28  29
ATOM     29  C   UNL     1      -1.685   3.765  -3.022  1.00  0.00     0.021 C 
BRANCH  29  30
ATOM     30  C   UNL     1      -1.768   4.263  -4.458  1.00  0.00     0.116 C 
BRANCH  30  31
ATOM     31  N   UNL     1      -3.149   4.458  -4.870  1.00  0.00    -0.352 N 
ATOM     32  C   UNL     1      -3.728   5.583  -5.394  1.00  0.00     0.251 C 
ATOM     33  H   UNL     1      -3.743   3.681  -4.759  1.00  0.00     0.163 HD
ATOM     34  O   UNL     1      -4.945   5.691  -5.472  1.00  0.00    -0.269 OA
BRANCH  32  35
ATOM     35  C   UNL     1      -2.849   6.678  -5.839  1.00  0.00     0.039 A 
ATOM     36  C   UNL     1      -3.112   7.975  -5.399  1.00  0.00     0.014 A 
ATOM     37  C   UNL     1      -1.732   6.403  -6.634  1.00  0.00     0.014 A 
ATOM     38  C   UNL     1      -2.211   8.993  -5.703  1.00  0.00     0.010 A 
ATOM     39  C   UNL     1      -0.794   7.401  -6.864  1.00  0.00     0.010 A 
ATOM     40  C   UNL     1      -1.023   8.704  -6.396  1.00  0.00    -0.014 A 
BRANCH  40  41
ATOM     41  C   UNL     1       0.011   9.745  -6.610  1.00  0.00     0.031 A 
ATOM     42  C   UNL     1       0.384  10.161  -8.004  1.00  0.00     0.074 A 
ATOM     43  C   UNL     1       0.665  10.254  -5.547  1.00  0.00     0.049 A 
ATOM     44  N   UNL     1       1.320  10.986  -8.395  1.00  0.00    -0.248 NA
ATOM     45  C   UNL     1      -0.380   9.553  -9.107  1.00  0.00     0.031 C 
ATOM     46  C   UNL     1       0.415   9.893  -4.149  1.00  0.00     0.029 A 
ATOM     47  N   UNL     1       1.684  11.171  -5.474  1.00  0.00    -0.354 N 
ATOM     48  C   UNL     1       1.270  10.983  -9.783  1.00  0.00     0.074 A 
ATOM     49  C   UNL     1       0.240  10.046 -10.170  1.00  0.00     0.031 C 
ATOM     50  C   UNL     1       1.246  10.591  -3.359  1.00  0.00     0.029 A 
ATOM     51  C   UNL     1       2.125  11.403  -4.193  1.00  0.00     0.049 A 
ATOM     52  H   UNL     1       2.062  11.620  -6.264  1.00  0.00     0.167 HD
ATOM     53  C   UNL     1       2.012  11.710 -10.650  1.00  0.00     0.037 A 
ATOM     54  C   UNL     1       3.144  12.161  -3.744  1.00  0.00     0.037 A 
ATOM     55  C   UNL     1       3.018  12.659 -10.252  1.00  0.00     0.049 A 
ATOM     56  C   UNL     1       3.972  12.932  -4.740  1.00  0.00     0.074 A 
ATOM     57  C   UNL     1       3.761  13.509 -11.052  1.00  0.00     0.029 A 
ATOM     58  N   UNL     1       3.435  12.871  -8.946  1.00  0.00    -0.354 N 
ATOM     59  N   UNL     1       3.848  12.999  -6.043  1.00  0.00    -0.248 NA
ATOM     60  C   UNL     1       5.083  13.731  -4.205  1.00  0.00     0.031 C 
ATOM     61  C   UNL     1       4.686  14.171 -10.242  1.00  0.00     0.029 A 
ATOM     62  C   UNL     1       4.466  13.796  -8.927  1.00  0.00     0.049 A 
ATOM     63  H   UNL     1       3.055  12.430  -8.152  1.00  0.00     0.167 HD
ATOM     64  C   UNL     1       4.844  13.863  -6.479  1.00  0.00     0.074 A 
ATOM     65  C   UNL     1       5.549  14.316  -5.299  1.00  0.00     0.031 C 
ATOM     66  C   UNL     1       5.153  14.242  -7.742  1.00  0.00     0.037 A 
BRANCH  53  67
ATOM     67  C   UNL     1       1.789  11.507 -12.120  1.00  0.00     0.064 A 
ATOM     68  C   UNL     1       0.618  11.936 -12.761  1.00  0.00     0.173 A 
ATOM     69  C   UNL     1       2.805  10.950 -12.914  1.00  0.00     0.173 A 
ATOM     70  F   UNL     1      -0.387  12.467 -12.048  1.00  0.00    -0.203 F 
ATOM     71  C   UNL     1       0.466  11.803 -14.139  1.00  0.00     0.198 A 
ATOM     72  C   UNL     1       2.664  10.850 -14.294  1.00  0.00     0.198 A 
ATOM     73  F   UNL     1       3.948  10.528 -12.351  1.00  0.00    -0.203 F 
ATOM     74  F   UNL     1      -0.675  12.188 -14.726  1.00  0.00    -0.200 F 
ATOM     75  C   UNL     1       1.493  11.272 -14.905  1.00  0.00     0.200 A 
ATOM     76  F   UNL     1       3.665  10.354 -15.034  1.00  0.00    -0.200 F 
ATOM     77  F   UNL     1       1.355  11.166 -16.234  1.00  0.00    -0.200 F 
ENDBRANCH  53  67
BRANCH  54  78
ATOM     78  C   UNL     1       3.466  12.209  -2.292  1.00  0.00     0.064 A 
ATOM     79  C   UNL     1       3.363  13.402  -1.563  1.00  0.00     0.173 A 
ATOM     80  C   UNL     1       3.930  11.072  -1.611  1.00  0.00     0.173 A 
ATOM     81  F   UNL     1       2.941  14.522  -2.168  1.00  0.00    -0.203 F 
ATOM     82  C   UNL     1       3.751  13.467  -0.226  1.00  0.00     0.198 A 
ATOM     83  C   UNL     1       4.279  11.128  -0.264  1.00  0.00     0.198 A 
ATOM     84  F   UNL     1       4.043   9.901  -2.256  1.00  0.00    -0.203 F 
ATOM     85  F   UNL     1       3.713  14.638   0.424  1.00  0.00    -0.200 F 
ATOM     86  C   UNL     1       4.205  12.329   0.424  1.00  0.00     0.200 A 
ATOM     87  F   UNL     1       4.697  10.020   0.364  1.00  0.00    -0.200 F 
ATOM     88  F   UNL     1       4.585  12.393   1.707  1.00  0.00    -0.200 F 
ENDBRANCH  54  78
BRANCH  66  89
ATOM     89  C   UNL     1       6.287  15.211  -7.921  1.00  0.00     0.064 A 
ATOM     90  C   UNL     1       7.619  14.834  -7.699  1.00  0.00     0.173 A 
ATOM     91  C   UNL     1       6.041  16.513  -8.385  1.00  0.00     0.173 A 
ATOM     92  F   UNL     1       7.906  13.606  -7.240  1.00  0.00    -0.203 F 
ATOM     93  C   UNL     1       8.662  15.729  -7.920  1.00  0.00     0.198 A 
ATOM     94  C   UNL     1       7.089  17.392  -8.640  1.00  0.00     0.198 A 
ATOM     95  F   UNL     1       4.785  16.922  -8.620  1.00  0.00    -0.203 F 
ATOM     96  F   UNL     1       9.924  15.361  -7.659  1.00  0.00    -0.200 F 
ATOM     97  C   UNL     1       8.398  17.002  -8.402  1.00  0.00     0.200 A 
ATOM     98  F   UNL     1       6.832  18.615  -9.125  1.00  0.00    -0.200 F 
ATOM     99  F   UNL     1       9.405  17.855  -8.633  1.00  0.00    -0.200 F 
ENDBRANCH  66  89
ENDBRANCH  40  41
ENDBRANCH  32  35
ENDBRANCH  30  31
ENDBRANCH  29  30
ENDBRANCH  28  29
ENDBRANCH  27  28
ENDBRANCH   1  27
TORSDOF 17
