REMARK SMILES NC(=O)[C@H]1CCCN1S(=O)(=O)Cc1ccc(C(=O)NCCCCCCNC(=O)c2ccc(-c3c4nc(c(-c5c(F)c(F)c(F)c(F)c5F)c5ccc([nH]5)c(-c5c(F)c(F)c(F)c(F)c5F)c5nc(c(-c6c(F)c(F)c(F)c(F)c6F)c6ccc3[nH]6)C=C5)C=C4)cc2)cc1
REMARK SMILES IDX 21 1 20 2 19 3 17 4 18 5 16 7 13 8 14 9 93 10 15 11 92 12
REMARK SMILES IDX 12 13 9 14 10 15 11 16 8 17 4 18 5 19 6 20 7 21 2 22 1 23
REMARK SMILES IDX 3 26 22 27 23 28 24 29 25 30 26 31 27 32 28 34 29 35 30 36
REMARK SMILES IDX 91 37 31 38 90 39 32 40 33 41 34 42 84 43 35 44 89 45 83 46
REMARK SMILES IDX 85 47 36 48 88 49 82 50 81 51 37 53 69 54 49 55 68 56 50 57
REMARK SMILES IDX 53 58 67 59 86 60 51 61 52 62 66 64 87 65 54 66 38 67 39 68
REMARK SMILES IDX 47 69 40 70 41 71 45 72 48 73 42 74 43 75 46 76 44 77 70 78
REMARK SMILES IDX 71 79 79 80 72 81 73 82 77 83 80 84 74 85 75 86 78 87 76 88
REMARK SMILES IDX 55 89 56 90 64 91 57 92 58 93 62 94 65 95 59 96 60 97 63 98
REMARK SMILES IDX 61 99
REMARK H PARENT 19 6 1 24 1 25 26 33 85 52 53 63
REMARK Flexibility Score: inf
ROOT
ATOM      1  C   UNL     1      -0.020   7.381   4.076  1.00  0.00     0.021 C 
ENDROOT
BRANCH   1   2
ATOM      2  C   UNL     1       1.041   6.567   3.333  1.00  0.00     0.116 C 
BRANCH   2   3
ATOM      3  N   UNL     1       1.901   5.917   4.297  1.00  0.00    -0.352 N 
ATOM      4  C   UNL     1       1.917   4.641   4.791  1.00  0.00     0.251 C 
ATOM      5  O   UNL     1       2.728   4.380   5.678  1.00  0.00    -0.269 OA
ATOM      6  H   UNL     1       2.604   6.499   4.666  1.00  0.00     0.163 HD
BRANCH   4   7
ATOM      7  C   UNL     1       1.060   3.558   4.241  1.00  0.00     0.039 A 
ATOM      8  C   UNL     1      -0.336   1.379   3.094  1.00  0.00    -0.032 A 
ATOM      9  C   UNL     1       0.928   1.204   3.663  1.00  0.00     0.005 A 
ATOM     10  C   UNL     1      -0.906   2.661   3.138  1.00  0.00     0.005 A 
ATOM     11  C   UNL     1       1.615   2.277   4.233  1.00  0.00     0.014 A 
ATOM     12  C   UNL     1      -0.231   3.729   3.739  1.00  0.00     0.014 A 
BRANCH   8  13
ATOM     13  C   UNL     1      -1.065   0.294   2.347  1.00  0.00     0.189 C 
BRANCH  13  14
ATOM     14  S   UNL     1      -1.078  -1.298   3.175  1.00  0.00     0.219 S 
ATOM     15  O   UNL     1      -1.977  -2.167   2.435  1.00  0.00    -0.212 OA
ATOM     16  O   UNL     1      -1.276  -1.105   4.594  1.00  0.00    -0.212 OA
BRANCH  14  17
ATOM     17  N   UNL     1       0.481  -1.926   2.944  1.00  0.00    -0.189 NA
ATOM     18  C   UNL     1       0.893  -2.250   1.541  1.00  0.00     0.161 C 
ATOM     19  C   UNL     1       0.618  -3.743   1.442  1.00  0.00     0.032 C 
ATOM     20  C   UNL     1       1.041  -4.272   2.800  1.00  0.00     0.019 C 
ATOM     21  C   UNL     1       0.793  -3.125   3.776  1.00  0.00     0.103 C 
BRANCH  18  22
ATOM     22  C   UNL     1       2.367  -1.813   1.361  1.00  0.00     0.235 C 
ATOM     23  N   UNL     1       3.219  -2.634   0.685  1.00  0.00    -0.368 N 
ATOM     24  H   UNL     1       4.160  -2.373   0.561  1.00  0.00     0.159 HD
ATOM     25  H   UNL     1       2.893  -3.489   0.320  1.00  0.00     0.159 HD
ATOM     26  O   UNL     1       2.801  -0.735   1.765  1.00  0.00    -0.273 OA
ENDBRANCH  18  22
ENDBRANCH  14  17
ENDBRANCH  13  14
ENDBRANCH   8  13
ENDBRANCH   4   7
ENDBRANCH   2   3
ENDBRANCH   1   2
BRANCH   1  27
ATOM     27  C   UNL     1       0.538   8.690   4.650  1.00  0.00     0.002 C 
BRANCH  27  28
ATOM     28  C   UNL     1       1.081   9.659   3.593  1.00  0.00     0.002 C 
BRANCH  28  29
ATOM     29  C   UNL     1       0.082  10.010   2.489  1.00  0.00     0.021 C 
BRANCH  29  30
ATOM     30  C   UNL     1      -1.176  10.698   3.005  1.00  0.00     0.116 C 
BRANCH  30  31
ATOM     31  N   UNL     1      -0.864  11.988   3.601  1.00  0.00    -0.352 N 
ATOM     32  C   UNL     1      -1.315  13.233   3.248  1.00  0.00     0.251 C 
ATOM     33  H   UNL     1      -0.241  11.963   4.363  1.00  0.00     0.163 HD
ATOM     34  O   UNL     1      -0.753  14.241   3.662  1.00  0.00    -0.269 OA
BRANCH  32  35
ATOM     35  C   UNL     1      -2.484  13.351   2.356  1.00  0.00     0.039 A 
ATOM     36  C   UNL     1      -2.458  14.286   1.320  1.00  0.00     0.014 A 
ATOM     37  C   UNL     1      -3.607  12.540   2.551  1.00  0.00     0.014 A 
ATOM     38  C   UNL     1      -3.542  14.373   0.447  1.00  0.00     0.010 A 
ATOM     39  C   UNL     1      -4.648  12.570   1.632  1.00  0.00     0.010 A 
ATOM     40  C   UNL     1      -4.631  13.495   0.577  1.00  0.00    -0.014 A 
BRANCH  40  41
ATOM     41  C   UNL     1      -5.766  13.534  -0.376  1.00  0.00     0.031 A 
ATOM     42  C   UNL     1      -7.144  13.889   0.107  1.00  0.00     0.074 A 
ATOM     43  C   UNL     1      -5.564  13.193  -1.663  1.00  0.00     0.049 A 
ATOM     44  N   UNL     1      -8.271  13.926  -0.558  1.00  0.00    -0.248 NA
ATOM     45  C   UNL     1      -7.279  14.220   1.534  1.00  0.00     0.031 C 
ATOM     46  C   UNL     1      -4.281  12.787  -2.237  1.00  0.00     0.029 A 
ATOM     47  N   UNL     1      -6.437  13.127  -2.718  1.00  0.00    -0.354 N 
ATOM     48  C   UNL     1      -9.245  14.273   0.369  1.00  0.00     0.074 A 
ATOM     49  C   UNL     1      -8.589  14.371   1.655  1.00  0.00     0.031 C 
ATOM     50  C   UNL     1      -4.443  12.544  -3.547  1.00  0.00     0.029 A 
ATOM     51  C   UNL     1      -5.848  12.732  -3.894  1.00  0.00     0.049 A 
ATOM     52  H   UNL     1      -7.395  13.342  -2.640  1.00  0.00     0.167 HD
ATOM     53  C   UNL     1     -10.561  14.514   0.162  1.00  0.00     0.037 A 
ATOM     54  C   UNL     1      -6.385  12.537  -5.114  1.00  0.00     0.037 A 
ATOM     55  C   UNL     1     -11.203  14.425  -1.124  1.00  0.00     0.049 A 
ATOM     56  C   UNL     1      -7.856  12.783  -5.313  1.00  0.00     0.074 A 
ATOM     57  C   UNL     1     -12.519  14.697  -1.453  1.00  0.00     0.029 A 
ATOM     58  N   UNL     1     -10.575  14.021  -2.294  1.00  0.00    -0.354 N 
ATOM     59  N   UNL     1      -8.755  13.180  -4.445  1.00  0.00    -0.248 NA
ATOM     60  C   UNL     1      -8.385  12.558  -6.664  1.00  0.00     0.031 C 
ATOM     61  C   UNL     1     -12.702  14.400  -2.807  1.00  0.00     0.029 A 
ATOM     62  C   UNL     1     -11.484  14.007  -3.340  1.00  0.00     0.049 A 
ATOM     63  H   UNL     1      -9.623  13.780  -2.370  1.00  0.00     0.167 HD
ATOM     64  C   UNL     1      -9.947  13.284  -5.149  1.00  0.00     0.074 A 
ATOM     65  C   UNL     1      -9.652  12.922  -6.520  1.00  0.00     0.031 C 
ATOM     66  C   UNL     1     -11.174  13.648  -4.702  1.00  0.00     0.037 A 
BRANCH  53  67
ATOM     67  C   UNL     1     -11.393  14.891   1.355  1.00  0.00     0.064 A 
ATOM     68  C   UNL     1     -11.209  16.108   2.032  1.00  0.00     0.173 A 
ATOM     69  C   UNL     1     -12.403  14.034   1.819  1.00  0.00     0.173 A 
ATOM     70  F   UNL     1     -10.251  16.961   1.637  1.00  0.00    -0.203 F 
ATOM     71  C   UNL     1     -11.973  16.432   3.149  1.00  0.00     0.198 A 
ATOM     72  C   UNL     1     -13.191  14.378   2.915  1.00  0.00     0.198 A 
ATOM     73  F   UNL     1     -12.629  12.861   1.208  1.00  0.00    -0.203 F 
ATOM     74  F   UNL     1     -11.734  17.570   3.815  1.00  0.00    -0.200 F 
ATOM     75  C   UNL     1     -12.968  15.571   3.586  1.00  0.00     0.200 A 
ATOM     76  F   UNL     1     -14.163  13.552   3.325  1.00  0.00    -0.200 F 
ATOM     77  F   UNL     1     -13.707  15.886   4.658  1.00  0.00    -0.200 F 
ENDBRANCH  53  67
BRANCH  54  78
ATOM     78  C   UNL     1      -5.519  12.110  -6.244  1.00  0.00     0.064 A 
ATOM     79  C   UNL     1      -5.257  12.975  -7.316  1.00  0.00     0.173 A 
ATOM     80  C   UNL     1      -4.935  10.835  -6.277  1.00  0.00     0.173 A 
ATOM     81  F   UNL     1      -5.807  14.197  -7.340  1.00  0.00    -0.203 F 
ATOM     82  C   UNL     1      -4.461  12.574  -8.387  1.00  0.00     0.198 A 
ATOM     83  C   UNL     1      -4.113  10.447  -7.334  1.00  0.00     0.198 A 
ATOM     84  F   UNL     1      -5.148   9.972  -5.274  1.00  0.00    -0.203 F 
ATOM     85  F   UNL     1      -4.266  13.404  -9.421  1.00  0.00    -0.200 F 
ATOM     86  C   UNL     1      -3.885  11.313  -8.392  1.00  0.00     0.200 A 
ATOM     87  F   UNL     1      -3.544   9.234  -7.325  1.00  0.00    -0.200 F 
ATOM     88  F   UNL     1      -3.114  10.930  -9.419  1.00  0.00    -0.200 F 
ENDBRANCH  54  78
BRANCH  66  89
ATOM     89  C   UNL     1     -12.285  13.712  -5.711  1.00  0.00     0.064 A 
ATOM     90  C   UNL     1     -12.822  12.555  -6.297  1.00  0.00     0.173 A 
ATOM     91  C   UNL     1     -12.846  14.948  -6.068  1.00  0.00     0.173 A 
ATOM     92  F   UNL     1     -12.312  11.350  -6.001  1.00  0.00    -0.203 F 
ATOM     93  C   UNL     1     -13.857  12.637  -7.224  1.00  0.00     0.198 A 
ATOM     94  C   UNL     1     -13.906  15.023  -6.968  1.00  0.00     0.198 A 
ATOM     95  F   UNL     1     -12.376  16.085  -5.533  1.00  0.00    -0.203 F 
ATOM     96  F   UNL     1     -14.316  11.523  -7.811  1.00  0.00    -0.200 F 
ATOM     97  C   UNL     1     -14.404  13.868  -7.552  1.00  0.00     0.200 A 
ATOM     98  F   UNL     1     -14.444  16.212  -7.269  1.00  0.00    -0.200 F 
ATOM     99  F   UNL     1     -15.408  13.943  -8.437  1.00  0.00    -0.200 F 
ENDBRANCH  66  89
ENDBRANCH  40  41
ENDBRANCH  32  35
ENDBRANCH  30  31
ENDBRANCH  29  30
ENDBRANCH  28  29
ENDBRANCH  27  28
ENDBRANCH   1  27
TORSDOF 17
