REMARK SMILES O=C(NCCCCCCNC(=O)c1cccc2c(=O)oc(=O)[nH]c12)c1ccc(-c2c3nc(c(-c4c(F)c(F)c(F)c(F)c4F)c4ccc([nH]4)c(-c4c(F)c(F)c(F)c(F)c4F)c4nc(c(-c5c(F)c(F)c(F)c(F)c5F)c5ccc2[nH]5)C=C4)C=C3)cc1
REMARK SMILES IDX 5 1 4 2 3 3 1 4 2 5 25 7 26 8 87 9 27 10 86 11 28 12 29 13
REMARK SMILES IDX 30 14 80 15 31 16 85 17 79 18 81 19 32 20 84 21 78 22 77 23
REMARK SMILES IDX 33 25 65 26 45 27 64 28 46 29 49 30 63 31 82 32 47 33 48 34
REMARK SMILES IDX 62 36 83 37 50 38 34 39 35 40 43 41 36 42 37 43 41 44 44 45
REMARK SMILES IDX 38 46 39 47 42 48 40 49 66 50 67 51 75 52 68 53 69 54 73 55
REMARK SMILES IDX 76 56 70 57 71 58 74 59 72 60 51 61 52 62 60 63 53 64 54 65
REMARK SMILES IDX 58 66 61 67 55 68 56 69 59 70 57 71 6 72 7 73 8 74 9 75
REMARK SMILES IDX 10 76 11 77 12 79 13 80 14 81 24 82 15 83 17 84 23 85 16 86
REMARK SMILES IDX 18 87 21 88 19 90 20 91 22 92
REMARK H PARENT 3 6 81 24 49 35 10 78 23 89
REMARK Flexibility Score: inf
ROOT
ATOM      1  C   UNL     1       4.710  -1.561  -2.188  1.00  0.00     0.021 C 
ENDROOT
BRANCH   1   2
ATOM      2  C   UNL     1       4.436  -0.359  -1.294  1.00  0.00     0.116 C 
BRANCH   2   3
ATOM      3  N   UNL     1       3.015  -0.102  -1.147  1.00  0.00    -0.352 N 
ATOM      4  O   UNL     1       1.032  -0.003  -0.088  1.00  0.00    -0.269 OA
ATOM      5  C   UNL     1       2.257  -0.020  -0.009  1.00  0.00     0.251 C 
ATOM      6  H   UNL     1       2.524   0.033  -1.990  1.00  0.00     0.163 HD
BRANCH   5   7
ATOM      7  C   UNL     1       2.907   0.047   1.318  1.00  0.00     0.039 A 
ATOM      8  C   UNL     1       2.321  -0.635   2.387  1.00  0.00     0.014 A 
ATOM      9  C   UNL     1       4.048   0.828   1.529  1.00  0.00     0.014 A 
ATOM     10  C   UNL     1       2.879  -0.536   3.662  1.00  0.00     0.010 A 
ATOM     11  C   UNL     1       4.656   0.851   2.780  1.00  0.00     0.010 A 
ATOM     12  C   UNL     1       4.052   0.207   3.869  1.00  0.00    -0.014 A 
BRANCH  12  13
ATOM     13  C   UNL     1       4.596   0.408   5.236  1.00  0.00     0.031 A 
ATOM     14  C   UNL     1       4.616   1.792   5.829  1.00  0.00     0.074 A 
ATOM     15  C   UNL     1       5.072  -0.637   5.939  1.00  0.00     0.049 A 
ATOM     16  N   UNL     1       5.072   2.190   6.990  1.00  0.00    -0.248 NA
ATOM     17  C   UNL     1       4.072   2.880   4.999  1.00  0.00     0.031 C 
ATOM     18  C   UNL     1       5.124  -2.019   5.464  1.00  0.00     0.029 A 
ATOM     19  N   UNL     1       5.596  -0.699   7.206  1.00  0.00    -0.354 N 
ATOM     20  C   UNL     1       4.879   3.565   7.019  1.00  0.00     0.074 A 
ATOM     21  C   UNL     1       4.332   3.947   5.739  1.00  0.00     0.031 C 
ATOM     22  C   UNL     1       5.615  -2.799   6.441  1.00  0.00     0.029 A 
ATOM     23  C   UNL     1       5.951  -1.967   7.594  1.00  0.00     0.049 A 
ATOM     24  H   UNL     1       5.707   0.092   7.782  1.00  0.00     0.167 HD
ATOM     25  C   UNL     1       5.102   4.427   8.038  1.00  0.00     0.037 A 
ATOM     26  C   UNL     1       6.487  -2.408   8.749  1.00  0.00     0.037 A 
ATOM     27  C   UNL     1       5.608   4.038   9.326  1.00  0.00     0.049 A 
ATOM     28  C   UNL     1       6.758  -1.423   9.856  1.00  0.00     0.074 A 
ATOM     29  C   UNL     1       5.819   4.828  10.441  1.00  0.00     0.029 A 
ATOM     30  N   UNL     1       5.976   2.746   9.671  1.00  0.00    -0.354 N 
ATOM     31  N   UNL     1       6.522  -0.134   9.891  1.00  0.00    -0.248 NA
ATOM     32  C   UNL     1       7.368  -1.953  11.084  1.00  0.00     0.031 C 
ATOM     33  C   UNL     1       6.369   4.026  11.444  1.00  0.00     0.029 A 
ATOM     34  C   UNL     1       6.444   2.724  10.974  1.00  0.00     0.049 A 
ATOM     35  H   UNL     1       5.914   1.962   9.079  1.00  0.00     0.167 HD
ATOM     36  C   UNL     1       6.934   0.297  11.145  1.00  0.00     0.074 A 
ATOM     37  C   UNL     1       7.418  -0.872  11.850  1.00  0.00     0.031 C 
ATOM     38  C   UNL     1       6.917   1.550  11.663  1.00  0.00     0.037 A 
BRANCH  25  39
ATOM     39  C   UNL     1       4.785   5.878   7.812  1.00  0.00     0.064 A 
ATOM     40  C   UNL     1       3.462   6.330   7.688  1.00  0.00     0.173 A 
ATOM     41  C   UNL     1       5.810   6.835   7.786  1.00  0.00     0.173 A 
ATOM     42  F   UNL     1       2.446   5.454   7.693  1.00  0.00    -0.203 F 
ATOM     43  C   UNL     1       3.179   7.683   7.524  1.00  0.00     0.198 A 
ATOM     44  C   UNL     1       5.521   8.191   7.656  1.00  0.00     0.198 A 
ATOM     45  F   UNL     1       7.092   6.458   7.905  1.00  0.00    -0.203 F 
ATOM     46  F   UNL     1       1.911   8.086   7.365  1.00  0.00    -0.200 F 
ATOM     47  C   UNL     1       4.208   8.614   7.521  1.00  0.00     0.200 A 
ATOM     48  F   UNL     1       6.515   9.090   7.668  1.00  0.00    -0.200 F 
ATOM     49  F   UNL     1       3.932   9.918   7.383  1.00  0.00    -0.200 F 
ENDBRANCH  25  39
BRANCH  26  50
ATOM     50  C   UNL     1       6.771  -3.857   8.923  1.00  0.00     0.064 A 
ATOM     51  C   UNL     1       6.025  -4.634   9.819  1.00  0.00     0.173 A 
ATOM     52  C   UNL     1       7.771  -4.501   8.179  1.00  0.00     0.173 A 
ATOM     53  F   UNL     1       5.071  -4.061  10.569  1.00  0.00    -0.203 F 
ATOM     54  C   UNL     1       6.272  -5.997   9.971  1.00  0.00     0.198 A 
ATOM     55  C   UNL     1       7.997  -5.870   8.309  1.00  0.00     0.198 A 
ATOM     56  F   UNL     1       8.512  -3.804   7.305  1.00  0.00    -0.203 F 
ATOM     57  F   UNL     1       5.566  -6.709  10.859  1.00  0.00    -0.200 F 
ATOM     58  C   UNL     1       7.251  -6.616   9.208  1.00  0.00     0.200 A 
ATOM     59  F   UNL     1       8.933  -6.466   7.558  1.00  0.00    -0.200 F 
ATOM     60  F   UNL     1       7.477  -7.929   9.342  1.00  0.00    -0.200 F 
ENDBRANCH  26  50
BRANCH  38  61
ATOM     61  C   UNL     1       7.425   1.738  13.063  1.00  0.00     0.064 A 
ATOM     62  C   UNL     1       8.794   1.664  13.359  1.00  0.00     0.173 A 
ATOM     63  C   UNL     1       6.547   2.099  14.097  1.00  0.00     0.173 A 
ATOM     64  F   UNL     1       9.672   1.312  12.408  1.00  0.00    -0.203 F 
ATOM     65  C   UNL     1       9.264   1.938  14.640  1.00  0.00     0.198 A 
ATOM     66  C   UNL     1       7.024   2.403  15.369  1.00  0.00     0.198 A 
ATOM     67  F   UNL     1       5.229   2.194  13.863  1.00  0.00    -0.203 F 
ATOM     68  F   UNL     1      10.573   1.834  14.907  1.00  0.00    -0.200 F 
ATOM     69  C   UNL     1       8.381   2.320  15.640  1.00  0.00     0.200 A 
ATOM     70  F   UNL     1       6.172   2.792  16.327  1.00  0.00    -0.200 F 
ATOM     71  F   UNL     1       8.840   2.609  16.865  1.00  0.00    -0.200 F 
ENDBRANCH  38  61
ENDBRANCH  12  13
ENDBRANCH   5   7
ENDBRANCH   2   3
ENDBRANCH   1   2
BRANCH   1  72
ATOM     72  C   UNL     1       4.234  -1.400  -3.633  1.00  0.00     0.002 C 
BRANCH  72  73
ATOM     73  C   UNL     1       4.781  -0.171  -4.363  1.00  0.00     0.002 C 
BRANCH  73  74
ATOM     74  C   UNL     1       6.308  -0.035  -4.362  1.00  0.00     0.021 C 
BRANCH  74  75
ATOM     75  C   UNL     1       7.057  -1.252  -4.903  1.00  0.00     0.116 C 
BRANCH  75  76
ATOM     76  N   UNL     1       6.727  -1.500  -6.295  1.00  0.00    -0.352 N 
ATOM     77  C   UNL     1       7.550  -1.499  -7.388  1.00  0.00     0.253 C 
ATOM     78  H   UNL     1       5.780  -1.696  -6.477  1.00  0.00     0.163 HD
ATOM     79  O   UNL     1       7.077  -1.418  -8.517  1.00  0.00    -0.269 OA
BRANCH  77  80
ATOM     80  C   UNL     1       9.016  -1.562  -7.218  1.00  0.00     0.064 A 
ATOM     81  C   UNL     1       9.579  -2.537  -6.380  1.00  0.00     0.016 A 
ATOM     82  C   UNL     1       9.847  -0.686  -7.929  1.00  0.00     0.071 A 
ATOM     83  C   UNL     1      10.961  -2.598  -6.210  1.00  0.00     0.002 A 
ATOM     84  C   UNL     1      11.217  -0.758  -7.765  1.00  0.00     0.085 A 
ATOM     85  N   UNL     1       9.350   0.276  -8.798  1.00  0.00    -0.289 N 
ATOM     86  C   UNL     1      11.782  -1.706  -6.901  1.00  0.00     0.018 A 
ATOM     87  C   UNL     1      12.064   0.171  -8.525  1.00  0.00     0.349 A 
ATOM     88  C   UNL     1      10.131   1.167  -9.470  1.00  0.00     0.419 A 
ATOM     89  H   UNL     1       8.376   0.317  -8.936  1.00  0.00     0.173 HD
ATOM     90  O   UNL     1      13.284   0.096  -8.421  1.00  0.00    -0.246 OA
ATOM     91  O   UNL     1      11.477   1.099  -9.310  1.00  0.00    -0.372 OA
ATOM     92  O   UNL     1       9.618   2.014 -10.197  1.00  0.00    -0.224 OA
ENDBRANCH  77  80
ENDBRANCH  75  76
ENDBRANCH  74  75
ENDBRANCH  73  74
ENDBRANCH  72  73
ENDBRANCH   1  72
TORSDOF 13
