REMARK SMILES CCCc1cc(OCC(=O)NCCCCCCNC(=O)c2ccc(-c3c4nc(c(-c5c(F)c(F)c(F)c(F)c5F)c5ccc([nH]5)c(-c5c(F)c(F)c(F)c(F)c5F)c5nc(c(-c6c(F)c(F)c(F)c(F)c6F)c6ccc3[nH]6)C=C5)C=C4)cc2)nc(Nc2ccc(C#N)cc2)n1
REMARK SMILES IDX 13 1 12 2 11 3 9 4 10 5 8 7 7 8 6 9 4 10 5 11 95 12 85 13
REMARK SMILES IDX 84 14 3 15 2 16 1 17 86 18 87 20 88 21 94 22 89 23 93 24
REMARK SMILES IDX 90 25 91 26 92 27 14 28 15 29 16 30 17 31 18 32 19 33 20 35
REMARK SMILES IDX 21 36 22 37 83 38 23 39 82 40 24 41 25 42 26 43 76 44 27 45
REMARK SMILES IDX 81 46 75 47 77 48 28 49 80 50 74 51 73 52 29 54 61 55 41 56
REMARK SMILES IDX 60 57 42 58 45 59 59 60 78 61 43 62 44 63 58 65 79 66 46 67
REMARK SMILES IDX 30 68 31 69 39 70 32 71 33 72 37 73 40 74 34 75 35 76 38 77
REMARK SMILES IDX 36 78 62 79 63 80 71 81 64 82 65 83 69 84 72 85 66 86 67 87
REMARK SMILES IDX 70 88 68 89 47 90 48 91 56 92 49 93 50 94 54 95 57 96 51 97
REMARK SMILES IDX 52 98 55 99 53 100
REMARK H PARENT 11 6 86 19 18 34 77 53 45 64
REMARK Flexibility Score: inf
ROOT
ATOM      1  C   UNL     1       3.530  -0.787  -5.745  1.00  0.00     0.021 C 
ENDROOT
BRANCH   1   2
ATOM      2  C   UNL     1       3.180  -2.129  -5.105  1.00  0.00     0.116 C 
BRANCH   2   3
ATOM      3  N   UNL     1       3.344  -2.103  -3.668  1.00  0.00    -0.353 N 
ATOM      4  C   UNL     1       2.370  -2.153  -2.718  1.00  0.00     0.258 C 
ATOM      5  O   UNL     1       2.695  -2.173  -1.530  1.00  0.00    -0.271 OA
ATOM      6  H   UNL     1       4.270  -2.041  -3.338  1.00  0.00     0.163 HD
BRANCH   4   7
ATOM      7  C   UNL     1       0.896  -2.170  -3.149  1.00  0.00     0.331 C 
BRANCH   7   8
ATOM      8  O   UNL     1       0.496  -1.193  -4.102  1.00  0.00    -0.467 OA
BRANCH   8   9
ATOM      9  C   UNL     1       0.398   0.103  -3.674  1.00  0.00     0.218 A 
ATOM     10  C   UNL     1       0.650   1.860  -2.148  1.00  0.00     0.050 A 
ATOM     11  C   UNL     1       0.904   0.557  -2.484  1.00  0.00     0.092 A 
ATOM     12  N   UNL     1       0.051   2.692  -3.013  1.00  0.00    -0.218 NA
ATOM     13  C   UNL     1      -0.349   2.198  -4.199  1.00  0.00     0.230 A 
ATOM     14  N   UNL     1      -0.231   0.909  -4.544  1.00  0.00    -0.177 NA
BRANCH  10  15
ATOM     15  C   UNL     1       1.060   2.399  -0.801  1.00  0.00     0.056 C 
BRANCH  15  16
ATOM     16  C   UNL     1       0.417   1.704   0.413  1.00  0.00     0.003 C 
ATOM     17  C   UNL     1       0.873   0.270   0.672  1.00  0.00     0.004 C 
ENDBRANCH  15  16
ENDBRANCH  10  15
BRANCH  13  18
ATOM     18  N   UNL     1      -0.963   3.045  -5.119  1.00  0.00    -0.324 N 
ATOM     19  H   UNL     1      -1.423   2.600  -5.868  1.00  0.00     0.170 HD
BRANCH  18  20
ATOM     20  C   UNL     1      -1.012   4.441  -5.120  1.00  0.00     0.041 A 
ATOM     21  C   UNL     1      -2.215   5.097  -5.402  1.00  0.00     0.027 A 
ATOM     22  C   UNL     1       0.092   5.213  -4.733  1.00  0.00     0.027 A 
ATOM     23  C   UNL     1      -2.319   6.487  -5.271  1.00  0.00     0.021 A 
ATOM     24  C   UNL     1       0.003   6.603  -4.624  1.00  0.00     0.021 A 
ATOM     25  C   UNL     1      -1.211   7.242  -4.876  1.00  0.00     0.052 A 
BRANCH  25  26
ATOM     26  C   UNL     1      -1.323   8.662  -4.705  1.00  0.00     0.099 C 
ATOM     27  N   UNL     1      -1.410   9.808  -4.559  1.00  0.00    -0.192 NA
ENDBRANCH  25  26
ENDBRANCH  18  20
ENDBRANCH  13  18
ENDBRANCH   8   9
ENDBRANCH   7   8
ENDBRANCH   4   7
ENDBRANCH   2   3
ENDBRANCH   1   2
BRANCH   1  28
ATOM     28  C   UNL     1       4.995  -0.369  -5.565  1.00  0.00     0.002 C 
BRANCH  28  29
ATOM     29  C   UNL     1       6.024  -1.421  -5.991  1.00  0.00     0.002 C 
BRANCH  29  30
ATOM     30  C   UNL     1       5.853  -1.942  -7.418  1.00  0.00     0.021 C 
BRANCH  30  31
ATOM     31  C   UNL     1       5.940  -0.863  -8.488  1.00  0.00     0.116 C 
BRANCH  31  32
ATOM     32  N   UNL     1       7.266  -0.266  -8.551  1.00  0.00    -0.352 N 
ATOM     33  C   UNL     1       8.124  -0.185  -9.620  1.00  0.00     0.251 C 
ATOM     34  H   UNL     1       7.592   0.134  -7.713  1.00  0.00     0.163 HD
ATOM     35  O   UNL     1       9.290   0.158  -9.463  1.00  0.00    -0.269 OA
BRANCH  33  36
ATOM     36  C   UNL     1       7.630  -0.543 -10.965  1.00  0.00     0.039 A 
ATOM     37  C   UNL     1       8.395  -1.392 -11.768  1.00  0.00     0.014 A 
ATOM     38  C   UNL     1       6.395  -0.067 -11.412  1.00  0.00     0.014 A 
ATOM     39  C   UNL     1       7.884  -1.823 -12.994  1.00  0.00     0.010 A 
ATOM     40  C   UNL     1       5.852  -0.567 -12.589  1.00  0.00     0.010 A 
ATOM     41  C   UNL     1       6.590  -1.449 -13.393  1.00  0.00    -0.014 A 
BRANCH  41  42
ATOM     42  C   UNL     1       5.982  -1.962 -14.647  1.00  0.00     0.031 A 
ATOM     43  C   UNL     1       5.590  -1.003 -15.735  1.00  0.00     0.074 A 
ATOM     44  C   UNL     1       5.710  -3.275 -14.772  1.00  0.00     0.049 A 
ATOM     45  N   UNL     1       4.939  -1.232 -16.847  1.00  0.00    -0.248 NA
ATOM     46  C   UNL     1       5.952   0.409 -15.531  1.00  0.00     0.031 C 
ATOM     47  C   UNL     1       6.014  -4.302 -13.774  1.00  0.00     0.029 A 
ATOM     48  N   UNL     1       5.095  -3.970 -15.785  1.00  0.00    -0.354 N 
ATOM     49  C   UNL     1       4.806   0.004 -17.466  1.00  0.00     0.074 A 
ATOM     50  C   UNL     1       5.386   0.988 -16.579  1.00  0.00     0.031 C 
ATOM     51  C   UNL     1       5.601  -5.495 -14.230  1.00  0.00     0.029 A 
ATOM     52  C   UNL     1       4.952  -5.312 -15.525  1.00  0.00     0.049 A 
ATOM     53  H   UNL     1       4.787  -3.547 -16.619  1.00  0.00     0.167 HD
ATOM     54  C   UNL     1       4.268   0.288 -18.676  1.00  0.00     0.037 A 
ATOM     55  C   UNL     1       4.344  -6.280 -16.237  1.00  0.00     0.037 A 
ATOM     56  C   UNL     1       3.697  -0.697 -19.556  1.00  0.00     0.049 A 
ATOM     57  C   UNL     1       3.704  -5.929 -17.556  1.00  0.00     0.074 A 
ATOM     58  C   UNL     1       3.165  -0.517 -20.820  1.00  0.00     0.029 A 
ATOM     59  N   UNL     1       3.573  -2.047 -19.258  1.00  0.00    -0.354 N 
ATOM     60  N   UNL     1       3.636  -4.767 -18.160  1.00  0.00    -0.248 NA
ATOM     61  C   UNL     1       3.059  -7.024 -18.294  1.00  0.00     0.031 C 
ATOM     62  C   UNL     1       2.652  -1.742 -21.256  1.00  0.00     0.029 A 
ATOM     63  C   UNL     1       2.940  -2.704 -20.301  1.00  0.00     0.049 A 
ATOM     64  H   UNL     1       3.887  -2.474 -18.428  1.00  0.00     0.167 HD
ATOM     65  C   UNL     1       2.978  -4.998 -19.361  1.00  0.00     0.074 A 
ATOM     66  C   UNL     1       2.675  -6.412 -19.405  1.00  0.00     0.031 C 
ATOM     67  C   UNL     1       2.658  -4.117 -20.340  1.00  0.00     0.037 A 
BRANCH  54  68
ATOM     68  C   UNL     1       4.258   1.726 -19.114  1.00  0.00     0.064 A 
ATOM     69  C   UNL     1       5.444   2.418 -19.408  1.00  0.00     0.173 A 
ATOM     70  C   UNL     1       3.044   2.411 -19.279  1.00  0.00     0.173 A 
ATOM     71  F   UNL     1       6.633   1.815 -19.260  1.00  0.00    -0.203 F 
ATOM     72  C   UNL     1       5.416   3.750 -19.813  1.00  0.00     0.198 A 
ATOM     73  C   UNL     1       3.018   3.730 -19.723  1.00  0.00     0.198 A 
ATOM     74  F   UNL     1       1.880   1.797 -19.021  1.00  0.00    -0.203 F 
ATOM     75  F   UNL     1       6.564   4.406 -20.029  1.00  0.00    -0.200 F 
ATOM     76  C   UNL     1       4.204   4.402 -19.979  1.00  0.00     0.200 A 
ATOM     77  F   UNL     1       1.845   4.351 -19.902  1.00  0.00    -0.200 F 
ATOM     78  F   UNL     1       4.178   5.680 -20.380  1.00  0.00    -0.200 F 
ENDBRANCH  54  68
BRANCH  55  79
ATOM     79  C   UNL     1       4.304  -7.675 -15.720  1.00  0.00     0.064 A 
ATOM     80  C   UNL     1       4.982  -8.711 -16.379  1.00  0.00     0.173 A 
ATOM     81  C   UNL     1       3.575  -8.006 -14.567  1.00  0.00     0.173 A 
ATOM     82  F   UNL     1       5.677  -8.451 -17.495  1.00  0.00    -0.203 F 
ATOM     83  C   UNL     1       4.907 -10.026 -15.924  1.00  0.00     0.198 A 
ATOM     84  C   UNL     1       3.532  -9.315 -14.092  1.00  0.00     0.198 A 
ATOM     85  F   UNL     1       2.913  -7.054 -13.893  1.00  0.00    -0.203 F 
ATOM     86  F   UNL     1       5.514 -11.004 -16.608  1.00  0.00    -0.200 F 
ATOM     87  C   UNL     1       4.187 -10.326 -14.777  1.00  0.00     0.200 A 
ATOM     88  F   UNL     1       2.851  -9.596 -12.972  1.00  0.00    -0.200 F 
ATOM     89  F   UNL     1       4.117 -11.590 -14.338  1.00  0.00    -0.200 F 
ENDBRANCH  55  79
BRANCH  67  90
ATOM     90  C   UNL     1       1.992  -4.655 -21.576  1.00  0.00     0.064 A 
ATOM     91  C   UNL     1       0.672  -5.127 -21.565  1.00  0.00     0.173 A 
ATOM     92  C   UNL     1       2.670  -4.633 -22.806  1.00  0.00     0.173 A 
ATOM     93  F   UNL     1      -0.017  -5.183 -20.415  1.00  0.00    -0.203 F 
ATOM     94  C   UNL     1       0.062  -5.575 -22.734  1.00  0.00     0.198 A 
ATOM     95  C   UNL     1       2.045  -5.046 -23.979  1.00  0.00     0.198 A 
ATOM     96  F   UNL     1       3.933  -4.185 -22.875  1.00  0.00    -0.203 F 
ATOM     97  F   UNL     1      -1.185  -6.065 -22.692  1.00  0.00    -0.200 F 
ATOM     98  C   UNL     1       0.744  -5.523 -23.941  1.00  0.00     0.200 A 
ATOM     99  F   UNL     1       2.699  -4.974 -25.146  1.00  0.00    -0.200 F 
ATOM    100  F   UNL     1       0.148  -5.936 -25.068  1.00  0.00    -0.200 F 
ENDBRANCH  67  90
ENDBRANCH  41  42
ENDBRANCH  33  36
ENDBRANCH  31  32
ENDBRANCH  30  31
ENDBRANCH  29  30
ENDBRANCH  28  29
ENDBRANCH   1  28
TORSDOF 20
