REMARK SMILES O=C(NCCCCCCNC(=O)[C@@H]1[C@@H](C(=O)NCc2ccccc2OCc2ccccc2)[C@@H]2C=C[C@H]1C2)c1ccc(-c2c3nc(c(-c4c(F)c(F)c(F)c(F)c4F)c4ccc([nH]4)c(-c4c(F)c(F)c(F)c(F)c4F)c4nc(c(-c5c(F)c(F)c(F)c(F)c5F)c5ccc2[nH]5)C=C4)C=C3)cc1
REMARK SMILES IDX 8 1 7 2 6 3 5 4 4 5 3 6 1 7 2 8 38 10 39 11 100 12 40 13
REMARK SMILES IDX 99 14 41 15 42 16 43 17 93 18 44 19 98 20 92 21 94 22 45 23
REMARK SMILES IDX 97 24 91 25 90 26 46 28 78 29 58 30 77 31 59 32 62 33 76 34
REMARK SMILES IDX 95 35 60 36 61 37 75 39 96 40 63 41 47 42 48 43 56 44 49 45
REMARK SMILES IDX 50 46 54 47 57 48 51 49 52 50 55 51 53 52 79 53 80 54 88 55
REMARK SMILES IDX 81 56 82 57 86 58 89 59 83 60 84 61 87 62 85 63 64 64 65 65
REMARK SMILES IDX 73 66 66 67 67 68 71 69 74 70 68 71 69 72 72 73 70 74 9 75
REMARK SMILES IDX 10 76 11 77 12 79 13 80 14 81 36 82 33 83 35 84 37 85 34 86
REMARK SMILES IDX 15 87 16 88 17 89 18 91 19 92 20 93 24 94 21 95 23 96 22 97
REMARK SMILES IDX 25 98 26 99 27 100 28 101 32 102 29 103 31 104 30 105
REMARK H PARENT 3 9 94 27 62 38 10 78 17 90
REMARK Flexibility Score: inf
ROOT
ATOM      1  C   UNL     1       6.190   2.464   3.522  1.00  0.00     0.021 C 
ENDROOT
BRANCH   1   2
ATOM      2  C   UNL     1       4.669   2.283   3.564  1.00  0.00     0.002 C 
BRANCH   2   3
ATOM      3  C   UNL     1       3.943   2.866   2.350  1.00  0.00     0.002 C 
BRANCH   3   4
ATOM      4  C   UNL     1       4.470   2.356   1.008  1.00  0.00     0.021 C 
BRANCH   4   5
ATOM      5  C   UNL     1       4.388   0.843   0.872  1.00  0.00     0.116 C 
BRANCH   5   6
ATOM      6  N   UNL     1       3.002   0.399   0.875  1.00  0.00    -0.352 N 
ATOM      7  O   UNL     1       1.077  -0.234  -0.132  1.00  0.00    -0.269 OA
ATOM      8  C   UNL     1       2.307  -0.190  -0.145  1.00  0.00     0.251 C 
ATOM      9  H   UNL     1       2.504   0.540   1.712  1.00  0.00     0.163 HD
BRANCH   8  10
ATOM     10  C   UNL     1       3.061  -0.789  -1.259  1.00  0.00     0.039 A 
ATOM     11  C   UNL     1       4.176  -1.587  -0.982  1.00  0.00     0.014 A 
ATOM     12  C   UNL     1       2.644  -0.575  -2.573  1.00  0.00     0.014 A 
ATOM     13  C   UNL     1       4.931  -2.101  -2.025  1.00  0.00     0.010 A 
ATOM     14  C   UNL     1       3.351  -1.168  -3.618  1.00  0.00     0.010 A 
ATOM     15  C   UNL     1       4.495  -1.938  -3.348  1.00  0.00    -0.014 A 
BRANCH  15  16
ATOM     16  C   UNL     1       5.159  -2.711  -4.421  1.00  0.00     0.031 A 
ATOM     17  C   UNL     1       5.902  -2.030  -5.527  1.00  0.00     0.074 A 
ATOM     18  C   UNL     1       5.050  -4.054  -4.382  1.00  0.00     0.049 A 
ATOM     19  N   UNL     1       6.483  -2.561  -6.572  1.00  0.00    -0.248 NA
ATOM     20  C   UNL     1       6.001  -0.563  -5.464  1.00  0.00     0.031 C 
ATOM     21  C   UNL     1       4.332  -4.809  -3.350  1.00  0.00     0.029 A 
ATOM     22  N   UNL     1       5.530  -5.022  -5.224  1.00  0.00    -0.354 N 
ATOM     23  C   UNL     1       6.995  -1.498  -7.303  1.00  0.00     0.074 A 
ATOM     24  C   UNL     1       6.649  -0.287  -6.589  1.00  0.00     0.031 C 
ATOM     25  C   UNL     1       4.434  -6.119  -3.608  1.00  0.00     0.029 A 
ATOM     26  C   UNL     1       5.154  -6.293  -4.862  1.00  0.00     0.049 A 
ATOM     27  H   UNL     1       6.089  -4.827  -6.011  1.00  0.00     0.167 HD
ATOM     28  C   UNL     1       7.688  -1.545  -8.465  1.00  0.00     0.037 A 
ATOM     29  C   UNL     1       5.328  -7.466  -5.496  1.00  0.00     0.037 A 
ATOM     30  C   UNL     1       8.038  -2.765  -9.147  1.00  0.00     0.049 A 
ATOM     31  C   UNL     1       6.064  -7.473  -6.804  1.00  0.00     0.074 A 
ATOM     32  C   UNL     1       8.808  -2.924 -10.285  1.00  0.00     0.029 A 
ATOM     33  N   UNL     1       7.625  -4.034  -8.763  1.00  0.00    -0.354 N 
ATOM     34  N   UNL     1       6.612  -6.471  -7.448  1.00  0.00    -0.248 NA
ATOM     35  C   UNL     1       6.201  -8.769  -7.480  1.00  0.00     0.031 C 
ATOM     36  C   UNL     1       8.802  -4.278 -10.631  1.00  0.00     0.029 A 
ATOM     37  C   UNL     1       8.082  -4.974  -9.674  1.00  0.00     0.049 A 
ATOM     38  H   UNL     1       7.088  -4.236  -7.963  1.00  0.00     0.167 HD
ATOM     39  C   UNL     1       7.167  -7.014  -8.595  1.00  0.00     0.074 A 
ATOM     40  C   UNL     1       6.917  -8.440  -8.546  1.00  0.00     0.031 C 
ATOM     41  C   UNL     1       7.819  -6.388  -9.605  1.00  0.00     0.037 A 
BRANCH  28  42
ATOM     42  C   UNL     1       8.098  -0.250  -9.103  1.00  0.00     0.064 A 
ATOM     43  C   UNL     1       9.121   0.548  -8.574  1.00  0.00     0.173 A 
ATOM     44  C   UNL     1       7.518   0.147 -10.319  1.00  0.00     0.173 A 
ATOM     45  F   UNL     1       9.704   0.218  -7.412  1.00  0.00    -0.203 F 
ATOM     46  C   UNL     1       9.544   1.700  -9.234  1.00  0.00     0.198 A 
ATOM     47  C   UNL     1       7.961   1.284 -10.989  1.00  0.00     0.198 A 
ATOM     48  F   UNL     1       6.539  -0.585 -10.872  1.00  0.00    -0.203 F 
ATOM     49  F   UNL     1      10.508   2.462  -8.698  1.00  0.00    -0.200 F 
ATOM     50  C   UNL     1       8.972   2.060 -10.446  1.00  0.00     0.200 A 
ATOM     51  F   UNL     1       7.418   1.620 -12.167  1.00  0.00    -0.200 F 
ATOM     52  F   UNL     1       9.396   3.157 -11.090  1.00  0.00    -0.200 F 
ENDBRANCH  28  42
BRANCH  29  53
ATOM     53  C   UNL     1       4.749  -8.712  -4.928  1.00  0.00     0.064 A 
ATOM     54  C   UNL     1       5.569  -9.757  -4.486  1.00  0.00     0.173 A 
ATOM     55  C   UNL     1       3.359  -8.888  -4.831  1.00  0.00     0.173 A 
ATOM     56  F   UNL     1       6.903  -9.645  -4.573  1.00  0.00    -0.203 F 
ATOM     57  C   UNL     1       5.023 -10.942  -3.998  1.00  0.00     0.198 A 
ATOM     58  C   UNL     1       2.815 -10.057  -4.306  1.00  0.00     0.198 A 
ATOM     59  F   UNL     1       2.528  -7.915  -5.232  1.00  0.00    -0.203 F 
ATOM     60  F   UNL     1       5.830 -11.950  -3.638  1.00  0.00    -0.200 F 
ATOM     61  C   UNL     1       3.647 -11.089  -3.903  1.00  0.00     0.200 A 
ATOM     62  F   UNL     1       1.486 -10.185  -4.198  1.00  0.00    -0.200 F 
ATOM     63  F   UNL     1       3.123 -12.229  -3.433  1.00  0.00    -0.200 F 
ENDBRANCH  29  53
BRANCH  41  64
ATOM     64  C   UNL     1       8.317  -7.245 -10.731  1.00  0.00     0.064 A 
ATOM     65  C   UNL     1       7.435  -7.821 -11.658  1.00  0.00     0.173 A 
ATOM     66  C   UNL     1       9.692  -7.454 -10.912  1.00  0.00     0.173 A 
ATOM     67  F   UNL     1       6.110  -7.668 -11.514  1.00  0.00    -0.203 F 
ATOM     68  C   UNL     1       7.913  -8.588 -12.716  1.00  0.00     0.198 A 
ATOM     69  C   UNL     1      10.167  -8.193 -11.991  1.00  0.00     0.198 A 
ATOM     70  F   UNL     1      10.576  -6.922 -10.055  1.00  0.00    -0.203 F 
ATOM     71  F   UNL     1       7.051  -9.166 -13.564  1.00  0.00    -0.200 F 
ATOM     72  C   UNL     1       9.278  -8.764 -12.888  1.00  0.00     0.200 A 
ATOM     73  F   UNL     1      11.487  -8.350 -12.164  1.00  0.00    -0.200 F 
ATOM     74  F   UNL     1       9.736  -9.491 -13.916  1.00  0.00    -0.200 F 
ENDBRANCH  41  64
ENDBRANCH  15  16
ENDBRANCH   8  10
ENDBRANCH   5   6
ENDBRANCH   4   5
ENDBRANCH   3   4
ENDBRANCH   2   3
ENDBRANCH   1   2
BRANCH   1  75
ATOM     75  C   UNL     1       6.609   3.936   3.565  1.00  0.00     0.116 C 
BRANCH  75  76
ATOM     76  N   UNL     1       6.436   4.443   4.906  1.00  0.00    -0.356 N 
ATOM     77  C   UNL     1       7.187   4.242   6.018  1.00  0.00     0.224 C 
ATOM     78  H   UNL     1       5.652   5.024   5.034  1.00  0.00     0.163 HD
ATOM     79  O   UNL     1       6.631   4.471   7.098  1.00  0.00    -0.275 OA
BRANCH  77  80
ATOM     80  C   UNL     1       8.689   3.975   5.975  1.00  0.00     0.098 C 
ATOM     81  C   UNL     1       9.382   3.157   4.860  1.00  0.00     0.098 C 
ATOM     82  C   UNL     1       9.130   3.185   7.249  1.00  0.00     0.025 C 
ATOM     83  C   UNL     1      10.156   2.052   5.621  1.00  0.00     0.025 C 
ATOM     84  C   UNL     1       8.499   1.808   7.199  1.00  0.00    -0.027 C 
ATOM     85  C   UNL     1      10.559   2.751   6.911  1.00  0.00     0.017 C 
ATOM     86  C   UNL     1       9.113   1.125   6.218  1.00  0.00    -0.027 C 
BRANCH  81  87
ATOM     87  C   UNL     1      10.242   3.906   3.847  1.00  0.00     0.224 C 
ATOM     88  O   UNL     1      10.251   3.492   2.678  1.00  0.00    -0.275 OA
ATOM     89  N   UNL     1      11.032   4.971   4.095  1.00  0.00    -0.352 N 
ATOM     90  H   UNL     1      11.527   5.259   3.295  1.00  0.00     0.163 HD
BRANCH  89  91
ATOM     91  C   UNL     1      11.333   5.797   5.253  1.00  0.00     0.155 C 
BRANCH  91  92
ATOM     92  C   UNL     1      12.809   5.899   5.533  1.00  0.00     0.013 A 
ATOM     93  C   UNL     1      13.516   4.683   5.689  1.00  0.00     0.009 A 
ATOM     94  C   UNL     1      13.493   7.092   5.791  1.00  0.00     0.124 A 
ATOM     95  C   UNL     1      14.809   4.641   6.204  1.00  0.00     0.001 A 
ATOM     96  C   UNL     1      14.774   7.032   6.368  1.00  0.00     0.047 A 
ATOM     97  C   UNL     1      15.425   5.821   6.585  1.00  0.00     0.004 A 
BRANCH  94  98
ATOM     98  O   UNL     1      13.126   8.376   5.544  1.00  0.00    -0.489 OA
BRANCH  98  99
ATOM     99  C   UNL     1      12.245   8.804   4.505  1.00  0.00     0.265 C 
BRANCH  99 100
ATOM    100  C   UNL     1      12.284   8.251   3.087  1.00  0.00    -0.011 A 
ATOM    101  C   UNL     1      13.122   7.224   2.640  1.00  0.00     0.007 A 
ATOM    102  C   UNL     1      11.359   8.786   2.170  1.00  0.00     0.007 A 
ATOM    103  C   UNL     1      12.943   6.650   1.377  1.00  0.00     0.000 A 
ATOM    104  C   UNL     1      11.215   8.250   0.889  1.00  0.00     0.000 A 
ATOM    105  C   UNL     1      11.982   7.155   0.506  1.00  0.00     0.000 A 
ENDBRANCH  99 100
ENDBRANCH  98  99
ENDBRANCH  94  98
ENDBRANCH  91  92
ENDBRANCH  89  91
ENDBRANCH  81  87
ENDBRANCH  77  80
ENDBRANCH  75  76
ENDBRANCH   1  75
TORSDOF 19
