REMARK SMILES O=C(C[C@H]1C[C@H]2CC[C@@H](C1)[N@H+]2[C@@H]1CCCSC1)NCCCCCCNC(=O)c1ccc(-c2c3nc(c(-c4c(F)c(F)c(F)c(F)c4F)c4ccc([nH]4)c(-c4c(F)c(F)c(F)c(F)c4F)c4nc(c(-c5c(F)c(F)c(F)c(F)c5F)c5ccc2[nH]5)C=C4)C=C3)cc1
REMARK SMILES IDX 21 1 20 2 19 3 18 4 1 5 2 6 3 8 4 9 5 10 10 11 6 12 9 13
REMARK SMILES IDX 7 14 11 15 8 16 12 18 13 19 17 20 14 21 16 22 15 23 22 24
REMARK SMILES IDX 23 25 24 26 25 27 26 28 27 30 28 31 29 32 90 33 30 34 89 35
REMARK SMILES IDX 31 36 32 37 33 38 83 39 34 40 88 41 82 42 84 43 35 44 87 45
REMARK SMILES IDX 81 46 80 47 36 49 68 50 48 51 67 52 49 53 52 54 66 55 85 56
REMARK SMILES IDX 50 57 51 58 65 60 86 61 53 62 37 63 38 64 46 65 39 66 40 67
REMARK SMILES IDX 44 68 47 69 41 70 42 71 45 72 43 73 69 74 70 75 78 76 71 77
REMARK SMILES IDX 72 78 76 79 79 80 73 81 74 82 77 83 75 84 54 85 55 86 63 87
REMARK SMILES IDX 56 88 57 89 61 90 64 91 58 92 59 93 62 94 60 95
REMARK H PARENT 18 7 11 17 25 29 84 48 52 59
REMARK Flexibility Score: inf
ROOT
ATOM      1  C   UNL     1       3.554   3.380  -1.987  1.00  0.00     0.002 C 
ENDROOT
BRANCH   1   2
ATOM      2  C   UNL     1       2.023   3.394  -1.821  1.00  0.00     0.021 C 
BRANCH   2   3
ATOM      3  C   UNL     1       1.342   2.020  -1.823  1.00  0.00     0.116 C 
BRANCH   3   4
ATOM      4  N   UNL     1       1.846   1.221  -0.732  1.00  0.00    -0.356 N 
ATOM      5  O   UNL     1       0.279  -0.458  -0.671  1.00  0.00    -0.275 OA
ATOM      6  C   UNL     1       1.330   0.032  -0.283  1.00  0.00     0.220 C 
ATOM      7  H   UNL     1       2.641   1.564  -0.263  1.00  0.00     0.163 HD
BRANCH   6   8
ATOM      8  C   UNL     1       2.235  -0.619   0.758  1.00  0.00     0.104 C 
BRANCH   8   9
ATOM      9  C   UNL     1       3.416  -1.443   0.186  1.00  0.00     0.010 C 
ATOM     10  C   UNL     1       4.185  -0.822  -1.004  1.00  0.00     0.069 C 
ATOM     11  C   UNL     1       4.369  -1.897   1.329  1.00  0.00     0.069 C 
ATOM     12  C   UNL     1       5.493  -0.112  -0.638  1.00  0.00     0.185 C 
ATOM     13  C   UNL     1       5.748  -1.198   1.388  1.00  0.00     0.185 C 
ATOM     14  C   UNL     1       5.340   0.978   0.432  1.00  0.00     0.071 C 
ATOM     15  N   UNL     1       6.373  -1.009   0.089  1.00  0.00    -0.327 N 
ATOM     16  C   UNL     1       5.598   0.277   1.766  1.00  0.00     0.071 C 
ATOM     17  H   UNL     1       7.297  -0.607   0.243  1.00  0.00     0.348 HD
BRANCH  15  18
ATOM     18  C   UNL     1       7.093  -2.065  -0.615  1.00  0.00     0.194 C 
ATOM     19  C   UNL     1       6.390  -3.430  -0.703  1.00  0.00     0.067 C 
ATOM     20  C   UNL     1       8.484  -2.191   0.051  1.00  0.00     0.134 C 
ATOM     21  C   UNL     1       7.190  -4.463  -1.494  1.00  0.00     0.017 C 
ATOM     22  S   UNL     1       9.601  -3.373  -0.770  1.00  0.00    -0.156 SA
ATOM     23  C   UNL     1       8.500  -4.811  -0.806  1.00  0.00     0.070 C 
ENDBRANCH  15  18
ENDBRANCH   8   9
ENDBRANCH   6   8
ENDBRANCH   3   4
ENDBRANCH   2   3
ENDBRANCH   1   2
BRANCH   1  24
ATOM     24  C   UNL     1       4.087   2.836  -3.313  1.00  0.00     0.002 C 
BRANCH  24  25
ATOM     25  C   UNL     1       3.622   3.604  -4.546  1.00  0.00     0.021 C 
BRANCH  25  26
ATOM     26  C   UNL     1       3.871   5.107  -4.498  1.00  0.00     0.116 C 
BRANCH  26  27
ATOM     27  N   UNL     1       5.284   5.461  -4.506  1.00  0.00    -0.352 N 
ATOM     28  C   UNL     1       5.915   6.429  -5.253  1.00  0.00     0.251 C 
ATOM     29  H   UNL     1       5.860   4.942  -3.900  1.00  0.00     0.163 HD
ATOM     30  O   UNL     1       7.136   6.544  -5.236  1.00  0.00    -0.269 OA
BRANCH  28  31
ATOM     31  C   UNL     1       5.101   7.304  -6.123  1.00  0.00     0.039 A 
ATOM     32  C   UNL     1       5.435   7.414  -7.474  1.00  0.00     0.014 A 
ATOM     33  C   UNL     1       3.965   7.943  -5.618  1.00  0.00     0.014 A 
ATOM     34  C   UNL     1       4.573   8.087  -8.342  1.00  0.00     0.010 A 
ATOM     35  C   UNL     1       3.070   8.545  -6.497  1.00  0.00     0.010 A 
ATOM     36  C   UNL     1       3.358   8.610  -7.869  1.00  0.00    -0.014 A 
BRANCH  36  37
ATOM     37  C   UNL     1       2.355   9.192  -8.797  1.00  0.00     0.031 A 
ATOM     38  C   UNL     1       1.960  10.635  -8.677  1.00  0.00     0.074 A 
ATOM     39  C   UNL     1       1.733   8.395  -9.688  1.00  0.00     0.049 A 
ATOM     40  N   UNL     1       1.041  11.300  -9.332  1.00  0.00    -0.248 NA
ATOM     41  C   UNL     1       2.671  11.430  -7.665  1.00  0.00     0.031 C 
ATOM     42  C   UNL     1       1.982   6.963  -9.858  1.00  0.00     0.029 A 
ATOM     43  N   UNL     1       0.747   8.671 -10.603  1.00  0.00    -0.354 N 
ATOM     44  C   UNL     1       1.059  12.584  -8.806  1.00  0.00     0.074 A 
ATOM     45  C   UNL     1       2.035  12.589  -7.737  1.00  0.00     0.031 C 
ATOM     46  C   UNL     1       1.180   6.488 -10.824  1.00  0.00     0.029 A 
ATOM     47  C   UNL     1       0.332   7.571 -11.313  1.00  0.00     0.049 A 
ATOM     48  H   UNL     1       0.373   9.572 -10.736  1.00  0.00     0.167 HD
ATOM     49  C   UNL     1       0.345  13.667  -9.196  1.00  0.00     0.037 A 
ATOM     50  C   UNL     1      -0.634   7.444 -12.243  1.00  0.00     0.037 A 
ATOM     51  C   UNL     1      -0.617  13.660 -10.266  1.00  0.00     0.049 A 
ATOM     52  C   UNL     1      -1.423   8.657 -12.653  1.00  0.00     0.074 A 
ATOM     53  C   UNL     1      -1.345  14.718 -10.781  1.00  0.00     0.029 A 
ATOM     54  N   UNL     1      -0.995  12.531 -10.981  1.00  0.00    -0.354 N 
ATOM     55  N   UNL     1      -1.341   9.886 -12.206  1.00  0.00    -0.248 NA
ATOM     56  C   UNL     1      -2.436   8.467 -13.701  1.00  0.00     0.031 C 
ATOM     57  C   UNL     1      -2.201  14.221 -11.770  1.00  0.00     0.029 A 
ATOM     58  C   UNL     1      -1.968  12.863 -11.911  1.00  0.00     0.049 A 
ATOM     59  H   UNL     1      -0.626  11.628 -10.847  1.00  0.00     0.167 HD
ATOM     60  C   UNL     1      -2.276  10.619 -12.925  1.00  0.00     0.074 A 
ATOM     61  C   UNL     1      -2.900   9.699 -13.854  1.00  0.00     0.031 C 
ATOM     62  C   UNL     1      -2.588  11.934 -12.823  1.00  0.00     0.037 A 
BRANCH  49  63
ATOM     63  C   UNL     1       0.584  14.952  -8.454  1.00  0.00     0.064 A 
ATOM     64  C   UNL     1       1.801  15.644  -8.555  1.00  0.00     0.173 A 
ATOM     65  C   UNL     1      -0.418  15.504  -7.642  1.00  0.00     0.173 A 
ATOM     66  F   UNL     1       2.797  15.155  -9.309  1.00  0.00    -0.203 F 
ATOM     67  C   UNL     1       2.021  16.818  -7.838  1.00  0.00     0.198 A 
ATOM     68  C   UNL     1      -0.207  16.696  -6.954  1.00  0.00     0.198 A 
ATOM     69  F   UNL     1      -1.603  14.888  -7.515  1.00  0.00    -0.203 F 
ATOM     70  F   UNL     1       3.213  17.426  -7.901  1.00  0.00    -0.200 F 
ATOM     71  C   UNL     1       1.015  17.345  -7.043  1.00  0.00     0.200 A 
ATOM     72  F   UNL     1      -1.184  17.212  -6.196  1.00  0.00    -0.200 F 
ATOM     73  F   UNL     1       1.228  18.475  -6.353  1.00  0.00    -0.200 F 
ENDBRANCH  49  63
BRANCH  50  74
ATOM     74  C   UNL     1      -0.897   6.114 -12.852  1.00  0.00     0.064 A 
ATOM     75  C   UNL     1      -0.559   5.850 -14.186  1.00  0.00     0.173 A 
ATOM     76  C   UNL     1      -1.472   5.074 -12.106  1.00  0.00     0.173 A 
ATOM     77  F   UNL     1      -0.026   6.818 -14.945  1.00  0.00    -0.203 F 
ATOM     78  C   UNL     1      -0.796   4.600 -14.754  1.00  0.00     0.198 A 
ATOM     79  C   UNL     1      -1.682   3.817 -12.666  1.00  0.00     0.198 A 
ATOM     80  F   UNL     1      -1.808   5.275 -10.823  1.00  0.00    -0.203 F 
ATOM     81  F   UNL     1      -0.496   4.384 -16.042  1.00  0.00    -0.200 F 
ATOM     82  C   UNL     1      -1.349   3.582 -13.992  1.00  0.00     0.200 A 
ATOM     83  F   UNL     1      -2.202   2.832 -11.921  1.00  0.00    -0.200 F 
ATOM     84  F   UNL     1      -1.565   2.376 -14.535  1.00  0.00    -0.200 F 
ENDBRANCH  50  74
BRANCH  62  85
ATOM     85  C   UNL     1      -3.647  12.463 -13.746  1.00  0.00     0.064 A 
ATOM     86  C   UNL     1      -5.001  12.138 -13.574  1.00  0.00     0.173 A 
ATOM     87  C   UNL     1      -3.310  13.342 -14.787  1.00  0.00     0.173 A 
ATOM     88  F   UNL     1      -5.373  11.290 -12.604  1.00  0.00    -0.203 F 
ATOM     89  C   UNL     1      -5.975  12.658 -14.423  1.00  0.00     0.198 A 
ATOM     90  C   UNL     1      -4.290  13.883 -15.615  1.00  0.00     0.198 A 
ATOM     91  F   UNL     1      -2.030  13.688 -14.992  1.00  0.00    -0.203 F 
ATOM     92  F   UNL     1      -7.257  12.299 -14.267  1.00  0.00    -0.200 F 
ATOM     93  C   UNL     1      -5.620  13.535 -15.437  1.00  0.00     0.200 A 
ATOM     94  F   UNL     1      -3.946  14.741 -16.585  1.00  0.00    -0.200 F 
ATOM     95  F   UNL     1      -6.560  14.042 -16.246  1.00  0.00    -0.200 F 
ENDBRANCH  62  85
ENDBRANCH  36  37
ENDBRANCH  28  31
ENDBRANCH  26  27
ENDBRANCH  25  26
ENDBRANCH  24  25
ENDBRANCH   1  24
TORSDOF 15
