REMARK SMILES O=C(NCCCCCCNC(=O)[C@@H]1CCCCC[C@H]1NS(=O)(=O)C(F)F)c1ccc(-c2c3nc(c(-c4c(F)c(F)c(F)c(F)c4F)c4ccc([nH]4)c(-c4c(F)c(F)c(F)c(F)c4F)c4nc(c(-c5c(F)c(F)c(F)c(F)c5F)c5ccc2[nH]5)C=C4)C=C3)cc1
REMARK SMILES IDX 8 1 7 2 6 3 5 4 4 5 3 6 1 7 2 8 27 10 28 11 89 12 29 13
REMARK SMILES IDX 88 14 30 15 31 16 32 17 82 18 33 19 87 20 81 21 83 22 34 23
REMARK SMILES IDX 86 24 80 25 79 26 35 28 67 29 47 30 66 31 48 32 51 33 65 34
REMARK SMILES IDX 84 35 49 36 50 37 64 39 85 40 52 41 36 42 37 43 45 44 38 45
REMARK SMILES IDX 39 46 43 47 46 48 40 49 41 50 44 51 42 52 68 53 69 54 77 55
REMARK SMILES IDX 70 56 71 57 75 58 78 59 72 60 73 61 76 62 74 63 53 64 54 65
REMARK SMILES IDX 62 66 55 67 56 68 60 69 63 70 57 71 58 72 61 73 59 74 9 75
REMARK SMILES IDX 10 76 11 77 12 79 13 80 14 81 19 83 18 84 17 85 16 86 15 87
REMARK SMILES IDX 20 89 21 91 22 92 23 93 24 94 25 95 26 96
REMARK H PARENT 3 9 83 27 51 38 10 78 20 90
REMARK Flexibility Score: 90.00
ROOT
ATOM      1  C   UNL     1       6.438   3.224   3.034  1.00  0.00     0.021 C 
ENDROOT
BRANCH   1   2
ATOM      2  C   UNL     1       4.907   3.309   2.982  1.00  0.00     0.002 C 
BRANCH   2   3
ATOM      3  C   UNL     1       4.314   3.618   1.604  1.00  0.00     0.002 C 
BRANCH   3   4
ATOM      4  C   UNL     1       4.756   2.674   0.486  1.00  0.00     0.021 C 
BRANCH   4   5
ATOM      5  C   UNL     1       4.463   1.206   0.755  1.00  0.00     0.116 C 
BRANCH   5   6
ATOM      6  N   UNL     1       3.038   0.924   0.782  1.00  0.00    -0.352 N 
ATOM      7  O   UNL     1       1.108   0.009   0.041  1.00  0.00    -0.269 OA
ATOM      8  C   UNL     1       2.334   0.006   0.043  1.00  0.00     0.251 C 
ATOM      9  H   UNL     1       2.507   1.462   1.414  1.00  0.00     0.163 HD
BRANCH   8  10
ATOM     10  C   UNL     1       3.074  -0.987  -0.763  1.00  0.00     0.039 A 
ATOM     11  C   UNL     1       4.158  -1.673  -0.207  1.00  0.00     0.014 A 
ATOM     12  C   UNL     1       2.672  -1.245  -2.075  1.00  0.00     0.014 A 
ATOM     13  C   UNL     1       4.908  -2.534  -0.996  1.00  0.00     0.010 A 
ATOM     14  C   UNL     1       3.372  -2.182  -2.840  1.00  0.00     0.010 A 
ATOM     15  C   UNL     1       4.495  -2.832  -2.304  1.00  0.00    -0.014 A 
BRANCH  15  16
ATOM     16  C   UNL     1       5.162  -3.938  -3.032  1.00  0.00     0.031 A 
ATOM     17  C   UNL     1       5.937  -3.698  -4.293  1.00  0.00     0.074 A 
ATOM     18  C   UNL     1       5.040  -5.182  -2.527  1.00  0.00     0.049 A 
ATOM     19  N   UNL     1       6.547  -4.569  -5.058  1.00  0.00    -0.248 NA
ATOM     20  C   UNL     1       6.040  -2.310  -4.766  1.00  0.00     0.031 C 
ATOM     21  C   UNL     1       4.290  -5.526  -1.314  1.00  0.00     0.029 A 
ATOM     22  N   UNL     1       5.536  -6.385  -2.958  1.00  0.00    -0.354 N 
ATOM     23  C   UNL     1       7.088  -3.842  -6.109  1.00  0.00     0.074 A 
ATOM     24  C   UNL     1       6.726  -2.457  -5.894  1.00  0.00     0.031 C 
ATOM     25  C   UNL     1       4.395  -6.841  -1.086  1.00  0.00     0.029 A 
ATOM     26  C   UNL     1       5.151  -7.446  -2.174  1.00  0.00     0.049 A 
ATOM     27  H   UNL     1       6.111  -6.479  -3.751  1.00  0.00     0.167 HD
ATOM     28  C   UNL     1       7.818  -4.301  -7.153  1.00  0.00     0.037 A 
ATOM     29  C   UNL     1       5.345  -8.767  -2.336  1.00  0.00     0.037 A 
ATOM     30  C   UNL     1       8.184  -5.683  -7.341  1.00  0.00     0.049 A 
ATOM     31  C   UNL     1       6.124  -9.239  -3.530  1.00  0.00     0.074 A 
ATOM     32  C   UNL     1       8.988  -6.233  -8.325  1.00  0.00     0.029 A 
ATOM     33  N   UNL     1       7.756  -6.733  -6.543  1.00  0.00    -0.354 N 
ATOM     34  N   UNL     1       6.699  -8.534  -4.473  1.00  0.00    -0.248 NA
ATOM     35  C   UNL     1       6.274 -10.691  -3.689  1.00  0.00     0.031 C 
ATOM     36  C   UNL     1       8.987  -7.622  -8.165  1.00  0.00     0.029 A 
ATOM     37  C   UNL     1       8.237  -7.933  -7.043  1.00  0.00     0.049 A 
ATOM     38  H   UNL     1       7.195  -6.640  -5.739  1.00  0.00     0.167 HD
ATOM     39  C   UNL     1       7.287  -9.452  -5.329  1.00  0.00     0.074 A 
ATOM     40  C   UNL     1       7.031 -10.764  -4.774  1.00  0.00     0.031 C 
ATOM     41  C   UNL     1       7.968  -9.231  -6.479  1.00  0.00     0.037 A 
BRANCH  28  42
ATOM     42  C   UNL     1       8.265  -3.323  -8.201  1.00  0.00     0.064 A 
ATOM     43  C   UNL     1       9.295  -2.402  -7.963  1.00  0.00     0.173 A 
ATOM     44  C   UNL     1       7.733  -3.392  -9.499  1.00  0.00     0.173 A 
ATOM     45  F   UNL     1       9.834  -2.292  -6.740  1.00  0.00    -0.203 F 
ATOM     46  C   UNL     1       9.774  -1.584  -8.985  1.00  0.00     0.198 A 
ATOM     47  C   UNL     1       8.232  -2.592 -10.523  1.00  0.00     0.198 A 
ATOM     48  F   UNL     1       6.752  -4.262  -9.781  1.00  0.00    -0.203 F 
ATOM     49  F   UNL     1      10.748  -0.699  -8.732  1.00  0.00    -0.200 F 
ATOM     50  C   UNL     1       9.251  -1.689 -10.266  1.00  0.00     0.200 A 
ATOM     51  F   UNL     1       7.737  -2.708 -11.764  1.00  0.00    -0.200 F 
ATOM     52  F   UNL     1       9.732  -0.921 -11.253  1.00  0.00    -0.200 F 
ENDBRANCH  28  42
BRANCH  29  53
ATOM     53  C   UNL     1       4.748  -9.734  -1.378  1.00  0.00     0.064 A 
ATOM     54  C   UNL     1       5.552 -10.559  -0.581  1.00  0.00     0.173 A 
ATOM     55  C   UNL     1       3.355  -9.874  -1.263  1.00  0.00     0.173 A 
ATOM     56  F   UNL     1       6.888 -10.475  -0.665  1.00  0.00    -0.203 F 
ATOM     57  C   UNL     1       4.988 -11.513   0.264  1.00  0.00     0.198 A 
ATOM     58  C   UNL     1       2.793 -10.800  -0.388  1.00  0.00     0.198 A 
ATOM     59  F   UNL     1       2.538  -9.105  -1.997  1.00  0.00    -0.203 F 
ATOM     60  F   UNL     1       5.782 -12.336   0.962  1.00  0.00    -0.200 F 
ATOM     61  C   UNL     1       3.610 -11.629   0.363  1.00  0.00     0.200 A 
ATOM     62  F   UNL     1       1.461 -10.893  -0.280  1.00  0.00    -0.200 F 
ATOM     63  F   UNL     1       3.070 -12.549   1.173  1.00  0.00    -0.200 F 
ENDBRANCH  29  53
BRANCH  41  64
ATOM     64  C   UNL     1       8.491 -10.436  -7.205  1.00  0.00     0.064 A 
ATOM     65  C   UNL     1       7.629 -11.324  -7.864  1.00  0.00     0.173 A 
ATOM     66  C   UNL     1       9.870 -10.688  -7.269  1.00  0.00     0.173 A 
ATOM     67  F   UNL     1       6.301 -11.138  -7.814  1.00  0.00    -0.203 F 
ATOM     68  C   UNL     1       8.126 -12.434  -8.540  1.00  0.00     0.198 A 
ATOM     69  C   UNL     1      10.366 -11.779  -7.976  1.00  0.00     0.198 A 
ATOM     70  F   UNL     1      10.737  -9.867  -6.659  1.00  0.00    -0.203 F 
ATOM     71  F   UNL     1       7.280 -13.299  -9.117  1.00  0.00    -0.200 F 
ATOM     72  C   UNL     1       9.493 -12.656  -8.604  1.00  0.00     0.200 A 
ATOM     73  F   UNL     1      11.688 -11.983  -8.049  1.00  0.00    -0.200 F 
ATOM     74  F   UNL     1       9.971 -13.719  -9.264  1.00  0.00    -0.200 F 
ENDBRANCH  41  64
ENDBRANCH  15  16
ENDBRANCH   8  10
ENDBRANCH   5   6
ENDBRANCH   4   5
ENDBRANCH   3   4
ENDBRANCH   2   3
ENDBRANCH   1   2
BRANCH   1  75
ATOM     75  C   UNL     1       7.164   4.470   2.534  1.00  0.00     0.116 C 
BRANCH  75  76
ATOM     76  N   UNL     1       6.835   5.634   3.335  1.00  0.00    -0.356 N 
ATOM     77  C   UNL     1       7.645   6.519   3.977  1.00  0.00     0.224 C 
ATOM     78  H   UNL     1       5.872   5.811   3.430  1.00  0.00     0.163 HD
ATOM     79  O   UNL     1       7.115   7.427   4.618  1.00  0.00    -0.275 OA
BRANCH  77  80
ATOM     80  C   UNL     1       9.159   6.336   3.934  1.00  0.00     0.096 C 
BRANCH  80  81
ATOM     81  C   UNL     1       9.533   5.384   5.083  1.00  0.00     0.015 CG0
ATOM     82  G   UNL     1      11.023   5.261   5.377  1.00  0.00     0.000 G0
ENDBRANCH  80  81
BRANCH  80  83
ATOM     83  C   UNL     1       9.828   7.735   3.919  1.00  0.00     0.082 C 
BRANCH  83  84
ATOM     84  C   UNL     1      10.234   8.262   5.300  1.00  0.00     0.021 C 
BRANCH  84  85
ATOM     85  C   UNL     1      11.552   7.735   5.866  1.00  0.00     0.002 C 
BRANCH  85  86
ATOM     86  C   UNL     1      11.521   6.301   6.374  1.00  0.00     0.000 C 
BRANCH  86  87
ATOM     87  C   UNL     1      11.023   5.261   5.377  1.00  0.00     0.001 CG0
ATOM     88  G   UNL     1       9.533   5.384   5.083  1.00  0.00     0.000 G0
ENDBRANCH  86  87
ENDBRANCH  85  86
ENDBRANCH  84  85
ENDBRANCH  83  84
BRANCH  83  89
ATOM     89  N   UNL     1      10.962   7.700   2.956  1.00  0.00    -0.206 NA
ATOM     90  H   UNL     1      10.625   7.192   2.138  1.00  0.00     0.141 HD
BRANCH  89  91
ATOM     91  S   UNL     1      11.691   9.101   2.370  1.00  0.00     0.274 S 
ATOM     92  O   UNL     1      12.049   9.926   3.503  1.00  0.00    -0.206 OA
ATOM     93  O   UNL     1      12.744   8.609   1.496  1.00  0.00    -0.206 OA
BRANCH  91  94
ATOM     94  C   UNL     1      10.421   9.952   1.359  1.00  0.00     0.473 C 
ATOM     95  F   UNL     1       9.960   9.174   0.338  1.00  0.00    -0.191 F 
ATOM     96  F   UNL     1       9.329  10.312   2.091  1.00  0.00    -0.191 F 
ENDBRANCH  91  94
ENDBRANCH  89  91
ENDBRANCH  83  89
ENDBRANCH  80  83
ENDBRANCH  77  80
ENDBRANCH  75  76
ENDBRANCH   1  75
TORSDOF 16
