REMARK SMILES CCC(CC)(CC(=O)Nc1cccc(Br)c1)C(=O)NCCCCCCNC(=O)c1ccc(-c2c3nc(c(-c4c(F)c(F)c(F)c(F)c4F)c4ccc([nH]4)c(-c4c(F)c(F)c(F)c(F)c4F)c4nc(c(-c5c(F)c(F)c(F)c(F)c5F)c5ccc2[nH]5)C=C4)C=C3)cc1
REMARK SMILES IDX 22 1 21 2 20 3 19 4 17 5 18 6 3 8 2 9 1 10 4 11 5 12 6 13
REMARK SMILES IDX 7 14 8 15 9 16 10 18 11 19 16 20 12 21 14 22 13 23 15 24
REMARK SMILES IDX 23 25 24 26 25 27 26 28 27 29 28 31 29 32 30 33 91 34 31 35
REMARK SMILES IDX 90 36 32 37 33 38 34 39 84 40 35 41 89 42 83 43 85 44 36 45
REMARK SMILES IDX 88 46 82 47 81 48 37 50 69 51 49 52 68 53 50 54 53 55 67 56
REMARK SMILES IDX 86 57 51 58 52 59 66 61 87 62 54 63 38 64 39 65 47 66 40 67
REMARK SMILES IDX 41 68 45 69 48 70 42 71 43 72 46 73 44 74 70 75 71 76 79 77
REMARK SMILES IDX 72 78 73 79 77 80 80 81 74 82 75 83 78 84 76 85 55 86 56 87
REMARK SMILES IDX 64 88 57 89 58 90 62 91 65 92 59 93 60 94 63 95 61 96
REMARK H PARENT 19 7 9 17 26 30 85 49 53 60
REMARK Flexibility Score: inf
ROOT
ATOM      1  C   UNL     1       4.647  -5.905   2.286  1.00  0.00     0.002 C 
ENDROOT
BRANCH   1   2
ATOM      2  C   UNL     1       3.140  -5.897   2.000  1.00  0.00     0.021 C 
BRANCH   2   3
ATOM      3  C   UNL     1       2.423  -4.597   2.344  1.00  0.00     0.116 C 
BRANCH   3   4
ATOM      4  N   UNL     1       3.013  -3.476   1.652  1.00  0.00    -0.356 N 
ATOM      5  C   UNL     1       2.492  -2.455   0.939  1.00  0.00     0.226 C 
ATOM      6  O   UNL     1       3.322  -1.760   0.343  1.00  0.00    -0.274 OA
ATOM      7  H   UNL     1       3.996  -3.451   1.711  1.00  0.00     0.163 HD
BRANCH   5   8
ATOM      8  C   UNL     1       0.977  -2.154   0.865  1.00  0.00     0.057 C 
BRANCH   8   9
ATOM      9  C   UNL     1       0.835  -0.746   0.217  1.00  0.00     0.014 C 
ATOM     10  C   UNL     1       1.314   0.467   1.005  1.00  0.00     0.005 C 
ENDBRANCH   8   9
BRANCH   8  11
ATOM     11  C   UNL     1       0.330  -2.115   2.285  1.00  0.00     0.014 C 
ATOM     12  C   UNL     1      -1.191  -1.990   2.310  1.00  0.00     0.005 C 
ENDBRANCH   8  11
BRANCH   8  13
ATOM     13  C   UNL     1       0.246  -3.171  -0.064  1.00  0.00     0.117 C 
BRANCH  13  14
ATOM     14  C   UNL     1       0.903  -3.556  -1.392  1.00  0.00     0.225 C 
ATOM     15  O   UNL     1       1.829  -4.371  -1.417  1.00  0.00    -0.275 OA
ATOM     16  N   UNL     1       0.364  -3.129  -2.585  1.00  0.00    -0.326 N 
ATOM     17  H   UNL     1       0.660  -3.614  -3.389  1.00  0.00     0.169 HD
BRANCH  16  18
ATOM     18  C   UNL     1      -0.553  -2.093  -2.799  1.00  0.00     0.042 A 
ATOM     19  C   UNL     1      -0.132  -0.766  -2.732  1.00  0.00     0.026 A 
ATOM     20  C   UNL     1      -1.867  -2.377  -3.159  1.00  0.00     0.041 A 
ATOM     21  C   UNL     1      -1.054   0.278  -2.804  1.00  0.00     0.003 A 
ATOM     22  C   UNL     1      -2.781  -1.326  -3.284  1.00  0.00     0.020 A 
ATOM     23  C   UNL     1      -2.391  -0.004  -3.060  1.00  0.00     0.016 A 
ATOM     24  Br  UNL     1      -4.574  -1.691  -3.760  1.00  0.00    -0.051 Br
ENDBRANCH  16  18
ENDBRANCH  13  14
ENDBRANCH   8  13
ENDBRANCH   5   8
ENDBRANCH   3   4
ENDBRANCH   2   3
ENDBRANCH   1   2
BRANCH   1  25
ATOM     25  C   UNL     1       5.058  -5.472   3.697  1.00  0.00     0.002 C 
BRANCH  25  26
ATOM     26  C   UNL     1       4.364  -6.220   4.835  1.00  0.00     0.021 C 
BRANCH  26  27
ATOM     27  C   UNL     1       4.450  -7.735   4.742  1.00  0.00     0.116 C 
BRANCH  27  28
ATOM     28  N   UNL     1       5.818  -8.216   4.813  1.00  0.00    -0.352 N 
ATOM     29  C   UNL     1       6.327  -9.227   5.583  1.00  0.00     0.251 C 
ATOM     30  H   UNL     1       6.464  -7.755   4.230  1.00  0.00     0.163 HD
ATOM     31  O   UNL     1       7.544  -9.400   5.662  1.00  0.00    -0.269 OA
BRANCH  29  32
ATOM     32  C   UNL     1       5.409 -10.102   6.339  1.00  0.00     0.039 A 
ATOM     33  C   UNL     1       5.713 -10.414   7.665  1.00  0.00     0.014 A 
ATOM     34  C   UNL     1       4.254 -10.615   5.739  1.00  0.00     0.014 A 
ATOM     35  C   UNL     1       4.841 -11.217   8.401  1.00  0.00     0.010 A 
ATOM     36  C   UNL     1       3.345 -11.344   6.498  1.00  0.00     0.010 A 
ATOM     37  C   UNL     1       3.642 -11.674   7.829  1.00  0.00    -0.014 A 
BRANCH  37  38
ATOM     38  C   UNL     1       2.715 -12.547   8.592  1.00  0.00     0.031 A 
ATOM     39  C   UNL     1       2.464 -13.955   8.124  1.00  0.00     0.074 A 
ATOM     40  C   UNL     1       2.079 -12.068   9.678  1.00  0.00     0.049 A 
ATOM     41  N   UNL     1       1.651 -14.858   8.609  1.00  0.00    -0.248 NA
ATOM     42  C   UNL     1       3.209 -14.400   6.934  1.00  0.00     0.031 C 
ATOM     43  C   UNL     1       2.208 -10.709  10.206  1.00  0.00     0.029 A 
ATOM     44  N   UNL     1       1.190 -12.672  10.532  1.00  0.00    -0.354 N 
ATOM     45  C   UNL     1       1.786 -15.969   7.786  1.00  0.00     0.074 A 
ATOM     46  C   UNL     1       2.702 -15.606   6.729  1.00  0.00     0.031 C 
ATOM     47  C   UNL     1       1.441 -10.588  11.302  1.00  0.00     0.029 A 
ATOM     48  C   UNL     1       0.740 -11.847  11.534  1.00  0.00     0.049 A 
ATOM     49  H   UNL     1       0.901 -13.608  10.435  1.00  0.00     0.167 HD
ATOM     50  C   UNL     1       1.227 -17.195   7.921  1.00  0.00     0.037 A 
ATOM     51  C   UNL     1      -0.144 -12.081  12.522  1.00  0.00     0.037 A 
ATOM     52  C   UNL     1       0.329 -17.560   8.984  1.00  0.00     0.049 A 
ATOM     53  C   UNL     1      -0.762 -13.451  12.639  1.00  0.00     0.074 A 
ATOM     54  C   UNL     1      -0.287 -18.777   9.216  1.00  0.00     0.029 A 
ATOM     55  N   UNL     1      -0.074 -16.706  10.000  1.00  0.00    -0.354 N 
ATOM     56  N   UNL     1      -0.590 -14.507  11.880  1.00  0.00    -0.248 NA
ATOM     57  C   UNL     1      -1.685 -13.667  13.762  1.00  0.00     0.031 C 
ATOM     58  C   UNL     1      -1.090 -18.650  10.353  1.00  0.00     0.029 A 
ATOM     59  C   UNL     1      -0.931 -17.371  10.861  1.00  0.00     0.049 A 
ATOM     60  H   UNL     1       0.207 -15.767  10.095  1.00  0.00     0.167 HD
ATOM     61  C   UNL     1      -1.345 -15.519  12.457  1.00  0.00     0.074 A 
ATOM     62  C   UNL     1      -1.965 -14.955  13.637  1.00  0.00     0.031 C 
ATOM     63  C   UNL     1      -1.513 -16.801  12.049  1.00  0.00     0.037 A 
BRANCH  50  64
ATOM     64  C   UNL     1       1.590 -18.240   6.905  1.00  0.00     0.064 A 
ATOM     65  C   UNL     1       2.879 -18.794   6.857  1.00  0.00     0.173 A 
ATOM     66  C   UNL     1       0.633 -18.728   6.003  1.00  0.00     0.173 A 
ATOM     67  F   UNL     1       3.835 -18.353   7.688  1.00  0.00    -0.203 F 
ATOM     68  C   UNL     1       3.201 -19.781   5.930  1.00  0.00     0.198 A 
ATOM     69  C   UNL     1       0.951 -19.738   5.098  1.00  0.00     0.198 A 
ATOM     70  F   UNL     1      -0.615 -18.235   6.007  1.00  0.00    -0.203 F 
ATOM     71  F   UNL     1       4.451 -20.263   5.874  1.00  0.00    -0.200 F 
ATOM     72  C   UNL     1       2.235 -20.259   5.058  1.00  0.00     0.200 A 
ATOM     73  F   UNL     1       0.012 -20.209   4.266  1.00  0.00    -0.200 F 
ATOM     74  F   UNL     1       2.543 -21.220   4.176  1.00  0.00    -0.200 F 
ENDBRANCH  50  64
BRANCH  51  75
ATOM     75  C   UNL     1      -0.494 -11.008  13.491  1.00  0.00     0.064 A 
ATOM     76  C   UNL     1      -0.148 -11.112  14.846  1.00  0.00     0.173 A 
ATOM     77  C   UNL     1      -1.221  -9.877  13.091  1.00  0.00     0.173 A 
ATOM     78  F   UNL     1       0.533 -12.182  15.282  1.00  0.00    -0.203 F 
ATOM     79  C   UNL     1      -0.553 -10.151  15.770  1.00  0.00     0.198 A 
ATOM     80  C   UNL     1      -1.595  -8.898  14.010  1.00  0.00     0.198 A 
ATOM     81  F   UNL     1      -1.571  -9.721  11.806  1.00  0.00    -0.203 F 
ATOM     82  F   UNL     1      -0.270 -10.314  17.070  1.00  0.00    -0.200 F 
ATOM     83  C   UNL     1      -1.274  -9.044  15.351  1.00  0.00     0.200 A 
ATOM     84  F   UNL     1      -2.278  -7.821  13.598  1.00  0.00    -0.200 F 
ATOM     85  F   UNL     1      -1.672  -8.124  16.241  1.00  0.00    -0.200 F 
ENDBRANCH  51  75
BRANCH  63  86
ATOM     86  C   UNL     1      -2.340 -17.700  12.921  1.00  0.00     0.064 A 
ATOM     87  C   UNL     1      -3.729 -17.546  13.043  1.00  0.00     0.173 A 
ATOM     88  C   UNL     1      -1.731 -18.752  13.624  1.00  0.00     0.173 A 
ATOM     89  F   UNL     1      -4.357 -16.549  12.402  1.00  0.00    -0.203 F 
ATOM     90  C   UNL     1      -4.472 -18.389  13.866  1.00  0.00     0.198 A 
ATOM     91  C   UNL     1      -2.482 -19.614  14.418  1.00  0.00     0.198 A 
ATOM     92  F   UNL     1      -0.407 -18.950  13.534  1.00  0.00    -0.203 F 
ATOM     93  F   UNL     1      -5.788 -18.185  14.015  1.00  0.00    -0.200 F 
ATOM     94  C   UNL     1      -3.850 -19.425  14.547  1.00  0.00     0.200 A 
ATOM     95  F   UNL     1      -1.882 -20.625  15.061  1.00  0.00    -0.200 F 
ATOM     96  F   UNL     1      -4.568 -20.237  15.335  1.00  0.00    -0.200 F 
ENDBRANCH  63  86
ENDBRANCH  37  38
ENDBRANCH  29  32
ENDBRANCH  27  28
ENDBRANCH  26  27
ENDBRANCH  25  26
ENDBRANCH   1  25
TORSDOF 18
