REMARK SMILES COc1ccc(/C=C(\CCC(=O)NCCCCCCNC(=O)c2ccc(-c3c4nc(c(-c5c(F)c(F)c(F)c(F)c5F)c5ccc([nH]5)c(-c5c(F)c(F)c(F)c(F)c5F)c5nc(c(-c6c(F)c(F)c(F)c(F)c6F)c6ccc3[nH]6)C=C5)C=C4)cc2)c2nc3ccccc3s2)cc1F
REMARK SMILES IDX 15 1 14 2 13 3 11 4 12 5 10 7 9 8 8 9 7 10 6 11 3 12 4 13
REMARK SMILES IDX 96 14 5 15 95 16 97 17 2 18 1 19 86 20 87 21 94 22 88 23
REMARK SMILES IDX 93 24 89 25 92 26 90 27 91 28 16 29 17 30 18 31 19 32 20 33
REMARK SMILES IDX 21 34 22 36 23 37 24 38 85 39 25 40 84 41 26 42 27 43 28 44
REMARK SMILES IDX 78 45 29 46 83 47 77 48 79 49 30 50 82 51 76 52 75 53 31 55
REMARK SMILES IDX 63 56 43 57 62 58 44 59 47 60 61 61 80 62 45 63 46 64 60 66
REMARK SMILES IDX 81 67 48 68 32 69 33 70 41 71 34 72 35 73 39 74 42 75 36 76
REMARK SMILES IDX 37 77 40 78 38 79 64 80 65 81 73 82 66 83 67 84 71 85 74 86
REMARK SMILES IDX 68 87 69 88 72 89 70 90 49 91 50 92 58 93 51 94 52 95 56 96
REMARK SMILES IDX 59 97 53 98 54 99 57 100 55 101
REMARK H PARENT 13 6 20 35 79 54 47 65
REMARK Flexibility Score: inf
ROOT
ATOM      1  C   UNL     1       1.934   7.616  -5.603  1.00  0.00     0.021 C 
ENDROOT
BRANCH   1   2
ATOM      2  C   UNL     1       0.686   7.806  -4.744  1.00  0.00     0.116 C 
BRANCH   2   3
ATOM      3  N   UNL     1      -0.536   7.869  -5.525  1.00  0.00    -0.356 N 
ATOM      4  C   UNL     1      -1.554   6.977  -5.685  1.00  0.00     0.220 C 
ATOM      5  O   UNL     1      -2.537   7.335  -6.338  1.00  0.00    -0.275 OA
ATOM      6  H   UNL     1      -0.650   8.706  -6.030  1.00  0.00     0.163 HD
BRANCH   4   7
ATOM      7  C   UNL     1      -1.496   5.592  -5.070  1.00  0.00     0.105 C 
BRANCH   7   8
ATOM      8  C   UNL     1      -1.308   4.507  -6.132  1.00  0.00     0.048 C 
BRANCH   8   9
ATOM      9  C   UNL     1       0.155   4.346  -6.575  1.00  0.00    -0.011 C 
ATOM     10  C   UNL     1       1.096   3.682  -5.847  1.00  0.00     0.015 C 
BRANCH  10  11
ATOM     11  C   UNL     1       0.999   2.911  -4.566  1.00  0.00    -0.022 A 
ATOM     12  C   UNL     1       0.983   1.222  -2.257  1.00  0.00     0.154 A 
ATOM     13  C   UNL     1      -0.169   1.427  -3.001  1.00  0.00     0.050 A 
ATOM     14  C   UNL     1       2.143   1.884  -2.648  1.00  0.00     0.165 A 
ATOM     15  C   UNL     1      -0.154   2.242  -4.139  1.00  0.00     0.012 A 
ATOM     16  C   UNL     1       2.154   2.721  -3.781  1.00  0.00     0.051 A 
ATOM     17  F   UNL     1       3.298   1.689  -1.994  1.00  0.00    -0.203 F 
BRANCH  12  18
ATOM     18  O   UNL     1       0.864   0.271  -1.285  1.00  0.00    -0.494 OA
ATOM     19  C   UNL     1       1.524   0.545  -0.058  1.00  0.00     0.278 C 
ENDBRANCH  12  18
ENDBRANCH  10  11
BRANCH   9  20
ATOM     20  C   UNL     1       0.508   5.100  -7.775  1.00  0.00     0.120 A 
ATOM     21  N   UNL     1      -0.368   5.932  -8.300  1.00  0.00    -0.236 NA
ATOM     22  S   UNL     1       2.027   5.136  -8.611  1.00  0.00    -0.114 S 
ATOM     23  C   UNL     1       0.223   6.856  -9.113  1.00  0.00     0.082 A 
ATOM     24  C   UNL     1       1.555   6.600  -9.419  1.00  0.00     0.055 A 
ATOM     25  C   UNL     1      -0.402   8.025  -9.584  1.00  0.00     0.030 A 
ATOM     26  C   UNL     1       2.291   7.488 -10.224  1.00  0.00     0.021 A 
ATOM     27  C   UNL     1       0.333   8.939 -10.333  1.00  0.00     0.002 A 
ATOM     28  C   UNL     1       1.661   8.669 -10.652  1.00  0.00     0.002 A 
ENDBRANCH   9  20
ENDBRANCH   8   9
ENDBRANCH   7   8
ENDBRANCH   4   7
ENDBRANCH   2   3
ENDBRANCH   1   2
BRANCH   1  29
ATOM     29  C   UNL     1       2.252   8.779  -6.551  1.00  0.00     0.002 C 
BRANCH  29  30
ATOM     30  C   UNL     1       3.220   9.825  -5.992  1.00  0.00     0.002 C 
BRANCH  30  31
ATOM     31  C   UNL     1       4.586   9.288  -5.551  1.00  0.00     0.021 C 
BRANCH  31  32
ATOM     32  C   UNL     1       5.306   8.411  -6.574  1.00  0.00     0.116 C 
BRANCH  32  33
ATOM     33  N   UNL     1       5.783   9.171  -7.719  1.00  0.00    -0.352 N 
ATOM     34  C   UNL     1       7.057   9.571  -8.028  1.00  0.00     0.251 C 
ATOM     35  H   UNL     1       5.090   9.438  -8.366  1.00  0.00     0.163 HD
ATOM     36  O   UNL     1       7.250  10.390  -8.933  1.00  0.00    -0.269 OA
BRANCH  34  37
ATOM     37  C   UNL     1       8.208   9.047  -7.265  1.00  0.00     0.039 A 
ATOM     38  C   UNL     1       9.172   9.938  -6.788  1.00  0.00     0.014 A 
ATOM     39  C   UNL     1       8.341   7.676  -7.023  1.00  0.00     0.014 A 
ATOM     40  C   UNL     1      10.226   9.463  -6.005  1.00  0.00     0.010 A 
ATOM     41  C   UNL     1       9.347   7.215  -6.177  1.00  0.00     0.010 A 
ATOM     42  C   UNL     1      10.300   8.103  -5.658  1.00  0.00    -0.014 A 
BRANCH  42  43
ATOM     43  C   UNL     1      11.359   7.604  -4.743  1.00  0.00     0.031 A 
ATOM     44  C   UNL     1      12.392   6.625  -5.224  1.00  0.00     0.074 A 
ATOM     45  C   UNL     1      11.365   8.004  -3.456  1.00  0.00     0.049 A 
ATOM     46  N   UNL     1      13.384   6.079  -4.566  1.00  0.00    -0.248 NA
ATOM     47  C   UNL     1      12.281   6.181  -6.621  1.00  0.00     0.031 C 
ATOM     48  C   UNL     1      10.389   8.911  -2.852  1.00  0.00     0.029 A 
ATOM     49  N   UNL     1      12.223   7.705  -2.427  1.00  0.00    -0.354 N 
ATOM     50  C   UNL     1      14.013   5.231  -5.467  1.00  0.00     0.074 A 
ATOM     51  C   UNL     1      13.251   5.281  -6.696  1.00  0.00     0.031 C 
ATOM     52  C   UNL     1      10.729   9.132  -1.573  1.00  0.00     0.029 A 
ATOM     53  C   UNL     1      11.925   8.357  -1.257  1.00  0.00     0.049 A 
ATOM     54  H   UNL     1      12.980   7.082  -2.520  1.00  0.00     0.167 HD
ATOM     55  C   UNL     1      15.143   4.502  -5.297  1.00  0.00     0.037 A 
ATOM     56  C   UNL     1      12.551   8.344  -0.064  1.00  0.00     0.037 A 
ATOM     57  C   UNL     1      15.905   4.460  -4.077  1.00  0.00     0.049 A 
ATOM     58  C   UNL     1      13.790   7.512   0.111  1.00  0.00     0.074 A 
ATOM     59  C   UNL     1      17.087   3.786  -3.820  1.00  0.00     0.029 A 
ATOM     60  N   UNL     1      15.559   5.117  -2.904  1.00  0.00    -0.354 N 
ATOM     61  N   UNL     1      14.407   6.756  -0.764  1.00  0.00    -0.248 NA
ATOM     62  C   UNL     1      14.420   7.533   1.438  1.00  0.00     0.031 C 
ATOM     63  C   UNL     1      17.429   3.996  -2.480  1.00  0.00     0.029 A 
ATOM     64  C   UNL     1      16.490   4.844  -1.914  1.00  0.00     0.049 A 
ATOM     65  H   UNL     1      14.767   5.692  -2.792  1.00  0.00     0.167 HD
ATOM     66  C   UNL     1      15.504   6.223  -0.102  1.00  0.00     0.074 A 
ATOM     67  C   UNL     1      15.478   6.757   1.245  1.00  0.00     0.031 C 
ATOM     68  C   UNL     1      16.446   5.368  -0.571  1.00  0.00     0.037 A 
BRANCH  55  69
ATOM     69  C   UNL     1      15.626   3.697  -6.470  1.00  0.00     0.064 A 
ATOM     70  C   UNL     1      15.604   2.295  -6.437  1.00  0.00     0.173 A 
ATOM     71  C   UNL     1      16.137   4.317  -7.622  1.00  0.00     0.173 A 
ATOM     72  F   UNL     1      15.133   1.651  -5.359  1.00  0.00    -0.203 F 
ATOM     73  C   UNL     1      16.072   1.545  -7.513  1.00  0.00     0.198 A 
ATOM     74  C   UNL     1      16.573   3.564  -8.709  1.00  0.00     0.198 A 
ATOM     75  F   UNL     1      16.171   5.655  -7.711  1.00  0.00    -0.203 F 
ATOM     76  F   UNL     1      16.059   0.206  -7.450  1.00  0.00    -0.200 F 
ATOM     77  C   UNL     1      16.547   2.179  -8.651  1.00  0.00     0.200 A 
ATOM     78  F   UNL     1      17.003   4.179  -9.819  1.00  0.00    -0.200 F 
ATOM     79  F   UNL     1      16.971   1.455  -9.696  1.00  0.00    -0.200 F 
ENDBRANCH  55  69
BRANCH  56  80
ATOM     80  C   UNL     1      12.037   9.204   1.031  1.00  0.00     0.064 A 
ATOM     81  C   UNL     1      10.831   8.918   1.685  1.00  0.00     0.173 A 
ATOM     82  C   UNL     1      12.716  10.376   1.393  1.00  0.00     0.173 A 
ATOM     83  F   UNL     1      10.141   7.812   1.368  1.00  0.00    -0.203 F 
ATOM     84  C   UNL     1      10.307   9.787   2.640  1.00  0.00     0.198 A 
ATOM     85  C   UNL     1      12.203  11.233   2.364  1.00  0.00     0.198 A 
ATOM     86  F   UNL     1      13.883  10.681   0.807  1.00  0.00    -0.203 F 
ATOM     87  F   UNL     1       9.130   9.513   3.219  1.00  0.00    -0.200 F 
ATOM     88  C   UNL     1      10.994  10.944   2.978  1.00  0.00     0.200 A 
ATOM     89  F   UNL     1      12.878  12.341   2.700  1.00  0.00    -0.200 F 
ATOM     90  F   UNL     1      10.488  11.782   3.893  1.00  0.00    -0.200 F 
ENDBRANCH  56  80
BRANCH  68  91
ATOM     91  C   UNL     1      17.534   4.949   0.375  1.00  0.00     0.064 A 
ATOM     92  C   UNL     1      18.854   5.387   0.184  1.00  0.00     0.173 A 
ATOM     93  C   UNL     1      17.282   4.066   1.435  1.00  0.00     0.173 A 
ATOM     94  F   UNL     1      19.150   6.227  -0.819  1.00  0.00    -0.203 F 
ATOM     95  C   UNL     1      19.883   4.945   1.012  1.00  0.00     0.198 A 
ATOM     96  C   UNL     1      18.309   3.650   2.279  1.00  0.00     0.198 A 
ATOM     97  F   UNL     1      16.035   3.630   1.669  1.00  0.00    -0.203 F 
ATOM     98  F   UNL     1      21.140   5.352   0.791  1.00  0.00    -0.200 F 
ATOM     99  C   UNL     1      19.609   4.082   2.062  1.00  0.00     0.200 A 
ATOM    100  F   UNL     1      18.038   2.835   3.309  1.00  0.00    -0.200 F 
ATOM    101  F   UNL     1      20.597   3.669   2.867  1.00  0.00    -0.200 F 
ENDBRANCH  68  91
ENDBRANCH  42  43
ENDBRANCH  34  37
ENDBRANCH  32  33
ENDBRANCH  31  32
ENDBRANCH  30  31
ENDBRANCH  29  30
ENDBRANCH   1  29
TORSDOF 18
