REMARK SMILES Cc1ccc(S(=O)(=O)CC(=O)N2CCC(C(=O)NCCCCCCNC(=O)c3ccc(-c4c5nc(c(-c6c(F)c(F)c(F)c(F)c6F)c6ccc([nH]6)c(-c6c(F)c(F)c(F)c(F)c6F)c6nc(c(-c7c(F)c(F)c(F)c(F)c7F)c7ccc4[nH]7)C=C6)C=C5)cc3)CC2)cc1
REMARK SMILES IDX 21 1 20 2 19 3 18 4 16 5 17 6 15 8 10 9 11 10 12 11 13 12
REMARK SMILES IDX 92 13 14 14 91 15 9 16 6 17 7 18 8 19 5 20 1 21 2 22 3 23
REMARK SMILES IDX 94 24 4 25 93 26 22 27 23 28 24 29 25 30 26 31 27 33 28 34
REMARK SMILES IDX 29 35 90 36 30 37 89 38 31 39 32 40 33 41 83 42 34 43 88 44
REMARK SMILES IDX 82 45 84 46 35 47 87 48 81 49 80 50 36 52 68 53 48 54 67 55
REMARK SMILES IDX 49 56 52 57 66 58 85 59 50 60 51 61 65 63 86 64 53 65 37 66
REMARK SMILES IDX 38 67 46 68 39 69 40 70 44 71 47 72 41 73 42 74 45 75 43 76
REMARK SMILES IDX 69 77 70 78 78 79 71 80 72 81 76 82 79 83 73 84 74 85 77 86
REMARK SMILES IDX 75 87 54 88 55 89 63 90 56 91 57 92 61 93 64 94 58 95 59 96
REMARK SMILES IDX 62 97 60 98
REMARK H PARENT 18 7 25 32 84 51 52 62
REMARK Flexibility Score: inf
ROOT
ATOM      1  C   UNL     1       1.503   3.228   5.412  1.00  0.00     0.002 C 
ENDROOT
BRANCH   1   2
ATOM      2  C   UNL     1       0.181   3.243   4.633  1.00  0.00     0.021 C 
BRANCH   2   3
ATOM      3  C   UNL     1      -0.561   1.907   4.569  1.00  0.00     0.116 C 
BRANCH   3   4
ATOM      4  N   UNL     1      -1.106   1.519   5.857  1.00  0.00    -0.356 N 
ATOM      5  C   UNL     1      -2.376   1.218   6.239  1.00  0.00     0.223 C 
ATOM      6  O   UNL     1      -2.554   0.856   7.405  1.00  0.00    -0.275 OA
ATOM      7  H   UNL     1      -0.441   1.466   6.581  1.00  0.00     0.163 HD
BRANCH   5   8
ATOM      8  C   UNL     1      -3.555   1.304   5.278  1.00  0.00     0.082 C 
ATOM      9  C   UNL     1      -3.828   2.079   1.432  1.00  0.00     0.238 C 
ATOM     10  O   UNL     1      -2.994   2.986   1.387  1.00  0.00    -0.274 OA
ATOM     11  N   UNL     1      -4.490   1.767   2.610  1.00  0.00    -0.342 N 
ATOM     12  C   UNL     1      -4.742   2.806   3.599  1.00  0.00     0.120 C 
ATOM     13  C   UNL     1      -4.565   0.410   3.127  1.00  0.00     0.120 C 
ATOM     14  C   UNL     1      -3.771   2.738   4.766  1.00  0.00     0.035 C 
ATOM     15  C   UNL     1      -3.483   0.220   4.188  1.00  0.00     0.035 C 
BRANCH   9  16
ATOM     16  C   UNL     1      -4.371   1.474   0.176  1.00  0.00     0.242 C 
BRANCH  16  17
ATOM     17  S   UNL     1      -3.527   0.107  -0.510  1.00  0.00     0.187 S 
ATOM     18  O   UNL     1      -3.653   0.212  -1.954  1.00  0.00    -0.223 OA
ATOM     19  O   UNL     1      -4.036  -1.080   0.157  1.00  0.00    -0.223 OA
BRANCH  17  20
ATOM     20  C   UNL     1      -1.787   0.155  -0.188  1.00  0.00     0.067 A 
ATOM     21  C   UNL     1       2.497   0.021   0.168  1.00  0.00     0.044 C 
ATOM     22  C   UNL     1       0.999   0.086   0.097  1.00  0.00    -0.051 A 
ATOM     23  C   UNL     1       0.251  -1.092   0.202  1.00  0.00     0.005 A 
ATOM     24  C   UNL     1       0.337   1.296  -0.151  1.00  0.00     0.005 A 
ATOM     25  C   UNL     1      -1.136  -1.059   0.067  1.00  0.00     0.020 A 
ATOM     26  C   UNL     1      -1.054   1.333  -0.306  1.00  0.00     0.020 A 
ENDBRANCH  17  20
ENDBRANCH  16  17
ENDBRANCH   9  16
ENDBRANCH   5   8
ENDBRANCH   3   4
ENDBRANCH   2   3
ENDBRANCH   1   2
BRANCH   1  27
ATOM     27  C   UNL     1       2.514   2.134   5.032  1.00  0.00     0.002 C 
BRANCH  27  28
ATOM     28  C   UNL     1       2.774   1.935   3.537  1.00  0.00     0.021 C 
BRANCH  28  29
ATOM     29  C   UNL     1       3.454   3.113   2.853  1.00  0.00     0.116 C 
BRANCH  29  30
ATOM     30  N   UNL     1       4.875   2.913   2.598  1.00  0.00    -0.352 N 
ATOM     31  C   UNL     1       5.803   3.806   2.085  1.00  0.00     0.251 C 
ATOM     32  H   UNL     1       5.225   2.020   2.820  1.00  0.00     0.163 HD
ATOM     33  O   UNL     1       6.961   3.470   1.908  1.00  0.00    -0.269 OA
BRANCH  31  34
ATOM     34  C   UNL     1       5.396   5.217   1.883  1.00  0.00     0.039 A 
ATOM     35  C   UNL     1       6.186   6.214   2.467  1.00  0.00     0.014 A 
ATOM     36  C   UNL     1       4.157   5.531   1.333  1.00  0.00     0.014 A 
ATOM     37  C   UNL     1       5.624   7.460   2.727  1.00  0.00     0.010 A 
ATOM     38  C   UNL     1       3.564   6.729   1.675  1.00  0.00     0.010 A 
ATOM     39  C   UNL     1       4.274   7.658   2.444  1.00  0.00    -0.014 A 
BRANCH  39  40
ATOM     40  C   UNL     1       3.490   8.754   2.998  1.00  0.00     0.031 A 
ATOM     41  C   UNL     1       3.115   9.901   2.150  1.00  0.00     0.074 A 
ATOM     42  C   UNL     1       3.047   8.673   4.272  1.00  0.00     0.049 A 
ATOM     43  N   UNL     1       2.616  11.001   2.603  1.00  0.00    -0.248 NA
ATOM     44  C   UNL     1       3.362   9.933   0.713  1.00  0.00     0.031 C 
ATOM     45  C   UNL     1       2.033   9.501   4.921  1.00  0.00     0.029 A 
ATOM     46  N   UNL     1       3.634   7.955   5.330  1.00  0.00    -0.354 N 
ATOM     47  C   UNL     1       2.236  11.767   1.530  1.00  0.00     0.074 A 
ATOM     48  C   UNL     1       2.839  11.121   0.392  1.00  0.00     0.031 C 
ATOM     49  C   UNL     1       2.267   9.510   6.242  1.00  0.00     0.029 A 
ATOM     50  C   UNL     1       3.520   8.812   6.455  1.00  0.00     0.049 A 
ATOM     51  H   UNL     1       4.036   7.057   5.297  1.00  0.00     0.167 HD
ATOM     52  C   UNL     1       1.361  12.790   1.746  1.00  0.00     0.037 A 
ATOM     53  C   UNL     1       4.633   9.354   7.032  1.00  0.00     0.037 A 
ATOM     54  C   UNL     1       1.307  13.130   3.173  1.00  0.00     0.049 A 
ATOM     55  C   UNL     1       4.691  10.869   7.012  1.00  0.00     0.074 A 
ATOM     56  C   UNL     1       0.394  12.970   4.202  1.00  0.00     0.029 A 
ATOM     57  N   UNL     1       2.485  13.541   3.778  1.00  0.00    -0.354 N 
ATOM     58  N   UNL     1       3.815  11.638   6.424  1.00  0.00    -0.248 NA
ATOM     59  C   UNL     1       5.808  11.629   7.574  1.00  0.00     0.031 C 
ATOM     60  C   UNL     1       1.058  13.264   5.436  1.00  0.00     0.029 A 
ATOM     61  C   UNL     1       2.364  13.619   5.151  1.00  0.00     0.049 A 
ATOM     62  H   UNL     1       3.311  13.753   3.286  1.00  0.00     0.167 HD
ATOM     63  C   UNL     1       4.234  12.940   6.493  1.00  0.00     0.074 A 
ATOM     64  C   UNL     1       5.493  12.883   7.212  1.00  0.00     0.031 C 
ATOM     65  C   UNL     1       3.542  13.972   5.928  1.00  0.00     0.037 A 
BRANCH  52  66
ATOM     66  C   UNL     1       0.441  13.404   0.701  1.00  0.00     0.064 A 
ATOM     67  C   UNL     1      -0.541  14.346   1.089  1.00  0.00     0.173 A 
ATOM     68  C   UNL     1       0.374  13.036  -0.661  1.00  0.00     0.173 A 
ATOM     69  F   UNL     1      -0.609  14.806   2.345  1.00  0.00    -0.203 F 
ATOM     70  C   UNL     1      -1.514  14.835   0.206  1.00  0.00     0.198 A 
ATOM     71  C   UNL     1      -0.576  13.550  -1.549  1.00  0.00     0.198 A 
ATOM     72  F   UNL     1       1.190  12.134  -1.207  1.00  0.00    -0.203 F 
ATOM     73  F   UNL     1      -2.452  15.682   0.653  1.00  0.00    -0.200 F 
ATOM     74  C   UNL     1      -1.531  14.437  -1.113  1.00  0.00     0.200 A 
ATOM     75  F   UNL     1      -0.567  13.148  -2.829  1.00  0.00    -0.200 F 
ATOM     76  F   UNL     1      -2.467  14.892  -1.956  1.00  0.00    -0.200 F 
ENDBRANCH  52  66
BRANCH  53  77
ATOM     77  C   UNL     1       5.812   8.450   6.964  1.00  0.00     0.064 A 
ATOM     78  C   UNL     1       5.722   7.183   7.575  1.00  0.00     0.173 A 
ATOM     79  C   UNL     1       6.837   8.646   6.033  1.00  0.00     0.173 A 
ATOM     80  F   UNL     1       4.757   6.941   8.478  1.00  0.00    -0.203 F 
ATOM     81  C   UNL     1       6.535   6.126   7.174  1.00  0.00     0.198 A 
ATOM     82  C   UNL     1       7.666   7.590   5.652  1.00  0.00     0.198 A 
ATOM     83  F   UNL     1       6.965   9.822   5.401  1.00  0.00    -0.203 F 
ATOM     84  F   UNL     1       6.339   4.901   7.683  1.00  0.00    -0.200 F 
ATOM     85  C   UNL     1       7.489   6.324   6.192  1.00  0.00     0.200 A 
ATOM     86  F   UNL     1       8.573   7.776   4.682  1.00  0.00    -0.200 F 
ATOM     87  F   UNL     1       8.208   5.290   5.734  1.00  0.00    -0.200 F 
ENDBRANCH  53  77
BRANCH  65  88
ATOM     88  C   UNL     1       3.964  15.412   6.041  1.00  0.00     0.064 A 
ATOM     89  C   UNL     1       4.423  15.971   7.245  1.00  0.00     0.173 A 
ATOM     90  C   UNL     1       3.822  16.308   4.960  1.00  0.00     0.173 A 
ATOM     91  F   UNL     1       4.516  15.226   8.357  1.00  0.00    -0.203 F 
ATOM     92  C   UNL     1       4.780  17.318   7.343  1.00  0.00     0.198 A 
ATOM     93  C   UNL     1       4.128  17.663   5.074  1.00  0.00     0.198 A 
ATOM     94  F   UNL     1       3.407  15.892   3.755  1.00  0.00    -0.203 F 
ATOM     95  F   UNL     1       5.272  17.793   8.495  1.00  0.00    -0.200 F 
ATOM     96  C   UNL     1       4.625  18.165   6.260  1.00  0.00     0.200 A 
ATOM     97  F   UNL     1       3.948  18.476   4.023  1.00  0.00    -0.200 F 
ATOM     98  F   UNL     1       4.952  19.460   6.359  1.00  0.00    -0.200 F 
ENDBRANCH  65  88
ENDBRANCH  39  40
ENDBRANCH  31  34
ENDBRANCH  29  30
ENDBRANCH  28  29
ENDBRANCH  27  28
ENDBRANCH   1  27
TORSDOF 16
