REMARK SMILES C#Cc1cccc(NS(=O)(=O)c2cc(C)c(C(=O)NCCCCCCNC(=O)c3ccc(-c4c5nc(c(-c6c(F)c(F)c(F)c(F)c6F)c6ccc([nH]6)c(-c6c(F)c(F)c(F)c(F)c6F)c6nc(c(-c7c(F)c(F)c(F)c(F)c7F)c7ccc4[nH]7)C=C6)C=C5)cc3)s2)c1
REMARK SMILES IDX 21 1 20 2 19 3 17 4 18 5 16 7 12 8 13 9 92 10 14 11 15 12
REMARK SMILES IDX 9 13 10 14 11 15 8 16 7 18 3 19 4 20 93 21 5 22 6 23 2 24
REMARK SMILES IDX 1 25 22 26 23 27 24 28 25 29 26 30 27 31 28 33 29 34 30 35
REMARK SMILES IDX 91 36 31 37 90 38 32 39 33 40 34 41 84 42 35 43 89 44 83 45
REMARK SMILES IDX 85 46 36 47 88 48 82 49 81 50 37 52 69 53 49 54 68 55 50 56
REMARK SMILES IDX 53 57 67 58 86 59 51 60 52 61 66 63 87 64 54 65 38 66 39 67
REMARK SMILES IDX 47 68 40 69 41 70 45 71 48 72 42 73 43 74 46 75 44 76 70 77
REMARK SMILES IDX 71 78 79 79 72 80 73 81 77 82 80 83 74 84 75 85 78 86 76 87
REMARK SMILES IDX 55 88 56 89 64 90 57 91 58 92 62 93 65 94 59 95 60 96 63 97
REMARK SMILES IDX 61 98
REMARK H PARENT 19 6 8 17 26 32 85 51 53 62
REMARK Flexibility Score: inf
ROOT
ATOM      1  C   UNL     1       5.401   5.148   1.070  1.00  0.00     0.021 C 
ENDROOT
BRANCH   1   2
ATOM      2  C   UNL     1       6.210   4.529  -0.075  1.00  0.00     0.116 C 
BRANCH   2   3
ATOM      3  N   UNL     1       7.086   3.513   0.428  1.00  0.00    -0.351 N 
ATOM      4  C   UNL     1       6.983   2.158   0.564  1.00  0.00     0.261 C 
ATOM      5  O   UNL     1       7.993   1.664   1.082  1.00  0.00    -0.268 OA
ATOM      6  H   UNL     1       7.948   3.869   0.744  1.00  0.00     0.163 HD
BRANCH   4   7
ATOM      7  C   UNL     1       5.844   1.350   0.106  1.00  0.00     0.096 A 
ATOM      8  C   UNL     1       4.555  -0.767  -0.281  1.00  0.00     0.141 A 
ATOM      9  C   UNL     1       4.032   0.318  -0.944  1.00  0.00     0.038 A 
ATOM     10  S   UNL     1       6.104  -0.378   0.292  1.00  0.00    -0.116 S 
ATOM     11  C   UNL     1       4.537   1.537  -0.358  1.00  0.00    -0.026 A 
ATOM     12  C   UNL     1       3.598   2.693  -0.247  1.00  0.00     0.046 C 
BRANCH   8  13
ATOM     13  S   UNL     1       3.939  -2.399   0.041  1.00  0.00     0.271 S 
ATOM     14  O   UNL     1       4.536  -2.821   1.290  1.00  0.00    -0.200 OA
ATOM     15  O   UNL     1       4.176  -3.124  -1.190  1.00  0.00    -0.200 OA
BRANCH  13  16
ATOM     16  N   UNL     1       2.260  -2.455   0.276  1.00  0.00    -0.279 N 
ATOM     17  H   UNL     1       1.850  -3.345   0.372  1.00  0.00     0.180 HD
BRANCH  16  18
ATOM     18  C   UNL     1       1.390  -1.323   0.348  1.00  0.00     0.050 A 
ATOM     19  C   UNL     1      -0.823  -0.395  -0.056  1.00  0.00     0.026 A 
ATOM     20  C   UNL     1      -0.392   0.846   0.405  1.00  0.00     0.017 A 
ATOM     21  C   UNL     1       0.071  -1.472  -0.109  1.00  0.00     0.044 A 
ATOM     22  C   UNL     1       0.869   0.962   0.972  1.00  0.00     0.003 A 
ATOM     23  C   UNL     1       1.728  -0.141   1.003  1.00  0.00     0.027 A 
BRANCH  19  24
ATOM     24  C   UNL     1      -2.219  -0.544  -0.337  1.00  0.00    -0.070 C 
ATOM     25  C   UNL     1      -3.414  -0.563  -0.414  1.00  0.00     0.010 C 
ENDBRANCH  19  24
ENDBRANCH  16  18
ENDBRANCH  13  16
ENDBRANCH   8  13
ENDBRANCH   4   7
ENDBRANCH   2   3
ENDBRANCH   1   2
BRANCH   1  26
ATOM     26  C   UNL     1       5.814   6.598   1.322  1.00  0.00     0.002 C 
BRANCH  26  27
ATOM     27  C   UNL     1       5.465   7.526   0.153  1.00  0.00     0.002 C 
BRANCH  27  28
ATOM     28  C   UNL     1       3.964   7.724  -0.067  1.00  0.00     0.021 C 
BRANCH  28  29
ATOM     29  C   UNL     1       3.252   8.376   1.111  1.00  0.00     0.116 C 
BRANCH  29  30
ATOM     30  N   UNL     1       3.836   9.670   1.436  1.00  0.00    -0.352 N 
ATOM     31  C   UNL     1       3.271  10.917   1.388  1.00  0.00     0.251 C 
ATOM     32  H   UNL     1       4.774   9.644   1.734  1.00  0.00     0.163 HD
ATOM     33  O   UNL     1       3.976  11.919   1.409  1.00  0.00    -0.269 OA
BRANCH  31  34
ATOM     34  C   UNL     1       1.804  11.043   1.309  1.00  0.00     0.039 A 
ATOM     35  C   UNL     1       1.248  12.008   0.469  1.00  0.00     0.014 A 
ATOM     36  C   UNL     1       0.982  10.211   2.075  1.00  0.00     0.014 A 
ATOM     37  C   UNL     1      -0.139  12.101   0.357  1.00  0.00     0.010 A 
ATOM     38  C   UNL     1      -0.393  10.239   1.888  1.00  0.00     0.010 A 
ATOM     39  C   UNL     1      -0.968  11.193   1.037  1.00  0.00    -0.014 A 
BRANCH  39  40
ATOM     40  C   UNL     1      -2.441  11.229   0.872  1.00  0.00     0.031 A 
ATOM     41  C   UNL     1      -3.327  11.508   2.052  1.00  0.00     0.074 A 
ATOM     42  C   UNL     1      -2.978  10.951  -0.331  1.00  0.00     0.049 A 
ATOM     43  N   UNL     1      -4.635  11.538   2.117  1.00  0.00    -0.248 NA
ATOM     44  C   UNL     1      -2.658  11.759   3.338  1.00  0.00     0.031 C 
ATOM     45  C   UNL     1      -2.220  10.623  -1.539  1.00  0.00     0.029 A 
ATOM     46  N   UNL     1      -4.287  10.898  -0.736  1.00  0.00    -0.354 N 
ATOM     47  C   UNL     1      -4.940  11.800   3.445  1.00  0.00     0.074 A 
ATOM     48  C   UNL     1      -3.687  11.853   4.165  1.00  0.00     0.031 C 
ATOM     49  C   UNL     1      -3.073  10.441  -2.557  1.00  0.00     0.029 A 
ATOM     50  C   UNL     1      -4.439  10.586  -2.064  1.00  0.00     0.049 A 
ATOM     51  H   UNL     1      -5.046  11.067  -0.131  1.00  0.00     0.167 HD
ATOM     52  C   UNL     1      -6.156  12.003   4.008  1.00  0.00     0.037 A 
ATOM     53  C   UNL     1      -5.556  10.426  -2.799  1.00  0.00     0.037 A 
ATOM     54  C   UNL     1      -7.397  11.952   3.280  1.00  0.00     0.049 A 
ATOM     55  C   UNL     1      -6.896  10.616  -2.142  1.00  0.00     0.074 A 
ATOM     56  C   UNL     1      -8.678  12.195   3.742  1.00  0.00     0.029 A 
ATOM     57  N   UNL     1      -7.513  11.619   1.937  1.00  0.00    -0.354 N 
ATOM     58  N   UNL     1      -7.173  10.937  -0.901  1.00  0.00    -0.248 NA
ATOM     59  C   UNL     1      -8.079  10.424  -2.990  1.00  0.00     0.031 C 
ATOM     60  C   UNL     1      -9.575  11.931   2.702  1.00  0.00     0.029 A 
ATOM     61  C   UNL     1      -8.849  11.608   1.566  1.00  0.00     0.049 A 
ATOM     62  H   UNL     1      -6.759  11.420   1.337  1.00  0.00     0.167 HD
ATOM     63  C   UNL     1      -8.557  11.021  -0.828  1.00  0.00     0.074 A 
ATOM     64  C   UNL     1      -9.061  10.730  -2.154  1.00  0.00     0.031 C 
ATOM     65  C   UNL     1      -9.339  11.316   0.241  1.00  0.00     0.037 A 
BRANCH  52  66
ATOM     66  C   UNL     1      -6.200  12.276   5.486  1.00  0.00     0.064 A 
ATOM     67  C   UNL     1      -5.652  13.443   6.045  1.00  0.00     0.173 A 
ATOM     68  C   UNL     1      -6.812  11.363   6.358  1.00  0.00     0.173 A 
ATOM     69  F   UNL     1      -5.047  14.348   5.261  1.00  0.00    -0.203 F 
ATOM     70  C   UNL     1      -5.675  13.660   7.420  1.00  0.00     0.198 A 
ATOM     71  C   UNL     1      -6.871  11.604   7.728  1.00  0.00     0.198 A 
ATOM     72  F   UNL     1      -7.359  10.234   5.882  1.00  0.00    -0.203 F 
ATOM     73  F   UNL     1      -5.082  14.746   7.935  1.00  0.00    -0.200 F 
ATOM     74  C   UNL     1      -6.290  12.745   8.260  1.00  0.00     0.200 A 
ATOM     75  F   UNL     1      -7.483  10.726   8.535  1.00  0.00    -0.200 F 
ATOM     76  F   UNL     1      -6.314  12.957   9.583  1.00  0.00    -0.200 F 
ENDBRANCH  52  66
BRANCH  53  77
ATOM     77  C   UNL     1      -5.449  10.089  -4.243  1.00  0.00     0.064 A 
ATOM     78  C   UNL     1      -5.847  11.004  -5.228  1.00  0.00     0.173 A 
ATOM     79  C   UNL     1      -4.946   8.851  -4.670  1.00  0.00     0.173 A 
ATOM     80  F   UNL     1      -6.350  12.195  -4.871  1.00  0.00    -0.203 F 
ATOM     81  C   UNL     1      -5.766  10.686  -6.582  1.00  0.00     0.198 A 
ATOM     82  C   UNL     1      -4.833   8.547  -6.025  1.00  0.00     0.198 A 
ATOM     83  F   UNL     1      -4.545   7.941  -3.769  1.00  0.00    -0.203 F 
ATOM     84  F   UNL     1      -6.200  11.560  -7.500  1.00  0.00    -0.200 F 
ATOM     85  C   UNL     1      -5.252   9.461  -6.979  1.00  0.00     0.200 A 
ATOM     86  F   UNL     1      -4.317   7.370  -6.404  1.00  0.00    -0.200 F 
ATOM     87  F   UNL     1      -5.167   9.159  -8.282  1.00  0.00    -0.200 F 
ENDBRANCH  53  77
BRANCH  65  88
ATOM     88  C   UNL     1     -10.824  11.382   0.014  1.00  0.00     0.064 A 
ATOM     89  C   UNL     1     -11.584  10.239  -0.277  1.00  0.00     0.173 A 
ATOM     90  C   UNL     1     -11.503  12.606   0.127  1.00  0.00     0.173 A 
ATOM     91  F   UNL     1     -10.986   9.045  -0.410  1.00  0.00    -0.203 F 
ATOM     92  C   UNL     1     -12.959  10.325  -0.480  1.00  0.00     0.198 A 
ATOM     93  C   UNL     1     -12.883  12.681  -0.034  1.00  0.00     0.198 A 
ATOM     94  F   UNL     1     -10.828  13.730   0.412  1.00  0.00    -0.203 F 
ATOM     95  F   UNL     1     -13.654   9.229  -0.818  1.00  0.00    -0.200 F 
ATOM     96  C   UNL     1     -13.608  11.543  -0.349  1.00  0.00     0.200 A 
ATOM     97  F   UNL     1     -13.510  13.856   0.115  1.00  0.00    -0.200 F 
ATOM     98  F   UNL     1     -14.933  11.621  -0.533  1.00  0.00    -0.200 F 
ENDBRANCH  65  88
ENDBRANCH  39  40
ENDBRANCH  31  34
ENDBRANCH  29  30
ENDBRANCH  28  29
ENDBRANCH  27  28
ENDBRANCH  26  27
ENDBRANCH   1  26
TORSDOF 17
