REMARK SMILES Cc1cc(=O)c(Oc2ccc(C(=O)NCCCCCCNC(=O)c3ccc(-c4c5nc(c(-c6c(F)c(F)c(F)c(F)c6F)c6ccc([nH]6)c(-c6c(F)c(F)c(F)c(F)c6F)c6nc(c(-c7c(F)c(F)c(F)c(F)c7F)c7ccc4[nH]7)C=C6)C=C5)cc3)cc2)c(-c2ccc(S(C)(=O)=O)cc2)o1
REMARK SMILES IDX 16 1 15 2 14 3 12 4 13 5 11 7 8 8 9 9 88 10 10 11 87 12 7 13
REMARK SMILES IDX 6 14 1 15 2 16 3 17 100 18 4 19 89 20 5 21 90 22 91 23 99 24
REMARK SMILES IDX 92 25 98 26 93 27 94 28 95 29 96 30 97 31 17 32 18 33 19 34
REMARK SMILES IDX 20 35 21 36 22 37 23 39 24 40 25 41 86 42 26 43 85 44 27 45
REMARK SMILES IDX 28 46 29 47 79 48 30 49 84 50 78 51 80 52 31 53 83 54 77 55
REMARK SMILES IDX 76 56 32 58 64 59 44 60 63 61 45 62 48 63 62 64 81 65 46 66
REMARK SMILES IDX 47 67 61 69 82 70 49 71 33 72 34 73 42 74 35 75 36 76 40 77
REMARK SMILES IDX 43 78 37 79 38 80 41 81 39 82 65 83 66 84 74 85 67 86 68 87
REMARK SMILES IDX 72 88 75 89 69 90 70 91 73 92 71 93 50 94 51 95 59 96 52 97
REMARK SMILES IDX 53 98 57 99 60 100 54 101 55 102 58 103 56 104
REMARK H PARENT 14 6 21 38 80 57 48 68
REMARK Flexibility Score: inf
ROOT
ATOM      1  C   UNL     1      -1.590  10.711  -0.309  1.00  0.00     0.021 C 
ENDROOT
BRANCH   1   2
ATOM      2  C   UNL     1      -1.080  10.173  -1.642  1.00  0.00     0.116 C 
BRANCH   2   3
ATOM      3  N   UNL     1       0.328  10.380  -1.913  1.00  0.00    -0.352 N 
ATOM      4  C   UNL     1       1.208   9.666  -2.697  1.00  0.00     0.251 C 
ATOM      5  O   UNL     1       2.340  10.111  -2.879  1.00  0.00    -0.269 OA
ATOM      6  H   UNL     1       0.722  11.160  -1.460  1.00  0.00     0.163 HD
BRANCH   4   7
ATOM      7  C   UNL     1       0.867   8.319  -3.233  1.00  0.00     0.040 A 
ATOM      8  C   UNL     1       0.249   5.629  -3.590  1.00  0.00     0.127 A 
ATOM      9  C   UNL     1       1.581   6.008  -3.476  1.00  0.00     0.048 A 
ATOM     10  C   UNL     1      -0.735   6.599  -3.773  1.00  0.00     0.048 A 
ATOM     11  C   UNL     1       1.887   7.354  -3.255  1.00  0.00     0.017 A 
ATOM     12  C   UNL     1      -0.417   7.949  -3.632  1.00  0.00     0.017 A 
BRANCH   8  13
ATOM     13  O   UNL     1      -0.167   4.331  -3.599  1.00  0.00    -0.449 OA
BRANCH  13  14
ATOM     14  C   UNL     1       0.118   3.413  -2.595  1.00  0.00     0.217 A 
ATOM     15  C   UNL     1       1.045   0.142   0.073  1.00  0.00     0.088 C 
ATOM     16  C   UNL     1       0.627   1.196  -0.902  1.00  0.00     0.105 A 
ATOM     17  C   UNL     1       0.018   0.920  -2.056  1.00  0.00     0.098 A 
ATOM     18  O   UNL     1       0.920   2.483  -0.508  1.00  0.00    -0.457 OA
ATOM     19  C   UNL     1      -0.319   2.026  -2.961  1.00  0.00     0.228 A 
ATOM     20  C   UNL     1       0.663   3.558  -1.356  1.00  0.00     0.180 A 
ATOM     21  O   UNL     1      -0.942   1.785  -3.992  1.00  0.00    -0.285 OA
BRANCH  20  22
ATOM     22  C   UNL     1       1.107   4.808  -0.707  1.00  0.00     0.021 A 
ATOM     23  C   UNL     1       2.480   5.007  -0.473  1.00  0.00     0.013 A 
ATOM     24  C   UNL     1       0.198   5.799  -0.308  1.00  0.00     0.013 A 
ATOM     25  C   UNL     1       2.946   6.209   0.068  1.00  0.00     0.021 A 
ATOM     26  C   UNL     1       0.658   7.001   0.244  1.00  0.00     0.021 A 
ATOM     27  C   UNL     1       2.030   7.205   0.415  1.00  0.00     0.067 A 
BRANCH  27  28
ATOM     28  S   UNL     1       2.643   8.776   0.982  1.00  0.00     0.175 S 
ATOM     29  C   UNL     1       3.128   8.461   2.655  1.00  0.00     0.163 C 
ATOM     30  O   UNL     1       3.841   9.070   0.223  1.00  0.00    -0.224 OA
ATOM     31  O   UNL     1       1.526   9.704   1.022  1.00  0.00    -0.224 OA
ENDBRANCH  27  28
ENDBRANCH  20  22
ENDBRANCH  13  14
ENDBRANCH   8  13
ENDBRANCH   4   7
ENDBRANCH   2   3
ENDBRANCH   1   2
BRANCH   1  32
ATOM     32  C   UNL     1      -1.340  12.187   0.001  1.00  0.00     0.002 C 
BRANCH  32  33
ATOM     33  C   UNL     1      -1.746  13.198  -1.072  1.00  0.00     0.002 C 
BRANCH  33  34
ATOM     34  C   UNL     1      -3.174  13.091  -1.603  1.00  0.00     0.021 C 
BRANCH  34  35
ATOM     35  C   UNL     1      -4.277  13.107  -0.553  1.00  0.00     0.116 C 
BRANCH  35  36
ATOM     36  N   UNL     1      -4.376  14.367   0.168  1.00  0.00    -0.352 N 
ATOM     37  C   UNL     1      -5.466  15.189   0.347  1.00  0.00     0.251 C 
ATOM     38  H   UNL     1      -3.542  14.676   0.589  1.00  0.00     0.163 HD
ATOM     39  O   UNL     1      -5.341  16.278   0.898  1.00  0.00    -0.269 OA
BRANCH  37  40
ATOM     40  C   UNL     1      -6.788  14.776  -0.173  1.00  0.00     0.039 A 
ATOM     41  C   UNL     1      -7.263  13.480   0.030  1.00  0.00     0.014 A 
ATOM     42  C   UNL     1      -7.538  15.688  -0.921  1.00  0.00     0.014 A 
ATOM     43  C   UNL     1      -8.376  13.037  -0.678  1.00  0.00     0.010 A 
ATOM     44  C   UNL     1      -8.712  15.267  -1.554  1.00  0.00     0.010 A 
ATOM     45  C   UNL     1      -9.106  13.921  -1.490  1.00  0.00    -0.014 A 
BRANCH  45  46
ATOM     46  C   UNL     1     -10.254  13.414  -2.288  1.00  0.00     0.031 A 
ATOM     47  C   UNL     1     -10.217  13.448  -3.794  1.00  0.00     0.074 A 
ATOM     48  C   UNL     1     -11.312  12.869  -1.657  1.00  0.00     0.049 A 
ATOM     49  N   UNL     1     -11.128  13.062  -4.653  1.00  0.00    -0.248 NA
ATOM     50  C   UNL     1      -9.001  13.990  -4.419  1.00  0.00     0.031 C 
ATOM     51  C   UNL     1     -11.455  12.750  -0.206  1.00  0.00     0.029 A 
ATOM     52  N   UNL     1     -12.455  12.295  -2.153  1.00  0.00    -0.354 N 
ATOM     53  C   UNL     1     -10.602  13.327  -5.912  1.00  0.00     0.074 A 
ATOM     54  C   UNL     1      -9.310  13.944  -5.707  1.00  0.00     0.031 C 
ATOM     55  C   UNL     1     -12.593  12.098   0.071  1.00  0.00     0.029 A 
ATOM     56  C   UNL     1     -13.295  11.817  -1.177  1.00  0.00     0.049 A 
ATOM     57  H   UNL     1     -12.655  12.232  -3.115  1.00  0.00     0.167 HD
ATOM     58  C   UNL     1     -11.141  13.064  -7.128  1.00  0.00     0.037 A 
ATOM     59  C   UNL     1     -14.505  11.235  -1.272  1.00  0.00     0.037 A 
ATOM     60  C   UNL     1     -12.422  12.435  -7.329  1.00  0.00     0.049 A 
ATOM     61  C   UNL     1     -15.114  11.023  -2.630  1.00  0.00     0.074 A 
ATOM     62  C   UNL     1     -13.047  12.116  -8.522  1.00  0.00     0.029 A 
ATOM     63  N   UNL     1     -13.274  12.030  -6.311  1.00  0.00    -0.354 N 
ATOM     64  N   UNL     1     -14.607  11.277  -3.811  1.00  0.00    -0.248 NA
ATOM     65  C   UNL     1     -16.466  10.452  -2.665  1.00  0.00     0.031 C 
ATOM     66  C   UNL     1     -14.300  11.568  -8.228  1.00  0.00     0.029 A 
ATOM     67  C   UNL     1     -14.432  11.490  -6.851  1.00  0.00     0.049 A 
ATOM     68  H   UNL     1     -13.085  12.115  -5.349  1.00  0.00     0.167 HD
ATOM     69  C   UNL     1     -15.570  10.886  -4.731  1.00  0.00     0.074 A 
ATOM     70  C   UNL     1     -16.681  10.353  -3.970  1.00  0.00     0.031 C 
ATOM     71  C   UNL     1     -15.535  10.966  -6.084  1.00  0.00     0.037 A 
BRANCH  58  72
ATOM     72  C   UNL     1     -10.353  13.463  -8.345  1.00  0.00     0.064 A 
ATOM     73  C   UNL     1      -9.175  12.795  -8.711  1.00  0.00     0.173 A 
ATOM     74  C   UNL     1     -10.813  14.486  -9.188  1.00  0.00     0.173 A 
ATOM     75  F   UNL     1      -8.684  11.816  -7.936  1.00  0.00    -0.203 F 
ATOM     76  C   UNL     1      -8.475  13.153  -9.861  1.00  0.00     0.198 A 
ATOM     77  C   UNL     1     -10.129  14.820 -10.354  1.00  0.00     0.198 A 
ATOM     78  F   UNL     1     -11.939  15.153  -8.891  1.00  0.00    -0.203 F 
ATOM     79  F   UNL     1      -7.328  12.530 -10.167  1.00  0.00    -0.200 F 
ATOM     80  C   UNL     1      -8.957  14.158 -10.686  1.00  0.00     0.200 A 
ATOM     81  F   UNL     1     -10.606  15.780 -11.159  1.00  0.00    -0.200 F 
ATOM     82  F   UNL     1      -8.290  14.491 -11.800  1.00  0.00    -0.200 F 
ENDBRANCH  58  72
BRANCH  59  83
ATOM     83  C   UNL     1     -15.208  10.808  -0.035  1.00  0.00     0.064 A 
ATOM     84  C   UNL     1     -15.384   9.449   0.257  1.00  0.00     0.173 A 
ATOM     85  C   UNL     1     -15.678  11.744   0.899  1.00  0.00     0.173 A 
ATOM     86  F   UNL     1     -14.971   8.518  -0.615  1.00  0.00    -0.203 F 
ATOM     87  C   UNL     1     -16.003   9.042   1.437  1.00  0.00     0.198 A 
ATOM     88  C   UNL     1     -16.269  11.335   2.092  1.00  0.00     0.198 A 
ATOM     89  F   UNL     1     -15.532  13.056   0.667  1.00  0.00    -0.203 F 
ATOM     90  F   UNL     1     -16.183   7.737   1.681  1.00  0.00    -0.200 F 
ATOM     91  C   UNL     1     -16.434   9.985   2.359  1.00  0.00     0.200 A 
ATOM     92  F   UNL     1     -16.665  12.249   2.988  1.00  0.00    -0.200 F 
ATOM     93  F   UNL     1     -17.008   9.592   3.504  1.00  0.00    -0.200 F 
ENDBRANCH  59  83
BRANCH  71  94
ATOM     94  C   UNL     1     -16.730  10.458  -6.839  1.00  0.00     0.064 A 
ATOM     95  C   UNL     1     -17.953  11.146  -6.827  1.00  0.00     0.173 A 
ATOM     96  C   UNL     1     -16.636   9.303  -7.631  1.00  0.00     0.173 A 
ATOM     97  F   UNL     1     -18.100  12.247  -6.075  1.00  0.00    -0.203 F 
ATOM     98  C   UNL     1     -19.041  10.686  -7.564  1.00  0.00     0.198 A 
ATOM     99  C   UNL     1     -17.716   8.865  -8.392  1.00  0.00     0.198 A 
ATOM    100  F   UNL     1     -15.488   8.611  -7.683  1.00  0.00    -0.203 F 
ATOM    101  F   UNL     1     -20.211  11.336  -7.503  1.00  0.00    -0.200 F 
ATOM    102  C   UNL     1     -18.919   9.553  -8.353  1.00  0.00     0.200 A 
ATOM    103  F   UNL     1     -17.590   7.779  -9.167  1.00  0.00    -0.200 F 
ATOM    104  F   UNL     1     -19.963   9.120  -9.073  1.00  0.00    -0.200 F 
ENDBRANCH  71  94
ENDBRANCH  45  46
ENDBRANCH  37  40
ENDBRANCH  35  36
ENDBRANCH  34  35
ENDBRANCH  33  34
ENDBRANCH  32  33
ENDBRANCH   1  32
TORSDOF 17
