REMARK SMILES CC[C@@H](Oc1ccccc1/C=C1/SC(=O)N(c2ccc(C)c(C)c2)C1=O)C(=O)NCCCCCCNC(=O)c1ccc(-c2c3nc(c(-c4c(F)c(F)c(F)c(F)c4F)c4ccc([nH]4)c(-c4c(F)c(F)c(F)c(F)c4F)c4nc(c(-c5c(F)c(F)c(F)c(F)c5F)c5ccc2[nH]5)C=C4)C=C3)cc1
REMARK SMILES IDX 31 1 30 2 29 3 27 4 28 5 3 7 2 8 1 9 4 10 5 11 6 12 10 13
REMARK SMILES IDX 7 14 9 15 8 16 11 17 12 18 13 19 25 20 14 21 16 22 26 23
REMARK SMILES IDX 15 24 17 25 18 26 24 27 19 28 22 29 20 30 23 31 21 32 32 33
REMARK SMILES IDX 33 34 34 35 35 36 36 37 37 38 38 40 39 41 40 42 101 43 41 44
REMARK SMILES IDX 100 45 42 46 43 47 44 48 94 49 45 50 99 51 93 52 95 53 46 54
REMARK SMILES IDX 98 55 92 56 91 57 47 59 79 60 59 61 78 62 60 63 63 64 77 65
REMARK SMILES IDX 96 66 61 67 62 68 76 70 97 71 64 72 48 73 49 74 57 75 50 76
REMARK SMILES IDX 51 77 55 78 58 79 52 80 53 81 56 82 54 83 80 84 81 85 89 86
REMARK SMILES IDX 82 87 83 88 87 89 90 90 84 91 85 92 88 93 86 94 65 95 66 96
REMARK SMILES IDX 74 97 67 98 68 99 72 100 75 101 69 102 70 103 73 104 71 105
REMARK H PARENT 29 6 36 39 95 58 63 69
REMARK Flexibility Score: inf
ROOT
ATOM      1  C   UNL     1      -2.269   3.650  -0.278  1.00  0.00     0.021 C 
ENDROOT
BRANCH   1   2
ATOM      2  C   UNL     1      -1.616   3.220  -1.595  1.00  0.00     0.116 C 
BRANCH   2   3
ATOM      3  N   UNL     1      -0.324   3.831  -1.842  1.00  0.00    -0.353 N 
ATOM      4  C   UNL     1       0.915   3.261  -1.967  1.00  0.00     0.261 C 
ATOM      5  O   UNL     1       1.823   3.980  -2.397  1.00  0.00    -0.271 OA
ATOM      6  H   UNL     1      -0.341   4.811  -1.936  1.00  0.00     0.163 HD
BRANCH   4   7
ATOM      7  C   UNL     1       1.227   1.825  -1.475  1.00  0.00     0.261 C 
BRANCH   7   8
ATOM      8  C   UNL     1       1.211   1.851   0.065  1.00  0.00     0.052 C 
ATOM      9  C   UNL     1       2.332   1.020   0.680  1.00  0.00     0.008 C 
ENDBRANCH   7   8
BRANCH   7  10
ATOM     10  O   UNL     1       0.291   0.867  -1.984  1.00  0.00    -0.480 OA
BRANCH  10  11
ATOM     11  C   UNL     1       0.816  -0.383  -2.213  1.00  0.00     0.127 A 
ATOM     12  C   UNL     1       1.441  -0.642  -3.433  1.00  0.00     0.047 A 
ATOM     13  C   UNL     1       0.551  -1.440  -1.319  1.00  0.00     0.018 A 
ATOM     14  C   UNL     1       1.844  -1.944  -3.743  1.00  0.00     0.004 A 
ATOM     15  C   UNL     1       0.994  -2.732  -1.621  1.00  0.00     0.012 A 
ATOM     16  C   UNL     1       1.635  -2.983  -2.834  1.00  0.00     0.001 A 
BRANCH  13  17
ATOM     17  C   UNL     1      -0.254  -1.237  -0.111  1.00  0.00     0.033 C 
ATOM     18  C   UNL     1      -1.560  -0.943  -0.159  1.00  0.00     0.084 C 
ATOM     19  S   UNL     1      -2.473  -0.428   1.208  1.00  0.00    -0.022 SA
ATOM     20  C   UNL     1      -2.411  -0.911  -1.384  1.00  0.00     0.272 C 
ATOM     21  C   UNL     1      -3.832   0.075   0.208  1.00  0.00     0.298 C 
ATOM     22  N   UNL     1      -3.582  -0.243  -1.104  1.00  0.00    -0.236 N 
ATOM     23  O   UNL     1      -2.127  -1.456  -2.441  1.00  0.00    -0.268 OA
ATOM     24  O   UNL     1      -4.808   0.632   0.686  1.00  0.00    -0.260 OA
BRANCH  22  25
ATOM     25  C   UNL     1      -4.548  -0.061  -2.108  1.00  0.00     0.053 A 
ATOM     26  C   UNL     1      -5.476  -1.063  -2.363  1.00  0.00     0.027 A 
ATOM     27  C   UNL     1      -4.546   1.102  -2.881  1.00  0.00     0.030 A 
ATOM     28  C   UNL     1      -6.426  -0.879  -3.365  1.00  0.00     0.006 A 
ATOM     29  C   UNL     1      -5.524   1.321  -3.863  1.00  0.00    -0.046 A 
ATOM     30  C   UNL     1      -6.481   0.318  -4.101  1.00  0.00    -0.048 A 
ATOM     31  C   UNL     1      -5.539   2.631  -4.605  1.00  0.00     0.044 C 
ATOM     32  C   UNL     1      -7.521   0.449  -5.178  1.00  0.00     0.044 C 
ENDBRANCH  22  25
ENDBRANCH  13  17
ENDBRANCH  10  11
ENDBRANCH   7  10
ENDBRANCH   4   7
ENDBRANCH   2   3
ENDBRANCH   1   2
BRANCH   1  33
ATOM     33  C   UNL     1      -3.150   4.910  -0.339  1.00  0.00     0.002 C 
BRANCH  33  34
ATOM     34  C   UNL     1      -4.394   4.859  -1.246  1.00  0.00     0.002 C 
BRANCH  34  35
ATOM     35  C   UNL     1      -5.393   3.734  -0.961  1.00  0.00     0.021 C 
BRANCH  35  36
ATOM     36  C   UNL     1      -6.249   3.886   0.291  1.00  0.00     0.116 C 
BRANCH  36  37
ATOM     37  N   UNL     1      -7.381   4.775   0.075  1.00  0.00    -0.352 N 
ATOM     38  C   UNL     1      -8.709   4.542  -0.190  1.00  0.00     0.251 C 
ATOM     39  H   UNL     1      -7.151   5.731   0.131  1.00  0.00     0.163 HD
ATOM     40  O   UNL     1      -9.400   5.500  -0.542  1.00  0.00    -0.269 OA
BRANCH  38  41
ATOM     41  C   UNL     1      -9.357   3.204  -0.079  1.00  0.00     0.039 A 
ATOM     42  C   UNL     1     -10.479   2.949  -0.884  1.00  0.00     0.014 A 
ATOM     43  C   UNL     1      -8.986   2.244   0.863  1.00  0.00     0.014 A 
ATOM     44  C   UNL     1     -11.196   1.750  -0.763  1.00  0.00     0.010 A 
ATOM     45  C   UNL     1      -9.645   1.009   0.921  1.00  0.00     0.010 A 
ATOM     46  C   UNL     1     -10.775   0.755   0.131  1.00  0.00    -0.014 A 
BRANCH  46  47
ATOM     47  C   UNL     1     -11.530  -0.522   0.289  1.00  0.00     0.031 A 
ATOM     48  C   UNL     1     -12.165  -0.876   1.611  1.00  0.00     0.074 A 
ATOM     49  C   UNL     1     -11.618  -1.391  -0.737  1.00  0.00     0.049 A 
ATOM     50  N   UNL     1     -12.798  -1.968   1.967  1.00  0.00    -0.248 NA
ATOM     51  C   UNL     1     -12.048   0.121   2.686  1.00  0.00     0.031 C 
ATOM     52  C   UNL     1     -11.032  -1.196  -2.062  1.00  0.00     0.029 A 
ATOM     53  N   UNL     1     -12.231  -2.619  -0.822  1.00  0.00    -0.354 N 
ATOM     54  C   UNL     1     -13.126  -1.799   3.308  1.00  0.00     0.074 A 
ATOM     55  C   UNL     1     -12.580  -0.522   3.714  1.00  0.00     0.031 C 
ATOM     56  C   UNL     1     -11.336  -2.250  -2.837  1.00  0.00     0.029 A 
ATOM     57  C   UNL     1     -12.101  -3.216  -2.051  1.00  0.00     0.049 A 
ATOM     58  H   UNL     1     -12.717  -3.031  -0.071  1.00  0.00     0.167 HD
ATOM     59  C   UNL     1     -13.834  -2.620   4.122  1.00  0.00     0.037 A 
ATOM     60  C   UNL     1     -12.540  -4.410  -2.497  1.00  0.00     0.037 A 
ATOM     61  C   UNL     1     -14.410  -3.875   3.713  1.00  0.00     0.049 A 
ATOM     62  C   UNL     1     -13.319  -5.309  -1.574  1.00  0.00     0.074 A 
ATOM     63  C   UNL     1     -15.199  -4.744   4.447  1.00  0.00     0.029 A 
ATOM     64  N   UNL     1     -14.259  -4.441   2.456  1.00  0.00    -0.354 N 
ATOM     65  N   UNL     1     -13.668  -5.113  -0.326  1.00  0.00    -0.248 NA
ATOM     66  C   UNL     1     -13.767  -6.596  -2.125  1.00  0.00     0.031 C 
ATOM     67  C   UNL     1     -15.485  -5.858   3.650  1.00  0.00     0.029 A 
ATOM     68  C   UNL     1     -14.919  -5.659   2.402  1.00  0.00     0.049 A 
ATOM     69  H   UNL     1     -13.757  -4.037   1.711  1.00  0.00     0.167 HD
ATOM     70  C   UNL     1     -14.399  -6.233   0.048  1.00  0.00     0.074 A 
ATOM     71  C   UNL     1     -14.453  -7.101  -1.109  1.00  0.00     0.031 C 
ATOM     72  C   UNL     1     -14.973  -6.514   1.243  1.00  0.00     0.037 A 
BRANCH  59  73
ATOM     73  C   UNL     1     -14.019  -2.187   5.551  1.00  0.00     0.064 A 
ATOM     74  C   UNL     1     -14.826  -1.090   5.892  1.00  0.00     0.173 A 
ATOM     75  C   UNL     1     -13.399  -2.892   6.594  1.00  0.00     0.173 A 
ATOM     76  F   UNL     1     -15.437  -0.378   4.934  1.00  0.00    -0.203 F 
ATOM     77  C   UNL     1     -14.969  -0.689   7.219  1.00  0.00     0.198 A 
ATOM     78  C   UNL     1     -13.572  -2.509   7.922  1.00  0.00     0.198 A 
ATOM     79  F   UNL     1     -12.627  -3.956   6.327  1.00  0.00    -0.203 F 
ATOM     80  F   UNL     1     -15.694   0.398   7.513  1.00  0.00    -0.200 F 
ATOM     81  C   UNL     1     -14.346  -1.401   8.232  1.00  0.00     0.200 A 
ATOM     82  F   UNL     1     -12.982  -3.208   8.902  1.00  0.00    -0.200 F 
ATOM     83  F   UNL     1     -14.486  -1.015   9.508  1.00  0.00    -0.200 F 
ENDBRANCH  59  73
BRANCH  60  84
ATOM     84  C   UNL     1     -12.276  -4.813  -3.903  1.00  0.00     0.064 A 
ATOM     85  C   UNL     1     -13.318  -4.874  -4.839  1.00  0.00     0.173 A 
ATOM     86  C   UNL     1     -10.984  -5.135  -4.343  1.00  0.00     0.173 A 
ATOM     87  F   UNL     1     -14.575  -4.598  -4.459  1.00  0.00    -0.203 F 
ATOM     88  C   UNL     1     -13.080  -5.251  -6.158  1.00  0.00     0.198 A 
ATOM     89  C   UNL     1     -10.742  -5.485  -5.669  1.00  0.00     0.198 A 
ATOM     90  F   UNL     1      -9.952  -5.089  -3.487  1.00  0.00    -0.203 F 
ATOM     91  F   UNL     1     -14.100  -5.336  -7.023  1.00  0.00    -0.200 F 
ATOM     92  C   UNL     1     -11.791  -5.549  -6.575  1.00  0.00     0.200 A 
ATOM     93  F   UNL     1      -9.494  -5.758  -6.071  1.00  0.00    -0.200 F 
ATOM     94  F   UNL     1     -11.561  -5.902  -7.846  1.00  0.00    -0.200 F 
ENDBRANCH  60  84
BRANCH  72  95
ATOM     95  C   UNL     1     -15.744  -7.799   1.355  1.00  0.00     0.064 A 
ATOM     96  C   UNL     1     -15.101  -9.045   1.388  1.00  0.00     0.173 A 
ATOM     97  C   UNL     1     -17.143  -7.779   1.472  1.00  0.00     0.173 A 
ATOM     98  F   UNL     1     -13.768  -9.120   1.265  1.00  0.00    -0.203 F 
ATOM     99  C   UNL     1     -15.832 -10.225   1.509  1.00  0.00     0.198 A 
ATOM    100  C   UNL     1     -17.867  -8.958   1.623  1.00  0.00     0.198 A 
ATOM    101  F   UNL     1     -17.807  -6.613   1.452  1.00  0.00    -0.203 F 
ATOM    102  F   UNL     1     -15.200 -11.406   1.492  1.00  0.00    -0.200 F 
ATOM    103  C   UNL     1     -17.213 -10.180   1.634  1.00  0.00     0.200 A 
ATOM    104  F   UNL     1     -19.200  -8.911   1.756  1.00  0.00    -0.200 F 
ATOM    105  F   UNL     1     -17.913 -11.316   1.758  1.00  0.00    -0.200 F 
ENDBRANCH  72  95
ENDBRANCH  46  47
ENDBRANCH  38  41
ENDBRANCH  36  37
ENDBRANCH  35  36
ENDBRANCH  34  35
ENDBRANCH  33  34
ENDBRANCH   1  33
TORSDOF 18
