REMARK SMILES O=C(NCCCCCCNC(=O)c1ccccc1C(=O)OC[C@@H]1C[C@H]2CC[C@@H]1C2)c1ccc(-c2c3nc(c(-c4c(F)c(F)c(F)c(F)c4F)c4ccc([nH]4)c(-c4c(F)c(F)c(F)c(F)c4F)c4nc(c(-c5c(F)c(F)c(F)c(F)c5F)c5ccc2[nH]5)C=C4)C=C3)cc1
REMARK SMILES IDX 7 1 6 2 5 3 4 4 3 5 1 6 2 7 30 9 31 10 92 11 32 12 91 13
REMARK SMILES IDX 33 14 34 15 35 16 85 17 36 18 90 19 84 20 86 21 37 22 89 23
REMARK SMILES IDX 83 24 82 25 38 27 70 28 50 29 69 30 51 31 54 32 68 33 87 34
REMARK SMILES IDX 52 35 53 36 67 38 88 39 55 40 39 41 40 42 48 43 41 44 42 45
REMARK SMILES IDX 46 46 49 47 43 48 44 49 47 50 45 51 71 52 72 53 80 54 73 55
REMARK SMILES IDX 74 56 78 57 81 58 75 59 76 60 79 61 77 62 56 63 57 64 65 65
REMARK SMILES IDX 58 66 59 67 63 68 66 69 60 70 61 71 64 72 62 73 8 74 9 75
REMARK SMILES IDX 10 76 11 77 12 79 13 80 14 81 18 82 15 83 17 84 16 85 19 86
REMARK SMILES IDX 20 87 21 88 22 89 23 90 24 91 28 92 25 93 27 94 29 95 26 96
REMARK H PARENT 3 8 86 26 54 37 10 78
REMARK Flexibility Score: inf
ROOT
ATOM      1  C   UNL     1       4.663   4.051   1.706  1.00  0.00     0.002 C 
ENDROOT
BRANCH   1   2
ATOM      2  C   UNL     1       4.272   3.909   0.232  1.00  0.00     0.002 C 
BRANCH   2   3
ATOM      3  C   UNL     1       4.759   2.647  -0.471  1.00  0.00     0.021 C 
BRANCH   3   4
ATOM      4  C   UNL     1       4.409   1.349   0.237  1.00  0.00     0.116 C 
BRANCH   4   5
ATOM      5  N   UNL     1       2.977   1.127   0.347  1.00  0.00    -0.352 N 
ATOM      6  O   UNL     1       1.039  -0.012   0.094  1.00  0.00    -0.269 OA
ATOM      7  C   UNL     1       2.264  -0.015   0.070  1.00  0.00     0.251 C 
ATOM      8  H   UNL     1       2.447   1.895   0.661  1.00  0.00     0.163 HD
BRANCH   7   9
ATOM      9  C   UNL     1       2.996  -1.250  -0.285  1.00  0.00     0.039 A 
ATOM     10  C   UNL     1       4.116  -1.639   0.453  1.00  0.00     0.014 A 
ATOM     11  C   UNL     1       2.571  -2.011  -1.376  1.00  0.00     0.014 A 
ATOM     12  C   UNL     1       4.894  -2.700   0.015  1.00  0.00     0.010 A 
ATOM     13  C   UNL     1       3.296  -3.146  -1.751  1.00  0.00     0.010 A 
ATOM     14  C   UNL     1       4.473  -3.489  -1.068  1.00  0.00    -0.014 A 
BRANCH  14  15
ATOM     15  C   UNL     1       5.224  -4.729  -1.383  1.00  0.00     0.031 A 
ATOM     16  C   UNL     1       5.922  -4.915  -2.698  1.00  0.00     0.074 A 
ATOM     17  C   UNL     1       5.277  -5.689  -0.437  1.00  0.00     0.049 A 
ATOM     18  N   UNL     1       6.615  -5.943  -3.120  1.00  0.00    -0.248 NA
ATOM     19  C   UNL     1       5.831  -3.815  -3.670  1.00  0.00     0.031 C 
ATOM     20  C   UNL     1       4.622  -5.615   0.872  1.00  0.00     0.029 A 
ATOM     21  N   UNL     1       5.915  -6.901  -0.417  1.00  0.00    -0.354 N 
ATOM     22  C   UNL     1       7.026  -5.625  -4.408  1.00  0.00     0.074 A 
ATOM     23  C   UNL     1       6.489  -4.315  -4.709  1.00  0.00     0.031 C 
ATOM     24  C   UNL     1       4.927  -6.709   1.582  1.00  0.00     0.029 A 
ATOM     25  C   UNL     1       5.728  -7.598   0.752  1.00  0.00     0.049 A 
ATOM     26  H   UNL     1       6.456  -7.240  -1.167  1.00  0.00     0.167 HD
ATOM     27  C   UNL     1       7.786  -6.363  -5.252  1.00  0.00     0.037 A 
ATOM     28  C   UNL     1       6.127  -8.832   1.106  1.00  0.00     0.037 A 
ATOM     29  C   UNL     1       8.324  -7.662  -4.932  1.00  0.00     0.049 A 
ATOM     30  C   UNL     1       6.932  -9.637   0.127  1.00  0.00     0.074 A 
ATOM     31  C   UNL     1       9.144  -8.469  -5.704  1.00  0.00     0.029 A 
ATOM     32  N   UNL     1       8.089  -8.350  -3.750  1.00  0.00    -0.354 N 
ATOM     33  N   UNL     1       7.358  -9.303  -1.067  1.00  0.00    -0.248 NA
ATOM     34  C   UNL     1       7.312 -10.992   0.544  1.00  0.00     0.031 C 
ATOM     35  C   UNL     1       9.350  -9.669  -5.018  1.00  0.00     0.029 A 
ATOM     36  C   UNL     1       8.719  -9.585  -3.788  1.00  0.00     0.049 A 
ATOM     37  H   UNL     1       7.554  -8.011  -2.996  1.00  0.00     0.167 HD
ATOM     38  C   UNL     1       8.073 -10.395  -1.534  1.00  0.00     0.074 A 
ATOM     39  C   UNL     1       8.048 -11.390  -0.483  1.00  0.00     0.031 C 
ATOM     40  C   UNL     1       8.689 -10.562  -2.729  1.00  0.00     0.037 A 
BRANCH  27  41
ATOM     41  C   UNL     1       8.075  -5.809  -6.619  1.00  0.00     0.064 A 
ATOM     42  C   UNL     1       8.956  -4.735  -6.811  1.00  0.00     0.173 A 
ATOM     43  C   UNL     1       7.535  -6.425  -7.759  1.00  0.00     0.173 A 
ATOM     44  F   UNL     1       9.495  -4.106  -5.756  1.00  0.00    -0.203 F 
ATOM     45  C   UNL     1       9.278  -4.293  -8.093  1.00  0.00     0.198 A 
ATOM     46  C   UNL     1       7.881  -5.999  -9.039  1.00  0.00     0.198 A 
ATOM     47  F   UNL     1       6.693  -7.462  -7.633  1.00  0.00    -0.203 F 
ATOM     48  F   UNL     1      10.102  -3.248  -8.252  1.00  0.00    -0.200 F 
ATOM     49  C   UNL     1       8.750  -4.932  -9.205  1.00  0.00     0.200 A 
ATOM     50  F   UNL     1       7.384  -6.630 -10.112  1.00  0.00    -0.200 F 
ATOM     51  F   UNL     1       9.079  -4.520 -10.437  1.00  0.00    -0.200 F 
ENDBRANCH  27  41
BRANCH  28  52
ATOM     52  C   UNL     1       5.740  -9.392   2.428  1.00  0.00     0.064 A 
ATOM     53  C   UNL     1       6.705  -9.696   3.397  1.00  0.00     0.173 A 
ATOM     54  C   UNL     1       4.398  -9.658   2.740  1.00  0.00     0.173 A 
ATOM     55  F   UNL     1       8.004  -9.474   3.142  1.00  0.00    -0.203 F 
ATOM     56  C   UNL     1       6.347 -10.278   4.611  1.00  0.00     0.198 A 
ATOM     57  C   UNL     1       4.037 -10.201   3.970  1.00  0.00     0.198 A 
ATOM     58  F   UNL     1       3.432  -9.378   1.852  1.00  0.00    -0.203 F 
ATOM     59  F   UNL     1       7.297 -10.620   5.492  1.00  0.00    -0.200 F 
ATOM     60  C   UNL     1       5.013 -10.525   4.899  1.00  0.00     0.200 A 
ATOM     61  F   UNL     1       2.745 -10.417   4.251  1.00  0.00    -0.200 F 
ATOM     62  F   UNL     1       4.670 -11.086   6.066  1.00  0.00    -0.200 F 
ENDBRANCH  28  52
BRANCH  40  63
ATOM     63  C   UNL     1       9.421 -11.856  -2.944  1.00  0.00     0.064 A 
ATOM     64  C   UNL     1       8.740 -13.074  -3.089  1.00  0.00     0.173 A 
ATOM     65  C   UNL     1      10.822 -11.874  -3.023  1.00  0.00     0.173 A 
ATOM     66  F   UNL     1       7.401 -13.114  -3.003  1.00  0.00    -0.203 F 
ATOM     67  C   UNL     1       9.436 -14.266  -3.272  1.00  0.00     0.198 A 
ATOM     68  C   UNL     1      11.512 -13.061  -3.244  1.00  0.00     0.198 A 
ATOM     69  F   UNL     1      11.521 -10.736  -2.896  1.00  0.00    -0.203 F 
ATOM     70  F   UNL     1       8.768 -15.425  -3.345  1.00  0.00    -0.200 F 
ATOM     71  C   UNL     1      10.820 -14.257  -3.357  1.00  0.00     0.200 A 
ATOM     72  F   UNL     1      12.849 -13.049  -3.342  1.00  0.00    -0.200 F 
ATOM     73  F   UNL     1      11.488 -15.405  -3.538  1.00  0.00    -0.200 F 
ENDBRANCH  40  63
ENDBRANCH  14  15
ENDBRANCH   7   9
ENDBRANCH   4   5
ENDBRANCH   3   4
ENDBRANCH   2   3
ENDBRANCH   1   2
BRANCH   1  74
ATOM     74  C   UNL     1       6.154   3.913   2.043  1.00  0.00     0.021 C 
BRANCH  74  75
ATOM     75  C   UNL     1       7.103   4.805   1.250  1.00  0.00     0.116 C 
BRANCH  75  76
ATOM     76  N   UNL     1       6.770   6.212   1.348  1.00  0.00    -0.352 N 
ATOM     77  C   UNL     1       7.574   7.307   1.164  1.00  0.00     0.252 C 
ATOM     78  H   UNL     1       5.834   6.409   1.580  1.00  0.00     0.163 HD
ATOM     79  O   UNL     1       7.108   8.437   1.286  1.00  0.00    -0.269 OA
BRANCH  77  80
ATOM     80  C   UNL     1       9.018   7.150   0.897  1.00  0.00     0.054 A 
ATOM     81  C   UNL     1       9.868   7.708   1.866  1.00  0.00     0.015 A 
ATOM     82  C   UNL     1       9.563   6.530  -0.240  1.00  0.00     0.072 A 
ATOM     83  C   UNL     1      11.252   7.615   1.731  1.00  0.00     0.001 A 
ATOM     84  C   UNL     1      10.960   6.434  -0.359  1.00  0.00     0.016 A 
ATOM     85  C   UNL     1      11.797   6.973   0.622  1.00  0.00     0.001 A 
BRANCH  82  86
ATOM     86  C   UNL     1       8.759   5.935  -1.335  1.00  0.00     0.338 C 
ATOM     87  O   UNL     1       9.139   5.005  -2.031  1.00  0.00    -0.246 OA
BRANCH  86  88
ATOM     88  O   UNL     1       7.569   6.550  -1.411  1.00  0.00    -0.462 OA
BRANCH  88  89
ATOM     89  C   UNL     1       6.550   5.950  -2.218  1.00  0.00     0.237 C 
BRANCH  89  90
ATOM     90  C   UNL     1       6.559   6.497  -3.638  1.00  0.00     0.030 C 
ATOM     91  C   UNL     1       6.914   7.997  -3.721  1.00  0.00     0.011 C 
ATOM     92  C   UNL     1       5.149   6.442  -4.279  1.00  0.00    -0.004 C 
ATOM     93  C   UNL     1       5.736   8.580  -4.513  1.00  0.00    -0.010 C 
ATOM     94  C   UNL     1       5.296   6.591  -5.799  1.00  0.00     0.004 C 
ATOM     95  C   UNL     1       4.563   7.809  -3.910  1.00  0.00     0.007 C 
ATOM     96  C   UNL     1       5.785   8.039  -5.953  1.00  0.00     0.004 C 
ENDBRANCH  89  90
ENDBRANCH  88  89
ENDBRANCH  86  88
ENDBRANCH  82  86
ENDBRANCH  77  80
ENDBRANCH  75  76
ENDBRANCH  74  75
ENDBRANCH   1  74
TORSDOF 17
