REMARK SMILES Cc1c(C)c2c(c(C)c1O)CC[C@@](C)(C(=O)NCCCCCCNC(=O)c1ccc(-c3c4nc(c(-c5c(F)c(F)c(F)c(F)c5F)c5ccc([nH]5)c(-c5c(F)c(F)c(F)c(F)c5F)c5nc(c(-c6c(F)c(F)c(F)c(F)c6F)c6ccc3[nH]6)C=C5)C=C4)cc1)O2
REMARK SMILES IDX 21 1 20 2 19 3 18 4 17 5 15 6 16 7 13 9 1 10 2 11 3 12 9 13
REMARK SMILES IDX 4 14 5 15 7 16 6 17 90 18 8 19 11 20 12 21 14 22 10 23 22 25
REMARK SMILES IDX 23 26 24 27 25 28 26 30 27 31 28 32 89 33 29 34 88 35 30 36
REMARK SMILES IDX 31 37 32 38 82 39 33 40 87 41 81 42 83 43 34 44 86 45 80 46
REMARK SMILES IDX 79 47 35 49 67 50 47 51 66 52 48 53 51 54 65 55 84 56 49 57
REMARK SMILES IDX 50 58 64 60 85 61 52 62 36 63 37 64 45 65 38 66 39 67 43 68
REMARK SMILES IDX 46 69 40 70 41 71 44 72 42 73 68 74 69 75 77 76 70 77 71 78
REMARK SMILES IDX 75 79 78 80 72 81 73 82 76 83 74 84 53 85 54 86 62 87 55 88
REMARK SMILES IDX 56 89 60 90 63 91 57 92 58 93 61 94 59 95
REMARK H PARENT 17 8 10 24 24 29 83 48 51 59
REMARK Flexibility Score: inf
ROOT
ATOM      1  C   UNL     1      -2.420   5.470  10.387  1.00  0.00     0.002 C 
ENDROOT
BRANCH   1   2
ATOM      2  C   UNL     1      -3.211   5.503   9.075  1.00  0.00     0.002 C 
BRANCH   2   3
ATOM      3  C   UNL     1      -2.350   5.522   7.810  1.00  0.00     0.021 C 
BRANCH   3   4
ATOM      4  C   UNL     1      -1.395   4.337   7.702  1.00  0.00     0.116 C 
BRANCH   4   5
ATOM      5  N   UNL     1      -2.100   3.117   7.348  1.00  0.00    -0.353 N 
ATOM      6  C   UNL     1      -2.020   2.316   6.237  1.00  0.00     0.263 C 
ATOM      7  O   UNL     1      -2.783   1.348   6.200  1.00  0.00    -0.270 OA
ATOM      8  H   UNL     1      -2.748   2.811   8.023  1.00  0.00     0.163 HD
BRANCH   6   9
ATOM      9  C   UNL     1      -0.995   2.622   5.111  1.00  0.00     0.184 C 
ATOM     10  C   UNL     1       1.006  -0.161   0.004  1.00  0.00     0.049 C 
ATOM     11  C   UNL     1       0.646   0.989   0.910  1.00  0.00    -0.002 A 
ATOM     12  C   UNL     1      -0.148   0.795   2.067  1.00  0.00    -0.002 A 
ATOM     13  C   UNL     1       1.121   2.286   0.617  1.00  0.00     0.122 A 
ATOM     14  C   UNL     1      -0.678  -0.572   2.423  1.00  0.00     0.049 C 
ATOM     15  C   UNL     1      -0.420   1.895   2.902  1.00  0.00     0.127 A 
ATOM     16  C   UNL     1       0.832   3.387   1.433  1.00  0.00    -0.002 A 
ATOM     17  C   UNL     1       0.029   3.190   2.573  1.00  0.00     0.001 A 
ATOM     18  O   UNL     1      -1.128   1.636   4.060  1.00  0.00    -0.477 OA
ATOM     19  C   UNL     1       1.372   4.760   1.116  1.00  0.00     0.049 C 
ATOM     20  C   UNL     1      -0.307   4.357   3.460  1.00  0.00     0.044 C 
ATOM     21  C   UNL     1      -1.354   3.969   4.477  1.00  0.00     0.063 C 
ATOM     22  C   UNL     1       0.415   2.434   5.715  1.00  0.00     0.067 C 
BRANCH  13  23
ATOM     23  O   UNL     1       1.900   2.529  -0.486  1.00  0.00    -0.507 OA
ATOM     24  H   UNL     1       2.123   1.827  -1.066  1.00  0.00     0.293 HD
ENDBRANCH  13  23
ENDBRANCH   6   9
ENDBRANCH   4   5
ENDBRANCH   3   4
ENDBRANCH   2   3
ENDBRANCH   1   2
BRANCH   1  25
ATOM     25  C   UNL     1      -1.365   6.569  10.533  1.00  0.00     0.021 C 
BRANCH  25  26
ATOM     26  C   UNL     1      -1.916   7.985  10.412  1.00  0.00     0.116 C 
BRANCH  26  27
ATOM     27  N   UNL     1      -2.881   8.282  11.459  1.00  0.00    -0.352 N 
ATOM     28  C   UNL     1      -2.847   9.259  12.418  1.00  0.00     0.251 C 
ATOM     29  H   UNL     1      -3.673   7.697  11.480  1.00  0.00     0.163 HD
ATOM     30  O   UNL     1      -3.638   9.237  13.358  1.00  0.00    -0.269 OA
BRANCH  28  31
ATOM     31  C   UNL     1      -1.841  10.334  12.328  1.00  0.00     0.039 A 
ATOM     32  C   UNL     1      -1.129  10.692  13.475  1.00  0.00     0.014 A 
ATOM     33  C   UNL     1      -1.603  10.988  11.115  1.00  0.00     0.014 A 
ATOM     34  C   UNL     1      -0.139  11.672  13.392  1.00  0.00     0.010 A 
ATOM     35  C   UNL     1      -0.565  11.908  11.017  1.00  0.00     0.010 A 
ATOM     36  C   UNL     1       0.170  12.266  12.157  1.00  0.00    -0.014 A 
BRANCH  36  37
ATOM     37  C   UNL     1       1.244  13.283  12.048  1.00  0.00     0.031 A 
ATOM     38  C   UNL     1       0.904  14.697  11.675  1.00  0.00     0.074 A 
ATOM     39  C   UNL     1       2.526  12.922  12.249  1.00  0.00     0.049 A 
ATOM     40  N   UNL     1       1.702  15.720  11.497  1.00  0.00    -0.248 NA
ATOM     41  C   UNL     1      -0.518  15.001  11.450  1.00  0.00     0.031 C 
ATOM     42  C   UNL     1       2.980  11.572  12.583  1.00  0.00     0.029 A 
ATOM     43  N   UNL     1       3.683  13.660  12.204  1.00  0.00    -0.354 N 
ATOM     44  C   UNL     1       0.881  16.780  11.141  1.00  0.00     0.074 A 
ATOM     45  C   UNL     1      -0.468  16.267  11.063  1.00  0.00     0.031 C 
ATOM     46  C   UNL     1       4.312  11.584  12.745  1.00  0.00     0.029 A 
ATOM     47  C   UNL     1       4.812  12.931  12.486  1.00  0.00     0.049 A 
ATOM     48  H   UNL     1       3.701  14.620  11.988  1.00  0.00     0.167 HD
ATOM     49  C   UNL     1       1.220  18.074  10.930  1.00  0.00     0.037 A 
ATOM     50  C   UNL     1       6.105  13.308  12.530  1.00  0.00     0.037 A 
ATOM     51  C   UNL     1       2.562  18.582  11.029  1.00  0.00     0.049 A 
ATOM     52  C   UNL     1       6.459  14.745  12.256  1.00  0.00     0.074 A 
ATOM     53  C   UNL     1       3.001  19.886  10.879  1.00  0.00     0.029 A 
ATOM     54  N   UNL     1       3.682  17.811  11.302  1.00  0.00    -0.354 N 
ATOM     55  N   UNL     1       5.668  15.753  11.980  1.00  0.00    -0.248 NA
ATOM     56  C   UNL     1       7.885  15.098  12.303  1.00  0.00     0.031 C 
ATOM     57  C   UNL     1       4.392  19.894  11.004  1.00  0.00     0.029 A 
ATOM     58  C   UNL     1       4.816  18.607  11.293  1.00  0.00     0.049 A 
ATOM     59  H   UNL     1       3.673  16.842  11.476  1.00  0.00     0.167 HD
ATOM     60  C   UNL     1       6.492  16.861  11.842  1.00  0.00     0.074 A 
ATOM     61  C   UNL     1       7.846  16.406  12.084  1.00  0.00     0.031 C 
ATOM     62  C   UNL     1       6.157  18.139  11.538  1.00  0.00     0.037 A 
BRANCH  49  63
ATOM     63  C   UNL     1       0.122  19.038  10.584  1.00  0.00     0.064 A 
ATOM     64  C   UNL     1      -0.843  19.420  11.528  1.00  0.00     0.173 A 
ATOM     65  C   UNL     1       0.071  19.636   9.316  1.00  0.00     0.173 A 
ATOM     66  F   UNL     1      -0.847  18.869  12.751  1.00  0.00    -0.203 F 
ATOM     67  C   UNL     1      -1.828  20.351  11.210  1.00  0.00     0.198 A 
ATOM     68  C   UNL     1      -0.895  20.590   9.011  1.00  0.00     0.198 A 
ATOM     69  F   UNL     1       0.972  19.309   8.377  1.00  0.00    -0.203 F 
ATOM     70  F   UNL     1      -2.763  20.671  12.116  1.00  0.00    -0.200 F 
ATOM     71  C   UNL     1      -1.847  20.944   9.957  1.00  0.00     0.200 A 
ATOM     72  F   UNL     1      -0.903  21.173   7.805  1.00  0.00    -0.200 F 
ATOM     73  F   UNL     1      -2.784  21.853   9.658  1.00  0.00    -0.200 F 
ENDBRANCH  49  63
BRANCH  50  74
ATOM     74  C   UNL     1       7.151  12.311  12.880  1.00  0.00     0.064 A 
ATOM     75  C   UNL     1       7.839  12.387  14.098  1.00  0.00     0.173 A 
ATOM     76  C   UNL     1       7.465  11.248  12.020  1.00  0.00     0.173 A 
ATOM     77  F   UNL     1       7.589  13.397  14.945  1.00  0.00    -0.203 F 
ATOM     78  C   UNL     1       8.806  11.444  14.440  1.00  0.00     0.198 A 
ATOM     79  C   UNL     1       8.411  10.289  12.376  1.00  0.00     0.198 A 
ATOM     80  F   UNL     1       6.833  11.125  10.843  1.00  0.00    -0.203 F 
ATOM     81  F   UNL     1       9.472  11.561  15.597  1.00  0.00    -0.200 F 
ATOM     82  C   UNL     1       9.085  10.390  13.583  1.00  0.00     0.200 A 
ATOM     83  F   UNL     1       8.664   9.262  11.552  1.00  0.00    -0.200 F 
ATOM     84  F   UNL     1      10.003   9.475  13.920  1.00  0.00    -0.200 F 
ENDBRANCH  50  74
BRANCH  62  85
ATOM     85  C   UNL     1       7.264  19.151  11.459  1.00  0.00     0.064 A 
ATOM     86  C   UNL     1       8.181  19.152  10.398  1.00  0.00     0.173 A 
ATOM     87  C   UNL     1       7.356  20.182  12.408  1.00  0.00     0.173 A 
ATOM     88  F   UNL     1       8.143  18.182   9.472  1.00  0.00    -0.203 F 
ATOM     89  C   UNL     1       9.156  20.141  10.296  1.00  0.00     0.198 A 
ATOM     90  C   UNL     1       8.311  21.186  12.285  1.00  0.00     0.198 A 
ATOM     91  F   UNL     1       6.497  20.232  13.437  1.00  0.00    -0.203 F 
ATOM     92  F   UNL     1      10.043  20.102   9.292  1.00  0.00    -0.200 F 
ATOM     93  C   UNL     1       9.213  21.163  11.232  1.00  0.00     0.200 A 
ATOM     94  F   UNL     1       8.351  22.184  13.179  1.00  0.00    -0.200 F 
ATOM     95  F   UNL     1      10.138  22.126  11.119  1.00  0.00    -0.200 F 
ENDBRANCH  62  85
ENDBRANCH  36  37
ENDBRANCH  28  31
ENDBRANCH  26  27
ENDBRANCH  25  26
ENDBRANCH   1  25
TORSDOF 14
