REMARK SMILES CCCCCCNC(=O)Oc1cccc(-c2ccc(CC(=O)NCCCCCCNC(=O)c3ccc(-c4c5nc(c(-c6c(F)c(F)c(F)c(F)c6F)c6ccc([nH]6)c(-c6c(F)c(F)c(F)c(F)c6F)c6nc(c(-c7c(F)c(F)c(F)c(F)c7F)c7ccc4[nH]7)C=C6)C=C5)cc3)cc2F)c1
REMARK SMILES IDX 21 1 22 2 23 3 20 5 19 6 16 7 17 8 97 9 18 10 96 11 98 12
REMARK SMILES IDX 15 13 11 14 12 15 99 16 13 17 14 18 10 19 8 20 7 21 9 23
REMARK SMILES IDX 6 24 5 25 4 26 3 27 2 28 1 29 24 30 25 31 26 32 27 33 28 34
REMARK SMILES IDX 29 35 30 36 31 37 32 39 33 40 34 41 95 42 35 43 94 44 36 45
REMARK SMILES IDX 37 46 38 47 88 48 39 49 93 50 87 51 89 52 40 53 92 54 86 55
REMARK SMILES IDX 85 56 41 58 73 59 53 60 72 61 54 62 57 63 71 64 90 65 55 66
REMARK SMILES IDX 56 67 70 69 91 70 58 71 42 72 43 73 51 74 44 75 45 76 49 77
REMARK SMILES IDX 52 78 46 79 47 80 50 81 48 82 74 83 75 84 83 85 76 86 77 87
REMARK SMILES IDX 81 88 84 89 78 90 79 91 82 92 80 93 59 94 60 95 68 96 61 97
REMARK SMILES IDX 62 98 66 99 69 100 63 101 64 102 67 103 65 104
REMARK H PARENT 23 4 7 22 30 38 89 57 57 68
REMARK Flexibility Score: inf
ROOT
ATOM      1  C   UNL     1      -5.844  -1.618  14.366  1.00  0.00     0.224 C 
ATOM      2  O   UNL     1      -5.898  -2.334  15.367  1.00  0.00    -0.275 OA
ATOM      3  N   UNL     1      -6.965  -0.930  14.000  1.00  0.00    -0.356 N 
ATOM      4  H   UNL     1      -7.721  -0.993  14.627  1.00  0.00     0.163 HD
ENDROOT
BRANCH   1   5
ATOM      5  C   UNL     1      -4.553  -1.456  13.580  1.00  0.00     0.135 C 
BRANCH   5   6
ATOM      6  C   UNL     1      -4.595  -2.040  12.189  1.00  0.00    -0.036 A 
ATOM      7  C   UNL     1      -4.812  -3.069   9.551  1.00  0.00     0.018 A 
ATOM      8  C   UNL     1      -5.038  -3.887  10.672  1.00  0.00     0.012 A 
ATOM      9  C   UNL     1      -4.433  -1.741   9.792  1.00  0.00     0.131 A 
ATOM     10  C   UNL     1      -4.931  -3.381  11.974  1.00  0.00     0.005 A 
ATOM     11  C   UNL     1      -4.307  -1.234  11.083  1.00  0.00     0.044 A 
ATOM     12  F   UNL     1      -4.215  -0.897   8.771  1.00  0.00    -0.206 F 
BRANCH   7  13
ATOM     13  C   UNL     1      -4.979  -3.583   8.181  1.00  0.00    -0.012 A 
ATOM     14  C   UNL     1      -4.189  -3.800   5.892  1.00  0.00     0.133 A 
ATOM     15  C   UNL     1      -5.336  -4.501   5.531  1.00  0.00     0.047 A 
ATOM     16  C   UNL     1      -4.012  -3.332   7.194  1.00  0.00     0.056 A 
ATOM     17  C   UNL     1      -6.304  -4.764   6.496  1.00  0.00     0.004 A 
ATOM     18  C   UNL     1      -6.125  -4.311   7.808  1.00  0.00     0.009 A 
BRANCH  14  19
ATOM     19  O   UNL     1      -3.285  -3.477   4.868  1.00  0.00    -0.410 OA
BRANCH  19  20
ATOM     20  C   UNL     1      -1.938  -3.728   5.081  1.00  0.00     0.412 C 
ATOM     21  N   UNL     1      -1.136  -3.267   4.076  1.00  0.00    -0.321 N 
ATOM     22  H   UNL     1      -0.170  -3.429   4.176  1.00  0.00     0.167 HD
ATOM     23  O   UNL     1      -1.456  -4.309   6.050  1.00  0.00    -0.224 OA
BRANCH  21  24
ATOM     24  C   UNL     1      -1.556  -2.565   2.880  1.00  0.00     0.119 C 
BRANCH  24  25
ATOM     25  C   UNL     1      -0.943  -1.167   2.790  1.00  0.00     0.021 C 
BRANCH  25  26
ATOM     26  C   UNL     1       0.587  -1.137   2.689  1.00  0.00     0.002 C 
BRANCH  26  27
ATOM     27  C   UNL     1       1.189  -1.905   1.508  1.00  0.00    -0.000 C 
BRANCH  27  28
ATOM     28  C   UNL     1       0.713  -1.460   0.123  1.00  0.00    -0.003 C 
ATOM     29  C   UNL     1       1.086  -0.024  -0.210  1.00  0.00     0.004 C 
ENDBRANCH  27  28
ENDBRANCH  26  27
ENDBRANCH  25  26
ENDBRANCH  24  25
ENDBRANCH  21  24
ENDBRANCH  19  20
ENDBRANCH  14  19
ENDBRANCH   7  13
ENDBRANCH   5   6
ENDBRANCH   1   5
BRANCH   3  30
ATOM     30  C   UNL     1      -7.202  -0.119  12.821  1.00  0.00     0.116 C 
BRANCH  30  31
ATOM     31  C   UNL     1      -8.091  -0.849  11.812  1.00  0.00     0.021 C 
BRANCH  31  32
ATOM     32  C   UNL     1      -9.546  -1.022  12.270  1.00  0.00     0.002 C 
BRANCH  32  33
ATOM     33  C   UNL     1     -10.295   0.278  12.583  1.00  0.00     0.002 C 
BRANCH  33  34
ATOM     34  C   UNL     1     -10.315   1.308  11.451  1.00  0.00     0.021 C 
BRANCH  34  35
ATOM     35  C   UNL     1     -11.003   0.835  10.175  1.00  0.00     0.116 C 
BRANCH  35  36
ATOM     36  N   UNL     1     -12.436   0.651  10.358  1.00  0.00    -0.352 N 
ATOM     37  C   UNL     1     -13.474   1.164   9.619  1.00  0.00     0.251 C 
ATOM     38  H   UNL     1     -12.697   0.080  11.116  1.00  0.00     0.163 HD
ATOM     39  O   UNL     1     -14.632   1.055  10.006  1.00  0.00    -0.269 OA
BRANCH  37  40
ATOM     40  C   UNL     1     -13.184   1.871   8.354  1.00  0.00     0.039 A 
ATOM     41  C   UNL     1     -13.761   3.124   8.126  1.00  0.00     0.014 A 
ATOM     42  C   UNL     1     -12.333   1.301   7.405  1.00  0.00     0.014 A 
ATOM     43  C   UNL     1     -13.426   3.840   6.973  1.00  0.00     0.010 A 
ATOM     44  C   UNL     1     -11.955   2.039   6.288  1.00  0.00     0.010 A 
ATOM     45  C   UNL     1     -12.493   3.318   6.065  1.00  0.00    -0.014 A 
BRANCH  45  46
ATOM     46  C   UNL     1     -12.049   4.076   4.868  1.00  0.00     0.031 A 
ATOM     47  C   UNL     1     -12.345   3.537   3.497  1.00  0.00     0.074 A 
ATOM     48  C   UNL     1     -11.280   5.173   5.014  1.00  0.00     0.049 A 
ATOM     49  N   UNL     1     -11.883   3.924   2.336  1.00  0.00    -0.248 NA
ATOM     50  C   UNL     1     -13.260   2.386   3.427  1.00  0.00     0.031 C 
ATOM     51  C   UNL     1     -10.894   5.773   6.292  1.00  0.00     0.029 A 
ATOM     52  N   UNL     1     -10.653   5.958   4.077  1.00  0.00    -0.354 N 
ATOM     53  C   UNL     1     -12.417   3.043   1.405  1.00  0.00     0.074 A 
ATOM     54  C   UNL     1     -13.221   2.087   2.136  1.00  0.00     0.031 C 
ATOM     55  C   UNL     1     -10.089   6.823   6.060  1.00  0.00     0.029 A 
ATOM     56  C   UNL     1      -9.866   6.943   4.622  1.00  0.00     0.049 A 
ATOM     57  H   UNL     1     -10.759   5.827   3.106  1.00  0.00     0.167 HD
ATOM     58  C   UNL     1     -12.254   3.039   0.062  1.00  0.00     0.037 A 
ATOM     59  C   UNL     1      -9.033   7.822   4.031  1.00  0.00     0.037 A 
ATOM     60  C   UNL     1     -11.497   4.024  -0.664  1.00  0.00     0.049 A 
ATOM     61  C   UNL     1      -8.888   7.806   2.532  1.00  0.00     0.074 A 
ATOM     62  C   UNL     1     -11.351   4.159  -2.034  1.00  0.00     0.029 A 
ATOM     63  N   UNL     1     -10.763   5.044  -0.079  1.00  0.00    -0.354 N 
ATOM     64  N   UNL     1      -9.450   7.010   1.656  1.00  0.00    -0.248 NA
ATOM     65  C   UNL     1      -7.995   8.812   1.938  1.00  0.00     0.031 C 
ATOM     66  C   UNL     1     -10.494   5.235  -2.277  1.00  0.00     0.029 A 
ATOM     67  C   UNL     1     -10.144   5.799  -1.060  1.00  0.00     0.049 A 
ATOM     68  H   UNL     1     -10.693   5.207   0.889  1.00  0.00     0.167 HD
ATOM     69  C   UNL     1      -9.008   7.438   0.412  1.00  0.00     0.074 A 
ATOM     70  C   UNL     1      -8.133   8.567   0.643  1.00  0.00     0.031 C 
ATOM     71  C   UNL     1      -9.300   6.938  -0.813  1.00  0.00     0.037 A 
BRANCH  58  72
ATOM     72  C   UNL     1     -12.903   1.939  -0.723  1.00  0.00     0.064 A 
ATOM     73  C   UNL     1     -14.289   1.898  -0.928  1.00  0.00     0.173 A 
ATOM     74  C   UNL     1     -12.116   0.955  -1.341  1.00  0.00     0.173 A 
ATOM     75  F   UNL     1     -15.084   2.812  -0.351  1.00  0.00    -0.203 F 
ATOM     76  C   UNL     1     -14.867   0.903  -1.712  1.00  0.00     0.198 A 
ATOM     77  C   UNL     1     -12.694  -0.024  -2.145  1.00  0.00     0.198 A 
ATOM     78  F   UNL     1     -10.784   0.954  -1.181  1.00  0.00    -0.203 F 
ATOM     79  F   UNL     1     -16.197   0.865  -1.870  1.00  0.00    -0.200 F 
ATOM     80  C   UNL     1     -14.069  -0.051  -2.327  1.00  0.00     0.200 A 
ATOM     81  F   UNL     1     -11.921  -0.936  -2.750  1.00  0.00    -0.200 F 
ATOM     82  F   UNL     1     -14.625  -0.998  -3.095  1.00  0.00    -0.200 F 
ENDBRANCH  58  72
BRANCH  59  83
ATOM     83  C   UNL     1      -8.258   8.787   4.855  1.00  0.00     0.064 A 
ATOM     84  C   UNL     1      -8.540  10.159   4.813  1.00  0.00     0.173 A 
ATOM     85  C   UNL     1      -7.205   8.362   5.679  1.00  0.00     0.173 A 
ATOM     86  F   UNL     1      -9.522  10.616   4.023  1.00  0.00    -0.203 F 
ATOM     87  C   UNL     1      -7.781  11.073   5.542  1.00  0.00     0.198 A 
ATOM     88  C   UNL     1      -6.466   9.273   6.430  1.00  0.00     0.198 A 
ATOM     89  F   UNL     1      -6.897   7.059   5.758  1.00  0.00    -0.203 F 
ATOM     90  F   UNL     1      -8.037  12.384   5.441  1.00  0.00    -0.200 F 
ATOM     91  C   UNL     1      -6.747  10.629   6.353  1.00  0.00     0.200 A 
ATOM     92  F   UNL     1      -5.477   8.839   7.222  1.00  0.00    -0.200 F 
ATOM     93  F   UNL     1      -6.016  11.508   7.051  1.00  0.00    -0.200 F 
ENDBRANCH  59  83
BRANCH  71  94
ATOM     94  C   UNL     1      -8.717   7.635  -2.005  1.00  0.00     0.064 A 
ATOM     95  C   UNL     1      -7.366   7.497  -2.350  1.00  0.00     0.173 A 
ATOM     96  C   UNL     1      -9.542   8.388  -2.855  1.00  0.00     0.173 A 
ATOM     97  F   UNL     1      -6.536   6.798  -1.561  1.00  0.00    -0.203 F 
ATOM     98  C   UNL     1      -6.858   8.096  -3.500  1.00  0.00     0.198 A 
ATOM     99  C   UNL     1      -9.037   8.964  -4.016  1.00  0.00     0.198 A 
ATOM    100  F   UNL     1     -10.844   8.544  -2.570  1.00  0.00    -0.203 F 
ATOM    101  F   UNL     1      -5.557   7.975  -3.797  1.00  0.00    -0.200 F 
ATOM    102  C   UNL     1      -7.696   8.820  -4.336  1.00  0.00     0.200 A 
ATOM    103  F   UNL     1      -9.850   9.652  -4.830  1.00  0.00    -0.200 F 
ATOM    104  F   UNL     1      -7.208   9.381  -5.452  1.00  0.00    -0.200 F 
ENDBRANCH  71  94
ENDBRANCH  45  46
ENDBRANCH  37  40
ENDBRANCH  35  36
ENDBRANCH  34  35
ENDBRANCH  33  34
ENDBRANCH  32  33
ENDBRANCH  31  32
ENDBRANCH  30  31
ENDBRANCH   3  30
TORSDOF 22
