REMARK SMILES C[NH2+][C@@H](C)c1ccc(SCc2ccc(C(=O)NCCCCCCNC(=O)c3ccc(-c4c5nc(c(-c6c(F)c(F)c(F)c(F)c6F)c6ccc([nH]6)c(-c6c(F)c(F)c(F)c(F)c6F)c6nc(c(-c7c(F)c(F)c(F)c(F)c7F)c7ccc4[nH]7)C=C6)C=C5)cc3)cc2)cc1
REMARK SMILES IDX 19 1 18 2 17 3 15 4 16 5 14 7 11 8 12 9 91 10 13 11 90 12
REMARK SMILES IDX 10 13 9 14 8 15 5 16 6 17 93 18 7 19 92 20 3 21 4 22 2 23
REMARK SMILES IDX 1 24 20 27 21 28 22 29 23 30 24 31 25 32 26 34 27 35 28 36
REMARK SMILES IDX 89 37 29 38 88 39 30 40 31 41 32 42 82 43 33 44 87 45 81 46
REMARK SMILES IDX 83 47 34 48 86 49 80 50 79 51 35 53 67 54 47 55 66 56 48 57
REMARK SMILES IDX 51 58 65 59 84 60 49 61 50 62 64 64 85 65 52 66 36 67 37 68
REMARK SMILES IDX 45 69 38 70 39 71 43 72 46 73 40 74 41 75 44 76 42 77 68 78
REMARK SMILES IDX 69 79 77 80 70 81 71 82 75 83 78 84 72 85 73 86 76 87 74 88
REMARK SMILES IDX 53 89 54 90 62 91 55 92 56 93 60 94 63 95 57 96 58 97 61 98
REMARK SMILES IDX 59 99
REMARK H PARENT 17 6 2 25 2 26 24 33 83 52 51 63
REMARK Flexibility Score: inf
ROOT
ATOM      1  C   UNL     1      -6.224 -10.500   1.596  1.00  0.00     0.021 C 
ENDROOT
BRANCH   1   2
ATOM      2  C   UNL     1      -5.354  -9.435   0.925  1.00  0.00     0.116 C 
BRANCH   2   3
ATOM      3  N   UNL     1      -6.105  -8.205   0.787  1.00  0.00    -0.352 N 
ATOM      4  C   UNL     1      -6.171  -7.062   1.538  1.00  0.00     0.251 C 
ATOM      5  O   UNL     1      -6.980  -6.205   1.178  1.00  0.00    -0.269 OA
ATOM      6  H   UNL     1      -6.686  -8.187  -0.007  1.00  0.00     0.163 HD
BRANCH   4   7
ATOM      7  C   UNL     1      -5.276  -6.774   2.693  1.00  0.00     0.039 A 
ATOM      8  C   UNL     1      -3.419  -5.977   4.694  1.00  0.00    -0.038 A 
ATOM      9  C   UNL     1      -4.143  -5.030   3.965  1.00  0.00     0.005 A 
ATOM     10  C   UNL     1      -3.725  -7.331   4.476  1.00  0.00     0.005 A 
ATOM     11  C   UNL     1      -5.038  -5.421   2.966  1.00  0.00     0.014 A 
ATOM     12  C   UNL     1      -4.667  -7.723   3.514  1.00  0.00     0.014 A 
BRANCH   8  13
ATOM     13  C   UNL     1      -2.282  -5.654   5.643  1.00  0.00     0.110 C 
BRANCH  13  14
ATOM     14  S   UNL     1      -2.002  -3.928   6.149  1.00  0.00    -0.121 SA
BRANCH  14  15
ATOM     15  C   UNL     1      -1.575  -3.073   4.633  1.00  0.00     0.008 A 
ATOM     16  C   UNL     1      -1.113  -1.559   2.281  1.00  0.00     0.009 A 
ATOM     17  C   UNL     1      -1.552  -0.940   3.458  1.00  0.00     0.011 A 
ATOM     18  C   UNL     1      -0.880  -2.942   2.308  1.00  0.00     0.011 A 
ATOM     19  C   UNL     1      -1.783  -1.689   4.616  1.00  0.00     0.015 A 
ATOM     20  C   UNL     1      -1.098  -3.688   3.474  1.00  0.00     0.015 A 
BRANCH  16  21
ATOM     21  C   UNL     1      -0.849  -0.720   1.036  1.00  0.00     0.210 C 
ATOM     22  C   UNL     1      -1.578  -1.285  -0.191  1.00  0.00     0.081 C 
BRANCH  21  23
ATOM     23  N   UNL     1       0.602  -0.599   0.850  1.00  0.00    -0.343 N 
ATOM     24  C   UNL     1       0.986   0.317  -0.210  1.00  0.00     0.331 C 
ATOM     25  H   UNL     1       1.011  -0.268   1.724  1.00  0.00     0.346 HD
ATOM     26  H   UNL     1       0.944  -1.521   0.581  1.00  0.00     0.346 HD
ENDBRANCH  21  23
ENDBRANCH  16  21
ENDBRANCH  14  15
ENDBRANCH  13  14
ENDBRANCH   8  13
ENDBRANCH   4   7
ENDBRANCH   2   3
ENDBRANCH   1   2
BRANCH   1  27
ATOM     27  C   UNL     1      -7.294 -11.083   0.661  1.00  0.00     0.002 C 
BRANCH  27  28
ATOM     28  C   UNL     1      -6.745 -11.879  -0.529  1.00  0.00     0.002 C 
BRANCH  28  29
ATOM     29  C   UNL     1      -5.813 -13.037  -0.160  1.00  0.00     0.021 C 
BRANCH  29  30
ATOM     30  C   UNL     1      -6.442 -14.097   0.740  1.00  0.00     0.116 C 
BRANCH  30  31
ATOM     31  N   UNL     1      -7.543 -14.781   0.083  1.00  0.00    -0.352 N 
ATOM     32  C   UNL     1      -7.755 -16.123  -0.102  1.00  0.00     0.251 C 
ATOM     33  H   UNL     1      -8.241 -14.193  -0.285  1.00  0.00     0.163 HD
ATOM     34  O   UNL     1      -8.635 -16.505  -0.867  1.00  0.00    -0.269 OA
BRANCH  32  35
ATOM     35  C   UNL     1      -6.919 -17.117   0.605  1.00  0.00     0.039 A 
ATOM     36  C   UNL     1      -6.476 -18.240  -0.100  1.00  0.00     0.014 A 
ATOM     37  C   UNL     1      -6.609 -16.975   1.961  1.00  0.00     0.014 A 
ATOM     38  C   UNL     1      -5.686 -19.195   0.541  1.00  0.00     0.010 A 
ATOM     39  C   UNL     1      -5.771 -17.898   2.585  1.00  0.00     0.010 A 
ATOM     40  C   UNL     1      -5.308 -19.019   1.883  1.00  0.00    -0.014 A 
BRANCH  40  41
ATOM     41  C   UNL     1      -4.417 -20.003   2.547  1.00  0.00     0.031 A 
ATOM     42  C   UNL     1      -4.928 -20.867   3.664  1.00  0.00     0.074 A 
ATOM     43  C   UNL     1      -3.130 -20.089   2.163  1.00  0.00     0.049 A 
ATOM     44  N   UNL     1      -4.300 -21.791   4.349  1.00  0.00    -0.248 NA
ATOM     45  C   UNL     1      -6.320 -20.651   4.086  1.00  0.00     0.031 C 
ATOM     46  C   UNL     1      -2.500 -19.259   1.135  1.00  0.00     0.029 A 
ATOM     47  N   UNL     1      -2.120 -20.913   2.591  1.00  0.00    -0.354 N 
ATOM     48  C   UNL     1      -5.215 -22.257   5.283  1.00  0.00     0.074 A 
ATOM     49  C   UNL     1      -6.425 -21.482   5.113  1.00  0.00     0.031 C 
ATOM     50  C   UNL     1      -1.219 -19.634   0.992  1.00  0.00     0.029 A 
ATOM     51  C   UNL     1      -0.933 -20.714   1.931  1.00  0.00     0.049 A 
ATOM     52  H   UNL     1      -2.236 -21.582   3.304  1.00  0.00     0.167 HD
ATOM     53  C   UNL     1      -5.065 -23.257   6.185  1.00  0.00     0.037 A 
ATOM     54  C   UNL     1       0.252 -21.340   2.063  1.00  0.00     0.037 A 
ATOM     55  C   UNL     1      -3.869 -24.044   6.334  1.00  0.00     0.049 A 
ATOM     56  C   UNL     1       0.382 -22.466   3.050  1.00  0.00     0.074 A 
ATOM     57  C   UNL     1      -3.645 -25.128   7.165  1.00  0.00     0.029 A 
ATOM     58  N   UNL     1      -2.690 -23.827   5.635  1.00  0.00    -0.354 N 
ATOM     59  N   UNL     1      -0.516 -22.956   3.869  1.00  0.00    -0.248 NA
ATOM     60  C   UNL     1       1.689 -23.133   3.121  1.00  0.00     0.031 C 
ATOM     61  C   UNL     1      -2.318 -25.542   6.997  1.00  0.00     0.029 A 
ATOM     62  C   UNL     1      -1.728 -24.742   6.032  1.00  0.00     0.049 A 
ATOM     63  H   UNL     1      -2.557 -23.126   4.956  1.00  0.00     0.167 HD
ATOM     64  C   UNL     1       0.109 -23.997   4.541  1.00  0.00     0.074 A 
ATOM     65  C   UNL     1       1.457 -24.082   4.017  1.00  0.00     0.031 C 
ATOM     66  C   UNL     1      -0.388 -24.807   5.508  1.00  0.00     0.037 A 
BRANCH  53  67
ATOM     67  C   UNL     1      -6.231 -23.562   7.079  1.00  0.00     0.064 A 
ATOM     68  C   UNL     1      -7.395 -24.173   6.587  1.00  0.00     0.173 A 
ATOM     69  C   UNL     1      -6.173 -23.273   8.451  1.00  0.00     0.173 A 
ATOM     70  F   UNL     1      -7.505 -24.460   5.281  1.00  0.00    -0.203 F 
ATOM     71  C   UNL     1      -8.467 -24.456   7.428  1.00  0.00     0.198 A 
ATOM     72  C   UNL     1      -7.237 -23.582   9.294  1.00  0.00     0.198 A 
ATOM     73  F   UNL     1      -5.082 -22.695   8.974  1.00  0.00    -0.203 F 
ATOM     74  F   UNL     1      -9.586 -24.996   6.926  1.00  0.00    -0.200 F 
ATOM     75  C   UNL     1      -8.386 -24.166   8.782  1.00  0.00     0.200 A 
ATOM     76  F   UNL     1      -7.152 -23.312  10.604  1.00  0.00    -0.200 F 
ATOM     77  F   UNL     1      -9.417 -24.443   9.591  1.00  0.00    -0.200 F 
ENDBRANCH  53  67
BRANCH  54  78
ATOM     78  C   UNL     1       1.394 -20.940   1.204  1.00  0.00     0.064 A 
ATOM     79  C   UNL     1       1.837 -21.770   0.165  1.00  0.00     0.173 A 
ATOM     80  C   UNL     1       2.056 -19.718   1.393  1.00  0.00     0.173 A 
ATOM     81  F   UNL     1       1.245 -22.956  -0.042  1.00  0.00    -0.203 F 
ATOM     82  C   UNL     1       2.908 -21.400  -0.644  1.00  0.00     0.198 A 
ATOM     83  C   UNL     1       3.112 -19.338   0.568  1.00  0.00     0.198 A 
ATOM     84  F   UNL     1       1.665 -18.887   2.370  1.00  0.00    -0.203 F 
ATOM     85  F   UNL     1       3.334 -22.227  -1.608  1.00  0.00    -0.200 F 
ATOM     86  C   UNL     1       3.541 -20.182  -0.446  1.00  0.00     0.200 A 
ATOM     87  F   UNL     1       3.712 -18.155   0.754  1.00  0.00    -0.200 F 
ATOM     88  F   UNL     1       4.567 -19.823  -1.229  1.00  0.00    -0.200 F 
ENDBRANCH  54  78
BRANCH  66  89
ATOM     89  C   UNL     1       0.533 -25.858   6.054  1.00  0.00     0.064 A 
ATOM     90  C   UNL     1       1.603 -25.525   6.898  1.00  0.00     0.173 A 
ATOM     91  C   UNL     1       0.333 -27.211   5.745  1.00  0.00     0.173 A 
ATOM     92  F   UNL     1       1.844 -24.242   7.208  1.00  0.00    -0.203 F 
ATOM     93  C   UNL     1       2.457 -26.508   7.390  1.00  0.00     0.198 A 
ATOM     94  C   UNL     1       1.174 -28.194   6.261  1.00  0.00     0.198 A 
ATOM     95  F   UNL     1      -0.679 -27.581   4.947  1.00  0.00    -0.203 F 
ATOM     96  F   UNL     1       3.503 -26.162   8.153  1.00  0.00    -0.200 F 
ATOM     97  C   UNL     1       2.239 -27.841   7.076  1.00  0.00     0.200 A 
ATOM     98  F   UNL     1       0.956 -29.483   5.965  1.00  0.00    -0.200 F 
ATOM     99  F   UNL     1       3.063 -28.785   7.550  1.00  0.00    -0.200 F 
ENDBRANCH  66  89
ENDBRANCH  40  41
ENDBRANCH  32  35
ENDBRANCH  30  31
ENDBRANCH  29  30
ENDBRANCH  28  29
ENDBRANCH  27  28
ENDBRANCH   1  27
TORSDOF 18
