REMARK SMILES Cn1ncc(C(=O)NCCCCCCNC(=O)c2ccc(-c3c4nc(c(-c5c(F)c(F)c(F)c(F)c5F)c5ccc([nH]5)c(-c5c(F)c(F)c(F)c(F)c5F)c5nc(c(-c6c(F)c(F)c(F)c(F)c6F)c6ccc3[nH]6)C=C5)C=C4)cc2)c1C(=O)NCC1CC[NH+](Cc2ccccc2)CC1
REMARK SMILES IDX 10 1 9 2 8 3 6 4 7 5 5 7 1 8 2 9 3 10 81 11 4 12 82 13 83 14
REMARK SMILES IDX 84 15 85 17 86 18 87 19 98 20 88 21 97 22 89 23 90 25 91 26
REMARK SMILES IDX 92 27 96 28 93 29 95 30 94 31 11 32 12 33 13 34 14 35 15 36
REMARK SMILES IDX 16 37 17 39 18 40 19 41 80 42 20 43 79 44 21 45 22 46 23 47
REMARK SMILES IDX 73 48 24 49 78 50 72 51 74 52 25 53 77 54 71 55 70 56 26 58
REMARK SMILES IDX 58 59 38 60 57 61 39 62 42 63 56 64 75 65 40 66 41 67 55 69
REMARK SMILES IDX 76 70 43 71 27 72 28 73 36 74 29 75 30 76 34 77 37 78 31 79
REMARK SMILES IDX 32 80 35 81 33 82 59 83 60 84 68 85 61 86 62 87 66 88 69 89
REMARK SMILES IDX 63 90 64 91 67 92 65 93 44 94 45 95 53 96 46 97 47 98 51 99
REMARK SMILES IDX 54 100 48 101 49 102 52 103 50 104
REMARK H PARENT 8 6 84 16 89 24 15 38 74 57 42 68
REMARK Flexibility Score: inf
ROOT
ATOM      1  C   UNL     1       1.552  -5.258  -0.389  1.00  0.00     0.021 C 
ENDROOT
BRANCH   1   2
ATOM      2  C   UNL     1       1.215  -4.208   0.662  1.00  0.00     0.116 C 
BRANCH   2   3
ATOM      3  N   UNL     1       2.274  -3.269   0.914  1.00  0.00    -0.352 N 
ATOM      4  C   UNL     1       2.354  -1.904   0.896  1.00  0.00     0.255 C 
ATOM      5  O   UNL     1       3.481  -1.460   1.145  1.00  0.00    -0.269 OA
ATOM      6  H   UNL     1       3.126  -3.703   1.152  1.00  0.00     0.163 HD
BRANCH   4   7
ATOM      7  C   UNL     1       1.282  -0.974   0.550  1.00  0.00     0.090 A 
ATOM      8  C   UNL     1      -1.753   0.988   0.400  1.00  0.00     0.174 C 
ATOM      9  N   UNL     1      -0.476   0.331   0.275  1.00  0.00    -0.262 N 
ATOM     10  N   UNL     1       0.539   1.081  -0.174  1.00  0.00    -0.180 NA
ATOM     11  C   UNL     1      -0.117  -0.945   0.663  1.00  0.00     0.138 A 
ATOM     12  C   UNL     1       1.600   0.311   0.029  1.00  0.00     0.149 A 
BRANCH  11  13
ATOM     13  C   UNL     1      -1.021  -1.928   1.205  1.00  0.00     0.270 C 
ATOM     14  O   UNL     1      -0.853  -2.477   2.291  1.00  0.00    -0.268 OA
ATOM     15  N   UNL     1      -1.934  -2.483   0.329  1.00  0.00    -0.350 N 
ATOM     16  H   UNL     1      -1.631  -3.246  -0.214  1.00  0.00     0.163 HD
BRANCH  15  17
ATOM     17  C   UNL     1      -3.304  -2.035   0.141  1.00  0.00     0.120 C 
BRANCH  17  18
ATOM     18  C   UNL     1      -3.884  -2.213  -1.282  1.00  0.00     0.019 C 
ATOM     19  C   UNL     1      -3.517  -3.543  -1.960  1.00  0.00     0.067 C 
ATOM     20  C   UNL     1      -3.588  -1.055  -2.247  1.00  0.00     0.067 C 
ATOM     21  C   UNL     1      -2.141  -3.530  -2.650  1.00  0.00     0.262 C 
ATOM     22  C   UNL     1      -2.184  -1.111  -2.850  1.00  0.00     0.262 C 
ATOM     23  N   UNL     1      -2.010  -2.384  -3.544  1.00  0.00    -0.331 N 
ATOM     24  H   UNL     1      -2.799  -2.473  -4.185  1.00  0.00     0.348 HD
BRANCH  23  25
ATOM     25  C   UNL     1      -0.857  -2.414  -4.455  1.00  0.00     0.299 C 
BRANCH  25  26
ATOM     26  C   UNL     1       0.510  -2.027  -3.928  1.00  0.00     0.006 A 
ATOM     27  C   UNL     1       1.157  -0.862  -4.367  1.00  0.00     0.009 A 
ATOM     28  C   UNL     1       1.214  -2.877  -3.074  1.00  0.00     0.009 A 
ATOM     29  C   UNL     1       2.464  -0.565  -3.961  1.00  0.00     0.001 A 
ATOM     30  C   UNL     1       2.517  -2.576  -2.660  1.00  0.00     0.001 A 
ATOM     31  C   UNL     1       3.144  -1.421  -3.103  1.00  0.00     0.000 A 
ENDBRANCH  25  26
ENDBRANCH  23  25
ENDBRANCH  17  18
ENDBRANCH  15  17
ENDBRANCH  11  13
ENDBRANCH   4   7
ENDBRANCH   2   3
ENDBRANCH   1   2
BRANCH   1  32
ATOM     32  C   UNL     1       2.739  -6.189  -0.154  1.00  0.00     0.002 C 
BRANCH  32  33
ATOM     33  C   UNL     1       2.522  -7.305   0.861  1.00  0.00     0.002 C 
BRANCH  33  34
ATOM     34  C   UNL     1       1.193  -8.051   0.747  1.00  0.00     0.021 C 
BRANCH  34  35
ATOM     35  C   UNL     1       0.802  -8.503  -0.658  1.00  0.00     0.116 C 
BRANCH  35  36
ATOM     36  N   UNL     1       1.684  -9.521  -1.192  1.00  0.00    -0.352 N 
ATOM     37  C   UNL     1       1.379 -10.814  -1.536  1.00  0.00     0.251 C 
ATOM     38  H   UNL     1       2.621  -9.251  -1.324  1.00  0.00     0.163 HD
ATOM     39  O   UNL     1       2.255 -11.612  -1.841  1.00  0.00    -0.269 OA
BRANCH  37  40
ATOM     40  C   UNL     1      -0.034 -11.242  -1.506  1.00  0.00     0.039 A 
ATOM     41  C   UNL     1      -0.384 -12.347  -0.731  1.00  0.00     0.014 A 
ATOM     42  C   UNL     1      -1.007 -10.527  -2.213  1.00  0.00     0.014 A 
ATOM     43  C   UNL     1      -1.726 -12.715  -0.629  1.00  0.00     0.010 A 
ATOM     44  C   UNL     1      -2.350 -10.854  -2.054  1.00  0.00     0.010 A 
ATOM     45  C   UNL     1      -2.721 -11.958  -1.271  1.00  0.00    -0.014 A 
BRANCH  45  46
ATOM     46  C   UNL     1      -4.152 -12.332  -1.153  1.00  0.00     0.031 A 
ATOM     47  C   UNL     1      -4.907 -12.795  -2.367  1.00  0.00     0.074 A 
ATOM     48  C   UNL     1      -4.780 -12.216   0.033  1.00  0.00     0.049 A 
ATOM     49  N   UNL     1      -6.167 -13.135  -2.481  1.00  0.00    -0.248 NA
ATOM     50  C   UNL     1      -4.153 -12.863  -3.629  1.00  0.00     0.031 C 
ATOM     51  C   UNL     1      -4.165 -11.738   1.272  1.00  0.00     0.029 A 
ATOM     52  N   UNL     1      -6.076 -12.490   0.390  1.00  0.00    -0.354 N 
ATOM     53  C   UNL     1      -6.355 -13.443  -3.821  1.00  0.00     0.074 A 
ATOM     54  C   UNL     1      -5.098 -13.196  -4.494  1.00  0.00     0.031 C 
ATOM     55  C   UNL     1      -5.075 -11.775   2.258  1.00  0.00     0.029 A 
ATOM     56  C   UNL     1      -6.346 -12.247   1.715  1.00  0.00     0.049 A 
ATOM     57  H   UNL     1      -6.750 -12.829  -0.243  1.00  0.00     0.167 HD
ATOM     58  C   UNL     1      -7.467 -13.916  -4.431  1.00  0.00     0.037 A 
ATOM     59  C   UNL     1      -7.491 -12.387   2.410  1.00  0.00     0.037 A 
ATOM     60  C   UNL     1      -8.707 -14.185  -3.752  1.00  0.00     0.049 A 
ATOM     61  C   UNL     1      -8.716 -12.906   1.706  1.00  0.00     0.074 A 
ATOM     62  C   UNL     1      -9.875 -14.720  -4.267  1.00  0.00     0.029 A 
ATOM     63  N   UNL     1      -8.940 -13.935  -2.407  1.00  0.00    -0.354 N 
ATOM     64  N   UNL     1      -8.863 -13.262   0.453  1.00  0.00    -0.248 NA
ATOM     65  C   UNL     1      -9.934 -13.051   2.516  1.00  0.00     0.031 C 
ATOM     66  C   UNL     1     -10.830 -14.747  -3.245  1.00  0.00     0.029 A 
ATOM     67  C   UNL     1     -10.241 -14.281  -2.081  1.00  0.00     0.049 A 
ATOM     68  H   UNL     1      -8.279 -13.566  -1.778  1.00  0.00     0.167 HD
ATOM     69  C   UNL     1     -10.175 -13.700   0.331  1.00  0.00     0.074 A 
ATOM     70  C   UNL     1     -10.778 -13.579   1.641  1.00  0.00     0.031 C 
ATOM     71  C   UNL     1     -10.822 -14.161  -0.768  1.00  0.00     0.037 A 
BRANCH  58  72
ATOM     72  C   UNL     1      -7.393 -14.174  -5.909  1.00  0.00     0.064 A 
ATOM     73  C   UNL     1      -6.621 -15.221  -6.436  1.00  0.00     0.173 A 
ATOM     74  C   UNL     1      -8.130 -13.387  -6.807  1.00  0.00     0.173 A 
ATOM     75  F   UNL     1      -5.888 -15.996  -5.622  1.00  0.00    -0.203 F 
ATOM     76  C   UNL     1      -6.565 -15.450  -7.809  1.00  0.00     0.198 A 
ATOM     77  C   UNL     1      -8.096 -13.639  -8.176  1.00  0.00     0.198 A 
ATOM     78  F   UNL     1      -8.888 -12.376  -6.356  1.00  0.00    -0.203 F 
ATOM     79  F   UNL     1      -5.779 -16.422  -8.292  1.00  0.00    -0.200 F 
ATOM     80  C   UNL     1      -7.308 -14.664  -8.676  1.00  0.00     0.200 A 
ATOM     81  F   UNL     1      -8.826 -12.887  -9.012  1.00  0.00    -0.200 F 
ATOM     82  F   UNL     1      -7.259 -14.891  -9.996  1.00  0.00    -0.200 F 
ENDBRANCH  58  72
BRANCH  59  83
ATOM     83  C   UNL     1      -7.528 -12.055   3.859  1.00  0.00     0.064 A 
ATOM     84  C   UNL     1      -7.685 -13.059   4.824  1.00  0.00     0.173 A 
ATOM     85  C   UNL     1      -7.416 -10.731   4.308  1.00  0.00     0.173 A 
ATOM     86  F   UNL     1      -7.817 -14.339   4.444  1.00  0.00    -0.203 F 
ATOM     87  C   UNL     1      -7.752 -12.750   6.181  1.00  0.00     0.198 A 
ATOM     88  C   UNL     1      -7.454 -10.426   5.667  1.00  0.00     0.198 A 
ATOM     89  F   UNL     1      -7.259  -9.733   3.426  1.00  0.00    -0.203 F 
ATOM     90  F   UNL     1      -7.952 -13.725   7.079  1.00  0.00    -0.200 F 
ATOM     91  C   UNL     1      -7.631 -11.435   6.602  1.00  0.00     0.200 A 
ATOM     92  F   UNL     1      -7.321  -9.155   6.070  1.00  0.00    -0.200 F 
ATOM     93  F   UNL     1      -7.693 -11.138   7.907  1.00  0.00    -0.200 F 
ENDBRANCH  59  83
BRANCH  71  94
ATOM     94  C   UNL     1     -12.247 -14.601  -0.593  1.00  0.00     0.064 A 
ATOM     95  C   UNL     1     -13.282 -13.681  -0.375  1.00  0.00     0.173 A 
ATOM     96  C   UNL     1     -12.585 -15.960  -0.687  1.00  0.00     0.173 A 
ATOM     97  F   UNL     1     -13.009 -12.372  -0.263  1.00  0.00    -0.203 F 
ATOM     98  C   UNL     1     -14.600 -14.107  -0.231  1.00  0.00     0.198 A 
ATOM     99  C   UNL     1     -13.907 -16.380  -0.575  1.00  0.00     0.198 A 
ATOM    100  F   UNL     1     -11.633 -16.881  -0.902  1.00  0.00    -0.203 F 
ATOM    101  F   UNL     1     -15.566 -13.214   0.026  1.00  0.00    -0.200 F 
ATOM    102  C   UNL     1     -14.912 -15.454  -0.339  1.00  0.00     0.200 A 
ATOM    103  F   UNL     1     -14.209 -17.680  -0.695  1.00  0.00    -0.200 F 
ATOM    104  F   UNL     1     -16.182 -15.861  -0.209  1.00  0.00    -0.200 F 
ENDBRANCH  71  94
ENDBRANCH  45  46
ENDBRANCH  37  40
ENDBRANCH  35  36
ENDBRANCH  34  35
ENDBRANCH  33  34
ENDBRANCH  32  33
ENDBRANCH   1  32
TORSDOF 18
