REMARK SMILES Cc1cccc(C(=O)Nc2ccc(-c3nnc(S[C@H](C(=O)NCCCCCCNC(=O)c4ccc(-c5c6nc(c(-c7c(F)c(F)c(F)c(F)c7F)c7ccc([nH]7)c(-c7c(F)c(F)c(F)c(F)c7F)c7nc(c(-c8c(F)c(F)c(F)c(F)c8F)c8ccc5[nH]8)C=C7)C=C6)cc4)C(C)C)n3C)cc2)c1
REMARK SMILES IDX 24 1 23 2 22 3 20 4 21 5 19 7 18 8 17 9 14 10 15 11 98 12
REMARK SMILES IDX 16 13 99 14 13 15 10 16 11 17 101 18 12 19 100 20 9 21 7 22
REMARK SMILES IDX 8 23 6 25 1 26 2 27 3 28 102 29 4 30 5 31 95 32 96 33 97 34
REMARK SMILES IDX 25 35 26 36 27 37 28 38 29 39 30 40 31 42 32 43 33 44 94 45
REMARK SMILES IDX 34 46 93 47 35 48 36 49 37 50 87 51 38 52 92 53 86 54 88 55
REMARK SMILES IDX 39 56 91 57 85 58 84 59 40 61 72 62 52 63 71 64 53 65 56 66
REMARK SMILES IDX 70 67 89 68 54 69 55 70 69 72 90 73 57 74 41 75 42 76 50 77
REMARK SMILES IDX 43 78 44 79 48 80 51 81 45 82 46 83 49 84 47 85 73 86 74 87
REMARK SMILES IDX 82 88 75 89 76 90 80 91 83 92 77 93 78 94 81 95 79 96 58 97
REMARK SMILES IDX 59 98 67 99 60 100 61 101 65 102 68 103 62 104 63 105 66 106
REMARK SMILES IDX 64 107
REMARK H PARENT 22 6 9 24 29 41 88 60 56 71
REMARK Flexibility Score: inf
ROOT
ATOM      1  C   UNL     1       6.179   6.466   0.149  1.00  0.00     0.021 C 
ENDROOT
BRANCH   1   2
ATOM      2  C   UNL     1       7.096   6.239  -1.050  1.00  0.00     0.116 C 
BRANCH   2   3
ATOM      3  N   UNL     1       7.652   4.912  -1.180  1.00  0.00    -0.355 N 
ATOM      4  C   UNL     1       8.176   4.269  -2.267  1.00  0.00     0.233 C 
ATOM      5  O   UNL     1       9.101   3.478  -2.027  1.00  0.00    -0.274 OA
ATOM      6  H   UNL     1       7.654   4.384  -0.349  1.00  0.00     0.163 HD
BRANCH   4   7
ATOM      7  C   UNL     1       7.686   4.416  -3.727  1.00  0.00     0.146 C 
BRANCH   7   8
ATOM      8  S   UNL     1       6.644   3.012  -4.289  1.00  0.00    -0.072 SA
BRANCH   8   9
ATOM      9  C   UNL     1       6.146   2.037  -2.962  1.00  0.00     0.192 A 
ATOM     10  C   UNL     1       5.294   0.301  -1.915  1.00  0.00     0.164 A 
ATOM     11  N   UNL     1       5.915   1.068  -1.035  1.00  0.00    -0.129 NA
ATOM     12  N   UNL     1       5.335   0.943  -3.134  1.00  0.00    -0.305 N 
ATOM     13  N   UNL     1       6.450   2.148  -1.695  1.00  0.00    -0.123 NA
ATOM     14  C   UNL     1       4.586   0.576  -4.310  1.00  0.00     0.154 C 
BRANCH  10  15
ATOM     15  C   UNL     1       4.680  -0.994  -1.615  1.00  0.00     0.019 A 
ATOM     16  C   UNL     1       3.807  -3.540  -0.794  1.00  0.00     0.041 A 
ATOM     17  C   UNL     1       3.544  -2.422  -0.003  1.00  0.00     0.027 A 
ATOM     18  C   UNL     1       4.374  -3.368  -2.058  1.00  0.00     0.027 A 
ATOM     19  C   UNL     1       4.005  -1.163  -0.399  1.00  0.00     0.014 A 
ATOM     20  C   UNL     1       4.828  -2.105  -2.457  1.00  0.00     0.014 A 
BRANCH  16  21
ATOM     21  N   UNL     1       3.555  -4.799  -0.233  1.00  0.00    -0.322 N 
ATOM     22  C   UNL     1       4.239  -5.996  -0.336  1.00  0.00     0.255 C 
ATOM     23  O   UNL     1       3.691  -7.017   0.084  1.00  0.00    -0.269 OA
ATOM     24  H   UNL     1       2.751  -4.838   0.334  1.00  0.00     0.170 HD
BRANCH  22  25
ATOM     25  C   UNL     1       5.645  -6.095  -0.839  1.00  0.00     0.040 A 
ATOM     26  C   UNL     1       8.690  -3.924  -1.563  1.00  0.00     0.044 C 
ATOM     27  C   UNL     1       7.813  -5.133  -1.416  1.00  0.00    -0.050 A 
ATOM     28  C   UNL     1       8.236  -6.379  -1.887  1.00  0.00     0.003 A 
ATOM     29  C   UNL     1       6.551  -5.027  -0.817  1.00  0.00     0.017 A 
ATOM     30  C   UNL     1       7.390  -7.484  -1.803  1.00  0.00     0.001 A 
ATOM     31  C   UNL     1       6.093  -7.339  -1.303  1.00  0.00     0.014 A 
ENDBRANCH  22  25
ENDBRANCH  16  21
ENDBRANCH  10  15
ENDBRANCH   8   9
ENDBRANCH   7   8
BRANCH   7  32
ATOM     32  C   UNL     1       7.141   5.769  -4.259  1.00  0.00     0.006 C 
ATOM     33  C   UNL     1       8.190   6.883  -4.111  1.00  0.00     0.009 C 
ATOM     34  C   UNL     1       6.704   5.763  -5.737  1.00  0.00     0.009 C 
ENDBRANCH   7  32
ENDBRANCH   4   7
ENDBRANCH   2   3
ENDBRANCH   1   2
BRANCH   1  35
ATOM     35  C   UNL     1       6.819   6.526   1.539  1.00  0.00     0.002 C 
BRANCH  35  36
ATOM     36  C   UNL     1       8.060   7.410   1.734  1.00  0.00     0.002 C 
BRANCH  36  37
ATOM     37  C   UNL     1       8.049   8.810   1.118  1.00  0.00     0.021 C 
BRANCH  37  38
ATOM     38  C   UNL     1       6.991   9.761   1.654  1.00  0.00     0.116 C 
BRANCH  38  39
ATOM     39  N   UNL     1       7.451  10.645   2.722  1.00  0.00    -0.352 N 
ATOM     40  C   UNL     1       6.738  11.597   3.435  1.00  0.00     0.251 C 
ATOM     41  H   UNL     1       8.399  10.551   2.971  1.00  0.00     0.163 HD
ATOM     42  O   UNL     1       7.269  12.272   4.283  1.00  0.00    -0.269 OA
BRANCH  40  43
ATOM     43  C   UNL     1       5.268  11.680   3.225  1.00  0.00     0.039 A 
ATOM     44  C   UNL     1       4.442  11.588   4.351  1.00  0.00     0.014 A 
ATOM     45  C   UNL     1       4.725  11.622   1.944  1.00  0.00     0.014 A 
ATOM     46  C   UNL     1       3.121  11.179   4.190  1.00  0.00     0.010 A 
ATOM     47  C   UNL     1       3.449  11.121   1.788  1.00  0.00     0.010 A 
ATOM     48  C   UNL     1       2.678  10.825   2.918  1.00  0.00    -0.014 A 
BRANCH  48  49
ATOM     49  C   UNL     1       1.478  10.033   2.683  1.00  0.00     0.031 A 
ATOM     50  C   UNL     1       0.255  10.666   2.152  1.00  0.00     0.074 A 
ATOM     51  C   UNL     1       1.519   8.697   2.889  1.00  0.00     0.049 A 
ATOM     52  N   UNL     1      -0.918  10.132   2.211  1.00  0.00    -0.248 NA
ATOM     53  C   UNL     1       0.240  12.013   1.590  1.00  0.00     0.031 C 
ATOM     54  C   UNL     1       0.554   7.698   2.437  1.00  0.00     0.029 A 
ATOM     55  N   UNL     1       2.368   7.991   3.761  1.00  0.00    -0.354 N 
ATOM     56  C   UNL     1      -1.775  10.907   1.466  1.00  0.00     0.074 A 
ATOM     57  C   UNL     1      -1.042  12.124   1.228  1.00  0.00     0.031 C 
ATOM     58  C   UNL     1       0.653   6.614   3.220  1.00  0.00     0.029 A 
ATOM     59  C   UNL     1       1.575   6.946   4.290  1.00  0.00     0.049 A 
ATOM     60  H   UNL     1       3.313   8.184   3.960  1.00  0.00     0.167 HD
ATOM     61  C   UNL     1      -2.944  10.352   1.036  1.00  0.00     0.037 A 
ATOM     62  C   UNL     1       1.281   6.867   5.620  1.00  0.00     0.037 A 
ATOM     63  C   UNL     1      -3.209   9.098   1.748  1.00  0.00     0.049 A 
ATOM     64  C   UNL     1      -0.197   6.847   5.927  1.00  0.00     0.074 A 
ATOM     65  C   UNL     1      -3.122   7.763   1.393  1.00  0.00     0.029 A 
ATOM     66  N   UNL     1      -3.383   9.128   3.131  1.00  0.00    -0.354 N 
ATOM     67  N   UNL     1      -1.115   7.279   5.108  1.00  0.00    -0.248 NA
ATOM     68  C   UNL     1      -0.750   6.377   7.193  1.00  0.00     0.031 C 
ATOM     69  C   UNL     1      -3.180   6.990   2.584  1.00  0.00     0.029 A 
ATOM     70  C   UNL     1      -3.336   7.852   3.656  1.00  0.00     0.049 A 
ATOM     71  H   UNL     1      -3.520   9.947   3.660  1.00  0.00     0.167 HD
ATOM     72  C   UNL     1      -2.344   7.184   5.710  1.00  0.00     0.074 A 
ATOM     73  C   UNL     1      -2.064   6.589   7.003  1.00  0.00     0.031 C 
ATOM     74  C   UNL     1      -3.478   7.625   5.089  1.00  0.00     0.037 A 
BRANCH  61  75
ATOM     75  C   UNL     1      -3.754  10.795  -0.178  1.00  0.00     0.064 A 
ATOM     76  C   UNL     1      -4.838  10.004  -0.632  1.00  0.00     0.173 A 
ATOM     77  C   UNL     1      -3.458  11.890  -1.017  1.00  0.00     0.173 A 
ATOM     78  F   UNL     1      -5.269   8.944   0.065  1.00  0.00    -0.203 F 
ATOM     79  C   UNL     1      -5.513  10.255  -1.834  1.00  0.00     0.198 A 
ATOM     80  C   UNL     1      -4.152  12.158  -2.203  1.00  0.00     0.198 A 
ATOM     81  F   UNL     1      -2.469  12.747  -0.764  1.00  0.00    -0.203 F 
ATOM     82  F   UNL     1      -6.492   9.431  -2.234  1.00  0.00    -0.200 F 
ATOM     83  C   UNL     1      -5.167  11.331  -2.623  1.00  0.00     0.200 A 
ATOM     84  F   UNL     1      -3.800  13.217  -2.947  1.00  0.00    -0.200 F 
ATOM     85  F   UNL     1      -5.799  11.567  -3.779  1.00  0.00    -0.200 F 
ENDBRANCH  61  75
BRANCH  62  86
ATOM     86  C   UNL     1       2.319   7.472   6.492  1.00  0.00     0.064 A 
ATOM     87  C   UNL     1       3.603   6.894   6.506  1.00  0.00     0.173 A 
ATOM     88  C   UNL     1       2.190   8.776   6.984  1.00  0.00     0.173 A 
ATOM     89  F   UNL     1       3.778   5.645   6.044  1.00  0.00    -0.203 F 
ATOM     90  C   UNL     1       4.724   7.630   6.881  1.00  0.00     0.198 A 
ATOM     91  C   UNL     1       3.315   9.506   7.372  1.00  0.00     0.198 A 
ATOM     92  F   UNL     1       0.997   9.389   6.978  1.00  0.00    -0.203 F 
ATOM     93  F   UNL     1       5.946   7.087   6.775  1.00  0.00    -0.200 F 
ATOM     94  C   UNL     1       4.582   8.945   7.286  1.00  0.00     0.200 A 
ATOM     95  F   UNL     1       3.183  10.790   7.734  1.00  0.00    -0.200 F 
ATOM     96  F   UNL     1       5.666   9.687   7.553  1.00  0.00    -0.200 F 
ENDBRANCH  62  86
BRANCH  74  97
ATOM     97  C   UNL     1      -4.838   7.810   5.730  1.00  0.00     0.064 A 
ATOM     98  C   UNL     1      -5.046   8.034   7.102  1.00  0.00     0.173 A 
ATOM     99  C   UNL     1      -6.000   7.909   4.923  1.00  0.00     0.173 A 
ATOM    100  F   UNL     1      -4.022   8.101   7.963  1.00  0.00    -0.203 F 
ATOM    101  C   UNL     1      -6.319   8.268   7.633  1.00  0.00     0.198 A 
ATOM    102  C   UNL     1      -7.258   8.203   5.449  1.00  0.00     0.198 A 
ATOM    103  F   UNL     1      -5.946   7.753   3.592  1.00  0.00    -0.203 F 
ATOM    104  F   UNL     1      -6.464   8.432   8.956  1.00  0.00    -0.200 F 
ATOM    105  C   UNL     1      -7.422   8.364   6.807  1.00  0.00     0.200 A 
ATOM    106  F   UNL     1      -8.306   8.349   4.625  1.00  0.00    -0.200 F 
ATOM    107  F   UNL     1      -8.630   8.637   7.316  1.00  0.00    -0.200 F 
ENDBRANCH  74  97
ENDBRANCH  48  49
ENDBRANCH  40  43
ENDBRANCH  38  39
ENDBRANCH  37  38
ENDBRANCH  36  37
ENDBRANCH  35  36
ENDBRANCH   1  35
TORSDOF 19
