REMARK SMILES Cc1nsc(NC(=O)[C@]2([NH3+])CCC[C@@H](C)C2)c1C(=O)NCCCCCCNC(=O)c1ccc(-c2c3nc(c(-c4c(F)c(F)c(F)c(F)c4F)c4ccc([nH]4)c(-c4c(F)c(F)c(F)c(F)c4F)c4nc(c(-c5c(F)c(F)c(F)c(F)c5F)c5ccc2[nH]5)C=C4)C=C3)cc1
REMARK SMILES IDX 23 1 22 2 21 3 20 4 18 5 19 6 17 8 1 9 2 10 3 11 4 12 5 13
REMARK SMILES IDX 6 14 7 15 8 17 9 18 11 19 16 20 12 21 14 22 13 23 15 24
REMARK SMILES IDX 10 25 24 29 25 30 26 31 27 32 28 33 29 35 30 36 31 37 92 38
REMARK SMILES IDX 32 39 91 40 33 41 34 42 35 43 85 44 36 45 90 46 84 47 86 48
REMARK SMILES IDX 37 49 89 50 83 51 82 52 38 54 70 55 50 56 69 57 51 58 54 59
REMARK SMILES IDX 68 60 87 61 52 62 53 63 67 65 88 66 55 67 39 68 40 69 48 70
REMARK SMILES IDX 41 71 42 72 46 73 49 74 43 75 44 76 47 77 45 78 71 79 72 80
REMARK SMILES IDX 80 81 73 82 74 83 78 84 81 85 75 86 76 87 79 88 77 89 56 90
REMARK SMILES IDX 57 91 65 92 58 93 59 94 63 95 66 96 60 97 61 98 64 99 62 100
REMARK H PARENT 20 7 6 16 10 26 10 27 10 28 27 34 86 53 54 64
REMARK Flexibility Score: inf
ROOT
ATOM      1  C   UNL     1       4.911  -1.302   4.672  1.00  0.00     0.002 C 
ENDROOT
BRANCH   1   2
ATOM      2  C   UNL     1       4.674  -0.427   3.447  1.00  0.00     0.021 C 
BRANCH   2   3
ATOM      3  C   UNL     1       3.241  -0.030   3.143  1.00  0.00     0.116 C 
BRANCH   3   4
ATOM      4  N   UNL     1       2.550   0.760   4.131  1.00  0.00    -0.352 N 
ATOM      5  C   UNL     1       1.596   1.736   3.936  1.00  0.00     0.256 C 
ATOM      6  O   UNL     1       1.104   2.261   4.935  1.00  0.00    -0.269 OA
ATOM      7  H   UNL     1       2.792   0.580   5.068  1.00  0.00     0.163 HD
BRANCH   5   8
ATOM      8  C   UNL     1       1.297   2.235   2.594  1.00  0.00     0.097 A 
ATOM      9  C   UNL     1       1.066   0.097   1.006  1.00  0.00     0.069 C 
ATOM     10  C   UNL     1       1.178   1.552   1.310  1.00  0.00     0.066 A 
ATOM     11  N   UNL     1       1.188   2.344   0.238  1.00  0.00    -0.195 NA
ATOM     12  S   UNL     1       1.200   3.899   0.745  1.00  0.00    -0.017 S 
ATOM     13  C   UNL     1       0.933   3.570   2.389  1.00  0.00     0.129 A 
BRANCH  13  14
ATOM     14  N   UNL     1       0.578   4.521   3.334  1.00  0.00    -0.310 N 
ATOM     15  C   UNL     1      -0.119   5.707   3.282  1.00  0.00     0.286 C 
ATOM     16  H   UNL     1       0.893   4.300   4.240  1.00  0.00     0.171 HD
ATOM     17  O   UNL     1      -0.208   6.334   4.346  1.00  0.00    -0.267 OA
BRANCH  15  18
ATOM     18  C   UNL     1      -0.800   6.267   1.987  1.00  0.00     0.174 C 
ATOM     19  C   UNL     1      -1.640   7.544   2.264  1.00  0.00     0.079 C 
ATOM     20  C   UNL     1      -1.807   5.223   1.437  1.00  0.00     0.082 C 
ATOM     21  C   UNL     1      -2.344   8.053   0.993  1.00  0.00     0.007 C 
ATOM     22  C   UNL     1      -2.566   5.633   0.168  1.00  0.00    -0.008 C 
ATOM     23  C   UNL     1      -3.245   6.993   0.360  1.00  0.00     0.004 C 
ATOM     24  C   UNL     1      -1.696   5.575  -1.090  1.00  0.00     0.008 C 
BRANCH  18  25
ATOM     25  N   UNL     1       0.274   6.742   1.088  1.00  0.00    -0.345 N 
ATOM     26  H   UNL     1      -0.139   7.115   0.233  1.00  0.00     0.345 HD
ATOM     27  H   UNL     1       0.892   5.965   0.857  1.00  0.00     0.345 HD
ATOM     28  H   UNL     1       0.808   7.475   1.555  1.00  0.00     0.345 HD
ENDBRANCH  18  25
ENDBRANCH  15  18
ENDBRANCH  13  14
ENDBRANCH   5   8
ENDBRANCH   3   4
ENDBRANCH   2   3
ENDBRANCH   1   2
BRANCH   1  29
ATOM     29  C   UNL     1       3.987  -2.508   4.888  1.00  0.00     0.002 C 
BRANCH  29  30
ATOM     30  C   UNL     1       3.790  -3.506   3.738  1.00  0.00     0.021 C 
BRANCH  30  31
ATOM     31  C   UNL     1       5.061  -4.113   3.173  1.00  0.00     0.116 C 
BRANCH  31  32
ATOM     32  N   UNL     1       5.840  -4.877   4.152  1.00  0.00    -0.352 N 
ATOM     33  C   UNL     1       7.079  -5.485   3.986  1.00  0.00     0.251 C 
ATOM     34  H   UNL     1       5.433  -4.971   5.043  1.00  0.00     0.163 HD
ATOM     35  O   UNL     1       7.450  -6.384   4.719  1.00  0.00    -0.269 OA
BRANCH  33  36
ATOM     36  C   UNL     1       7.952  -4.996   2.902  1.00  0.00     0.039 A 
ATOM     37  C   UNL     1       8.776  -5.832   2.142  1.00  0.00     0.014 A 
ATOM     38  C   UNL     1       7.885  -3.638   2.631  1.00  0.00     0.014 A 
ATOM     39  C   UNL     1       9.486  -5.270   1.082  1.00  0.00     0.010 A 
ATOM     40  C   UNL     1       8.315  -3.175   1.428  1.00  0.00     0.010 A 
ATOM     41  C   UNL     1       9.238  -3.932   0.736  1.00  0.00    -0.014 A 
BRANCH  41  42
ATOM     42  C   UNL     1       9.859  -3.274  -0.402  1.00  0.00     0.031 A 
ATOM     43  C   UNL     1       9.573  -3.953  -1.684  1.00  0.00     0.074 A 
ATOM     44  C   UNL     1      10.407  -2.039  -0.310  1.00  0.00     0.049 A 
ATOM     45  N   UNL     1      10.386  -4.662  -2.391  1.00  0.00    -0.248 NA
ATOM     46  C   UNL     1       8.174  -4.018  -2.139  1.00  0.00     0.031 C 
ATOM     47  C   UNL     1      10.419  -1.129   0.848  1.00  0.00     0.029 A 
ATOM     48  N   UNL     1      10.997  -1.285  -1.277  1.00  0.00    -0.354 N 
ATOM     49  C   UNL     1       9.659  -5.057  -3.509  1.00  0.00     0.074 A 
ATOM     50  C   UNL     1       8.275  -4.842  -3.185  1.00  0.00     0.031 C 
ATOM     51  C   UNL     1      10.777   0.114   0.455  1.00  0.00     0.029 A 
ATOM     52  C   UNL     1      11.196   0.050  -0.930  1.00  0.00     0.049 A 
ATOM     53  H   UNL     1      11.262  -1.652  -2.151  1.00  0.00     0.167 HD
ATOM     54  C   UNL     1      10.286  -5.210  -4.708  1.00  0.00     0.037 A 
ATOM     55  C   UNL     1      11.669   1.031  -1.738  1.00  0.00     0.037 A 
ATOM     56  C   UNL     1      11.718  -5.231  -4.521  1.00  0.00     0.049 A 
ATOM     57  C   UNL     1      12.376   0.359  -2.852  1.00  0.00     0.074 A 
ATOM     58  C   UNL     1      12.632  -6.076  -3.930  1.00  0.00     0.029 A 
ATOM     59  N   UNL     1      12.317  -4.001  -4.624  1.00  0.00    -0.354 N 
ATOM     60  N   UNL     1      13.464  -0.346  -2.696  1.00  0.00    -0.248 NA
ATOM     61  C   UNL     1      11.641   0.108  -4.081  1.00  0.00     0.031 C 
ATOM     62  C   UNL     1      13.657  -5.227  -3.409  1.00  0.00     0.029 A 
ATOM     63  C   UNL     1      13.370  -3.906  -3.758  1.00  0.00     0.049 A 
ATOM     64  H   UNL     1      12.028  -3.287  -5.237  1.00  0.00     0.167 HD
ATOM     65  C   UNL     1      13.319  -1.412  -3.569  1.00  0.00     0.074 A 
ATOM     66  C   UNL     1      12.265  -1.000  -4.492  1.00  0.00     0.031 C 
ATOM     67  C   UNL     1      13.853  -2.632  -3.263  1.00  0.00     0.037 A 
BRANCH  54  68
ATOM     68  C   UNL     1       9.685  -4.828  -6.048  1.00  0.00     0.064 A 
ATOM     69  C   UNL     1      10.430  -5.090  -7.218  1.00  0.00     0.173 A 
ATOM     70  C   UNL     1       8.593  -3.947  -6.217  1.00  0.00     0.173 A 
ATOM     71  F   UNL     1      11.503  -5.894  -7.178  1.00  0.00    -0.203 F 
ATOM     72  C   UNL     1      10.150  -4.458  -8.434  1.00  0.00     0.198 A 
ATOM     73  C   UNL     1       8.286  -3.360  -7.443  1.00  0.00     0.198 A 
ATOM     74  F   UNL     1       7.847  -3.521  -5.194  1.00  0.00    -0.203 F 
ATOM     75  F   UNL     1      10.964  -4.641  -9.482  1.00  0.00    -0.200 F 
ATOM     76  C   UNL     1       9.082  -3.589  -8.544  1.00  0.00     0.200 A 
ATOM     77  F   UNL     1       7.260  -2.500  -7.520  1.00  0.00    -0.200 F 
ATOM     78  F   UNL     1       8.847  -2.934  -9.688  1.00  0.00    -0.200 F 
ENDBRANCH  54  68
BRANCH  55  79
ATOM     79  C   UNL     1      11.273   2.459  -1.788  1.00  0.00     0.064 A 
ATOM     80  C   UNL     1      12.082   3.430  -2.401  1.00  0.00     0.173 A 
ATOM     81  C   UNL     1       9.952   2.845  -1.490  1.00  0.00     0.173 A 
ATOM     82  F   UNL     1      13.336   3.127  -2.767  1.00  0.00    -0.203 F 
ATOM     83  C   UNL     1      11.593   4.705  -2.711  1.00  0.00     0.198 A 
ATOM     84  C   UNL     1       9.464   4.116  -1.800  1.00  0.00     0.198 A 
ATOM     85  F   UNL     1       9.081   1.961  -0.981  1.00  0.00    -0.203 F 
ATOM     86  F   UNL     1      12.377   5.588  -3.347  1.00  0.00    -0.200 F 
ATOM     87  C   UNL     1      10.282   5.044  -2.420  1.00  0.00     0.200 A 
ATOM     88  F   UNL     1       8.180   4.414  -1.554  1.00  0.00    -0.200 F 
ATOM     89  F   UNL     1       9.794   6.241  -2.773  1.00  0.00    -0.200 F 
ENDBRANCH  55  79
BRANCH  67  90
ATOM     90  C   UNL     1      14.922  -2.674  -2.205  1.00  0.00     0.064 A 
ATOM     91  C   UNL     1      14.720  -2.382  -0.845  1.00  0.00     0.173 A 
ATOM     92  C   UNL     1      16.188  -3.146  -2.579  1.00  0.00     0.173 A 
ATOM     93  F   UNL     1      13.521  -2.002  -0.391  1.00  0.00    -0.203 F 
ATOM     94  C   UNL     1      15.750  -2.525   0.086  1.00  0.00     0.198 A 
ATOM     95  C   UNL     1      17.201  -3.324  -1.644  1.00  0.00     0.198 A 
ATOM     96  F   UNL     1      16.425  -3.482  -3.857  1.00  0.00    -0.203 F 
ATOM     97  F   UNL     1      15.537  -2.228   1.377  1.00  0.00    -0.200 F 
ATOM     98  C   UNL     1      16.986  -3.005  -0.314  1.00  0.00     0.200 A 
ATOM     99  F   UNL     1      18.380  -3.831  -2.030  1.00  0.00    -0.200 F 
ATOM    100  F   UNL     1      17.964  -3.182   0.586  1.00  0.00    -0.200 F 
ENDBRANCH  67  90
ENDBRANCH  41  42
ENDBRANCH  33  36
ENDBRANCH  31  32
ENDBRANCH  30  31
ENDBRANCH  29  30
ENDBRANCH   1  29
TORSDOF 16
