REMARK SMILES CCCCc1ncc(C[N@H+]2C[C@@H]3c4ccccc4OC[C@]3(C(=O)NCCCCCCNC(=O)c3ccc(-c4c5nc(c(-c6c(F)c(F)c(F)c(F)c6F)c6ccc([nH]6)c(-c6c(F)c(F)c(F)c(F)c6F)c6nc(c(-c7c(F)c(F)c(F)c(F)c7F)c7ccc4[nH]7)C=C6)C=C5)cc3)C2)[nH]1
REMARK SMILES IDX 26 1 25 2 24 3 22 4 23 5 21 7 10 8 11 9 97 10 12 12 13 13
REMARK SMILES IDX 20 14 14 15 18 16 19 17 15 18 17 19 16 20 9 21 8 22 5 23
REMARK SMILES IDX 6 24 98 25 7 26 4 28 3 29 2 30 1 31 27 32 28 33 29 34 30 35
REMARK SMILES IDX 31 36 32 37 33 39 34 40 35 41 96 42 36 43 95 44 37 45 38 46
REMARK SMILES IDX 39 47 89 48 40 49 94 50 88 51 90 52 41 53 93 54 87 55 86 56
REMARK SMILES IDX 42 58 74 59 54 60 73 61 55 62 58 63 72 64 91 65 56 66 57 67
REMARK SMILES IDX 71 69 92 70 59 71 43 72 44 73 52 74 45 75 46 76 50 77 53 78
REMARK SMILES IDX 47 79 48 80 51 81 49 82 75 83 76 84 84 85 77 86 78 87 82 88
REMARK SMILES IDX 85 89 79 90 80 91 83 92 81 93 60 94 61 95 69 96 62 97 63 98
REMARK SMILES IDX 67 99 70 100 64 101 65 102 68 103 66 104
REMARK H PARENT 24 6 10 11 98 27 31 38 90 57 58 68
REMARK Flexibility Score: inf
ROOT
ATOM      1  C   UNL     1      -4.491 -10.122  -0.621  1.00  0.00     0.021 C 
ENDROOT
BRANCH   1   2
ATOM      2  C   UNL     1      -3.830  -8.756  -0.542  1.00  0.00     0.116 C 
BRANCH   2   3
ATOM      3  N   UNL     1      -2.508  -8.662  -1.142  1.00  0.00    -0.355 N 
ATOM      4  C   UNL     1      -1.972  -7.510  -1.702  1.00  0.00     0.236 C 
ATOM      5  O   UNL     1      -0.748  -7.358  -1.684  1.00  0.00    -0.274 OA
ATOM      6  H   UNL     1      -1.953  -9.475  -1.153  1.00  0.00     0.163 HD
BRANCH   4   7
ATOM      7  C   UNL     1      -2.999  -6.499  -2.347  1.00  0.00     0.144 C 
ATOM      8  N   UNL     1      -4.044  -5.058  -0.722  1.00  0.00    -0.328 N 
ATOM      9  C   UNL     1      -4.169  -4.321  -1.963  1.00  0.00     0.272 C 
ATOM     10  C   UNL     1      -2.824  -5.840  -0.893  1.00  0.00     0.284 C 
ATOM     11  H   UNL     1      -4.848  -5.666  -0.565  1.00  0.00     0.348 HD
ATOM     12  C   UNL     1      -3.122  -4.987  -2.885  1.00  0.00     0.103 C 
ATOM     13  C   UNL     1      -3.498  -4.724  -4.327  1.00  0.00     0.004 A 
ATOM     14  C   UNL     1      -2.363  -7.056  -3.699  1.00  0.00     0.253 C 
ATOM     15  C   UNL     1      -3.731  -3.428  -4.813  1.00  0.00     0.008 A 
ATOM     16  C   UNL     1      -3.541  -5.784  -5.220  1.00  0.00     0.123 A 
ATOM     17  O   UNL     1      -3.314  -7.052  -4.784  1.00  0.00    -0.492 OA
ATOM     18  C   UNL     1      -4.006  -3.216  -6.166  1.00  0.00     0.001 A 
ATOM     19  C   UNL     1      -3.814  -5.584  -6.571  1.00  0.00     0.047 A 
ATOM     20  C   UNL     1      -4.038  -4.294  -7.047  1.00  0.00     0.004 A 
BRANCH   8  21
ATOM     21  C   UNL     1      -4.161  -4.278   0.510  1.00  0.00     0.319 C 
BRANCH  21  22
ATOM     22  C   UNL     1      -3.076  -3.287   0.708  1.00  0.00     0.090 A 
ATOM     23  C   UNL     1      -1.005  -2.527   0.820  1.00  0.00     0.106 A 
ATOM     24  N   UNL     1      -1.759  -1.454   0.702  1.00  0.00    -0.241 NA
ATOM     25  N   UNL     1      -1.787  -3.631   1.033  1.00  0.00    -0.341 N 
ATOM     26  C   UNL     1      -3.046  -1.914   0.618  1.00  0.00     0.140 A 
ATOM     27  H   UNL     1      -1.482  -4.509   1.358  1.00  0.00     0.168 HD
BRANCH  23  28
ATOM     28  C   UNL     1       0.475  -2.621   0.688  1.00  0.00     0.075 C 
BRANCH  28  29
ATOM     29  C   UNL     1       0.955  -2.267  -0.727  1.00  0.00     0.008 C 
BRANCH  29  30
ATOM     30  C   UNL     1       0.676  -0.831  -1.189  1.00  0.00    -0.003 C 
ATOM     31  C   UNL     1       1.161   0.232  -0.215  1.00  0.00     0.004 C 
ENDBRANCH  29  30
ENDBRANCH  28  29
ENDBRANCH  23  28
ENDBRANCH  21  22
ENDBRANCH   8  21
ENDBRANCH   4   7
ENDBRANCH   2   3
ENDBRANCH   1   2
BRANCH   1  32
ATOM     32  C   UNL     1      -3.663 -11.327  -0.170  1.00  0.00     0.002 C 
BRANCH  32  33
ATOM     33  C   UNL     1      -2.924 -11.232   1.167  1.00  0.00     0.002 C 
BRANCH  33  34
ATOM     34  C   UNL     1      -3.738 -10.823   2.391  1.00  0.00     0.021 C 
BRANCH  34  35
ATOM     35  C   UNL     1      -5.033 -11.585   2.627  1.00  0.00     0.116 C 
BRANCH  35  36
ATOM     36  N   UNL     1      -4.845 -13.010   2.846  1.00  0.00    -0.352 N 
ATOM     37  C   UNL     1      -5.394 -13.822   3.812  1.00  0.00     0.251 C 
ATOM     38  H   UNL     1      -4.239 -13.457   2.212  1.00  0.00     0.163 HD
ATOM     39  O   UNL     1      -5.055 -14.999   3.895  1.00  0.00    -0.269 OA
BRANCH  37  40
ATOM     40  C   UNL     1      -6.362 -13.265   4.785  1.00  0.00     0.039 A 
ATOM     41  C   UNL     1      -7.389 -12.416   4.372  1.00  0.00     0.014 A 
ATOM     42  C   UNL     1      -6.221 -13.581   6.141  1.00  0.00     0.014 A 
ATOM     43  C   UNL     1      -8.151 -11.744   5.321  1.00  0.00     0.010 A 
ATOM     44  C   UNL     1      -7.054 -12.976   7.088  1.00  0.00     0.010 A 
ATOM     45  C   UNL     1      -7.993 -12.013   6.691  1.00  0.00    -0.014 A 
BRANCH  45  46
ATOM     46  C   UNL     1      -8.831 -11.274   7.674  1.00  0.00     0.031 A 
ATOM     47  C   UNL     1      -8.211 -10.324   8.664  1.00  0.00     0.074 A 
ATOM     48  C   UNL     1     -10.171 -11.404   7.615  1.00  0.00     0.049 A 
ATOM     49  N   UNL     1      -8.800  -9.541   9.534  1.00  0.00    -0.248 NA
ATOM     50  C   UNL     1      -6.742 -10.239   8.687  1.00  0.00     0.031 C 
ATOM     51  C   UNL     1     -10.886 -12.292   6.697  1.00  0.00     0.029 A 
ATOM     52  N   UNL     1     -11.171 -10.766   8.305  1.00  0.00    -0.354 N 
ATOM     53  C   UNL     1      -7.781  -8.883  10.209  1.00  0.00     0.074 A 
ATOM     54  C   UNL     1      -6.532  -9.380   9.676  1.00  0.00     0.031 C 
ATOM     55  C   UNL     1     -12.205 -12.088   6.827  1.00  0.00     0.029 A 
ATOM     56  C   UNL     1     -12.432 -11.104   7.879  1.00  0.00     0.049 A 
ATOM     57  H   UNL     1     -11.000 -10.127   9.035  1.00  0.00     0.167 HD
ATOM     58  C   UNL     1      -7.880  -7.936  11.173  1.00  0.00     0.037 A 
ATOM     59  C   UNL     1     -13.640 -10.671   8.289  1.00  0.00     0.037 A 
ATOM     60  C   UNL     1      -9.124  -7.426  11.687  1.00  0.00     0.049 A 
ATOM     61  C   UNL     1     -13.719  -9.649   9.387  1.00  0.00     0.074 A 
ATOM     62  C   UNL     1      -9.323  -6.455  12.654  1.00  0.00     0.029 A 
ATOM     63  N   UNL     1     -10.381  -7.842  11.273  1.00  0.00    -0.354 N 
ATOM     64  N   UNL     1     -12.745  -9.025  10.003  1.00  0.00    -0.248 NA
ATOM     65  C   UNL     1     -15.062  -9.279   9.855  1.00  0.00     0.031 C 
ATOM     66  C   UNL     1     -10.698  -6.312  12.854  1.00  0.00     0.029 A 
ATOM     67  C   UNL     1     -11.358  -7.160  11.979  1.00  0.00     0.049 A 
ATOM     68  H   UNL     1     -10.553  -8.520  10.581  1.00  0.00     0.167 HD
ATOM     69  C   UNL     1     -13.354  -8.179  10.918  1.00  0.00     0.074 A 
ATOM     70  C   UNL     1     -14.784  -8.356  10.766  1.00  0.00     0.031 C 
ATOM     71  C   UNL     1     -12.777  -7.337  11.807  1.00  0.00     0.037 A 
BRANCH  58  72
ATOM     72  C   UNL     1      -6.610  -7.372  11.742  1.00  0.00     0.064 A 
ATOM     73  C   UNL     1      -5.813  -6.480  11.008  1.00  0.00     0.173 A 
ATOM     74  C   UNL     1      -6.234  -7.652  13.065  1.00  0.00     0.173 A 
ATOM     75  F   UNL     1      -6.124  -6.186   9.737  1.00  0.00    -0.203 F 
ATOM     76  C   UNL     1      -4.682  -5.898  11.575  1.00  0.00     0.198 A 
ATOM     77  C   UNL     1      -5.117  -7.049  13.636  1.00  0.00     0.198 A 
ATOM     78  F   UNL     1      -6.967  -8.491  13.812  1.00  0.00    -0.203 F 
ATOM     79  F   UNL     1      -3.921  -5.069  10.847  1.00  0.00    -0.200 F 
ATOM     80  C   UNL     1      -4.341  -6.174  12.891  1.00  0.00     0.200 A 
ATOM     81  F   UNL     1      -4.798  -7.305  14.912  1.00  0.00    -0.200 F 
ATOM     82  F   UNL     1      -3.263  -5.598  13.441  1.00  0.00    -0.200 F 
ENDBRANCH  58  72
BRANCH  59  83
ATOM     83  C   UNL     1     -14.867 -11.192   7.634  1.00  0.00     0.064 A 
ATOM     84  C   UNL     1     -15.654 -10.365   6.820  1.00  0.00     0.173 A 
ATOM     85  C   UNL     1     -15.261 -12.531   7.779  1.00  0.00     0.173 A 
ATOM     86  F   UNL     1     -15.328  -9.073   6.665  1.00  0.00    -0.203 F 
ATOM     87  C   UNL     1     -16.789 -10.857   6.179  1.00  0.00     0.198 A 
ATOM     88  C   UNL     1     -16.379 -13.028   7.114  1.00  0.00     0.198 A 
ATOM     89  F   UNL     1     -14.540 -13.364   8.543  1.00  0.00    -0.203 F 
ATOM     90  F   UNL     1     -17.539 -10.038   5.429  1.00  0.00    -0.200 F 
ATOM     91  C   UNL     1     -17.145 -12.190   6.318  1.00  0.00     0.200 A 
ATOM     92  F   UNL     1     -16.709 -14.321   7.237  1.00  0.00    -0.200 F 
ATOM     93  F   UNL     1     -18.227 -12.666   5.688  1.00  0.00    -0.200 F 
ENDBRANCH  59  83
BRANCH  71  94
ATOM     94  C   UNL     1     -13.681  -6.518  12.679  1.00  0.00     0.064 A 
ATOM     95  C   UNL     1     -14.357  -7.087  13.767  1.00  0.00     0.173 A 
ATOM     96  C   UNL     1     -13.796  -5.134  12.481  1.00  0.00     0.173 A 
ATOM     97  F   UNL     1     -14.287  -8.408  13.989  1.00  0.00    -0.203 F 
ATOM     98  C   UNL     1     -15.120  -6.299  14.625  1.00  0.00     0.198 A 
ATOM     99  C   UNL     1     -14.539  -4.346  13.354  1.00  0.00     0.198 A 
ATOM    100  F   UNL     1     -13.162  -4.543  11.457  1.00  0.00    -0.203 F 
ATOM    101  F   UNL     1     -15.775  -6.866  15.647  1.00  0.00    -0.200 F 
ATOM    102  C   UNL     1     -15.200  -4.929  14.425  1.00  0.00     0.200 A 
ATOM    103  F   UNL     1     -14.604  -3.020  13.168  1.00  0.00    -0.200 F 
ATOM    104  F   UNL     1     -15.917  -4.169  15.265  1.00  0.00    -0.200 F 
ENDBRANCH  71  94
ENDBRANCH  45  46
ENDBRANCH  37  40
ENDBRANCH  35  36
ENDBRANCH  34  35
ENDBRANCH  33  34
ENDBRANCH  32  33
ENDBRANCH   1  32
TORSDOF 18
