REMARK SMILES CCCc1cc2c(cc1Cl)C=C(C(=O)NCCCCCCNC(=O)c1ccc(-c3c4nc(c(-c5c(F)c(F)c(F)c(F)c5F)c5ccc([nH]5)c(-c5c(F)c(F)c(F)c(F)c5F)c5nc(c(-c6c(F)c(F)c(F)c(F)c6F)c6ccc3[nH]6)C=C5)C=C4)cc1)[C@@H](C(F)(F)F)O2
REMARK SMILES IDX 18 1 17 2 16 3 15 4 13 5 14 6 12 8 4 9 5 10 9 11 6 12 8 13
REMARK SMILES IDX 10 14 7 15 93 16 11 17 88 18 3 19 2 20 1 21 89 22 90 23
REMARK SMILES IDX 91 24 92 25 19 26 20 27 21 28 22 29 23 30 24 32 25 33 26 34
REMARK SMILES IDX 87 35 27 36 86 37 28 38 29 39 30 40 80 41 31 42 85 43 79 44
REMARK SMILES IDX 81 45 32 46 84 47 78 48 77 49 33 51 65 52 45 53 64 54 46 55
REMARK SMILES IDX 49 56 63 57 82 58 47 59 48 60 62 62 83 63 50 64 34 65 35 66
REMARK SMILES IDX 43 67 36 68 37 69 41 70 44 71 38 72 39 73 42 74 40 75 66 76
REMARK SMILES IDX 67 77 75 78 68 79 69 80 73 81 76 82 70 83 71 84 74 85 72 86
REMARK SMILES IDX 51 87 52 88 60 89 53 90 54 91 58 92 61 93 55 94 56 95 59 96
REMARK SMILES IDX 57 97
REMARK H PARENT 15 7 22 31 81 50 49 61
REMARK Flexibility Score: inf
ROOT
ATOM      1  C   UNL     1      -1.758  -3.865  11.678  1.00  0.00     0.002 C 
ENDROOT
BRANCH   1   2
ATOM      2  C   UNL     1      -1.188  -4.113  10.278  1.00  0.00     0.021 C 
BRANCH   2   3
ATOM      3  C   UNL     1      -2.017  -3.553   9.128  1.00  0.00     0.116 C 
BRANCH   3   4
ATOM      4  N   UNL     1      -1.896  -2.115   8.997  1.00  0.00    -0.352 N 
ATOM      5  C   UNL     1      -1.607  -1.252   7.994  1.00  0.00     0.251 C 
ATOM      6  O   UNL     1      -1.656  -0.054   8.291  1.00  0.00    -0.270 OA
ATOM      7  H   UNL     1      -2.067  -1.650   9.848  1.00  0.00     0.163 HD
BRANCH   5   8
ATOM      8  C   UNL     1      -1.224  -1.650   6.605  1.00  0.00     0.067 C 
ATOM      9  C   UNL     1       0.906  -1.604   2.004  1.00  0.00    -0.026 A 
ATOM     10  C   UNL     1       0.077  -2.499   2.703  1.00  0.00     0.052 A 
ATOM     11  C   UNL     1       1.256  -0.400   2.634  1.00  0.00     0.045 A 
ATOM     12  C   UNL     1      -0.373  -2.209   3.993  1.00  0.00     0.128 A 
ATOM     13  C   UNL     1       0.774  -0.098   3.915  1.00  0.00     0.032 A 
ATOM     14  Cl  UNL     1       2.325   0.747   1.909  1.00  0.00    -0.084 Cl
ATOM     15  C   UNL     1      -0.034  -1.008   4.602  1.00  0.00     0.019 A 
ATOM     16  O   UNL     1      -1.125  -3.171   4.591  1.00  0.00    -0.475 OA
ATOM     17  C   UNL     1      -0.488  -0.731   5.955  1.00  0.00     0.025 C 
ATOM     18  C   UNL     1      -1.632  -2.938   5.936  1.00  0.00     0.314 C 
BRANCH   9  19
ATOM     19  C   UNL     1       1.384  -2.002   0.625  1.00  0.00     0.037 C 
BRANCH  19  20
ATOM     20  C   UNL     1       0.438  -1.602  -0.513  1.00  0.00     0.001 C 
ATOM     21  C   UNL     1       0.516  -0.130  -0.887  1.00  0.00     0.004 C 
ENDBRANCH  19  20
ENDBRANCH   9  19
BRANCH  18  22
ATOM     22  C   UNL     1      -3.152  -3.164   5.884  1.00  0.00     0.429 C 
ATOM     23  F   UNL     1      -3.420  -4.481   5.680  1.00  0.00    -0.167 F 
ATOM     24  F   UNL     1      -3.785  -2.827   7.028  1.00  0.00    -0.167 F 
ATOM     25  F   UNL     1      -3.741  -2.472   4.884  1.00  0.00    -0.167 F 
ENDBRANCH  18  22
ENDBRANCH   5   8
ENDBRANCH   3   4
ENDBRANCH   2   3
ENDBRANCH   1   2
BRANCH   1  26
ATOM     26  C   UNL     1      -3.204  -4.321  11.909  1.00  0.00     0.002 C 
BRANCH  26  27
ATOM     27  C   UNL     1      -3.543  -5.742  11.454  1.00  0.00     0.021 C 
BRANCH  27  28
ATOM     28  C   UNL     1      -2.665  -6.842  12.036  1.00  0.00     0.116 C 
BRANCH  28  29
ATOM     29  N   UNL     1      -2.795  -6.967  13.477  1.00  0.00    -0.352 N 
ATOM     30  C   UNL     1      -3.043  -8.091  14.232  1.00  0.00     0.251 C 
ATOM     31  H   UNL     1      -2.691  -6.131  13.986  1.00  0.00     0.163 HD
ATOM     32  O   UNL     1      -3.253  -8.000  15.433  1.00  0.00    -0.269 OA
BRANCH  30  33
ATOM     33  C   UNL     1      -3.094  -9.413  13.570  1.00  0.00     0.039 A 
ATOM     34  C   UNL     1      -2.096  -9.803  12.673  1.00  0.00     0.014 A 
ATOM     35  C   UNL     1      -4.174 -10.258  13.833  1.00  0.00     0.014 A 
ATOM     36  C   UNL     1      -2.258 -10.965  11.926  1.00  0.00     0.010 A 
ATOM     37  C   UNL     1      -4.298 -11.461  13.135  1.00  0.00     0.010 A 
ATOM     38  C   UNL     1      -3.364 -11.802  12.143  1.00  0.00    -0.014 A 
BRANCH  38  39
ATOM     39  C   UNL     1      -3.541 -13.025  11.319  1.00  0.00     0.031 A 
ATOM     40  C   UNL     1      -4.702 -13.145  10.370  1.00  0.00     0.074 A 
ATOM     41  C   UNL     1      -2.634 -14.016  11.403  1.00  0.00     0.049 A 
ATOM     42  N   UNL     1      -5.048 -14.153   9.610  1.00  0.00    -0.248 NA
ATOM     43  C   UNL     1      -5.594 -11.980  10.261  1.00  0.00     0.031 C 
ATOM     44  C   UNL     1      -1.454 -14.005  12.268  1.00  0.00     0.029 A 
ATOM     45  N   UNL     1      -2.555 -15.216  10.744  1.00  0.00    -0.354 N 
ATOM     46  C   UNL     1      -6.205 -13.755   8.953  1.00  0.00     0.074 A 
ATOM     47  C   UNL     1      -6.517 -12.420   9.418  1.00  0.00     0.031 C 
ATOM     48  C   UNL     1      -0.748 -15.126  12.059  1.00  0.00     0.029 A 
ATOM     49  C   UNL     1      -1.458 -15.962  11.097  1.00  0.00     0.049 A 
ATOM     50  H   UNL     1      -3.220 -15.514  10.083  1.00  0.00     0.167 HD
ATOM     51  C   UNL     1      -6.934 -14.439   8.038  1.00  0.00     0.037 A 
ATOM     52  C   UNL     1      -1.077 -17.192  10.706  1.00  0.00     0.037 A 
ATOM     53  C   UNL     1      -6.608 -15.759   7.562  1.00  0.00     0.049 A 
ATOM     54  C   UNL     1      -1.928 -17.946   9.726  1.00  0.00     0.074 A 
ATOM     55  C   UNL     1      -7.278 -16.529   6.626  1.00  0.00     0.029 A 
ATOM     56  N   UNL     1      -5.516 -16.503   7.982  1.00  0.00    -0.354 N 
ATOM     57  N   UNL     1      -3.030 -17.568   9.125  1.00  0.00    -0.248 NA
ATOM     58  C   UNL     1      -1.489 -19.304   9.378  1.00  0.00     0.031 C 
ATOM     59  C   UNL     1      -6.613 -17.754   6.509  1.00  0.00     0.029 A 
ATOM     60  C   UNL     1      -5.503 -17.731   7.338  1.00  0.00     0.049 A 
ATOM     61  H   UNL     1      -4.848 -16.204   8.641  1.00  0.00     0.167 HD
ATOM     62  C   UNL     1      -3.415 -18.635   8.327  1.00  0.00     0.074 A 
ATOM     63  C   UNL     1      -2.412 -19.667   8.498  1.00  0.00     0.031 C 
ATOM     64  C   UNL     1      -4.505 -18.752   7.530  1.00  0.00     0.037 A 
BRANCH  51  65
ATOM     65  C   UNL     1      -8.169 -13.781   7.495  1.00  0.00     0.064 A 
ATOM     66  C   UNL     1      -8.095 -12.717   6.584  1.00  0.00     0.173 A 
ATOM     67  C   UNL     1      -9.441 -14.259   7.844  1.00  0.00     0.173 A 
ATOM     68  F   UNL     1      -6.904 -12.214   6.228  1.00  0.00    -0.203 F 
ATOM     69  C   UNL     1      -9.251 -12.146   6.055  1.00  0.00     0.198 A 
ATOM     70  C   UNL     1     -10.593 -13.702   7.295  1.00  0.00     0.198 A 
ATOM     71  F   UNL     1      -9.566 -15.278   8.708  1.00  0.00    -0.203 F 
ATOM     72  F   UNL     1      -9.158 -11.107   5.213  1.00  0.00    -0.200 F 
ATOM     73  C   UNL     1     -10.497 -12.644   6.404  1.00  0.00     0.200 A 
ATOM     74  F   UNL     1     -11.796 -14.193   7.624  1.00  0.00    -0.200 F 
ATOM     75  F   UNL     1     -11.607 -12.101   5.885  1.00  0.00    -0.200 F 
ENDBRANCH  51  65
BRANCH  52  76
ATOM     76  C   UNL     1       0.170 -17.780  11.255  1.00  0.00     0.064 A 
ATOM     77  C   UNL     1       1.303 -17.945  10.448  1.00  0.00     0.173 A 
ATOM     78  C   UNL     1       0.266 -18.157  12.603  1.00  0.00     0.173 A 
ATOM     79  F   UNL     1       1.252 -17.619   9.148  1.00  0.00    -0.203 F 
ATOM     80  C   UNL     1       2.486 -18.466  10.968  1.00  0.00     0.198 A 
ATOM     81  C   UNL     1       1.457 -18.652  13.129  1.00  0.00     0.198 A 
ATOM     82  F   UNL     1      -0.791 -18.016  13.416  1.00  0.00    -0.203 F 
ATOM     83  F   UNL     1       3.547 -18.639  10.169  1.00  0.00    -0.200 F 
ATOM     84  C   UNL     1       2.565 -18.810  12.310  1.00  0.00     0.200 A 
ATOM     85  F   UNL     1       1.533 -18.968  14.428  1.00  0.00    -0.200 F 
ATOM     86  F   UNL     1       3.708 -19.295  12.813  1.00  0.00    -0.200 F 
ENDBRANCH  52  76
BRANCH  64  87
ATOM     87  C   UNL     1      -4.668 -20.041   6.781  1.00  0.00     0.064 A 
ATOM     88  C   UNL     1      -5.042 -21.224   7.436  1.00  0.00     0.173 A 
ATOM     89  C   UNL     1      -4.480 -20.089   5.392  1.00  0.00     0.173 A 
ATOM     90  F   UNL     1      -5.218 -21.232   8.766  1.00  0.00    -0.203 F 
ATOM     91  C   UNL     1      -5.200 -22.413   6.730  1.00  0.00     0.198 A 
ATOM     92  C   UNL     1      -4.665 -21.273   4.685  1.00  0.00     0.198 A 
ATOM     93  F   UNL     1      -4.127 -18.983   4.719  1.00  0.00    -0.203 F 
ATOM     94  F   UNL     1      -5.513 -23.541   7.382  1.00  0.00    -0.200 F 
ATOM     95  C   UNL     1      -5.018 -22.436   5.355  1.00  0.00     0.200 A 
ATOM     96  F   UNL     1      -4.501 -21.291   3.355  1.00  0.00    -0.200 F 
ATOM     97  F   UNL     1      -5.174 -23.580   4.676  1.00  0.00    -0.200 F 
ENDBRANCH  64  87
ENDBRANCH  38  39
ENDBRANCH  30  33
ENDBRANCH  28  29
ENDBRANCH  27  28
ENDBRANCH  26  27
ENDBRANCH   1  26
TORSDOF 16
