REMARK SMILES C[C@@H](c1ccccc1)[C@@H]1[NH2+][C@@H](C(=O)NCCCCCCNC(=O)c2ccc(-c3c4nc(c(-c5c(F)c(F)c(F)c(F)c5F)c5ccc([nH]5)c(-c5c(F)c(F)c(F)c(F)c5F)c5nc(c(-c6c(F)c(F)c(F)c(F)c6F)c6ccc3[nH]6)C=C5)C=C4)cc2)CS1
REMARK SMILES IDX 17 1 16 2 15 3 14 4 12 5 13 6 11 8 9 9 10 10 88 11 87 14
REMARK SMILES IDX 2 15 1 16 3 17 4 18 8 19 5 20 7 21 6 22 18 23 19 24 20 25
REMARK SMILES IDX 21 26 22 27 23 29 24 30 25 31 86 32 26 33 85 34 27 35 28 36
REMARK SMILES IDX 29 37 79 38 30 39 84 40 78 41 80 42 31 43 83 44 77 45 76 46
REMARK SMILES IDX 32 48 64 49 44 50 63 51 45 52 48 53 62 54 81 55 46 56 47 57
REMARK SMILES IDX 61 59 82 60 49 61 33 62 34 63 42 64 35 65 36 66 40 67 43 68
REMARK SMILES IDX 37 69 38 70 41 71 39 72 65 73 66 74 74 75 67 76 68 77 72 78
REMARK SMILES IDX 75 79 69 80 70 81 73 82 71 83 50 84 51 85 59 86 52 87 53 88
REMARK SMILES IDX 57 89 60 90 54 91 55 92 58 93 56 94
REMARK H PARENT 14 7 10 12 10 13 21 28 80 47 48 58
REMARK Flexibility Score: inf
ROOT
ATOM      1  C   UNL     1      -2.607  -6.787  -0.216  1.00  0.00     0.002 C 
ENDROOT
BRANCH   1   2
ATOM      2  C   UNL     1      -1.478  -5.770  -0.415  1.00  0.00     0.021 C 
BRANCH   2   3
ATOM      3  C   UNL     1      -1.824  -4.644  -1.386  1.00  0.00     0.116 C 
BRANCH   3   4
ATOM      4  N   UNL     1      -2.889  -3.807  -0.860  1.00  0.00    -0.351 N 
ATOM      5  C   UNL     1      -2.931  -2.449  -0.712  1.00  0.00     0.279 C 
ATOM      6  O   UNL     1      -3.927  -1.938  -0.198  1.00  0.00    -0.268 OA
ATOM      7  H   UNL     1      -3.696  -4.287  -0.567  1.00  0.00     0.163 HD
BRANCH   5   8
ATOM      8  C   UNL     1      -1.771  -1.616  -1.261  1.00  0.00     0.283 C 
ATOM      9  C   UNL     1      -0.881   0.580  -1.356  1.00  0.00     0.249 C 
ATOM     10  N   UNL     1      -1.616  -0.357  -0.496  1.00  0.00    -0.324 N 
ATOM     11  S   UNL     1      -1.676   0.420  -2.984  1.00  0.00    -0.092 SA
ATOM     12  H   UNL     1      -2.532   0.026  -0.263  1.00  0.00     0.347 HD
ATOM     13  H   UNL     1      -1.113  -0.521   0.376  1.00  0.00     0.347 HD
ATOM     14  C   UNL     1      -2.037  -1.338  -2.742  1.00  0.00     0.151 C 
BRANCH   9  15
ATOM     15  C   UNL     1       0.693   0.450  -1.353  1.00  0.00     0.085 C 
ATOM     16  C   UNL     1       1.236   0.115   0.045  1.00  0.00     0.020 C 
BRANCH  15  17
ATOM     17  C   UNL     1       1.333  -0.408  -2.447  1.00  0.00    -0.038 A 
ATOM     18  C   UNL     1       1.487  -1.798  -2.347  1.00  0.00     0.004 A 
ATOM     19  C   UNL     1       1.752   0.215  -3.637  1.00  0.00     0.004 A 
ATOM     20  C   UNL     1       1.951  -2.550  -3.431  1.00  0.00     0.000 A 
ATOM     21  C   UNL     1       2.244  -0.532  -4.710  1.00  0.00     0.000 A 
ATOM     22  C   UNL     1       2.321  -1.917  -4.615  1.00  0.00     0.000 A 
ENDBRANCH  15  17
ENDBRANCH   9  15
ENDBRANCH   5   8
ENDBRANCH   3   4
ENDBRANCH   2   3
ENDBRANCH   1   2
BRANCH   1  23
ATOM     23  C   UNL     1      -3.085  -7.473  -1.499  1.00  0.00     0.002 C 
BRANCH  23  24
ATOM     24  C   UNL     1      -1.996  -8.227  -2.266  1.00  0.00     0.021 C 
BRANCH  24  25
ATOM     25  C   UNL     1      -1.297  -9.317  -1.461  1.00  0.00     0.116 C 
BRANCH  25  26
ATOM     26  N   UNL     1      -2.219 -10.354  -1.024  1.00  0.00    -0.352 N 
ATOM     27  C   UNL     1      -2.145 -11.714  -1.192  1.00  0.00     0.251 C 
ATOM     28  H   UNL     1      -3.011 -10.033  -0.537  1.00  0.00     0.163 HD
ATOM     29  O   UNL     1      -3.108 -12.424  -0.927  1.00  0.00    -0.269 OA
BRANCH  27  30
ATOM     30  C   UNL     1      -0.904 -12.321  -1.716  1.00  0.00     0.039 A 
ATOM     31  C   UNL     1      -1.000 -13.305  -2.703  1.00  0.00     0.014 A 
ATOM     32  C   UNL     1       0.346 -11.922  -1.236  1.00  0.00     0.014 A 
ATOM     33  C   UNL     1       0.163 -13.845  -3.254  1.00  0.00     0.010 A 
ATOM     34  C   UNL     1       1.504 -12.403  -1.840  1.00  0.00     0.010 A 
ATOM     35  C   UNL     1       1.424 -13.371  -2.853  1.00  0.00    -0.014 A 
BRANCH  35  36
ATOM     36  C   UNL     1       2.668 -13.870  -3.489  1.00  0.00     0.031 A 
ATOM     37  C   UNL     1       3.690 -14.613  -2.677  1.00  0.00     0.074 A 
ATOM     38  C   UNL     1       2.910 -13.589  -4.783  1.00  0.00     0.049 A 
ATOM     39  N   UNL     1       4.865 -15.065  -3.036  1.00  0.00    -0.248 NA
ATOM     40  C   UNL     1       3.360 -14.853  -1.264  1.00  0.00     0.031 C 
ATOM     41  C   UNL     1       2.021 -12.828  -5.661  1.00  0.00     0.029 A 
ATOM     42  N   UNL     1       3.984 -13.896  -5.580  1.00  0.00    -0.354 N 
ATOM     43  C   UNL     1       5.415 -15.633  -1.895  1.00  0.00     0.074 A 
ATOM     44  C   UNL     1       4.475 -15.410  -0.818  1.00  0.00     0.031 C 
ATOM     45  C   UNL     1       2.577 -12.740  -6.879  1.00  0.00     0.029 A 
ATOM     46  C   UNL     1       3.879 -13.401  -6.857  1.00  0.00     0.049 A 
ATOM     47  H   UNL     1       4.756 -14.420  -5.267  1.00  0.00     0.167 HD
ATOM     48  C   UNL     1       6.587 -16.301  -1.762  1.00  0.00     0.037 A 
ATOM     49  C   UNL     1       4.740 -13.460  -7.890  1.00  0.00     0.037 A 
ATOM     50  C   UNL     1       7.516 -16.523  -2.840  1.00  0.00     0.049 A 
ATOM     51  C   UNL     1       6.043 -14.191  -7.719  1.00  0.00     0.074 A 
ATOM     52  C   UNL     1       8.700 -17.238  -2.827  1.00  0.00     0.029 A 
ATOM     53  N   UNL     1       7.370 -16.018  -4.125  1.00  0.00    -0.354 N 
ATOM     54  N   UNL     1       6.520 -14.793  -6.656  1.00  0.00    -0.248 NA
ATOM     55  C   UNL     1       6.924 -14.256  -8.892  1.00  0.00     0.031 C 
ATOM     56  C   UNL     1       9.301 -17.115  -4.085  1.00  0.00     0.029 A 
ATOM     57  C   UNL     1       8.461 -16.377  -4.903  1.00  0.00     0.049 A 
ATOM     58  H   UNL     1       6.605 -15.484  -4.439  1.00  0.00     0.167 HD
ATOM     59  C   UNL     1       7.746 -15.324  -7.035  1.00  0.00     0.074 A 
ATOM     60  C   UNL     1       7.929 -14.989  -8.432  1.00  0.00     0.031 C 
ATOM     61  C   UNL     1       8.638 -16.024  -6.291  1.00  0.00     0.037 A 
BRANCH  48  62
ATOM     62  C   UNL     1       6.928 -16.826  -0.395  1.00  0.00     0.064 A 
ATOM     63  C   UNL     1       6.183 -17.850   0.211  1.00  0.00     0.173 A 
ATOM     64  C   UNL     1       8.013 -16.298   0.321  1.00  0.00     0.173 A 
ATOM     65  F   UNL     1       5.129 -18.386  -0.424  1.00  0.00    -0.203 F 
ATOM     66  C   UNL     1       6.479 -18.289   1.499  1.00  0.00     0.198 A 
ATOM     67  C   UNL     1       8.330 -16.766   1.594  1.00  0.00     0.198 A 
ATOM     68  F   UNL     1       8.767 -15.324  -0.211  1.00  0.00    -0.203 F 
ATOM     69  F   UNL     1       5.706 -19.216   2.083  1.00  0.00    -0.200 F 
ATOM     70  C   UNL     1       7.554 -17.750   2.188  1.00  0.00     0.200 A 
ATOM     71  F   UNL     1       9.379 -16.255   2.252  1.00  0.00    -0.200 F 
ATOM     72  F   UNL     1       7.836 -18.170   3.429  1.00  0.00    -0.200 F 
ENDBRANCH  48  62
BRANCH  49  73
ATOM     73  C   UNL     1       4.379 -12.816  -9.179  1.00  0.00     0.064 A 
ATOM     74  C   UNL     1       4.066 -13.584 -10.308  1.00  0.00     0.173 A 
ATOM     75  C   UNL     1       4.306 -11.420  -9.297  1.00  0.00     0.173 A 
ATOM     76  F   UNL     1       4.140 -14.921 -10.250  1.00  0.00    -0.203 F 
ATOM     77  C   UNL     1       3.702 -12.979 -11.510  1.00  0.00     0.198 A 
ATOM     78  C   UNL     1       3.914 -10.818 -10.491  1.00  0.00     0.198 A 
ATOM     79  F   UNL     1       4.589 -10.640  -8.243  1.00  0.00    -0.203 F 
ATOM     80  F   UNL     1       3.439 -13.736 -12.585  1.00  0.00    -0.200 F 
ATOM     81  C   UNL     1       3.618 -11.598 -11.598  1.00  0.00     0.200 A 
ATOM     82  F   UNL     1       3.816  -9.483 -10.565  1.00  0.00    -0.200 F 
ATOM     83  F   UNL     1       3.252 -11.018 -12.749  1.00  0.00    -0.200 F 
ENDBRANCH  49  73
BRANCH  61  84
ATOM     84  C   UNL     1       9.891 -16.489  -6.979  1.00  0.00     0.064 A 
ATOM     85  C   UNL     1      10.896 -15.590  -7.366  1.00  0.00     0.173 A 
ATOM     86  C   UNL     1      10.106 -17.855  -7.220  1.00  0.00     0.173 A 
ATOM     87  F   UNL     1      10.735 -14.272  -7.173  1.00  0.00    -0.203 F 
ATOM     88  C   UNL     1      12.056 -16.039  -7.993  1.00  0.00     0.198 A 
ATOM     89  C   UNL     1      11.281 -18.303  -7.816  1.00  0.00     0.198 A 
ATOM     90  F   UNL     1       9.180 -18.759  -6.864  1.00  0.00    -0.203 F 
ATOM     91  F   UNL     1      12.979 -15.156  -8.400  1.00  0.00    -0.200 F 
ATOM     92  C   UNL     1      12.252 -17.395  -8.209  1.00  0.00     0.200 A 
ATOM     93  F   UNL     1      11.475 -19.615  -8.010  1.00  0.00    -0.200 F 
ATOM     94  F   UNL     1      13.372 -17.825  -8.805  1.00  0.00    -0.200 F 
ENDBRANCH  61  84
ENDBRANCH  35  36
ENDBRANCH  27  30
ENDBRANCH  25  26
ENDBRANCH  24  25
ENDBRANCH  23  24
ENDBRANCH   1  23
TORSDOF 15
