REMARK SMILES COC[C@H](O)CC1(C(=O)NCCCCCCNC(=O)c2ccc(-c3c4nc(c(-c5c(F)c(F)c(F)c(F)c5F)c5ccc([nH]5)c(-c5c(F)c(F)c(F)c(F)c5F)c5nc(c(-c6c(F)c(F)c(F)c(F)c6F)c6ccc3[nH]6)C=C5)C=C4)cc2)CC1
REMARK SMILES IDX 12 1 11 2 10 3 8 4 9 5 7 7 83 8 84 9 6 10 4 11 3 12 2 13
REMARK SMILES IDX 1 14 5 15 13 17 14 18 15 19 16 20 17 21 18 22 19 24 20 25
REMARK SMILES IDX 21 26 82 27 22 28 81 29 23 30 24 31 25 32 75 33 26 34 80 35
REMARK SMILES IDX 74 36 76 37 27 38 79 39 73 40 72 41 28 43 60 44 40 45 59 46
REMARK SMILES IDX 41 47 44 48 58 49 77 50 42 51 43 52 57 54 78 55 45 56 29 57
REMARK SMILES IDX 30 58 38 59 31 60 32 61 36 62 39 63 33 64 34 65 37 66 35 67
REMARK SMILES IDX 61 68 62 69 70 70 63 71 64 72 68 73 71 74 65 75 66 76 69 77
REMARK SMILES IDX 67 78 46 79 47 80 55 81 48 82 49 83 53 84 56 85 50 86 51 87
REMARK SMILES IDX 54 88 52 89
REMARK H PARENT 10 6 5 16 17 23 76 42 44 53
REMARK Flexibility Score: inf
ROOT
ATOM      1  C   UNL     1      -0.317  -3.231   8.406  1.00  0.00     0.021 C 
ENDROOT
BRANCH   1   2
ATOM      2  C   UNL     1       0.446  -2.191   7.584  1.00  0.00     0.116 C 
BRANCH   2   3
ATOM      3  N   UNL     1       1.382  -2.834   6.686  1.00  0.00    -0.356 N 
ATOM      4  C   UNL     1       1.473  -2.982   5.333  1.00  0.00     0.226 C 
ATOM      5  O   UNL     1       2.312  -3.790   4.934  1.00  0.00    -0.274 OA
ATOM      6  H   UNL     1       2.127  -3.266   7.163  1.00  0.00     0.163 HD
BRANCH   4   7
ATOM      7  C   UNL     1       0.639  -2.230   4.309  1.00  0.00     0.052 C 
ATOM      8  C   UNL     1       0.081  -0.852   4.625  1.00  0.00     0.018 C 
ATOM      9  C   UNL     1      -0.849  -2.035   4.565  1.00  0.00     0.018 C 
BRANCH   7  10
ATOM     10  C   UNL     1       1.073  -2.534   2.857  1.00  0.00     0.051 C 
BRANCH  10  11
ATOM     11  C   UNL     1       0.484  -1.675   1.737  1.00  0.00     0.141 C 
BRANCH  11  12
ATOM     12  C   UNL     1       0.668  -2.365   0.375  1.00  0.00     0.191 C 
BRANCH  12  13
ATOM     13  O   UNL     1      -0.142  -1.729  -0.623  1.00  0.00    -0.382 OA
ATOM     14  C   UNL     1      -1.496  -2.174  -0.588  1.00  0.00     0.195 C 
ENDBRANCH  12  13
ENDBRANCH  11  12
BRANCH  11  15
ATOM     15  O   UNL     1       1.150  -0.406   1.695  1.00  0.00    -0.391 OA
ATOM     16  H   UNL     1       2.094  -0.541   1.516  1.00  0.00     0.211 HD
ENDBRANCH  11  15
ENDBRANCH  10  11
ENDBRANCH   7  10
ENDBRANCH   4   7
ENDBRANCH   2   3
ENDBRANCH   1   2
BRANCH   1  17
ATOM     17  C   UNL     1       0.566  -4.092   9.317  1.00  0.00     0.002 C 
BRANCH  17  18
ATOM     18  C   UNL     1       1.488  -3.312  10.259  1.00  0.00     0.002 C 
BRANCH  18  19
ATOM     19  C   UNL     1       0.790  -2.268  11.133  1.00  0.00     0.021 C 
BRANCH  19  20
ATOM     20  C   UNL     1      -0.336  -2.813  12.002  1.00  0.00     0.116 C 
BRANCH  20  21
ATOM     21  N   UNL     1       0.138  -3.789  12.968  1.00  0.00    -0.352 N 
ATOM     22  C   UNL     1      -0.062  -3.840  14.324  1.00  0.00     0.251 C 
ATOM     23  H   UNL     1       0.682  -4.520  12.595  1.00  0.00     0.163 HD
ATOM     24  O   UNL     1       0.566  -4.639  15.011  1.00  0.00    -0.269 OA
BRANCH  22  25
ATOM     25  C   UNL     1      -1.020  -2.914  14.965  1.00  0.00     0.039 A 
ATOM     26  C   UNL     1      -0.645  -2.283  16.154  1.00  0.00     0.014 A 
ATOM     27  C   UNL     1      -2.280  -2.674  14.410  1.00  0.00     0.014 A 
ATOM     28  C   UNL     1      -1.512  -1.370  16.755  1.00  0.00     0.010 A 
ATOM     29  C   UNL     1      -3.114  -1.709  14.971  1.00  0.00     0.010 A 
ATOM     30  C   UNL     1      -2.739  -1.050  16.150  1.00  0.00    -0.014 A 
BRANCH  30  31
ATOM     31  C   UNL     1      -3.624  -0.012  16.738  1.00  0.00     0.031 A 
ATOM     32  C   UNL     1      -4.979  -0.377  17.276  1.00  0.00     0.074 A 
ATOM     33  C   UNL     1      -3.219   1.272  16.743  1.00  0.00     0.049 A 
ATOM     34  N   UNL     1      -5.888   0.395  17.817  1.00  0.00    -0.248 NA
ATOM     35  C   UNL     1      -5.376  -1.789  17.171  1.00  0.00     0.031 C 
ATOM     36  C   UNL     1      -1.953   1.760  16.193  1.00  0.00     0.029 A 
ATOM     37  N   UNL     1      -3.830   2.404  17.223  1.00  0.00    -0.354 N 
ATOM     38  C   UNL     1      -6.963  -0.434  18.109  1.00  0.00     0.074 A 
ATOM     39  C   UNL     1      -6.617  -1.756  17.635  1.00  0.00     0.031 C 
ATOM     40  C   UNL     1      -1.868   3.084  16.392  1.00  0.00     0.029 A 
ATOM     41  C   UNL     1      -3.085   3.545  17.053  1.00  0.00     0.049 A 
ATOM     42  H   UNL     1      -4.718   2.397  17.648  1.00  0.00     0.167 HD
ATOM     43  C   UNL     1      -8.123  -0.124  18.737  1.00  0.00     0.037 A 
ATOM     44  C   UNL     1      -3.353   4.819  17.393  1.00  0.00     0.037 A 
ATOM     45  C   UNL     1      -8.456   1.190  19.224  1.00  0.00     0.049 A 
ATOM     46  C   UNL     1      -4.645   5.134  18.097  1.00  0.00     0.074 A 
ATOM     47  C   UNL     1      -9.574   1.590  19.934  1.00  0.00     0.029 A 
ATOM     48  N   UNL     1      -7.671   2.320  19.046  1.00  0.00    -0.354 N 
ATOM     49  N   UNL     1      -5.617   4.326  18.443  1.00  0.00    -0.248 NA
ATOM     50  C   UNL     1      -4.870   6.538  18.466  1.00  0.00     0.031 C 
ATOM     51  C   UNL     1      -9.491   2.972  20.141  1.00  0.00     0.029 A 
ATOM     52  C   UNL     1      -8.295   3.424  19.608  1.00  0.00     0.049 A 
ATOM     53  H   UNL     1      -6.800   2.337  18.588  1.00  0.00     0.167 HD
ATOM     54  C   UNL     1      -6.559   5.117  19.086  1.00  0.00     0.074 A 
ATOM     55  C   UNL     1      -6.028   6.464  19.105  1.00  0.00     0.031 C 
ATOM     56  C   UNL     1      -7.758   4.761  19.611  1.00  0.00     0.037 A 
BRANCH  43  57
ATOM     57  C   UNL     1      -9.122  -1.228  18.936  1.00  0.00     0.064 A 
ATOM     58  C   UNL     1      -8.886  -2.282  19.833  1.00  0.00     0.173 A 
ATOM     59  C   UNL     1     -10.347  -1.214  18.252  1.00  0.00     0.173 A 
ATOM     60  F   UNL     1      -7.727  -2.350  20.505  1.00  0.00    -0.203 F 
ATOM     61  C   UNL     1      -9.825  -3.294  20.015  1.00  0.00     0.198 A 
ATOM     62  C   UNL     1     -11.297  -2.211  18.459  1.00  0.00     0.198 A 
ATOM     63  F   UNL     1     -10.627  -0.228  17.387  1.00  0.00    -0.203 F 
ATOM     64  F   UNL     1      -9.556  -4.316  20.840  1.00  0.00    -0.200 F 
ATOM     65  C   UNL     1     -11.032  -3.254  19.334  1.00  0.00     0.200 A 
ATOM     66  F   UNL     1     -12.469  -2.163  17.810  1.00  0.00    -0.200 F 
ATOM     67  F   UNL     1     -11.939  -4.224  19.516  1.00  0.00    -0.200 F 
ENDBRANCH  43  57
BRANCH  44  68
ATOM     68  C   UNL     1      -2.365   5.889  17.098  1.00  0.00     0.064 A 
ATOM     69  C   UNL     1      -1.661   6.526  18.130  1.00  0.00     0.173 A 
ATOM     70  C   UNL     1      -2.104   6.297  15.782  1.00  0.00     0.173 A 
ATOM     71  F   UNL     1      -1.891   6.184  19.406  1.00  0.00    -0.203 F 
ATOM     72  C   UNL     1      -0.751   7.545  17.858  1.00  0.00     0.198 A 
ATOM     73  C   UNL     1      -1.172   7.295  15.509  1.00  0.00     0.198 A 
ATOM     74  F   UNL     1      -2.746   5.715  14.758  1.00  0.00    -0.203 F 
ATOM     75  F   UNL     1      -0.128   8.169  18.867  1.00  0.00    -0.200 F 
ATOM     76  C   UNL     1      -0.502   7.925  16.548  1.00  0.00     0.200 A 
ATOM     77  F   UNL     1      -0.923   7.649  14.241  1.00  0.00    -0.200 F 
ATOM     78  F   UNL     1       0.377   8.902  16.287  1.00  0.00    -0.200 F 
ENDBRANCH  44  68
BRANCH  56  79
ATOM     79  C   UNL     1      -8.566   5.846  20.263  1.00  0.00     0.064 A 
ATOM     80  C   UNL     1      -9.172   6.864  19.510  1.00  0.00     0.173 A 
ATOM     81  C   UNL     1      -8.748   5.861  21.654  1.00  0.00     0.173 A 
ATOM     82  F   UNL     1      -9.016   6.903  18.178  1.00  0.00    -0.203 F 
ATOM     83  C   UNL     1      -9.900   7.876  20.131  1.00  0.00     0.198 A 
ATOM     84  C   UNL     1      -9.504   6.856  22.267  1.00  0.00     0.198 A 
ATOM     85  F   UNL     1      -8.196   4.908  22.419  1.00  0.00    -0.203 F 
ATOM     86  F   UNL     1     -10.419   8.870  19.397  1.00  0.00    -0.200 F 
ATOM     87  C   UNL     1     -10.070   7.868  21.507  1.00  0.00     0.200 A 
ATOM     88  F   UNL     1      -9.678   6.840  23.596  1.00  0.00    -0.200 F 
ATOM     89  F   UNL     1     -10.771   8.843  22.102  1.00  0.00    -0.200 F 
ENDBRANCH  56  79
ENDBRANCH  30  31
ENDBRANCH  22  25
ENDBRANCH  20  21
ENDBRANCH  19  20
ENDBRANCH  18  19
ENDBRANCH  17  18
ENDBRANCH   1  17
TORSDOF 18
