REMARK SMILES CN(CCOCC1CC1)C(=O)N1[C@@H]2CC[C@H]1[C@H](C(=O)NCCCCCCNC(=O)c1ccc(-c3c4nc(c(-c5c(F)c(F)c(F)c(F)c5F)c5ccc([nH]5)c(-c5c(F)c(F)c(F)c(F)c5F)c5nc(c(-c6c(F)c(F)c(F)c(F)c6F)c6ccc3[nH]6)C=C5)C=C4)cc1)C2
REMARK SMILES IDX 21 1 20 2 18 3 19 4 17 6 12 7 13 8 16 9 14 10 93 11 15 12
REMARK SMILES IDX 10 13 11 14 2 15 1 16 3 17 4 18 5 19 6 20 7 21 8 22 9 23
REMARK SMILES IDX 22 24 23 25 24 26 25 27 26 28 27 29 28 30 29 32 30 33 31 34
REMARK SMILES IDX 92 35 32 36 91 37 33 38 34 39 35 40 85 41 36 42 90 43 84 44
REMARK SMILES IDX 86 45 37 46 89 47 83 48 82 49 38 51 70 52 50 53 69 54 51 55
REMARK SMILES IDX 54 56 68 57 87 58 52 59 53 60 67 62 88 63 55 64 39 65 40 66
REMARK SMILES IDX 48 67 41 68 42 69 46 70 49 71 43 72 44 73 47 74 45 75 71 76
REMARK SMILES IDX 72 77 80 78 73 79 74 80 78 81 81 82 75 83 76 84 79 85 77 86
REMARK SMILES IDX 56 87 57 88 65 89 58 90 59 91 63 92 66 93 60 94 61 95 64 96
REMARK SMILES IDX 62 97
REMARK H PARENT 20 5 27 31 86 50 54 61
REMARK Flexibility Score: inf
ROOT
ATOM      1  C   UNL     1       1.858   0.638  -3.645  1.00  0.00     0.116 C 
ENDROOT
BRANCH   1   2
ATOM      2  N   UNL     1       0.709   0.756  -4.537  1.00  0.00    -0.356 N 
ATOM      3  C   UNL     1      -0.109   1.771  -4.915  1.00  0.00     0.225 C 
ATOM      4  O   UNL     1      -1.067   1.438  -5.628  1.00  0.00    -0.275 OA
ATOM      5  H   UNL     1       0.471  -0.099  -4.963  1.00  0.00     0.163 HD
BRANCH   3   6
ATOM      6  C   UNL     1      -0.007   3.238  -4.495  1.00  0.00     0.103 C 
ATOM      7  N   UNL     1       0.372   3.296  -2.232  1.00  0.00    -0.318 N 
ATOM      8  C   UNL     1       1.313   4.266  -2.773  1.00  0.00     0.088 C 
ATOM      9  C   UNL     1      -0.724   3.501  -3.158  1.00  0.00     0.099 C 
ATOM     10  C   UNL     1       0.472   5.548  -2.677  1.00  0.00     0.027 C 
ATOM     11  C   UNL     1       1.383   3.857  -4.264  1.00  0.00     0.040 C 
ATOM     12  C   UNL     1      -0.946   5.024  -2.990  1.00  0.00     0.028 C 
BRANCH   7  13
ATOM     13  C   UNL     1       0.555   2.654  -1.049  1.00  0.00     0.320 C 
ATOM     14  O   UNL     1       1.552   2.923  -0.370  1.00  0.00    -0.248 OA
BRANCH  13  15
ATOM     15  N   UNL     1      -0.333   1.684  -0.618  1.00  0.00    -0.325 N 
ATOM     16  C   UNL     1      -0.041   1.089   0.680  1.00  0.00     0.148 C 
BRANCH  15  17
ATOM     17  C   UNL     1      -1.435   1.085  -1.371  1.00  0.00     0.149 C 
BRANCH  17  18
ATOM     18  C   UNL     1      -2.885   1.503  -1.073  1.00  0.00     0.181 C 
BRANCH  18  19
ATOM     19  O   UNL     1      -3.223   2.850  -0.798  1.00  0.00    -0.379 OA
BRANCH  19  20
ATOM     20  C   UNL     1      -2.591   3.535   0.276  1.00  0.00     0.163 C 
BRANCH  20  21
ATOM     21  C   UNL     1      -2.862   3.070   1.675  1.00  0.00     0.015 C 
ATOM     22  C   UNL     1      -4.227   2.592   2.094  1.00  0.00     0.006 C 
ATOM     23  C   UNL     1      -3.051   1.660   2.192  1.00  0.00     0.006 C 
ENDBRANCH  20  21
ENDBRANCH  19  20
ENDBRANCH  18  19
ENDBRANCH  17  18
ENDBRANCH  15  17
ENDBRANCH  13  15
ENDBRANCH   7  13
ENDBRANCH   3   6
ENDBRANCH   1   2
BRANCH   1  24
ATOM     24  C   UNL     1       1.560  -0.289  -2.466  1.00  0.00     0.021 C 
BRANCH  24  25
ATOM     25  C   UNL     1       2.038  -1.733  -2.593  1.00  0.00     0.002 C 
BRANCH  25  26
ATOM     26  C   UNL     1       3.537  -1.960  -2.380  1.00  0.00     0.002 C 
BRANCH  26  27
ATOM     27  C   UNL     1       4.151  -1.347  -1.114  1.00  0.00     0.021 C 
BRANCH  27  28
ATOM     28  C   UNL     1       3.420  -1.636   0.197  1.00  0.00     0.116 C 
BRANCH  28  29
ATOM     29  N   UNL     1       3.439  -3.045   0.551  1.00  0.00    -0.352 N 
ATOM     30  C   UNL     1       4.163  -3.712   1.503  1.00  0.00     0.251 C 
ATOM     31  H   UNL     1       2.834  -3.611   0.021  1.00  0.00     0.163 HD
ATOM     32  O   UNL     1       4.162  -4.946   1.510  1.00  0.00    -0.269 OA
BRANCH  30  33
ATOM     33  C   UNL     1       4.960  -2.989   2.519  1.00  0.00     0.039 A 
ATOM     34  C   UNL     1       6.239  -3.465   2.826  1.00  0.00     0.014 A 
ATOM     35  C   UNL     1       4.436  -1.905   3.229  1.00  0.00     0.014 A 
ATOM     36  C   UNL     1       7.003  -2.837   3.812  1.00  0.00     0.010 A 
ATOM     37  C   UNL     1       5.224  -1.238   4.170  1.00  0.00     0.010 A 
ATOM     38  C   UNL     1       6.508  -1.708   4.484  1.00  0.00    -0.014 A 
BRANCH  38  39
ATOM     39  C   UNL     1       7.315  -1.040   5.540  1.00  0.00     0.031 A 
ATOM     40  C   UNL     1       6.869  -1.078   6.976  1.00  0.00     0.074 A 
ATOM     41  C   UNL     1       8.436  -0.372   5.206  1.00  0.00     0.049 A 
ATOM     42  N   UNL     1       7.435  -0.553   8.036  1.00  0.00    -0.248 NA
ATOM     43  C   UNL     1       5.607  -1.779   7.257  1.00  0.00     0.031 C 
ATOM     44  C   UNL     1       8.951  -0.216   3.846  1.00  0.00     0.029 A 
ATOM     45  N   UNL     1       9.341   0.305   5.986  1.00  0.00    -0.354 N 
ATOM     46  C   UNL     1       6.593  -0.848   9.100  1.00  0.00     0.074 A 
ATOM     47  C   UNL     1       5.454  -1.554   8.554  1.00  0.00     0.031 C 
ATOM     48  C   UNL     1      10.092   0.492   3.888  1.00  0.00     0.029 A 
ATOM     49  C   UNL     1      10.376   0.858   5.274  1.00  0.00     0.049 A 
ATOM     50  H   UNL     1       9.256   0.385   6.963  1.00  0.00     0.167 HD
ATOM     51  C   UNL     1       6.763  -0.575  10.417  1.00  0.00     0.037 A 
ATOM     52  C   UNL     1      11.437   1.575   5.691  1.00  0.00     0.037 A 
ATOM     53  C   UNL     1       7.909   0.102  10.966  1.00  0.00     0.049 A 
ATOM     54  C   UNL     1      11.619   1.840   7.160  1.00  0.00     0.074 A 
ATOM     55  C   UNL     1       8.201   0.371  12.292  1.00  0.00     0.029 A 
ATOM     56  N   UNL     1       8.954   0.618  10.214  1.00  0.00    -0.354 N 
ATOM     57  N   UNL     1      10.855   1.491   8.166  1.00  0.00    -0.248 NA
ATOM     58  C   UNL     1      12.823   2.587   7.554  1.00  0.00     0.031 C 
ATOM     59  C   UNL     1       9.405   1.082  12.340  1.00  0.00     0.029 A 
ATOM     60  C   UNL     1       9.886   1.217  11.048  1.00  0.00     0.049 A 
ATOM     61  H   UNL     1       9.024   0.567   9.234  1.00  0.00     0.167 HD
ATOM     62  C   UNL     1      11.496   1.947   9.310  1.00  0.00     0.074 A 
ATOM     63  C   UNL     1      12.719   2.588   8.875  1.00  0.00     0.031 C 
ATOM     64  C   UNL     1      11.105   1.842  10.604  1.00  0.00     0.037 A 
BRANCH  51  65
ATOM     65  C   UNL     1       5.679  -1.014  11.358  1.00  0.00     0.064 A 
ATOM     66  C   UNL     1       5.462  -2.370  11.649  1.00  0.00     0.173 A 
ATOM     67  C   UNL     1       4.863  -0.068  11.997  1.00  0.00     0.173 A 
ATOM     68  F   UNL     1       6.208  -3.315  11.057  1.00  0.00    -0.203 F 
ATOM     69  C   UNL     1       4.447  -2.764  12.517  1.00  0.00     0.198 A 
ATOM     70  C   UNL     1       3.868  -0.465  12.887  1.00  0.00     0.198 A 
ATOM     71  F   UNL     1       5.032   1.241  11.761  1.00  0.00    -0.203 F 
ATOM     72  F   UNL     1       4.225  -4.067  12.738  1.00  0.00    -0.200 F 
ATOM     73  C   UNL     1       3.655  -1.811  13.139  1.00  0.00     0.200 A 
ATOM     74  F   UNL     1       3.111   0.458  13.498  1.00  0.00    -0.200 F 
ATOM     75  F   UNL     1       2.680  -2.192  13.976  1.00  0.00    -0.200 F 
ENDBRANCH  51  65
BRANCH  52  76
ATOM     76  C   UNL     1      12.437   2.053   4.702  1.00  0.00     0.064 A 
ATOM     77  C   UNL     1      13.714   1.478   4.636  1.00  0.00     0.173 A 
ATOM     78  C   UNL     1      12.138   3.087   3.804  1.00  0.00     0.173 A 
ATOM     79  F   UNL     1      14.052   0.501   5.489  1.00  0.00    -0.203 F 
ATOM     80  C   UNL     1      14.660   1.931   3.719  1.00  0.00     0.198 A 
ATOM     81  C   UNL     1      13.076   3.522   2.871  1.00  0.00     0.198 A 
ATOM     82  F   UNL     1      10.928   3.667   3.826  1.00  0.00    -0.203 F 
ATOM     83  F   UNL     1      15.886   1.392   3.704  1.00  0.00    -0.200 F 
ATOM     84  C   UNL     1      14.338   2.949   2.834  1.00  0.00     0.200 A 
ATOM     85  F   UNL     1      12.758   4.498   2.009  1.00  0.00    -0.200 F 
ATOM     86  F   UNL     1      15.247   3.381   1.949  1.00  0.00    -0.200 F 
ENDBRANCH  52  76
BRANCH  64  87
ATOM     87  C   UNL     1      12.028   2.399  11.648  1.00  0.00     0.064 A 
ATOM     88  C   UNL     1      12.189   3.781  11.829  1.00  0.00     0.173 A 
ATOM     89  C   UNL     1      12.738   1.538  12.498  1.00  0.00     0.173 A 
ATOM     90  F   UNL     1      11.544   4.645  11.031  1.00  0.00    -0.203 F 
ATOM     91  C   UNL     1      13.047   4.279  12.805  1.00  0.00     0.198 A 
ATOM     92  C   UNL     1      13.574   2.040  13.491  1.00  0.00     0.198 A 
ATOM     93  F   UNL     1      12.615   0.208  12.370  1.00  0.00    -0.203 F 
ATOM     94  F   UNL     1      13.222   5.602  12.929  1.00  0.00    -0.200 F 
ATOM     95  C   UNL     1      13.734   3.409  13.639  1.00  0.00     0.200 A 
ATOM     96  F   UNL     1      14.228   1.198  14.304  1.00  0.00    -0.200 F 
ATOM     97  F   UNL     1      14.558   3.891  14.580  1.00  0.00    -0.200 F 
ENDBRANCH  64  87
ENDBRANCH  38  39
ENDBRANCH  30  33
ENDBRANCH  28  29
ENDBRANCH  27  28
ENDBRANCH  26  27
ENDBRANCH  25  26
ENDBRANCH  24  25
ENDBRANCH   1  24
TORSDOF 20
