REMARK SMILES COc1ccc(-c2ccc(S(=O)(=O)NC(C)(C)C)cc2)c(C(=O)NCCCCCCNC(=O)c2ccc(-c3c4nc(c(-c5c(F)c(F)c(F)c(F)c5F)c5ccc([nH]5)c(-c5c(F)c(F)c(F)c(F)c5F)c5nc(c(-c6c(F)c(F)c(F)c(F)c6F)c6ccc3[nH]6)C=C5)C=C4)cc2)c1
REMARK SMILES IDX 26 1 25 2 24 3 22 4 23 5 21 7 3 8 4 9 97 10 5 11 6 12 2 13
REMARK SMILES IDX 1 14 7 15 8 16 20 17 9 18 19 19 10 20 11 21 12 22 13 23
REMARK SMILES IDX 14 24 15 26 16 27 17 28 18 29 27 30 28 31 29 32 30 33 31 34
REMARK SMILES IDX 32 35 33 37 34 38 35 39 96 40 36 41 95 42 37 43 38 44 39 45
REMARK SMILES IDX 89 46 40 47 94 48 88 49 90 50 41 51 93 52 87 53 86 54 42 56
REMARK SMILES IDX 74 57 54 58 73 59 55 60 58 61 72 62 91 63 56 64 57 65 71 67
REMARK SMILES IDX 92 68 59 69 43 70 44 71 52 72 45 73 46 74 50 75 53 76 47 77
REMARK SMILES IDX 48 78 51 79 49 80 75 81 76 82 84 83 77 84 78 85 82 86 85 87
REMARK SMILES IDX 79 88 80 89 83 90 81 91 60 92 61 93 69 94 62 95 63 96 67 97
REMARK SMILES IDX 70 98 64 99 65 100 68 101 66 102
REMARK H PARENT 24 6 14 25 31 36 90 55 58 66
REMARK Flexibility Score: inf
ROOT
ATOM      1  C   UNL     1       5.801  -1.312   1.508  1.00  0.00     0.021 C 
ENDROOT
BRANCH   1   2
ATOM      2  C   UNL     1       4.623  -1.768   0.651  1.00  0.00     0.116 C 
BRANCH   2   3
ATOM      3  N   UNL     1       4.765  -3.074   0.034  1.00  0.00    -0.352 N 
ATOM      4  C   UNL     1       3.799  -3.995  -0.325  1.00  0.00     0.252 C 
ATOM      5  O   UNL     1       4.129  -4.947  -1.025  1.00  0.00    -0.269 OA
ATOM      6  H   UNL     1       5.691  -3.345  -0.159  1.00  0.00     0.163 HD
BRANCH   4   7
ATOM      7  C   UNL     1       2.392  -3.849   0.150  1.00  0.00     0.051 A 
ATOM      8  C   UNL     1       0.499  -2.346   0.490  1.00  0.00     0.119 A 
ATOM      9  C   UNL     1      -0.174  -3.364   1.152  1.00  0.00     0.047 A 
ATOM     10  C   UNL     1       1.760  -2.603  -0.041  1.00  0.00     0.060 A 
ATOM     11  C   UNL     1       0.399  -4.633   1.259  1.00  0.00     0.013 A 
ATOM     12  C   UNL     1       1.680  -4.920   0.738  1.00  0.00    -0.005 A 
BRANCH   8  13
ATOM     13  O   UNL     1      -0.168  -1.155   0.428  1.00  0.00    -0.497 OA
ATOM     14  C   UNL     1       0.558  -0.039  -0.073  1.00  0.00     0.278 C 
ENDBRANCH   8  13
BRANCH  12  15
ATOM     15  C   UNL     1       2.144  -6.325   0.788  1.00  0.00    -0.018 A 
ATOM     16  C   UNL     1       1.316  -7.345   0.272  1.00  0.00     0.010 A 
ATOM     17  C   UNL     1       3.381  -6.703   1.335  1.00  0.00     0.010 A 
ATOM     18  C   UNL     1       1.691  -8.688   0.324  1.00  0.00     0.022 A 
ATOM     19  C   UNL     1       3.787  -8.043   1.345  1.00  0.00     0.022 A 
ATOM     20  C   UNL     1       2.928  -9.032   0.867  1.00  0.00     0.082 A 
BRANCH  20  21
ATOM     21  S   UNL     1       3.344 -10.750   0.970  1.00  0.00     0.241 S 
ATOM     22  O   UNL     1       2.140 -11.485   1.281  1.00  0.00    -0.207 OA
ATOM     23  O   UNL     1       4.127 -11.054  -0.209  1.00  0.00    -0.207 OA
BRANCH  21  24
ATOM     24  N   UNL     1       4.413 -10.890   2.252  1.00  0.00    -0.206 NA
ATOM     25  H   UNL     1       5.032 -10.083   2.167  1.00  0.00     0.141 HD
BRANCH  24  26
ATOM     26  C   UNL     1       4.077 -10.961   3.690  1.00  0.00     0.025 C 
ATOM     27  C   UNL     1       3.087 -12.085   4.003  1.00  0.00     0.028 C 
ATOM     28  C   UNL     1       5.402 -11.267   4.418  1.00  0.00     0.028 C 
ATOM     29  C   UNL     1       3.542  -9.625   4.207  1.00  0.00     0.028 C 
ENDBRANCH  24  26
ENDBRANCH  21  24
ENDBRANCH  20  21
ENDBRANCH  12  15
ENDBRANCH   4   7
ENDBRANCH   2   3
ENDBRANCH   1   2
BRANCH   1  30
ATOM     30  C   UNL     1       7.197  -1.363   0.886  1.00  0.00     0.002 C 
BRANCH  30  31
ATOM     31  C   UNL     1       7.380  -0.749  -0.503  1.00  0.00     0.002 C 
BRANCH  31  32
ATOM     32  C   UNL     1       6.902   0.689  -0.699  1.00  0.00     0.021 C 
BRANCH  32  33
ATOM     33  C   UNL     1       7.418   1.721   0.298  1.00  0.00     0.116 C 
BRANCH  33  34
ATOM     34  N   UNL     1       8.860   1.882   0.272  1.00  0.00    -0.352 N 
ATOM     35  C   UNL     1       9.616   3.028   0.205  1.00  0.00     0.251 C 
ATOM     36  H   UNL     1       9.375   1.044   0.308  1.00  0.00     0.163 HD
ATOM     37  O   UNL     1      10.837   2.951   0.098  1.00  0.00    -0.269 OA
BRANCH  35  38
ATOM     38  C   UNL     1       8.970   4.362   0.224  1.00  0.00     0.039 A 
ATOM     39  C   UNL     1       9.412   5.331  -0.683  1.00  0.00     0.014 A 
ATOM     40  C   UNL     1       7.955   4.673   1.133  1.00  0.00     0.014 A 
ATOM     41  C   UNL     1       8.792   6.583  -0.725  1.00  0.00     0.010 A 
ATOM     42  C   UNL     1       7.295   5.898   1.048  1.00  0.00     0.010 A 
ATOM     43  C   UNL     1       7.706   6.865   0.117  1.00  0.00    -0.014 A 
BRANCH  43  44
ATOM     44  C   UNL     1       6.987   8.163   0.038  1.00  0.00     0.031 A 
ATOM     45  C   UNL     1       7.023   9.123   1.193  1.00  0.00     0.074 A 
ATOM     46  C   UNL     1       6.242   8.448  -1.048  1.00  0.00     0.049 A 
ATOM     47  N   UNL     1       6.400  10.265   1.343  1.00  0.00    -0.248 NA
ATOM     48  C   UNL     1       7.850   8.735   2.346  1.00  0.00     0.031 C 
ATOM     49  C   UNL     1       6.085   7.581  -2.216  1.00  0.00     0.029 A 
ATOM     50  N   UNL     1       5.465   9.542  -1.339  1.00  0.00    -0.354 N 
ATOM     51  C   UNL     1       6.742  10.720   2.609  1.00  0.00     0.074 A 
ATOM     52  C   UNL     1       7.593   9.711   3.204  1.00  0.00     0.031 C 
ATOM     53  C   UNL     1       5.275   8.181  -3.103  1.00  0.00     0.029 A 
ATOM     54  C   UNL     1       4.831   9.460  -2.554  1.00  0.00     0.049 A 
ATOM     55  H   UNL     1       5.370  10.312  -0.733  1.00  0.00     0.167 HD
ATOM     56  C   UNL     1       6.395  11.882   3.213  1.00  0.00     0.037 A 
ATOM     57  C   UNL     1       3.983  10.315  -3.157  1.00  0.00     0.037 A 
ATOM     58  C   UNL     1       5.576  12.900   2.609  1.00  0.00     0.049 A 
ATOM     59  C   UNL     1       3.625  11.605  -2.473  1.00  0.00     0.074 A 
ATOM     60  C   UNL     1       5.228  14.141   3.113  1.00  0.00     0.029 A 
ATOM     61  N   UNL     1       4.976  12.792   1.363  1.00  0.00    -0.354 N 
ATOM     62  N   UNL     1       4.008  12.054  -1.303  1.00  0.00    -0.248 NA
ATOM     63  C   UNL     1       2.723  12.511  -3.198  1.00  0.00     0.031 C 
ATOM     64  C   UNL     1       4.386  14.769   2.188  1.00  0.00     0.029 A 
ATOM     65  C   UNL     1       4.244  13.937   1.090  1.00  0.00     0.049 A 
ATOM     66  H   UNL     1       5.059  12.018   0.761  1.00  0.00     0.167 HD
ATOM     67  C   UNL     1       3.416  13.301  -1.160  1.00  0.00     0.074 A 
ATOM     68  C   UNL     1       2.656  13.544  -2.369  1.00  0.00     0.031 C 
ATOM     69  C   UNL     1       3.496  14.166  -0.120  1.00  0.00     0.037 A 
BRANCH  56  70
ATOM     70  C   UNL     1       6.903  12.114   4.607  1.00  0.00     0.064 A 
ATOM     71  C   UNL     1       8.258  12.374   4.862  1.00  0.00     0.173 A 
ATOM     72  C   UNL     1       6.020  12.099   5.697  1.00  0.00     0.173 A 
ATOM     73  F   UNL     1       9.144  12.387   3.855  1.00  0.00    -0.203 F 
ATOM     74  C   UNL     1       8.716  12.578   6.161  1.00  0.00     0.198 A 
ATOM     75  C   UNL     1       6.477  12.332   6.992  1.00  0.00     0.198 A 
ATOM     76  F   UNL     1       4.714  11.861   5.508  1.00  0.00    -0.203 F 
ATOM     77  F   UNL     1      10.022  12.773   6.386  1.00  0.00    -0.200 F 
ATOM     78  C   UNL     1       7.825  12.563   7.224  1.00  0.00     0.200 A 
ATOM     79  F   UNL     1       5.614  12.328   8.017  1.00  0.00    -0.200 F 
ATOM     80  F   UNL     1       8.267  12.761   8.473  1.00  0.00    -0.200 F 
ENDBRANCH  56  70
BRANCH  57  81
ATOM     81  C   UNL     1       3.439   9.987  -4.499  1.00  0.00     0.064 A 
ATOM     82  C   UNL     1       3.879  10.673  -5.639  1.00  0.00     0.173 A 
ATOM     83  C   UNL     1       2.485   8.974  -4.672  1.00  0.00     0.173 A 
ATOM     84  F   UNL     1       4.776  11.664  -5.519  1.00  0.00    -0.203 F 
ATOM     85  C   UNL     1       3.377  10.367  -6.901  1.00  0.00     0.198 A 
ATOM     86  C   UNL     1       2.000   8.653  -5.938  1.00  0.00     0.198 A 
ATOM     87  F   UNL     1       2.036   8.286  -3.613  1.00  0.00    -0.203 F 
ATOM     88  F   UNL     1       3.789  11.062  -7.971  1.00  0.00    -0.200 F 
ATOM     89  C   UNL     1       2.443   9.353  -7.051  1.00  0.00     0.200 A 
ATOM     90  F   UNL     1       1.108   7.664  -6.081  1.00  0.00    -0.200 F 
ATOM     91  F   UNL     1       1.966   9.053  -8.267  1.00  0.00    -0.200 F 
ENDBRANCH  57  81
BRANCH  69  92
ATOM     92  C   UNL     1       2.766  15.470  -0.253  1.00  0.00     0.064 A 
ATOM     93  C   UNL     1       1.369  15.543  -0.150  1.00  0.00     0.173 A 
ATOM     94  C   UNL     1       3.476  16.665  -0.443  1.00  0.00     0.173 A 
ATOM     95  F   UNL     1       0.645  14.426   0.015  1.00  0.00    -0.203 F 
ATOM     96  C   UNL     1       0.708  16.765  -0.253  1.00  0.00     0.198 A 
ATOM     97  C   UNL     1       2.814  17.887  -0.520  1.00  0.00     0.198 A 
ATOM     98  F   UNL     1       4.814  16.648  -0.542  1.00  0.00    -0.203 F 
ATOM     99  F   UNL     1      -0.630  16.807  -0.192  1.00  0.00    -0.200 F 
ATOM    100  C   UNL     1       1.431  17.935  -0.430  1.00  0.00     0.200 A 
ATOM    101  F   UNL     1       3.514  19.018  -0.681  1.00  0.00    -0.200 F 
ATOM    102  F   UNL     1       0.793  19.110  -0.522  1.00  0.00    -0.200 F 
ENDBRANCH  69  92
ENDBRANCH  43  44
ENDBRANCH  35  38
ENDBRANCH  33  34
ENDBRANCH  32  33
ENDBRANCH  31  32
ENDBRANCH  30  31
ENDBRANCH   1  30
TORSDOF 18
