REMARK SMILES CCN1C(=O)C[C@H](C(=O)Nc2cccc(C(=O)NCCCCCCNC(=O)c3ccc(-c4c5nc(c(-c6c(F)c(F)c(F)c(F)c6F)c6ccc([nH]6)c(-c6c(F)c(F)c(F)c(F)c6F)c6nc(c(-c7c(F)c(F)c(F)c(F)c7F)c7ccc4[nH]7)C=C6)C=C5)cc3)c2)S/C1=[NH+]/c1cccc(C(F)(F)F)c1
REMARK SMILES IDX 20 1 19 2 18 3 16 4 17 5 15 7 11 8 12 9 91 10 13 11 14 12
REMARK SMILES IDX 10 13 8 14 9 15 7 17 3 18 4 19 93 20 5 21 6 22 92 23 94 24
REMARK SMILES IDX 2 26 1 27 95 28 96 29 104 30 97 31 99 32 98 33 100 34 101 35
REMARK SMILES IDX 102 36 103 37 21 38 22 39 23 40 24 41 25 42 26 43 27 45
REMARK SMILES IDX 28 46 29 47 90 48 30 49 89 50 31 51 32 52 33 53 83 54 34 55
REMARK SMILES IDX 88 56 82 57 84 58 35 59 87 60 81 61 80 62 36 64 68 65 48 66
REMARK SMILES IDX 67 67 49 68 52 69 66 70 85 71 50 72 51 73 65 75 86 76 53 77
REMARK SMILES IDX 37 78 38 79 46 80 39 81 40 82 44 83 47 84 41 85 42 86 45 87
REMARK SMILES IDX 43 88 69 89 70 90 78 91 71 92 72 93 76 94 79 95 73 96 74 97
REMARK SMILES IDX 77 98 75 99 54 100 55 101 63 102 56 103 57 104 61 105 64 106
REMARK SMILES IDX 58 107 59 108 62 109 60 110
REMARK H PARENT 18 6 10 16 94 25 25 44 84 63 52 74
REMARK Flexibility Score: inf
ROOT
ATOM      1  C   UNL     1      -0.087  -2.819   1.549  1.00  0.00     0.021 C 
ENDROOT
BRANCH   1   2
ATOM      2  C   UNL     1      -0.194  -1.264   1.341  1.00  0.00     0.116 C 
BRANCH   2   3
ATOM      3  N   UNL     1      -1.409  -0.308   1.021  1.00  0.00    -0.352 N 
ATOM      4  C   UNL     1      -1.737   1.153   1.013  1.00  0.00     0.251 C 
ATOM      5  O   UNL     1      -2.147   1.556  -0.086  1.00  0.00    -0.269 OA
ATOM      6  H   UNL     1      -2.192  -0.835   0.741  1.00  0.00     0.163 HD
BRANCH   4   7
ATOM      7  C   UNL     1      -2.015   2.214   2.207  1.00  0.00     0.041 A 
ATOM      8  C   UNL     1      -1.042   3.300   4.231  1.00  0.00     0.041 A 
ATOM      9  C   UNL     1      -2.300   3.337   4.814  1.00  0.00     0.026 A 
ATOM     10  C   UNL     1      -1.072   3.039   2.836  1.00  0.00     0.040 A 
ATOM     11  C   UNL     1      -3.429   3.021   4.033  1.00  0.00     0.003 A 
ATOM     12  C   UNL     1      -3.287   2.439   2.741  1.00  0.00     0.014 A 
BRANCH   8  13
ATOM     13  N   UNL     1       0.102   3.237   5.148  1.00  0.00    -0.325 N 
ATOM     14  C   UNL     1       1.425   2.784   5.165  1.00  0.00     0.238 C 
ATOM     15  O   UNL     1       1.874   2.489   6.288  1.00  0.00    -0.273 OA
ATOM     16  H   UNL     1      -0.133   3.636   6.017  1.00  0.00     0.169 HD
BRANCH  14  17
ATOM     17  C   UNL     1       2.439   2.727   4.002  1.00  0.00     0.160 C 
ATOM     18  N   UNL     1       1.929   0.452   2.103  1.00  0.00    -0.191 N 
ATOM     19  C   UNL     1       2.797   0.227   3.136  1.00  0.00     0.311 C 
ATOM     20  C   UNL     1       0.965   1.155   2.717  1.00  0.00     0.319 C 
ATOM     21  O   UNL     1       2.936  -0.873   3.659  1.00  0.00    -0.247 OA
ATOM     22  C   UNL     1       3.385   1.497   3.823  1.00  0.00     0.153 C 
ATOM     23  S   UNL     1       1.641   2.844   2.467  1.00  0.00    -0.024 SA
ATOM     24  N   UNL     1       0.100   0.835   3.677  1.00  0.00    -0.235 N 
ATOM     25  H   UNL     1      -0.041   1.595   4.286  1.00  0.00     0.313 HD
BRANCH  18  26
ATOM     26  C   UNL     1       2.320   0.559   0.630  1.00  0.00     0.243 C 
ATOM     27  C   UNL     1       1.985   1.753  -0.293  1.00  0.00     0.054 C 
ENDBRANCH  18  26
BRANCH  24  28
ATOM     28  C   UNL     1      -0.705  -0.322   4.093  1.00  0.00     0.126 A 
ATOM     29  C   UNL     1      -2.091  -0.340   3.793  1.00  0.00     0.052 A 
ATOM     30  C   UNL     1      -0.353  -1.433   4.853  1.00  0.00     0.064 A 
ATOM     31  C   UNL     1      -3.036  -1.352   3.971  1.00  0.00     0.005 A 
ATOM     32  C   UNL     1      -1.304  -2.506   5.098  1.00  0.00     0.060 A 
ATOM     33  C   UNL     1      -2.625  -2.470   4.613  1.00  0.00     0.013 A 
BRANCH  32  34
ATOM     34  C   UNL     1      -0.965  -3.784   5.816  1.00  0.00     0.416 C 
ATOM     35  F   UNL     1      -1.904  -4.114   6.752  1.00  0.00    -0.166 F 
ATOM     36  F   UNL     1      -0.930  -4.842   4.955  1.00  0.00    -0.166 F 
ATOM     37  F   UNL     1       0.227  -3.768   6.458  1.00  0.00    -0.166 F 
ENDBRANCH  32  34
ENDBRANCH  24  28
ENDBRANCH  14  17
ENDBRANCH   8  13
ENDBRANCH   4   7
ENDBRANCH   2   3
ENDBRANCH   1   2
BRANCH   1  38
ATOM     38  C   UNL     1       1.165  -3.577   0.886  1.00  0.00     0.002 C 
BRANCH  38  39
ATOM     39  C   UNL     1       2.576  -2.987   0.586  1.00  0.00     0.002 C 
BRANCH  39  40
ATOM     40  C   UNL     1       3.775  -2.992   1.549  1.00  0.00     0.021 C 
BRANCH  40  41
ATOM     41  C   UNL     1       4.111  -4.250   2.326  1.00  0.00     0.116 C 
BRANCH  41  42
ATOM     42  N   UNL     1       4.713  -5.259   1.463  1.00  0.00    -0.352 N 
ATOM     43  C   UNL     1       5.984  -5.758   1.461  1.00  0.00     0.251 C 
ATOM     44  H   UNL     1       4.114  -5.637   0.779  1.00  0.00     0.163 HD
ATOM     45  O   UNL     1       6.391  -6.369   0.446  1.00  0.00    -0.269 OA
BRANCH  43  46
ATOM     46  C   UNL     1       6.896  -5.612   2.617  1.00  0.00     0.039 A 
ATOM     47  C   UNL     1       8.280  -5.543   2.408  1.00  0.00     0.014 A 
ATOM     48  C   UNL     1       6.405  -5.615   3.925  1.00  0.00     0.014 A 
ATOM     49  C   UNL     1       9.154  -5.465   3.498  1.00  0.00     0.010 A 
ATOM     50  C   UNL     1       7.265  -5.418   5.002  1.00  0.00     0.010 A 
ATOM     51  C   UNL     1       8.652  -5.393   4.807  1.00  0.00    -0.014 A 
BRANCH  51  52
ATOM     52  C   UNL     1       9.556  -5.396   5.989  1.00  0.00     0.031 A 
ATOM     53  C   UNL     1       9.471  -6.527   6.985  1.00  0.00     0.074 A 
ATOM     54  C   UNL     1      10.423  -4.384   6.183  1.00  0.00     0.049 A 
ATOM     55  N   UNL     1      10.126  -6.701   8.106  1.00  0.00    -0.248 NA
ATOM     56  C   UNL     1       8.491  -7.590   6.702  1.00  0.00     0.031 C 
ATOM     57  C   UNL     1      10.562  -3.209   5.321  1.00  0.00     0.029 A 
ATOM     58  N   UNL     1      11.352  -4.180   7.173  1.00  0.00    -0.354 N 
ATOM     59  C   UNL     1       9.630  -7.879   8.654  1.00  0.00     0.074 A 
ATOM     60  C   UNL     1       8.559  -8.329   7.798  1.00  0.00     0.031 C 
ATOM     61  C   UNL     1      11.544  -2.426   5.799  1.00  0.00     0.029 A 
ATOM     62  C   UNL     1      12.077  -3.023   7.019  1.00  0.00     0.049 A 
ATOM     63  H   UNL     1      11.487  -4.803   7.922  1.00  0.00     0.167 HD
ATOM     64  C   UNL     1      10.059  -8.555   9.747  1.00  0.00     0.037 A 
ATOM     65  C   UNL     1      13.062  -2.509   7.779  1.00  0.00     0.037 A 
ATOM     66  C   UNL     1      11.144  -8.117  10.584  1.00  0.00     0.049 A 
ATOM     67  C   UNL     1      13.515  -3.277   8.995  1.00  0.00     0.074 A 
ATOM     68  C   UNL     1      11.672  -8.726  11.707  1.00  0.00     0.029 A 
ATOM     69  N   UNL     1      11.874  -6.956  10.374  1.00  0.00    -0.354 N 
ATOM     70  N   UNL     1      13.074  -4.418   9.470  1.00  0.00    -0.248 NA
ATOM     71  C   UNL     1      14.619  -2.695   9.768  1.00  0.00     0.031 C 
ATOM     72  C   UNL     1      12.700  -7.915  12.199  1.00  0.00     0.029 A 
ATOM     73  C   UNL     1      12.851  -6.832  11.348  1.00  0.00     0.049 A 
ATOM     74  H   UNL     1      11.721  -6.316   9.642  1.00  0.00     0.167 HD
ATOM     75  C   UNL     1      13.875  -4.710  10.566  1.00  0.00     0.074 A 
ATOM     76  C   UNL     1      14.841  -3.637  10.672  1.00  0.00     0.031 C 
ATOM     77  C   UNL     1      13.819  -5.769  11.413  1.00  0.00     0.037 A 
BRANCH  64  78
ATOM     78  C   UNL     1       9.374  -9.852  10.075  1.00  0.00     0.064 A 
ATOM     79  C   UNL     1       9.505 -10.978   9.245  1.00  0.00     0.173 A 
ATOM     80  C   UNL     1       8.602  -9.985  11.239  1.00  0.00     0.173 A 
ATOM     81  F   UNL     1      10.218 -10.902   8.111  1.00  0.00    -0.203 F 
ATOM     82  C   UNL     1       8.866 -12.176   9.552  1.00  0.00     0.198 A 
ATOM     83  C   UNL     1       7.993 -11.196  11.561  1.00  0.00     0.198 A 
ATOM     84  F   UNL     1       8.445  -8.944  12.070  1.00  0.00    -0.203 F 
ATOM     85  F   UNL     1       8.962 -13.218   8.715  1.00  0.00    -0.200 F 
ATOM     86  C   UNL     1       8.118 -12.287  10.714  1.00  0.00     0.200 A 
ATOM     87  F   UNL     1       7.282 -11.307  12.692  1.00  0.00    -0.200 F 
ATOM     88  F   UNL     1       7.513 -13.445  11.014  1.00  0.00    -0.200 F 
ENDBRANCH  64  78
BRANCH  65  89
ATOM     89  C   UNL     1      13.715  -1.223   7.409  1.00  0.00     0.064 A 
ATOM     90  C   UNL     1      15.067  -1.179   7.034  1.00  0.00     0.173 A 
ATOM     91  C   UNL     1      13.020  -0.006   7.469  1.00  0.00     0.173 A 
ATOM     92  F   UNL     1      15.782  -2.312   6.975  1.00  0.00    -0.203 F 
ATOM     93  C   UNL     1      15.708   0.033   6.783  1.00  0.00     0.198 A 
ATOM     94  C   UNL     1      13.653   1.202   7.181  1.00  0.00     0.198 A 
ATOM     95  F   UNL     1      11.723   0.012   7.810  1.00  0.00    -0.203 F 
ATOM     96  F   UNL     1      17.019   0.048   6.502  1.00  0.00    -0.200 F 
ATOM     97  C   UNL     1      15.001   1.222   6.854  1.00  0.00     0.200 A 
ATOM     98  F   UNL     1      12.961   2.348   7.232  1.00  0.00    -0.200 F 
ATOM     99  F   UNL     1      15.619   2.388   6.622  1.00  0.00    -0.200 F 
ENDBRANCH  65  89
BRANCH  77 100
ATOM    100  C   UNL     1      14.877  -5.851  12.476  1.00  0.00     0.064 A 
ATOM    101  C   UNL     1      14.929  -4.947  13.547  1.00  0.00     0.173 A 
ATOM    102  C   UNL     1      15.851  -6.861  12.421  1.00  0.00     0.173 A 
ATOM    103  F   UNL     1      14.028  -3.957  13.640  1.00  0.00    -0.203 F 
ATOM    104  C   UNL     1      15.946  -5.020  14.495  1.00  0.00     0.198 A 
ATOM    105  C   UNL     1      16.842  -6.955  13.393  1.00  0.00     0.198 A 
ATOM    106  F   UNL     1      15.839  -7.760  11.425  1.00  0.00    -0.203 F 
ATOM    107  F   UNL     1      16.019  -4.100  15.466  1.00  0.00    -0.200 F 
ATOM    108  C   UNL     1      16.898  -6.027  14.420  1.00  0.00     0.200 A 
ATOM    109  F   UNL     1      17.748  -7.940  13.329  1.00  0.00    -0.200 F 
ATOM    110  F   UNL     1      17.876  -6.094  15.333  1.00  0.00    -0.200 F 
ENDBRANCH  77 100
ENDBRANCH  51  52
ENDBRANCH  43  46
ENDBRANCH  41  42
ENDBRANCH  40  41
ENDBRANCH  39  40
ENDBRANCH  38  39
ENDBRANCH   1  38
TORSDOF 18
