REMARK SMILES O=C(NCCCCCCNC(=O)c1ccc(C[NH2+]Cc2cc(F)ccc2F)nc1)c1ccc(-c2c3nc(c(-c4c(F)c(F)c(F)c(F)c4F)c4ccc([nH]4)c(-c4c(F)c(F)c(F)c(F)c4F)c4nc(c(-c5c(F)c(F)c(F)c(F)c5F)c5ccc2[nH]5)C=C4)C=C3)cc1
REMARK SMILES IDX 7 1 6 2 5 3 4 4 3 5 1 6 2 7 30 9 31 10 92 11 32 12 91 13
REMARK SMILES IDX 33 14 34 15 35 16 85 17 36 18 90 19 84 20 86 21 37 22 89 23
REMARK SMILES IDX 83 24 82 25 38 27 70 28 50 29 69 30 51 31 54 32 68 33 87 34
REMARK SMILES IDX 52 35 53 36 67 38 88 39 55 40 39 41 40 42 48 43 41 44 42 45
REMARK SMILES IDX 46 46 49 47 43 48 44 49 47 50 45 51 71 52 72 53 80 54 73 55
REMARK SMILES IDX 74 56 78 57 81 58 75 59 76 60 79 61 77 62 56 63 57 64 65 65
REMARK SMILES IDX 58 66 59 67 63 68 66 69 60 70 61 71 64 72 62 73 8 74 9 75
REMARK SMILES IDX 10 76 11 77 12 79 13 80 14 81 29 82 15 83 28 84 16 85 17 86
REMARK SMILES IDX 18 87 19 90 20 91 21 92 26 93 22 94 25 95 27 96 23 97 24 98
REMARK H PARENT 3 8 86 26 54 37 10 78 18 88 18 89
REMARK Flexibility Score: inf
ROOT
ATOM      1  C   UNL     1       4.819   0.506   4.286  1.00  0.00     0.002 C 
ENDROOT
BRANCH   1   2
ATOM      2  C   UNL     1       4.258   1.639   3.421  1.00  0.00     0.002 C 
BRANCH   2   3
ATOM      3  C   UNL     1       4.732   1.643   1.968  1.00  0.00     0.021 C 
BRANCH   3   4
ATOM      4  C   UNL     1       4.479   0.346   1.214  1.00  0.00     0.116 C 
BRANCH   4   5
ATOM      5  N   UNL     1       3.062   0.063   1.056  1.00  0.00    -0.352 N 
ATOM      6  O   UNL     1       1.122  -0.216  -0.066  1.00  0.00    -0.269 OA
ATOM      7  C   UNL     1       2.346  -0.161  -0.094  1.00  0.00     0.251 C 
ATOM      8  H   UNL     1       2.542   0.026   1.892  1.00  0.00     0.163 HD
BRANCH   7   9
ATOM      9  C   UNL     1       3.062  -0.315  -1.378  1.00  0.00     0.039 A 
ATOM     10  C   UNL     1       4.201  -1.119  -1.463  1.00  0.00     0.014 A 
ATOM     11  C   UNL     1       2.583   0.349  -2.510  1.00  0.00     0.014 A 
ATOM     12  C   UNL     1       4.936  -1.152  -2.641  1.00  0.00     0.010 A 
ATOM     13  C   UNL     1       3.273   0.241  -3.720  1.00  0.00     0.010 A 
ATOM     14  C   UNL     1       4.467  -0.494  -3.790  1.00  0.00    -0.014 A 
BRANCH  14  15
ATOM     15  C   UNL     1       5.194  -0.664  -5.072  1.00  0.00     0.031 A 
ATOM     16  C   UNL     1       5.854   0.498  -5.757  1.00  0.00     0.074 A 
ATOM     17  C   UNL     1       5.267  -1.899  -5.605  1.00  0.00     0.049 A 
ATOM     18  N   UNL     1       6.525   0.516  -6.882  1.00  0.00    -0.248 NA
ATOM     19  C   UNL     1       5.746   1.810  -5.103  1.00  0.00     0.031 C 
ATOM     20  C   UNL     1       4.657  -3.098  -5.027  1.00  0.00     0.029 A 
ATOM     21  N   UNL     1       5.891  -2.357  -6.737  1.00  0.00    -0.354 N 
ATOM     22  C   UNL     1       6.907   1.836  -7.077  1.00  0.00     0.074 A 
ATOM     23  C   UNL     1       6.370   2.598  -5.970  1.00  0.00     0.031 C 
ATOM     24  C   UNL     1       4.976  -4.160  -5.778  1.00  0.00     0.029 A 
ATOM     25  C   UNL     1       5.750  -3.709  -6.928  1.00  0.00     0.049 A 
ATOM     26  H   UNL     1       6.391  -1.773  -7.352  1.00  0.00     0.167 HD
ATOM     27  C   UNL     1       7.646   2.356  -8.087  1.00  0.00     0.037 A 
ATOM     28  C   UNL     1       6.177  -4.500  -7.930  1.00  0.00     0.037 A 
ATOM     29  C   UNL     1       8.182   1.583  -9.180  1.00  0.00     0.049 A 
ATOM     30  C   UNL     1       6.958  -3.888  -9.056  1.00  0.00     0.074 A 
ATOM     31  C   UNL     1       8.967   2.015 -10.235  1.00  0.00     0.029 A 
ATOM     32  N   UNL     1       7.985   0.221  -9.361  1.00  0.00    -0.354 N 
ATOM     33  N   UNL     1       7.336  -2.643  -9.216  1.00  0.00    -0.248 NA
ATOM     34  C   UNL     1       7.368  -4.786 -10.143  1.00  0.00     0.031 C 
ATOM     35  C   UNL     1       9.199   0.928 -11.082  1.00  0.00     0.029 A 
ATOM     36  C   UNL     1       8.612  -0.197 -10.525  1.00  0.00     0.049 A 
ATOM     37  H   UNL     1       7.476  -0.362  -8.753  1.00  0.00     0.167 HD
ATOM     38  C   UNL     1       8.042  -2.609 -10.409  1.00  0.00     0.074 A 
ATOM     39  C   UNL     1       8.056  -3.964 -10.923  1.00  0.00     0.031 C 
ATOM     40  C   UNL     1       8.621  -1.549 -11.023  1.00  0.00     0.037 A 
BRANCH  27  41
ATOM     41  C   UNL     1       7.921   3.832  -8.074  1.00  0.00     0.064 A 
ATOM     42  C   UNL     1       7.356   4.669  -9.051  1.00  0.00     0.173 A 
ATOM     43  C   UNL     1       8.809   4.408  -7.154  1.00  0.00     0.173 A 
ATOM     44  F   UNL     1       6.506   4.169  -9.960  1.00  0.00    -0.203 F 
ATOM     45  C   UNL     1       7.684   6.021  -9.115  1.00  0.00     0.198 A 
ATOM     46  C   UNL     1       9.112   5.767  -7.204  1.00  0.00     0.198 A 
ATOM     47  F   UNL     1       9.369   3.656  -6.195  1.00  0.00    -0.203 F 
ATOM     48  F   UNL     1       7.160   6.791 -10.079  1.00  0.00    -0.200 F 
ATOM     49  C   UNL     1       8.558   6.569  -8.190  1.00  0.00     0.200 A 
ATOM     50  F   UNL     1       9.941   6.300  -6.295  1.00  0.00    -0.200 F 
ATOM     51  F   UNL     1       8.867   7.872  -8.248  1.00  0.00    -0.200 F 
ENDBRANCH  27  41
BRANCH  28  52
ATOM     52  C   UNL     1       5.871  -5.953  -7.895  1.00  0.00     0.064 A 
ATOM     53  C   UNL     1       4.555  -6.424  -8.018  1.00  0.00     0.173 A 
ATOM     54  C   UNL     1       6.886  -6.897  -7.690  1.00  0.00     0.173 A 
ATOM     55  F   UNL     1       3.547  -5.559  -8.206  1.00  0.00    -0.203 F 
ATOM     56  C   UNL     1       4.263  -7.781  -7.910  1.00  0.00     0.198 A 
ATOM     57  C   UNL     1       6.596  -8.258  -7.615  1.00  0.00     0.198 A 
ATOM     58  F   UNL     1       8.161  -6.497  -7.583  1.00  0.00    -0.203 F 
ATOM     59  F   UNL     1       2.991  -8.198  -7.984  1.00  0.00    -0.200 F 
ATOM     60  C   UNL     1       5.284  -8.697  -7.714  1.00  0.00     0.200 A 
ATOM     61  F   UNL     1       7.588  -9.143  -7.448  1.00  0.00    -0.200 F 
ATOM     62  F   UNL     1       5.004 -10.004  -7.621  1.00  0.00    -0.200 F 
ENDBRANCH  28  52
BRANCH  40  63
ATOM     63  C   UNL     1       9.344  -1.809 -12.312  1.00  0.00     0.064 A 
ATOM     64  C   UNL     1      10.742  -1.704 -12.375  1.00  0.00     0.173 A 
ATOM     65  C   UNL     1       8.652  -2.098 -13.497  1.00  0.00     0.173 A 
ATOM     66  F   UNL     1      11.450  -1.424 -11.271  1.00  0.00    -0.203 F 
ATOM     67  C   UNL     1      11.419  -1.864 -13.581  1.00  0.00     0.198 A 
ATOM     68  C   UNL     1       9.336  -2.288 -14.695  1.00  0.00     0.198 A 
ATOM     69  F   UNL     1       7.317  -2.224 -13.486  1.00  0.00    -0.203 F 
ATOM     70  F   UNL     1      12.751  -1.724 -13.623  1.00  0.00    -0.200 F 
ATOM     71  C   UNL     1      10.716  -2.160 -14.738  1.00  0.00     0.200 A 
ATOM     72  F   UNL     1       8.658  -2.601 -15.808  1.00  0.00    -0.200 F 
ATOM     73  F   UNL     1      11.370  -2.327 -15.896  1.00  0.00    -0.200 F 
ENDBRANCH  40  63
ENDBRANCH  14  15
ENDBRANCH   7   9
ENDBRANCH   4   5
ENDBRANCH   3   4
ENDBRANCH   2   3
ENDBRANCH   1   2
BRANCH   1  74
ATOM     74  C   UNL     1       6.346   0.385   4.299  1.00  0.00     0.021 C 
BRANCH  74  75
ATOM     75  C   UNL     1       7.086   1.660   4.696  1.00  0.00     0.116 C 
BRANCH  75  76
ATOM     76  N   UNL     1       6.754   2.078   6.047  1.00  0.00    -0.352 N 
ATOM     77  C   UNL     1       7.585   2.232   7.126  1.00  0.00     0.252 C 
ATOM     78  H   UNL     1       5.804   2.278   6.209  1.00  0.00     0.163 HD
ATOM     79  O   UNL     1       7.126   2.393   8.252  1.00  0.00    -0.269 OA
BRANCH  77  80
ATOM     80  C   UNL     1       9.037   2.191   6.926  1.00  0.00     0.058 A 
ATOM     81  C   UNL     1       9.678   3.030   6.017  1.00  0.00     0.017 A 
ATOM     82  C   UNL     1       9.795   1.295   7.659  1.00  0.00     0.125 A 
ATOM     83  C   UNL     1      11.050   2.900   5.835  1.00  0.00     0.030 A 
ATOM     84  N   UNL     1      11.127   1.136   7.486  1.00  0.00    -0.255 NA
ATOM     85  C   UNL     1      11.740   1.933   6.571  1.00  0.00     0.094 A 
BRANCH  85  86
ATOM     86  C   UNL     1      13.236   1.770   6.383  1.00  0.00     0.318 C 
BRANCH  86  87
ATOM     87  N   UNL     1      13.999   2.447   7.433  1.00  0.00    -0.337 N 
ATOM     88  H   UNL     1      13.877   1.931   8.305  1.00  0.00     0.346 HD
ATOM     89  H   UNL     1      13.643   3.401   7.498  1.00  0.00     0.346 HD
BRANCH  87  90
ATOM     90  C   UNL     1      15.426   2.536   7.144  1.00  0.00     0.300 C 
BRANCH  90  91
ATOM     91  C   UNL     1      15.735   3.434   5.974  1.00  0.00     0.045 A 
ATOM     92  C   UNL     1      16.178   2.899   4.755  1.00  0.00     0.051 A 
ATOM     93  C   UNL     1      15.523   4.815   6.060  1.00  0.00     0.132 A 
ATOM     94  C   UNL     1      16.373   3.737   3.661  1.00  0.00     0.123 A 
ATOM     95  C   UNL     1      15.723   5.651   4.963  1.00  0.00     0.043 A 
ATOM     96  F   UNL     1      15.083   5.352   7.206  1.00  0.00    -0.206 F 
ATOM     97  F   UNL     1      16.768   3.212   2.494  1.00  0.00    -0.207 F 
ATOM     98  C   UNL     1      16.146   5.107   3.752  1.00  0.00     0.042 A 
ENDBRANCH  90  91
ENDBRANCH  87  90
ENDBRANCH  86  87
ENDBRANCH  85  86
ENDBRANCH  77  80
ENDBRANCH  75  76
ENDBRANCH  74  75
ENDBRANCH   1  74
TORSDOF 17
