REMARK SMILES O=C(NCCCCCCNC(=O)c1cc(NC(=O)c2cncc(Br)c2)ccc1O)c1ccc(-c2c3nc(c(-c4c(F)c(F)c(F)c(F)c4F)c4ccc([nH]4)c(-c4c(F)c(F)c(F)c(F)c4F)c4nc(c(-c5c(F)c(F)c(F)c(F)c5F)c5ccc2[nH]5)C=C4)C=C3)cc1
REMARK SMILES IDX 6 1 5 2 4 3 3 4 1 5 2 6 30 8 31 9 92 10 32 11 91 12 33 13
REMARK SMILES IDX 34 14 35 15 85 16 36 17 90 18 84 19 86 20 37 21 89 22 83 23
REMARK SMILES IDX 82 24 38 26 70 27 50 28 69 29 51 30 54 31 68 32 87 33 52 34
REMARK SMILES IDX 53 35 67 37 88 38 55 39 39 40 40 41 48 42 41 43 42 44 46 45
REMARK SMILES IDX 49 46 43 47 44 48 47 49 45 50 71 51 72 52 80 53 73 54 74 55
REMARK SMILES IDX 78 56 81 57 75 58 76 59 79 60 77 61 56 62 57 63 65 64 58 65
REMARK SMILES IDX 59 66 63 67 66 68 60 69 61 70 64 71 62 72 7 73 8 74 9 75
REMARK SMILES IDX 10 76 11 77 12 79 13 80 14 81 28 82 15 83 27 84 26 85 29 86
REMARK SMILES IDX 16 88 17 89 18 91 19 92 20 93 25 94 21 95 23 96 22 97 24 98
REMARK H PARENT 3 7 86 25 54 36 10 78 29 87 16 90
REMARK Flexibility Score: inf
ROOT
ATOM      1  C   UNL     1       4.256   1.760  -3.642  1.00  0.00     0.002 C 
ENDROOT
BRANCH   1   2
ATOM      2  C   UNL     1       4.688   0.544  -2.826  1.00  0.00     0.021 C 
BRANCH   2   3
ATOM      3  C   UNL     1       4.467   0.653  -1.324  1.00  0.00     0.116 C 
BRANCH   3   4
ATOM      4  N   UNL     1       3.064   0.663  -0.948  1.00  0.00    -0.352 N 
ATOM      5  O   UNL     1       1.203  -0.039   0.123  1.00  0.00    -0.269 OA
ATOM      6  C   UNL     1       2.419  -0.086   0.011  1.00  0.00     0.251 C 
ATOM      7  H   UNL     1       2.496   1.293  -1.447  1.00  0.00     0.163 HD
BRANCH   6   8
ATOM      8  C   UNL     1       3.208  -0.979   0.893  1.00  0.00     0.039 A 
ATOM      9  C   UNL     1       4.397  -0.537   1.473  1.00  0.00     0.014 A 
ATOM     10  C   UNL     1       2.753  -2.280   1.135  1.00  0.00     0.014 A 
ATOM     11  C   UNL     1       5.205  -1.435   2.161  1.00  0.00     0.010 A 
ATOM     12  C   UNL     1       3.522  -3.156   1.910  1.00  0.00     0.010 A 
ATOM     13  C   UNL     1       4.770  -2.750   2.403  1.00  0.00    -0.014 A 
BRANCH  13  14
ATOM     14  C   UNL     1       5.621  -3.635   3.240  1.00  0.00     0.031 A 
ATOM     15  C   UNL     1       6.266  -4.872   2.679  1.00  0.00     0.074 A 
ATOM     16  C   UNL     1       5.862  -3.265   4.513  1.00  0.00     0.049 A 
ATOM     17  N   UNL     1       7.107  -5.694   3.258  1.00  0.00    -0.248 NA
ATOM     18  C   UNL     1       5.924  -5.241   1.298  1.00  0.00     0.031 C 
ATOM     19  C   UNL     1       5.265  -2.102   5.173  1.00  0.00     0.029 A 
ATOM     20  N   UNL     1       6.691  -3.798   5.465  1.00  0.00    -0.354 N 
ATOM     21  C   UNL     1       7.386  -6.679   2.320  1.00  0.00     0.074 A 
ATOM     22  C   UNL     1       6.604  -6.370   1.141  1.00  0.00     0.031 C 
ATOM     23  C   UNL     1       5.794  -1.971   6.398  1.00  0.00     0.029 A 
ATOM     24  C   UNL     1       6.721  -3.072   6.631  1.00  0.00     0.049 A 
ATOM     25  H   UNL     1       7.215  -4.620   5.327  1.00  0.00     0.167 HD
ATOM     26  C   UNL     1       8.227  -7.736   2.431  1.00  0.00     0.037 A 
ATOM     27  C   UNL     1       7.413  -3.272   7.767  1.00  0.00     0.037 A 
ATOM     28  C   UNL     1       9.009  -8.036   3.605  1.00  0.00     0.049 A 
ATOM     29  C   UNL     1       8.346  -4.444   7.854  1.00  0.00     0.074 A 
ATOM     30  C   UNL     1       9.895  -9.081   3.810  1.00  0.00     0.029 A 
ATOM     31  N   UNL     1       8.998  -7.289   4.774  1.00  0.00    -0.354 N 
ATOM     32  N   UNL     1       8.618  -5.350   6.948  1.00  0.00    -0.248 NA
ATOM     33  C   UNL     1       9.067  -4.620   9.120  1.00  0.00     0.031 C 
ATOM     34  C   UNL     1      10.395  -8.984   5.114  1.00  0.00     0.029 A 
ATOM     35  C   UNL     1       9.853  -7.856   5.707  1.00  0.00     0.049 A 
ATOM     36  H   UNL     1       8.462  -6.477   4.920  1.00  0.00     0.167 HD
ATOM     37  C   UNL     1       9.539  -6.206   7.533  1.00  0.00     0.074 A 
ATOM     38  C   UNL     1       9.811  -5.685   8.857  1.00  0.00     0.031 C 
ATOM     39  C   UNL     1      10.100  -7.330   7.025  1.00  0.00     0.037 A 
BRANCH  26  40
ATOM     40  C   UNL     1       8.352  -8.658   1.252  1.00  0.00     0.064 A 
ATOM     41  C   UNL     1       9.047  -8.277   0.095  1.00  0.00     0.173 A 
ATOM     42  C   UNL     1       7.834  -9.961   1.306  1.00  0.00     0.173 A 
ATOM     43  F   UNL     1       9.554  -7.039  -0.011  1.00  0.00    -0.203 F 
ATOM     44  C   UNL     1       9.207  -9.161  -0.970  1.00  0.00     0.198 A 
ATOM     45  C   UNL     1       8.016 -10.850   0.249  1.00  0.00     0.198 A 
ATOM     46  F   UNL     1       7.168 -10.379   2.392  1.00  0.00    -0.203 F 
ATOM     47  F   UNL     1       9.850  -8.764  -2.077  1.00  0.00    -0.200 F 
ATOM     48  C   UNL     1       8.699 -10.448  -0.889  1.00  0.00     0.200 A 
ATOM     49  F   UNL     1       7.536 -12.099   0.334  1.00  0.00    -0.200 F 
ATOM     50  F   UNL     1       8.866 -11.302  -1.909  1.00  0.00    -0.200 F 
ENDBRANCH  26  40
BRANCH  27  51
ATOM     51  C   UNL     1       7.240  -2.337   8.908  1.00  0.00     0.064 A 
ATOM     52  C   UNL     1       8.274  -1.482   9.310  1.00  0.00     0.173 A 
ATOM     53  C   UNL     1       6.028  -2.273   9.612  1.00  0.00     0.173 A 
ATOM     54  F   UNL     1       9.457  -1.519   8.679  1.00  0.00    -0.203 F 
ATOM     55  C   UNL     1       8.109  -0.610  10.384  1.00  0.00     0.198 A 
ATOM     56  C   UNL     1       5.853  -1.378  10.664  1.00  0.00     0.198 A 
ATOM     57  F   UNL     1       5.005  -3.066   9.261  1.00  0.00    -0.203 F 
ATOM     58  F   UNL     1       9.128   0.167  10.775  1.00  0.00    -0.200 F 
ATOM     59  C   UNL     1       6.896  -0.553  11.055  1.00  0.00     0.200 A 
ATOM     60  F   UNL     1       4.674  -1.314  11.296  1.00  0.00    -0.200 F 
ATOM     61  F   UNL     1       6.736   0.292  12.082  1.00  0.00    -0.200 F 
ENDBRANCH  27  51
BRANCH  39  62
ATOM     62  C   UNL     1      11.061  -8.063   7.913  1.00  0.00     0.064 A 
ATOM     63  C   UNL     1      10.616  -8.784   9.031  1.00  0.00     0.173 A 
ATOM     64  C   UNL     1      12.437  -8.044   7.646  1.00  0.00     0.173 A 
ATOM     65  F   UNL     1       9.310  -8.817   9.337  1.00  0.00    -0.203 F 
ATOM     66  C   UNL     1      11.518  -9.431   9.871  1.00  0.00     0.198 A 
ATOM     67  C   UNL     1      13.334  -8.715   8.472  1.00  0.00     0.198 A 
ATOM     68  F   UNL     1      12.912  -7.372   6.587  1.00  0.00    -0.203 F 
ATOM     69  F   UNL     1      11.076 -10.064  10.966  1.00  0.00    -0.200 F 
ATOM     70  C   UNL     1      12.876  -9.398   9.589  1.00  0.00     0.200 A 
ATOM     71  F   UNL     1      14.645  -8.690   8.195  1.00  0.00    -0.200 F 
ATOM     72  F   UNL     1      13.744 -10.016  10.401  1.00  0.00    -0.200 F 
ENDBRANCH  39  62
ENDBRANCH  13  14
ENDBRANCH   6   8
ENDBRANCH   3   4
ENDBRANCH   2   3
ENDBRANCH   1   2
BRANCH   1  73
ATOM     73  C   UNL     1       4.854   3.103  -3.215  1.00  0.00     0.002 C 
BRANCH  73  74
ATOM     74  C   UNL     1       6.378   3.153  -3.076  1.00  0.00     0.021 C 
BRANCH  74  75
ATOM     75  C   UNL     1       7.183   2.657  -4.275  1.00  0.00     0.116 C 
BRANCH  75  76
ATOM     76  N   UNL     1       6.854   3.333  -5.514  1.00  0.00    -0.352 N 
ATOM     77  C   UNL     1       7.703   3.759  -6.506  1.00  0.00     0.255 C 
ATOM     78  H   UNL     1       5.897   3.512  -5.664  1.00  0.00     0.163 HD
ATOM     79  O   UNL     1       7.259   4.296  -7.516  1.00  0.00    -0.269 OA
BRANCH  77  80
ATOM     80  C   UNL     1       9.163   3.700  -6.293  1.00  0.00     0.083 A 
ATOM     81  C   UNL     1       9.822   4.936  -6.236  1.00  0.00     0.043 A 
ATOM     82  C   UNL     1       9.872   2.514  -6.112  1.00  0.00     0.128 A 
ATOM     83  C   UNL     1      11.157   5.011  -5.851  1.00  0.00     0.042 A 
ATOM     84  C   UNL     1      11.229   2.569  -5.810  1.00  0.00     0.049 A 
ATOM     85  C   UNL     1      11.860   3.812  -5.664  1.00  0.00     0.030 A 
BRANCH  82  86
ATOM     86  O   UNL     1       9.244   1.307  -6.215  1.00  0.00    -0.507 OA
ATOM     87  H   UNL     1       8.330   1.271  -6.419  1.00  0.00     0.293 HD
ENDBRANCH  82  86
BRANCH  83  88
ATOM     88  N   UNL     1      11.866   6.207  -5.627  1.00  0.00    -0.322 N 
ATOM     89  C   UNL     1      11.495   7.532  -5.565  1.00  0.00     0.257 C 
ATOM     90  H   UNL     1      12.830   6.067  -5.485  1.00  0.00     0.170 HD
ATOM     91  O   UNL     1      12.360   8.403  -5.483  1.00  0.00    -0.269 OA
BRANCH  89  92
ATOM     92  C   UNL     1      10.094   7.960  -5.567  1.00  0.00     0.059 A 
ATOM     93  C   UNL     1       9.660   8.799  -6.584  1.00  0.00     0.124 A 
ATOM     94  C   UNL     1       9.186   7.555  -4.586  1.00  0.00     0.032 A 
ATOM     95  N   UNL     1       8.371   9.191  -6.726  1.00  0.00    -0.263 NA
ATOM     96  C   UNL     1       7.854   7.935  -4.723  1.00  0.00     0.037 A 
ATOM     97  C   UNL     1       7.493   8.734  -5.800  1.00  0.00     0.126 A 
ATOM     98  Br  UNL     1       6.557   7.340  -3.492  1.00  0.00    -0.049 Br
ENDBRANCH  89  92
ENDBRANCH  83  88
ENDBRANCH  77  80
ENDBRANCH  75  76
ENDBRANCH  74  75
ENDBRANCH  73  74
ENDBRANCH   1  73
TORSDOF 16
