REMARK SMILES Cn1cc(SCC[C@H]2CCC[C@]2([NH2+]C2CC2)C(=O)NCCCCCCNC(=O)c2ccc(-c3c4nc(c(-c5c(F)c(F)c(F)c(F)c5F)c5ccc([nH]5)c(-c5c(F)c(F)c(F)c(F)c5F)c5nc(c(-c6c(F)c(F)c(F)c(F)c6F)c6ccc3[nH]6)C=C5)C=C4)cc2)cn1
REMARK SMILES IDX 21 1 20 2 19 3 17 4 18 5 12 7 8 8 9 9 10 10 11 11 7 12 6 13
REMARK SMILES IDX 5 14 4 15 1 16 2 17 3 18 93 19 92 20 13 21 14 24 15 25 16 26
REMARK SMILES IDX 22 27 23 28 24 29 25 30 26 31 27 32 28 34 29 35 30 36 91 37
REMARK SMILES IDX 31 38 90 39 32 40 33 41 34 42 84 43 35 44 89 45 83 46 85 47
REMARK SMILES IDX 36 48 88 49 82 50 81 51 37 53 69 54 49 55 68 56 50 57 53 58
REMARK SMILES IDX 67 59 86 60 51 61 52 62 66 64 87 65 54 66 38 67 39 68 47 69
REMARK SMILES IDX 40 70 41 71 45 72 48 73 42 74 43 75 46 76 44 77 70 78 71 79
REMARK SMILES IDX 79 80 72 81 73 82 77 83 80 84 74 85 75 86 78 87 76 88 55 89
REMARK SMILES IDX 56 90 64 91 57 92 58 93 62 94 65 95 59 96 60 97 63 98 61 99
REMARK H PARENT 19 6 13 22 13 23 26 33 85 52 53 63
REMARK Flexibility Score: inf
ROOT
ATOM      1  C   UNL     1       4.000  -3.480   0.576  1.00  0.00     0.021 C 
ENDROOT
BRANCH   1   2
ATOM      2  C   UNL     1       3.405  -2.091   0.817  1.00  0.00     0.116 C 
BRANCH   2   3
ATOM      3  N   UNL     1       2.689  -1.606  -0.352  1.00  0.00    -0.351 N 
ATOM      4  C   UNL     1       1.403  -1.146  -0.469  1.00  0.00     0.281 C 
ATOM      5  O   UNL     1       1.011  -0.850  -1.603  1.00  0.00    -0.268 OA
ATOM      6  H   UNL     1       3.208  -1.609  -1.189  1.00  0.00     0.163 HD
BRANCH   4   7
ATOM      7  C   UNL     1       0.455  -1.085   0.782  1.00  0.00     0.178 C 
ATOM      8  C   UNL     1       0.053  -2.588   1.053  1.00  0.00     0.061 C 
ATOM      9  C   UNL     1      -1.060  -2.765   0.015  1.00  0.00     0.011 C 
ATOM     10  C   UNL     1      -1.824  -1.475  -0.095  1.00  0.00     0.008 C 
ATOM     11  C   UNL     1      -0.917  -0.426   0.496  1.00  0.00     0.079 C 
BRANCH   8  12
ATOM     12  C   UNL     1      -0.381  -3.011   2.468  1.00  0.00     0.022 C 
BRANCH  12  13
ATOM     13  C   UNL     1      -1.266  -4.283   2.588  1.00  0.00     0.075 C 
BRANCH  13  14
ATOM     14  S   UNL     1      -0.606  -5.935   2.178  1.00  0.00    -0.123 SA
BRANCH  14  15
ATOM     15  C   UNL     1      -0.414  -6.100   0.456  1.00  0.00     0.045 A 
ATOM     16  C   UNL     1      -0.452  -5.190  -2.979  1.00  0.00     0.173 C 
ATOM     17  N   UNL     1      -0.375  -5.896  -1.720  1.00  0.00    -0.275 N 
ATOM     18  C   UNL     1      -1.185  -5.730  -0.623  1.00  0.00     0.123 A 
ATOM     19  N   UNL     1       0.679  -6.692  -1.467  1.00  0.00    -0.181 NA
ATOM     20  C   UNL     1       0.647  -6.818  -0.137  1.00  0.00     0.150 A 
ENDBRANCH  14  15
ENDBRANCH  13  14
ENDBRANCH  12  13
ENDBRANCH   8  12
BRANCH   7  21
ATOM     21  N   UNL     1       1.117  -0.305   1.853  1.00  0.00    -0.331 N 
ATOM     22  H   UNL     1       1.914  -0.855   2.174  1.00  0.00     0.347 HD
ATOM     23  H   UNL     1       0.374  -0.141   2.532  1.00  0.00     0.347 HD
BRANCH  21  24
ATOM     24  C   UNL     1       1.625   1.061   1.544  1.00  0.00     0.183 C 
ATOM     25  C   UNL     1       1.466   1.819   0.250  1.00  0.00     0.071 C 
ATOM     26  C   UNL     1       0.673   2.232   1.452  1.00  0.00     0.071 C 
ENDBRANCH  21  24
ENDBRANCH   7  21
ENDBRANCH   4   7
ENDBRANCH   2   3
ENDBRANCH   1   2
BRANCH   1  27
ATOM     27  C   UNL     1       5.089  -3.536  -0.502  1.00  0.00     0.002 C 
BRANCH  27  28
ATOM     28  C   UNL     1       6.308  -2.644  -0.249  1.00  0.00     0.002 C 
BRANCH  28  29
ATOM     29  C   UNL     1       7.030  -2.882   1.079  1.00  0.00     0.021 C 
BRANCH  29  30
ATOM     30  C   UNL     1       7.543  -4.304   1.290  1.00  0.00     0.116 C 
BRANCH  30  31
ATOM     31  N   UNL     1       8.550  -4.681   0.310  1.00  0.00    -0.352 N 
ATOM     32  C   UNL     1       9.789  -5.227   0.498  1.00  0.00     0.251 C 
ATOM     33  H   UNL     1       8.302  -4.518  -0.629  1.00  0.00     0.163 HD
ATOM     34  O   UNL     1      10.575  -5.311  -0.454  1.00  0.00    -0.269 OA
BRANCH  32  35
ATOM     35  C   UNL     1      10.213  -5.703   1.831  1.00  0.00     0.039 A 
ATOM     36  C   UNL     1      11.517  -5.436   2.257  1.00  0.00     0.014 A 
ATOM     37  C   UNL     1       9.349  -6.437   2.651  1.00  0.00     0.014 A 
ATOM     38  C   UNL     1      11.939  -5.861   3.518  1.00  0.00     0.010 A 
ATOM     39  C   UNL     1       9.747  -6.797   3.938  1.00  0.00     0.010 A 
ATOM     40  C   UNL     1      11.049  -6.521   4.381  1.00  0.00    -0.014 A 
BRANCH  40  41
ATOM     41  C   UNL     1      11.477  -6.926   5.746  1.00  0.00     0.031 A 
ATOM     42  C   UNL     1      11.556  -8.380   6.123  1.00  0.00     0.074 A 
ATOM     43  C   UNL     1      11.762  -5.977   6.659  1.00  0.00     0.049 A 
ATOM     44  N   UNL     1      11.915  -8.922   7.261  1.00  0.00    -0.248 NA
ATOM     45  C   UNL     1      11.156  -9.355   5.097  1.00  0.00     0.031 C 
ATOM     46  C   UNL     1      11.666  -4.533   6.434  1.00  0.00     0.029 A 
ATOM     47  N   UNL     1      12.190  -6.082   7.959  1.00  0.00    -0.354 N 
ATOM     48  C   UNL     1      11.770 -10.293   7.091  1.00  0.00     0.074 A 
ATOM     49  C   UNL     1      11.243 -10.500   5.760  1.00  0.00     0.031 C 
ATOM     50  C   UNL     1      12.056  -3.888   7.545  1.00  0.00     0.029 A 
ATOM     51  C   UNL     1      12.399  -4.870   8.570  1.00  0.00     0.049 A 
ATOM     52  H   UNL     1      12.333  -6.945   8.411  1.00  0.00     0.167 HD
ATOM     53  C   UNL     1      12.072 -11.289   7.958  1.00  0.00     0.037 A 
ATOM     54  C   UNL     1      12.824  -4.583   9.815  1.00  0.00     0.037 A 
ATOM     55  C   UNL     1      12.627 -11.081   9.270  1.00  0.00     0.049 A 
ATOM     56  C   UNL     1      13.167  -5.711  10.750  1.00  0.00     0.074 A 
ATOM     57  C   UNL     1      13.041 -12.026  10.193  1.00  0.00     0.029 A 
ATOM     58  N   UNL     1      12.842  -9.838   9.849  1.00  0.00    -0.354 N 
ATOM     59  N   UNL     1      13.116  -7.005  10.544  1.00  0.00    -0.248 NA
ATOM     60  C   UNL     1      13.641  -5.336  12.090  1.00  0.00     0.031 C 
ATOM     61  C   UNL     1      13.458 -11.358  11.349  1.00  0.00     0.029 A 
ATOM     62  C   UNL     1      13.357  -9.994  11.126  1.00  0.00     0.049 A 
ATOM     63  H   UNL     1      12.656  -8.974   9.416  1.00  0.00     0.167 HD
ATOM     64  C   UNL     1      13.580  -7.596  11.712  1.00  0.00     0.074 A 
ATOM     65  C   UNL     1      13.927  -6.518  12.615  1.00  0.00     0.031 C 
ATOM     66  C   UNL     1      13.706  -8.912  12.011  1.00  0.00     0.037 A 
BRANCH  53  67
ATOM     67  C   UNL     1      11.813 -12.701   7.518  1.00  0.00     0.064 A 
ATOM     68  C   UNL     1      12.582 -13.316   6.518  1.00  0.00     0.173 A 
ATOM     69  C   UNL     1      10.816 -13.468   8.140  1.00  0.00     0.173 A 
ATOM     70  F   UNL     1      13.543 -12.626   5.885  1.00  0.00    -0.203 F 
ATOM     71  C   UNL     1      12.346 -14.636   6.140  1.00  0.00     0.198 A 
ATOM     72  C   UNL     1      10.602 -14.796   7.781  1.00  0.00     0.198 A 
ATOM     73  F   UNL     1      10.055 -12.932   9.107  1.00  0.00    -0.203 F 
ATOM     74  F   UNL     1      13.064 -15.187   5.152  1.00  0.00    -0.200 F 
ATOM     75  C   UNL     1      11.363 -15.377   6.777  1.00  0.00     0.200 A 
ATOM     76  F   UNL     1       9.662 -15.516   8.408  1.00  0.00    -0.200 F 
ATOM     77  F   UNL     1      11.144 -16.650   6.421  1.00  0.00    -0.200 F 
ENDBRANCH  53  67
BRANCH  54  78
ATOM     78  C   UNL     1      12.983  -3.168  10.244  1.00  0.00     0.064 A 
ATOM     79  C   UNL     1      14.254  -2.631  10.495  1.00  0.00     0.173 A 
ATOM     80  C   UNL     1      11.873  -2.333  10.436  1.00  0.00     0.173 A 
ATOM     81  F   UNL     1      15.345  -3.396  10.345  1.00  0.00    -0.203 F 
ATOM     82  C   UNL     1      14.406  -1.323  10.951  1.00  0.00     0.198 A 
ATOM     83  C   UNL     1      12.029  -1.016  10.862  1.00  0.00     0.198 A 
ATOM     84  F   UNL     1      10.636  -2.796  10.205  1.00  0.00    -0.203 F 
ATOM     85  F   UNL     1      15.628  -0.855  11.238  1.00  0.00    -0.200 F 
ATOM     86  C   UNL     1      13.294  -0.515  11.130  1.00  0.00     0.200 A 
ATOM     87  F   UNL     1      10.952  -0.233  11.020  1.00  0.00    -0.200 F 
ATOM     88  F   UNL     1      13.440   0.742  11.570  1.00  0.00    -0.200 F 
ENDBRANCH  54  78
BRANCH  66  89
ATOM     89  C   UNL     1      14.278  -9.257  13.356  1.00  0.00     0.064 A 
ATOM     90  C   UNL     1      13.563  -9.033  14.542  1.00  0.00     0.173 A 
ATOM     91  C   UNL     1      15.553  -9.833  13.458  1.00  0.00     0.173 A 
ATOM     92  F   UNL     1      12.345  -8.471  14.501  1.00  0.00    -0.203 F 
ATOM     93  C   UNL     1      14.120  -9.337  15.782  1.00  0.00     0.198 A 
ATOM     94  C   UNL     1      16.093 -10.168  14.696  1.00  0.00     0.198 A 
ATOM     95  F   UNL     1      16.276 -10.076  12.354  1.00  0.00    -0.203 F 
ATOM     96  F   UNL     1      13.444  -9.057  16.904  1.00  0.00    -0.200 F 
ATOM     97  C   UNL     1      15.381  -9.910  15.857  1.00  0.00     0.200 A 
ATOM     98  F   UNL     1      17.305 -10.735  14.767  1.00  0.00    -0.200 F 
ATOM     99  F   UNL     1      15.914 -10.202  17.051  1.00  0.00    -0.200 F 
ENDBRANCH  66  89
ENDBRANCH  40  41
ENDBRANCH  32  35
ENDBRANCH  30  31
ENDBRANCH  29  30
ENDBRANCH  28  29
ENDBRANCH  27  28
ENDBRANCH   1  27
TORSDOF 19
