REMARK SMILES CCCNC(=O)N1[C@@H](C(=O)NCCCCCCNC(=O)c2ccc(-c3c4nc(c(-c5c(F)c(F)c(F)c(F)c5F)c5ccc([nH]5)c(-c5c(F)c(F)c(F)c(F)c5F)c5nc(c(-c6c(F)c(F)c(F)c(F)c6F)c6ccc3[nH]6)C=C5)C=C4)cc2)CC[C@H]2CCCC[C@@H]21
REMARK SMILES IDX 14 1 13 2 12 3 11 4 9 5 10 6 8 8 7 9 91 10 84 11 86 12 90 13
REMARK SMILES IDX 85 14 87 15 89 16 88 17 5 18 4 19 6 21 3 22 2 23 1 24 15 25
REMARK SMILES IDX 16 26 17 27 18 28 19 29 20 31 21 32 22 33 83 34 23 35 82 36
REMARK SMILES IDX 24 37 25 38 26 39 76 40 27 41 81 42 75 43 77 44 28 45 80 46
REMARK SMILES IDX 74 47 73 48 29 50 61 51 41 52 60 53 42 54 45 55 59 56 78 57
REMARK SMILES IDX 43 58 44 59 58 61 79 62 46 63 30 64 31 65 39 66 32 67 33 68
REMARK SMILES IDX 37 69 40 70 34 71 35 72 38 73 36 74 62 75 63 76 71 77 64 78
REMARK SMILES IDX 65 79 69 80 72 81 66 82 67 83 70 84 68 85 47 86 48 87 56 88
REMARK SMILES IDX 49 89 50 90 54 91 57 92 51 93 52 94 55 95 53 96
REMARK H PARENT 11 7 4 20 18 30 77 49 45 60
REMARK Flexibility Score: inf
ROOT
ATOM      1  C   UNL     1      -6.431   4.386   5.764  1.00  0.00     0.002 C 
ENDROOT
BRANCH   1   2
ATOM      2  C   UNL     1      -5.152   3.884   6.438  1.00  0.00     0.021 C 
BRANCH   2   3
ATOM      3  C   UNL     1      -4.576   2.599   5.851  1.00  0.00     0.116 C 
BRANCH   3   4
ATOM      4  N   UNL     1      -4.183   2.734   4.460  1.00  0.00    -0.354 N 
ATOM      5  C   UNL     1      -3.051   2.269   3.833  1.00  0.00     0.242 C 
ATOM      6  O   UNL     1      -3.056   2.227   2.602  1.00  0.00    -0.273 OA
ATOM      7  H   UNL     1      -4.814   3.226   3.886  1.00  0.00     0.163 HD
BRANCH   5   8
ATOM      8  C   UNL     1      -1.915   1.686   4.716  1.00  0.00     0.176 C 
ATOM      9  N   UNL     1      -0.538   1.646   4.214  1.00  0.00    -0.310 N 
ATOM     10  C   UNL     1       0.480   1.118   5.133  1.00  0.00     0.091 C 
ATOM     11  C   UNL     1      -2.338   0.221   5.009  1.00  0.00     0.036 C 
ATOM     12  C   UNL     1      -0.143   0.230   6.228  1.00  0.00     0.012 C 
ATOM     13  C   UNL     1       1.355   2.181   5.814  1.00  0.00     0.025 C 
ATOM     14  C   UNL     1      -1.227  -0.648   5.615  1.00  0.00     0.008 C 
ATOM     15  C   UNL     1       0.968  -0.555   6.922  1.00  0.00     0.006 C 
ATOM     16  C   UNL     1       2.486   1.481   6.580  1.00  0.00     0.002 C 
ATOM     17  C   UNL     1       1.981   0.407   7.552  1.00  0.00     0.000 C 
BRANCH   9  18
ATOM     18  C   UNL     1      -0.173   2.363   3.104  1.00  0.00     0.318 C 
ATOM     19  N   UNL     1       0.559   1.703   2.159  1.00  0.00    -0.338 N 
ATOM     20  H   UNL     1       0.932   2.265   1.442  1.00  0.00     0.165 HD
ATOM     21  O   UNL     1      -0.487   3.538   2.935  1.00  0.00    -0.249 OA
BRANCH  19  22
ATOM     22  C   UNL     1       0.864   0.284   2.066  1.00  0.00     0.117 C 
BRANCH  22  23
ATOM     23  C   UNL     1       0.333  -0.394   0.808  1.00  0.00     0.018 C 
ATOM     24  C   UNL     1       1.011   0.076  -0.464  1.00  0.00     0.006 C 
ENDBRANCH  22  23
ENDBRANCH  19  22
ENDBRANCH   9  18
ENDBRANCH   5   8
ENDBRANCH   3   4
ENDBRANCH   2   3
ENDBRANCH   1   2
BRANCH   1  25
ATOM     25  C   UNL     1      -7.588   3.384   5.711  1.00  0.00     0.002 C 
BRANCH  25  26
ATOM     26  C   UNL     1      -8.024   2.809   7.060  1.00  0.00     0.021 C 
BRANCH  26  27
ATOM     27  C   UNL     1      -8.408   3.845   8.112  1.00  0.00     0.116 C 
BRANCH  27  28
ATOM     28  N   UNL     1      -9.535   4.667   7.701  1.00  0.00    -0.352 N 
ATOM     29  C   UNL     1     -10.720   4.915   8.347  1.00  0.00     0.251 C 
ATOM     30  H   UNL     1      -9.433   5.112   6.829  1.00  0.00     0.163 HD
ATOM     31  O   UNL     1     -11.630   5.502   7.766  1.00  0.00    -0.269 OA
BRANCH  29  32
ATOM     32  C   UNL     1     -10.920   4.448   9.735  1.00  0.00     0.039 A 
ATOM     33  C   UNL     1     -12.122   3.815  10.064  1.00  0.00     0.014 A 
ATOM     34  C   UNL     1      -9.932   4.625  10.707  1.00  0.00     0.014 A 
ATOM     35  C   UNL     1     -12.298   3.286  11.344  1.00  0.00     0.010 A 
ATOM     36  C   UNL     1     -10.079   4.035  11.961  1.00  0.00     0.010 A 
ATOM     37  C   UNL     1     -11.258   3.349  12.287  1.00  0.00    -0.014 A 
BRANCH  37  38
ATOM     38  C   UNL     1     -11.373   2.655  13.597  1.00  0.00     0.031 A 
ATOM     39  C   UNL     1     -11.364   3.434  14.881  1.00  0.00     0.074 A 
ATOM     40  C   UNL     1     -11.418   1.309  13.625  1.00  0.00     0.049 A 
ATOM     41  N   UNL     1     -11.397   2.995  16.114  1.00  0.00    -0.248 NA
ATOM     42  C   UNL     1     -11.285   4.898  14.767  1.00  0.00     0.031 C 
ATOM     43  C   UNL     1     -11.386   0.439  12.447  1.00  0.00     0.029 A 
ATOM     44  N   UNL     1     -11.490   0.434  14.680  1.00  0.00    -0.354 N 
ATOM     45  C   UNL     1     -11.338   4.123  16.920  1.00  0.00     0.074 A 
ATOM     46  C   UNL     1     -11.213   5.265  16.039  1.00  0.00     0.031 C 
ATOM     47  C   UNL     1     -11.463  -0.841  12.843  1.00  0.00     0.029 A 
ATOM     48  C   UNL     1     -11.501  -0.887  14.301  1.00  0.00     0.049 A 
ATOM     49  H   UNL     1     -11.530   0.725  15.620  1.00  0.00     0.167 HD
ATOM     50  C   UNL     1     -11.405   4.201  18.272  1.00  0.00     0.037 A 
ATOM     51  C   UNL     1     -11.523  -2.010  15.044  1.00  0.00     0.037 A 
ATOM     52  C   UNL     1     -11.539   3.061  19.143  1.00  0.00     0.049 A 
ATOM     53  C   UNL     1     -11.559  -1.895  16.543  1.00  0.00     0.074 A 
ATOM     54  C   UNL     1     -11.679   3.041  20.520  1.00  0.00     0.029 A 
ATOM     55  N   UNL     1     -11.537   1.739  18.724  1.00  0.00    -0.354 N 
ATOM     56  N   UNL     1     -11.585  -0.819  17.291  1.00  0.00    -0.248 NA
ATOM     57  C   UNL     1     -11.569  -3.154  17.303  1.00  0.00     0.031 C 
ATOM     58  C   UNL     1     -11.697   1.707  20.939  1.00  0.00     0.029 A 
ATOM     59  C   UNL     1     -11.632   0.894  19.819  1.00  0.00     0.049 A 
ATOM     60  H   UNL     1     -11.477   1.444  17.786  1.00  0.00     0.167 HD
ATOM     61  C   UNL     1     -11.634  -1.268  18.604  1.00  0.00     0.074 A 
ATOM     62  C   UNL     1     -11.661  -2.714  18.550  1.00  0.00     0.031 C 
ATOM     63  C   UNL     1     -11.649  -0.546  19.752  1.00  0.00     0.037 A 
BRANCH  50  64
ATOM     64  C   UNL     1     -11.329   5.565  18.897  1.00  0.00     0.064 A 
ATOM     65  C   UNL     1     -12.368   6.499  18.758  1.00  0.00     0.173 A 
ATOM     66  C   UNL     1     -10.227   5.926  19.686  1.00  0.00     0.173 A 
ATOM     67  F   UNL     1     -13.442   6.208  18.008  1.00  0.00    -0.203 F 
ATOM     68  C   UNL     1     -12.291   7.753  19.359  1.00  0.00     0.198 A 
ATOM     69  C   UNL     1     -10.169   7.168  20.314  1.00  0.00     0.198 A 
ATOM     70  F   UNL     1      -9.209   5.070  19.860  1.00  0.00    -0.203 F 
ATOM     71  F   UNL     1     -13.273   8.645  19.171  1.00  0.00    -0.200 F 
ATOM     72  C   UNL     1     -11.196   8.083  20.143  1.00  0.00     0.200 A 
ATOM     73  F   UNL     1      -9.117   7.479  21.084  1.00  0.00    -0.200 F 
ATOM     74  F   UNL     1     -11.129   9.286  20.730  1.00  0.00    -0.200 F 
ENDBRANCH  50  64
BRANCH  51  75
ATOM     75  C   UNL     1     -11.515  -3.341  14.380  1.00  0.00     0.064 A 
ATOM     76  C   UNL     1     -12.630  -4.188  14.447  1.00  0.00     0.173 A 
ATOM     77  C   UNL     1     -10.392  -3.797  13.673  1.00  0.00     0.173 A 
ATOM     78  F   UNL     1     -13.720  -3.806  15.129  1.00  0.00    -0.203 F 
ATOM     79  C   UNL     1     -12.615  -5.448  13.853  1.00  0.00     0.198 A 
ATOM     80  C   UNL     1     -10.390  -5.044  13.051  1.00  0.00     0.198 A 
ATOM     81  F   UNL     1      -9.300  -3.025  13.575  1.00  0.00    -0.203 F 
ATOM     82  F   UNL     1     -13.675  -6.257  13.977  1.00  0.00    -0.200 F 
ATOM     83  C   UNL     1     -11.497  -5.872  13.150  1.00  0.00     0.200 A 
ATOM     84  F   UNL     1      -9.315  -5.442  12.358  1.00  0.00    -0.200 F 
ATOM     85  F   UNL     1     -11.485  -7.082  12.574  1.00  0.00    -0.200 F 
ENDBRANCH  51  75
BRANCH  63  86
ATOM     86  C   UNL     1     -11.709  -1.310  21.044  1.00  0.00     0.064 A 
ATOM     87  C   UNL     1     -10.616  -2.058  21.506  1.00  0.00     0.173 A 
ATOM     88  C   UNL     1     -12.859  -1.266  21.847  1.00  0.00     0.173 A 
ATOM     89  F   UNL     1      -9.498  -2.147  20.768  1.00  0.00    -0.203 F 
ATOM     90  C   UNL     1     -10.682  -2.755  22.709  1.00  0.00     0.198 A 
ATOM     91  C   UNL     1     -12.909  -1.936  23.067  1.00  0.00     0.198 A 
ATOM     92  F   UNL     1     -13.931  -0.561  21.456  1.00  0.00    -0.203 F 
ATOM     93  F   UNL     1      -9.644  -3.506  23.104  1.00  0.00    -0.200 F 
ATOM     94  C   UNL     1     -11.824  -2.687  23.492  1.00  0.00     0.200 A 
ATOM     95  F   UNL     1     -14.008  -1.855  23.829  1.00  0.00    -0.200 F 
ATOM     96  F   UNL     1     -11.882  -3.350  24.655  1.00  0.00    -0.200 F 
ENDBRANCH  63  86
ENDBRANCH  37  38
ENDBRANCH  29  32
ENDBRANCH  27  28
ENDBRANCH  26  27
ENDBRANCH  25  26
ENDBRANCH   1  25
TORSDOF 16
