REMARK SMILES COc1cccc(N2C(=O)C[C@@H](SC[C@@H](NC(C)=O)C(=O)NCCCCCCNC(=O)c3ccc(-c4c5nc(c(-c6c(F)c(F)c(F)c(F)c6F)c6ccc([nH]6)c(-c6c(F)c(F)c(F)c(F)c6F)c6nc(c(-c7c(F)c(F)c(F)c(F)c7F)c7ccc4[nH]7)C=C6)C=C5)cc3)C2=O)c1
REMARK SMILES IDX 24 1 23 2 22 3 20 4 21 5 15 7 14 8 13 9 12 10 8 11 9 12
REMARK SMILES IDX 95 13 10 14 11 15 96 16 7 17 3 18 4 19 97 20 5 21 6 22 2 23
REMARK SMILES IDX 1 24 16 25 17 26 18 28 19 29 25 30 26 31 27 32 28 33 29 34
REMARK SMILES IDX 30 35 31 37 32 38 33 39 94 40 34 41 93 42 35 43 36 44 37 45
REMARK SMILES IDX 87 46 38 47 92 48 86 49 88 50 39 51 91 52 85 53 84 54 40 56
REMARK SMILES IDX 72 57 52 58 71 59 53 60 56 61 70 62 89 63 54 64 55 65 69 67
REMARK SMILES IDX 90 68 57 69 41 70 42 71 50 72 43 73 44 74 48 75 51 76 45 77
REMARK SMILES IDX 46 78 49 79 47 80 73 81 74 82 82 83 75 84 76 85 80 86 83 87
REMARK SMILES IDX 77 88 78 89 81 90 79 91 58 92 59 93 67 94 60 95 61 96 65 97
REMARK SMILES IDX 68 98 62 99 63 100 66 101 64 102
REMARK H PARENT 22 6 16 27 29 36 88 55 56 66
REMARK Flexibility Score: inf
ROOT
ATOM      1  C   UNL     1      11.291  -0.825  -6.664  1.00  0.00     0.021 C 
ENDROOT
BRANCH   1   2
ATOM      2  C   UNL     1      10.544   0.489  -6.455  1.00  0.00     0.116 C 
BRANCH   2   3
ATOM      3  N   UNL     1      10.323   1.143  -7.727  1.00  0.00    -0.354 N 
ATOM      4  C   UNL     1       9.186   1.665  -8.263  1.00  0.00     0.243 C 
ATOM      5  O   UNL     1       9.245   2.094  -9.420  1.00  0.00    -0.273 OA
ATOM      6  H   UNL     1      11.122   1.223  -8.296  1.00  0.00     0.163 HD
BRANCH   4   7
ATOM      7  C   UNL     1       7.825   1.560  -7.541  1.00  0.00     0.181 C 
BRANCH   7   8
ATOM      8  C   UNL     1       7.421   0.062  -7.585  1.00  0.00     0.105 C 
BRANCH   8   9
ATOM      9  S   UNL     1       5.662  -0.344  -7.308  1.00  0.00    -0.145 SA
BRANCH   9  10
ATOM     10  C   UNL     1       5.473  -0.198  -5.494  1.00  0.00     0.146 C 
ATOM     11  N   UNL     1       3.688  -0.997  -4.208  1.00  0.00    -0.249 N 
ATOM     12  C   UNL     1       4.807  -1.611  -3.703  1.00  0.00     0.235 C 
ATOM     13  C   UNL     1       3.998  -0.098  -5.196  1.00  0.00     0.247 C 
ATOM     14  O   UNL     1       4.920  -2.288  -2.695  1.00  0.00    -0.274 OA
ATOM     15  C   UNL     1       5.950  -1.366  -4.656  1.00  0.00     0.125 C 
ATOM     16  O   UNL     1       3.271   0.762  -5.681  1.00  0.00    -0.273 OA
BRANCH  11  17
ATOM     17  C   UNL     1       2.371  -1.145  -3.724  1.00  0.00     0.055 A 
ATOM     18  C   UNL     1       0.759  -1.301  -1.933  1.00  0.00     0.120 A 
ATOM     19  C   UNL     1      -0.281  -1.401  -2.856  1.00  0.00     0.046 A 
ATOM     20  C   UNL     1       2.089  -1.235  -2.358  1.00  0.00     0.073 A 
ATOM     21  C   UNL     1      -0.005  -1.347  -4.217  1.00  0.00     0.006 A 
ATOM     22  C   UNL     1       1.311  -1.189  -4.646  1.00  0.00     0.027 A 
BRANCH  18  23
ATOM     23  O   UNL     1       0.412  -1.300  -0.608  1.00  0.00    -0.497 OA
ATOM     24  C   UNL     1       0.889  -0.132   0.062  1.00  0.00     0.278 C 
ENDBRANCH  18  23
ENDBRANCH  11  17
ENDBRANCH   9  10
ENDBRANCH   8   9
ENDBRANCH   7   8
BRANCH   7  25
ATOM     25  N   UNL     1       7.742   2.108  -6.178  1.00  0.00    -0.344 N 
ATOM     26  C   UNL     1       8.574   3.059  -5.636  1.00  0.00     0.217 C 
ATOM     27  H   UNL     1       7.024   1.761  -5.601  1.00  0.00     0.164 HD
ATOM     28  C   UNL     1       8.245   3.383  -4.199  1.00  0.00     0.114 C 
ATOM     29  O   UNL     1       9.546   3.546  -6.196  1.00  0.00    -0.275 OA
ENDBRANCH   7  25
ENDBRANCH   4   7
ENDBRANCH   2   3
ENDBRANCH   1   2
BRANCH   1  30
ATOM     30  C   UNL     1      12.772  -0.631  -7.005  1.00  0.00     0.002 C 
BRANCH  30  31
ATOM     31  C   UNL     1      13.588   0.077  -5.917  1.00  0.00     0.002 C 
BRANCH  31  32
ATOM     32  C   UNL     1      13.525  -0.578  -4.535  1.00  0.00     0.021 C 
BRANCH  32  33
ATOM     33  C   UNL     1      13.957  -2.041  -4.507  1.00  0.00     0.116 C 
BRANCH  33  34
ATOM     34  N   UNL     1      15.335  -2.213  -4.936  1.00  0.00    -0.352 N 
ATOM     35  C   UNL     1      16.361  -2.880  -4.316  1.00  0.00     0.251 C 
ATOM     36  H   UNL     1      15.566  -1.789  -5.794  1.00  0.00     0.163 HD
ATOM     37  O   UNL     1      17.511  -2.773  -4.728  1.00  0.00    -0.269 OA
BRANCH  35  38
ATOM     38  C   UNL     1      16.078  -3.713  -3.131  1.00  0.00     0.039 A 
ATOM     39  C   UNL     1      16.885  -3.571  -2.000  1.00  0.00     0.014 A 
ATOM     40  C   UNL     1      15.018  -4.625  -3.135  1.00  0.00     0.014 A 
ATOM     41  C   UNL     1      16.588  -4.296  -0.846  1.00  0.00     0.010 A 
ATOM     42  C   UNL     1      14.688  -5.304  -1.966  1.00  0.00     0.010 A 
ATOM     43  C   UNL     1      15.465  -5.138  -0.809  1.00  0.00    -0.014 A 
BRANCH  43  44
ATOM     44  C   UNL     1      15.067  -5.827   0.443  1.00  0.00     0.031 A 
ATOM     45  C   UNL     1      15.124  -7.324   0.537  1.00  0.00     0.074 A 
ATOM     46  C   UNL     1      14.583  -5.100   1.468  1.00  0.00     0.049 A 
ATOM     47  N   UNL     1      14.748  -8.105   1.518  1.00  0.00    -0.248 NA
ATOM     48  C   UNL     1      15.651  -8.040  -0.634  1.00  0.00     0.031 C 
ATOM     49  C   UNL     1      14.436  -3.644   1.474  1.00  0.00     0.029 A 
ATOM     50  N   UNL     1      14.111  -5.488   2.697  1.00  0.00    -0.354 N 
ATOM     51  C   UNL     1      14.982  -9.401   1.080  1.00  0.00     0.074 A 
ATOM     52  C   UNL     1      15.490  -9.305  -0.272  1.00  0.00     0.031 C 
ATOM     53  C   UNL     1      13.924  -3.259   2.654  1.00  0.00     0.029 A 
ATOM     54  C   UNL     1      13.673  -4.442   3.471  1.00  0.00     0.049 A 
ATOM     55  H   UNL     1      14.089  -6.426   2.995  1.00  0.00     0.167 HD
ATOM     56  C   UNL     1      14.808 -10.562   1.755  1.00  0.00     0.037 A 
ATOM     57  C   UNL     1      13.119  -4.439   4.699  1.00  0.00     0.037 A 
ATOM     58  C   UNL     1      14.325 -10.650   3.108  1.00  0.00     0.049 A 
ATOM     59  C   UNL     1      12.922  -5.745   5.418  1.00  0.00     0.074 A 
ATOM     60  C   UNL     1      14.192 -11.773   3.906  1.00  0.00     0.029 A 
ATOM     61  N   UNL     1      13.890  -9.570   3.862  1.00  0.00    -0.354 N 
ATOM     62  N   UNL     1      13.218  -6.959   5.023  1.00  0.00    -0.248 NA
ATOM     63  C   UNL     1      12.312  -5.679   6.753  1.00  0.00     0.031 C 
ATOM     64  C   UNL     1      13.633 -11.378   5.126  1.00  0.00     0.029 A 
ATOM     65  C   UNL     1      13.457 -10.004   5.104  1.00  0.00     0.049 A 
ATOM     66  H   UNL     1      13.889  -8.633   3.559  1.00  0.00     0.167 HD
ATOM     67  C   UNL     1      12.845  -7.799   6.062  1.00  0.00     0.074 A 
ATOM     68  C   UNL     1      12.320  -6.954   7.115  1.00  0.00     0.031 C 
ATOM     69  C   UNL     1      12.927  -9.150   6.136  1.00  0.00     0.037 A 
BRANCH  56  70
ATOM     70  C   UNL     1      15.146 -11.837   1.040  1.00  0.00     0.064 A 
ATOM     71  C   UNL     1      16.474 -12.196   0.767  1.00  0.00     0.173 A 
ATOM     72  C   UNL     1      14.133 -12.731   0.662  1.00  0.00     0.173 A 
ATOM     73  F   UNL     1      17.478 -11.370   1.099  1.00  0.00    -0.203 F 
ATOM     74  C   UNL     1      16.775 -13.392   0.119  1.00  0.00     0.198 A 
ATOM     75  C   UNL     1      14.439 -13.938   0.038  1.00  0.00     0.198 A 
ATOM     76  F   UNL     1      12.847 -12.438   0.904  1.00  0.00    -0.203 F 
ATOM     77  F   UNL     1      18.048 -13.694  -0.169  1.00  0.00    -0.200 F 
ATOM     78  C   UNL     1      15.758 -14.264  -0.238  1.00  0.00     0.200 A 
ATOM     79  F   UNL     1      13.456 -14.786  -0.296  1.00  0.00    -0.200 F 
ATOM     80  F   UNL     1      16.049 -15.418  -0.855  1.00  0.00    -0.200 F 
ENDBRANCH  56  70
BRANCH  57  81
ATOM     81  C   UNL     1      12.722  -3.154   5.327  1.00  0.00     0.064 A 
ATOM     82  C   UNL     1      13.432  -2.639   6.420  1.00  0.00     0.173 A 
ATOM     83  C   UNL     1      11.631  -2.413   4.848  1.00  0.00     0.173 A 
ATOM     84  F   UNL     1      14.470  -3.323   6.925  1.00  0.00    -0.203 F 
ATOM     85  C   UNL     1      13.058  -1.439   7.020  1.00  0.00     0.198 A 
ATOM     86  C   UNL     1      11.274  -1.200   5.433  1.00  0.00     0.198 A 
ATOM     87  F   UNL     1      10.922  -2.861   3.802  1.00  0.00    -0.203 F 
ATOM     88  F   UNL     1      13.731  -0.988   8.087  1.00  0.00    -0.200 F 
ATOM     89  C   UNL     1      11.983  -0.717   6.522  1.00  0.00     0.200 A 
ATOM     90  F   UNL     1      10.244  -0.499   4.940  1.00  0.00    -0.200 F 
ATOM     91  F   UNL     1      11.628   0.440   7.095  1.00  0.00    -0.200 F 
ENDBRANCH  57  81
BRANCH  69  92
ATOM     92  C   UNL     1      12.438  -9.796   7.399  1.00  0.00     0.064 A 
ATOM     93  C   UNL     1      11.069  -9.888   7.688  1.00  0.00     0.173 A 
ATOM     94  C   UNL     1      13.344 -10.359   8.310  1.00  0.00     0.173 A 
ATOM     95  F   UNL     1      10.166  -9.348   6.856  1.00  0.00    -0.203 F 
ATOM     96  C   UNL     1      10.626 -10.504   8.855  1.00  0.00     0.198 A 
ATOM     97  C   UNL     1      12.896 -10.998   9.462  1.00  0.00     0.198 A 
ATOM     98  F   UNL     1      14.664 -10.300   8.076  1.00  0.00    -0.203 F 
ATOM     99  F   UNL     1       9.315 -10.543   9.133  1.00  0.00    -0.200 F 
ATOM    100  C   UNL     1      11.538 -11.065   9.737  1.00  0.00     0.200 A 
ATOM    101  F   UNL     1      13.777 -11.548  10.308  1.00  0.00    -0.200 F 
ATOM    102  F   UNL     1      11.108 -11.662  10.857  1.00  0.00    -0.200 F 
ENDBRANCH  69  92
ENDBRANCH  43  44
ENDBRANCH  35  38
ENDBRANCH  33  34
ENDBRANCH  32  33
ENDBRANCH  31  32
ENDBRANCH  30  31
ENDBRANCH   1  30
TORSDOF 19
