REMARK SMILES [NH3+][C@H](C(=O)NCCCCCCNC(=O)c1ccc(-c2c3nc(c(-c4c(F)c(F)c(F)c(F)c4F)c4ccc([nH]4)c(-c4c(F)c(F)c(F)c(F)c4F)c4nc(c(-c5c(F)c(F)c(F)c(F)c5F)c5ccc2[nH]5)C=C4)C=C3)cc1)c1c(F)cc(I)cc1F
REMARK SMILES IDX 9 1 8 2 7 3 6 4 5 5 3 6 4 7 2 9 1 10 78 14 79 15 85 16 80 17
REMARK SMILES IDX 81 18 84 19 86 20 82 21 83 22 10 23 11 24 12 25 13 26 14 28
REMARK SMILES IDX 15 29 16 30 77 31 17 32 76 33 18 34 19 35 20 36 70 37 21 38
REMARK SMILES IDX 75 39 69 40 71 41 22 42 74 43 68 44 67 45 23 47 55 48 35 49
REMARK SMILES IDX 54 50 36 51 39 52 53 53 72 54 37 55 38 56 52 58 73 59 40 60
REMARK SMILES IDX 24 61 25 62 33 63 26 64 27 65 31 66 34 67 28 68 29 69 32 70
REMARK SMILES IDX 30 71 56 72 57 73 65 74 58 75 59 76 63 77 66 78 60 79 61 80
REMARK SMILES IDX 64 81 62 82 41 83 42 84 50 85 43 86 44 87 48 88 51 89 45 90
REMARK SMILES IDX 46 91 49 92 47 93
REMARK H PARENT 5 8 1 11 1 12 1 13 12 27 71 46 39 57
REMARK Flexibility Score: inf
ROOT
ATOM      1  C   UNL     1      -1.562  -4.804   0.155  1.00  0.00     0.002 C 
ENDROOT
BRANCH   1   2
ATOM      2  C   UNL     1      -1.313  -3.668  -0.839  1.00  0.00     0.002 C 
BRANCH   2   3
ATOM      3  C   UNL     1      -1.552  -2.250  -0.310  1.00  0.00     0.021 C 
BRANCH   3   4
ATOM      4  C   UNL     1      -0.473  -1.702   0.633  1.00  0.00     0.116 C 
BRANCH   4   5
ATOM      5  N   UNL     1       0.565  -1.042  -0.137  1.00  0.00    -0.351 N 
ATOM      6  C   UNL     1       0.810   0.286  -0.338  1.00  0.00     0.283 C 
ATOM      7  O   UNL     1       1.553   0.566  -1.289  1.00  0.00    -0.268 OA
ATOM      8  H   UNL     1       1.194  -1.650  -0.588  1.00  0.00     0.163 HD
BRANCH   6   9
ATOM      9  C   UNL     1       0.343   1.394   0.660  1.00  0.00     0.308 C 
BRANCH   9  10
ATOM     10  N   UNL     1       1.140   2.614   0.363  1.00  0.00    -0.343 N 
ATOM     11  H   UNL     1       0.862   3.364   0.997  1.00  0.00     0.345 HD
ATOM     12  H   UNL     1       0.972   2.904  -0.601  1.00  0.00     0.345 HD
ATOM     13  H   UNL     1       2.131   2.412   0.489  1.00  0.00     0.345 HD
ENDBRANCH   9  10
BRANCH   9  14
ATOM     14  C   UNL     1      -1.125   1.754   0.739  1.00  0.00     0.090 A 
ATOM     15  C   UNL     1      -1.562   2.623   1.752  1.00  0.00     0.136 A 
ATOM     16  C   UNL     1      -2.107   1.257  -0.113  1.00  0.00     0.136 A 
ATOM     17  F   UNL     1      -0.675   3.184   2.587  1.00  0.00    -0.206 F 
ATOM     18  C   UNL     1      -2.910   2.922   1.953  1.00  0.00     0.054 A 
ATOM     19  C   UNL     1      -3.468   1.483   0.110  1.00  0.00     0.054 A 
ATOM     20  F   UNL     1      -1.769   0.532  -1.182  1.00  0.00    -0.206 F 
ATOM     21  C   UNL     1      -3.866   2.312   1.152  1.00  0.00     0.019 A 
ATOM     22  I   UNL     1      -5.884   2.626   1.519  1.00  0.00    -0.044 I 
ENDBRANCH   9  14
ENDBRANCH   6   9
ENDBRANCH   4   5
ENDBRANCH   3   4
ENDBRANCH   2   3
ENDBRANCH   1   2
BRANCH   1  23
ATOM     23  C   UNL     1      -2.892  -4.760   0.913  1.00  0.00     0.021 C 
BRANCH  23  24
ATOM     24  C   UNL     1      -4.149  -4.569   0.064  1.00  0.00     0.116 C 
BRANCH  24  25
ATOM     25  N   UNL     1      -4.364  -5.647  -0.885  1.00  0.00    -0.352 N 
ATOM     26  C   UNL     1      -5.382  -6.559  -0.976  1.00  0.00     0.251 C 
ATOM     27  H   UNL     1      -3.667  -5.736  -1.573  1.00  0.00     0.163 HD
ATOM     28  O   UNL     1      -5.297  -7.487  -1.784  1.00  0.00    -0.269 OA
BRANCH  26  29
ATOM     29  C   UNL     1      -6.573  -6.471  -0.103  1.00  0.00     0.039 A 
ATOM     30  C   UNL     1      -7.046  -7.644   0.493  1.00  0.00     0.014 A 
ATOM     31  C   UNL     1      -7.253  -5.267   0.099  1.00  0.00     0.014 A 
ATOM     32  C   UNL     1      -8.159  -7.601   1.336  1.00  0.00     0.010 A 
ATOM     33  C   UNL     1      -8.330  -5.213   0.987  1.00  0.00     0.010 A 
ATOM     34  C   UNL     1      -8.792  -6.379   1.616  1.00  0.00    -0.014 A 
BRANCH  34  35
ATOM     35  C   UNL     1      -9.927  -6.316   2.574  1.00  0.00     0.031 A 
ATOM     36  C   UNL     1     -11.312  -5.975   2.101  1.00  0.00     0.074 A 
ATOM     37  C   UNL     1      -9.699  -6.535   3.884  1.00  0.00     0.049 A 
ATOM     38  N   UNL     1     -12.416  -5.850   2.796  1.00  0.00    -0.248 NA
ATOM     39  C   UNL     1     -11.478  -5.723   0.661  1.00  0.00     0.031 C 
ATOM     40  C   UNL     1      -8.393  -6.831   4.476  1.00  0.00     0.029 A 
ATOM     41  N   UNL     1     -10.557  -6.537   4.955  1.00  0.00    -0.354 N 
ATOM     42  C   UNL     1     -13.402  -5.502   1.882  1.00  0.00     0.074 A 
ATOM     43  C   UNL     1     -12.759  -5.389   0.590  1.00  0.00     0.031 C 
ATOM     44  C   UNL     1      -8.539  -7.003   5.799  1.00  0.00     0.029 A 
ATOM     45  C   UNL     1      -9.941  -6.803   6.154  1.00  0.00     0.049 A 
ATOM     46  H   UNL     1     -11.523  -6.365   4.872  1.00  0.00     0.167 HD
ATOM     47  C   UNL     1     -14.727  -5.316   2.097  1.00  0.00     0.037 A 
ATOM     48  C   UNL     1     -10.448  -6.875   7.399  1.00  0.00     0.037 A 
ATOM     49  C   UNL     1     -15.372  -5.447   3.378  1.00  0.00     0.049 A 
ATOM     50  C   UNL     1     -11.924  -6.669   7.607  1.00  0.00     0.074 A 
ATOM     51  C   UNL     1     -16.716  -5.320   3.686  1.00  0.00     0.029 A 
ATOM     52  N   UNL     1     -14.717  -5.738   4.565  1.00  0.00    -0.354 N 
ATOM     53  N   UNL     1     -12.854  -6.399   6.724  1.00  0.00    -0.248 NA
ATOM     54  C   UNL     1     -12.421  -6.786   8.985  1.00  0.00     0.031 C 
ATOM     55  C   UNL     1     -16.870  -5.501   5.064  1.00  0.00     0.029 A 
ATOM     56  C   UNL     1     -15.628  -5.781   5.609  1.00  0.00     0.049 A 
ATOM     57  H   UNL     1     -13.749  -5.892   4.654  1.00  0.00     0.167 HD
ATOM     58  C   UNL     1     -14.046  -6.337   7.433  1.00  0.00     0.074 A 
ATOM     59  C   UNL     1     -13.725  -6.618   8.816  1.00  0.00     0.031 C 
ATOM     60  C   UNL     1     -15.294  -6.066   6.980  1.00  0.00     0.037 A 
BRANCH  47  61
ATOM     61  C   UNL     1     -15.581  -4.963   0.915  1.00  0.00     0.064 A 
ATOM     62  C   UNL     1     -15.896  -5.914  -0.067  1.00  0.00     0.173 A 
ATOM     63  C   UNL     1     -16.139  -3.682   0.793  1.00  0.00     0.173 A 
ATOM     64  F   UNL     1     -15.379  -7.149  -0.000  1.00  0.00    -0.203 F 
ATOM     65  C   UNL     1     -16.725  -5.590  -1.138  1.00  0.00     0.198 A 
ATOM     66  C   UNL     1     -16.988  -3.369  -0.266  1.00  0.00     0.198 A 
ATOM     67  F   UNL     1     -15.874  -2.738   1.709  1.00  0.00    -0.203 F 
ATOM     68  F   UNL     1     -16.985  -6.504  -2.083  1.00  0.00    -0.200 F 
ATOM     69  C   UNL     1     -17.276  -4.321  -1.232  1.00  0.00     0.200 A 
ATOM     70  F   UNL     1     -17.529  -2.145  -0.350  1.00  0.00    -0.200 F 
ATOM     71  F   UNL     1     -18.084  -4.014  -2.257  1.00  0.00    -0.200 F 
ENDBRANCH  47  61
BRANCH  48  72
ATOM     72  C   UNL     1      -9.558  -7.175   8.550  1.00  0.00     0.064 A 
ATOM     73  C   UNL     1      -9.640  -8.402   9.223  1.00  0.00     0.173 A 
ATOM     74  C   UNL     1      -8.623  -6.237   9.011  1.00  0.00     0.173 A 
ATOM     75  F   UNL     1     -10.535  -9.321   8.832  1.00  0.00    -0.203 F 
ATOM     76  C   UNL     1      -8.839  -8.669  10.331  1.00  0.00     0.198 A 
ATOM     77  C   UNL     1      -7.803  -6.517  10.102  1.00  0.00     0.198 A 
ATOM     78  F   UNL     1      -8.503  -5.051   8.398  1.00  0.00    -0.203 F 
ATOM     79  F   UNL     1      -8.974  -9.829  10.988  1.00  0.00    -0.200 F 
ATOM     80  C   UNL     1      -7.918  -7.728  10.767  1.00  0.00     0.200 A 
ATOM     81  F   UNL     1      -6.906  -5.610  10.512  1.00  0.00    -0.200 F 
ATOM     82  F   UNL     1      -7.149  -7.985  11.833  1.00  0.00    -0.200 F 
ENDBRANCH  48  72
BRANCH  60  83
ATOM     83  C   UNL     1     -16.405  -6.084   7.987  1.00  0.00     0.064 A 
ATOM     84  C   UNL     1     -16.548  -5.063   8.938  1.00  0.00     0.173 A 
ATOM     85  C   UNL     1     -17.347  -7.123   7.989  1.00  0.00     0.173 A 
ATOM     86  F   UNL     1     -15.662  -4.057   8.987  1.00  0.00    -0.203 F 
ATOM     87  C   UNL     1     -17.579  -5.096   9.873  1.00  0.00     0.198 A 
ATOM     88  C   UNL     1     -18.393  -7.139   8.908  1.00  0.00     0.198 A 
ATOM     89  F   UNL     1     -17.257  -8.120   7.097  1.00  0.00    -0.203 F 
ATOM     90  F   UNL     1     -17.668  -4.136  10.804  1.00  0.00    -0.200 F 
ATOM     91  C   UNL     1     -18.503  -6.130   9.854  1.00  0.00     0.200 A 
ATOM     92  F   UNL     1     -19.290  -8.134   8.883  1.00  0.00    -0.200 F 
ATOM     93  F   UNL     1     -19.495  -6.161  10.755  1.00  0.00    -0.200 F 
ENDBRANCH  60  83
ENDBRANCH  34  35
ENDBRANCH  26  29
ENDBRANCH  24  25
ENDBRANCH  23  24
ENDBRANCH   1  23
TORSDOF 15
