REMARK SMILES Cc1ccc(S(=O)(=O)Nc2cc(C(=O)NCCCCCCNC(=O)c3ccc(-c4c5nc(c(-c6c(F)c(F)c(F)c(F)c6F)c6ccc([nH]6)c(-c6c(F)c(F)c(F)c(F)c6F)c6nc(c(-c7c(F)c(F)c(F)c(F)c7F)c7ccc4[nH]7)C=C6)C=C5)cc3)cnc2N2CCCC2)c(C)c1
REMARK SMILES IDX 18 1 17 2 16 3 15 4 13 5 14 6 12 8 10 9 11 10 90 11 89 12
REMARK SMILES IDX 88 13 9 14 6 16 7 17 8 18 5 19 1 20 2 21 3 22 98 23 4 24
REMARK SMILES IDX 96 25 97 26 91 27 92 28 95 29 93 30 94 31 19 32 20 33 21 34
REMARK SMILES IDX 22 35 23 36 24 38 25 39 26 40 87 41 27 42 86 43 28 44 29 45
REMARK SMILES IDX 30 46 80 47 31 48 85 49 79 50 81 51 32 52 84 53 78 54 77 55
REMARK SMILES IDX 33 57 65 58 45 59 64 60 46 61 49 62 63 63 82 64 47 65 48 66
REMARK SMILES IDX 62 68 83 69 50 70 34 71 35 72 43 73 36 74 37 75 41 76 44 77
REMARK SMILES IDX 38 78 39 79 42 80 40 81 66 82 67 83 75 84 68 85 69 86 73 87
REMARK SMILES IDX 76 88 70 89 71 90 74 91 72 92 51 93 52 94 60 95 53 96 54 97
REMARK SMILES IDX 58 98 61 99 55 100 56 101 59 102 57 103
REMARK H PARENT 15 7 9 15 22 37 81 56 49 67
REMARK Flexibility Score: inf
ROOT
ATOM      1  C   UNL     1       1.236  -1.200   5.185  1.00  0.00     0.002 C 
ENDROOT
BRANCH   1   2
ATOM      2  C   UNL     1       0.452  -1.880   4.056  1.00  0.00     0.021 C 
BRANCH   2   3
ATOM      3  C   UNL     1       1.178  -1.813   2.713  1.00  0.00     0.116 C 
BRANCH   3   4
ATOM      4  N   UNL     1       2.129  -2.904   2.598  1.00  0.00    -0.352 N 
ATOM      5  C   UNL     1       2.103  -4.096   1.923  1.00  0.00     0.252 C 
ATOM      6  O   UNL     1       3.092  -4.824   2.010  1.00  0.00    -0.269 OA
ATOM      7  H   UNL     1       2.958  -2.759   3.108  1.00  0.00     0.163 HD
BRANCH   5   8
ATOM      8  C   UNL     1       0.989  -4.516   1.043  1.00  0.00     0.060 A 
ATOM      9  C   UNL     1      -1.204  -4.379   0.099  1.00  0.00     0.092 A 
ATOM     10  C   UNL     1      -0.325  -4.073   1.131  1.00  0.00     0.046 A 
ATOM     11  C   UNL     1      -0.838  -5.321  -0.890  1.00  0.00     0.153 A 
ATOM     12  N   UNL     1       0.398  -5.851  -0.916  1.00  0.00    -0.236 NA
ATOM     13  C   UNL     1       1.288  -5.410   0.015  1.00  0.00     0.127 A 
BRANCH   9  14
ATOM     14  N   UNL     1      -2.481  -3.761  -0.010  1.00  0.00    -0.276 N 
ATOM     15  H   UNL     1      -3.259  -4.346  -0.156  1.00  0.00     0.180 HD
BRANCH  14  16
ATOM     16  S   UNL     1      -2.759  -2.117   0.091  1.00  0.00     0.262 S 
ATOM     17  O   UNL     1      -2.947  -1.838   1.504  1.00  0.00    -0.201 OA
ATOM     18  O   UNL     1      -3.808  -1.863  -0.872  1.00  0.00    -0.201 OA
BRANCH  16  19
ATOM     19  C   UNL     1      -1.357  -1.112  -0.412  1.00  0.00     0.090 A 
ATOM     20  C   UNL     1       2.356   1.089  -0.333  1.00  0.00     0.044 C 
ATOM     21  C   UNL     1       1.058   0.345  -0.439  1.00  0.00    -0.051 A 
ATOM     22  C   UNL     1       0.999  -0.941  -0.980  1.00  0.00     0.005 A 
ATOM     23  C   UNL     1      -0.133   0.955  -0.037  1.00  0.00     0.008 A 
ATOM     24  C   UNL     1      -0.206  -1.657  -0.989  1.00  0.00     0.023 A 
ATOM     25  C   UNL     1      -1.350   0.248  -0.032  1.00  0.00    -0.030 A 
ATOM     26  C   UNL     1      -2.582   1.026   0.351  1.00  0.00     0.046 C 
ENDBRANCH  16  19
ENDBRANCH  14  16
ENDBRANCH   9  14
BRANCH  11  27
ATOM     27  N   UNL     1      -1.770  -5.763  -1.792  1.00  0.00    -0.355 N 
ATOM     28  C   UNL     1      -2.316  -5.024  -2.912  1.00  0.00     0.118 C 
ATOM     29  C   UNL     1      -2.062  -7.185  -1.886  1.00  0.00     0.118 C 
ATOM     30  C   UNL     1      -3.595  -5.815  -3.173  1.00  0.00     0.023 C 
ATOM     31  C   UNL     1      -3.149  -7.261  -2.967  1.00  0.00     0.023 C 
ENDBRANCH  11  27
ENDBRANCH   5   8
ENDBRANCH   3   4
ENDBRANCH   2   3
ENDBRANCH   1   2
BRANCH   1  32
ATOM     32  C   UNL     1       1.387   0.319   5.028  1.00  0.00     0.002 C 
BRANCH  32  33
ATOM     33  C   UNL     1       0.074   1.092   4.878  1.00  0.00     0.021 C 
BRANCH  33  34
ATOM     34  C   UNL     1      -0.902   0.916   6.037  1.00  0.00     0.116 C 
BRANCH  34  35
ATOM     35  N   UNL     1      -0.352   1.414   7.288  1.00  0.00    -0.352 N 
ATOM     36  C   UNL     1      -0.898   2.288   8.193  1.00  0.00     0.251 C 
ATOM     37  H   UNL     1       0.543   1.075   7.519  1.00  0.00     0.163 HD
ATOM     38  O   UNL     1      -0.211   2.752   9.097  1.00  0.00    -0.269 OA
BRANCH  36  39
ATOM     39  C   UNL     1      -2.316   2.684   8.072  1.00  0.00     0.039 A 
ATOM     40  C   UNL     1      -2.655   4.031   8.227  1.00  0.00     0.014 A 
ATOM     41  C   UNL     1      -3.310   1.729   7.837  1.00  0.00     0.014 A 
ATOM     42  C   UNL     1      -3.987   4.429   8.097  1.00  0.00     0.010 A 
ATOM     43  C   UNL     1      -4.628   2.134   7.651  1.00  0.00     0.010 A 
ATOM     44  C   UNL     1      -4.979   3.486   7.786  1.00  0.00    -0.014 A 
BRANCH  44  45
ATOM     45  C   UNL     1      -6.392   3.893   7.603  1.00  0.00     0.031 A 
ATOM     46  C   UNL     1      -7.440   3.440   8.577  1.00  0.00     0.074 A 
ATOM     47  C   UNL     1      -6.741   4.608   6.517  1.00  0.00     0.049 A 
ATOM     48  N   UNL     1      -8.735   3.631   8.550  1.00  0.00    -0.248 NA
ATOM     49  C   UNL     1      -6.973   2.639   9.719  1.00  0.00     0.031 C 
ATOM     50  C   UNL     1      -5.821   5.056   5.472  1.00  0.00     0.029 A 
ATOM     51  N   UNL     1      -7.967   5.064   6.104  1.00  0.00    -0.354 N 
ATOM     52  C   UNL     1      -9.238   2.958   9.655  1.00  0.00     0.074 A 
ATOM     53  C   UNL     1      -8.116   2.318  10.307  1.00  0.00     0.031 C 
ATOM     54  C   UNL     1      -6.514   5.729   4.540  1.00  0.00     0.029 A 
ATOM     55  C   UNL     1      -7.926   5.737   4.910  1.00  0.00     0.049 A 
ATOM     56  H   UNL     1      -8.796   4.923   6.616  1.00  0.00     0.167 HD
ATOM     57  C   UNL     1     -10.518   2.895  10.094  1.00  0.00     0.037 A 
ATOM     58  C   UNL     1      -8.919   6.293   4.190  1.00  0.00     0.037 A 
ATOM     59  C   UNL     1     -11.626   3.557   9.458  1.00  0.00     0.049 A 
ATOM     60  C   UNL     1     -10.327   6.237   4.711  1.00  0.00     0.074 A 
ATOM     61  C   UNL     1     -12.945   3.624   9.870  1.00  0.00     0.029 A 
ATOM     62  N   UNL     1     -11.541   4.265   8.267  1.00  0.00    -0.354 N 
ATOM     63  N   UNL     1     -10.782   5.666   5.800  1.00  0.00    -0.248 NA
ATOM     64  C   UNL     1     -11.357   6.912   3.910  1.00  0.00     0.031 C 
ATOM     65  C   UNL     1     -13.667   4.342   8.909  1.00  0.00     0.029 A 
ATOM     66  C   UNL     1     -12.790   4.755   7.918  1.00  0.00     0.049 A 
ATOM     67  H   UNL     1     -10.716   4.399   7.747  1.00  0.00     0.167 HD
ATOM     68  C   UNL     1     -12.145   5.924   5.825  1.00  0.00     0.074 A 
ATOM     69  C   UNL     1     -12.441   6.717   4.649  1.00  0.00     0.031 C 
ATOM     70  C   UNL     1     -13.067   5.538   6.741  1.00  0.00     0.037 A 
BRANCH  57  71
ATOM     71  C   UNL     1     -10.781   2.077  11.324  1.00  0.00     0.064 A 
ATOM     72  C   UNL     1     -10.345   2.492  12.591  1.00  0.00     0.173 A 
ATOM     73  C   UNL     1     -11.484   0.866  11.236  1.00  0.00     0.173 A 
ATOM     74  F   UNL     1      -9.658   3.636  12.727  1.00  0.00    -0.203 F 
ATOM     75  C   UNL     1     -10.569   1.706  13.719  1.00  0.00     0.198 A 
ATOM     76  C   UNL     1     -11.731   0.097  12.370  1.00  0.00     0.198 A 
ATOM     77  F   UNL     1     -11.928   0.426  10.049  1.00  0.00    -0.203 F 
ATOM     78  F   UNL     1     -10.092   2.096  14.910  1.00  0.00    -0.200 F 
ATOM     79  C   UNL     1     -11.264   0.512  13.608  1.00  0.00     0.200 A 
ATOM     80  F   UNL     1     -12.412  -1.053  12.264  1.00  0.00    -0.200 F 
ATOM     81  F   UNL     1     -11.476  -0.244  14.694  1.00  0.00    -0.200 F 
ENDBRANCH  57  71
BRANCH  58  82
ATOM     82  C   UNL     1      -8.597   6.976   2.913  1.00  0.00     0.064 A 
ATOM     83  C   UNL     1      -8.605   8.375   2.826  1.00  0.00     0.173 A 
ATOM     84  C   UNL     1      -8.234   6.250   1.770  1.00  0.00     0.173 A 
ATOM     85  F   UNL     1      -8.963   9.109   3.890  1.00  0.00    -0.203 F 
ATOM     86  C   UNL     1      -8.267   9.023   1.641  1.00  0.00     0.198 A 
ATOM     87  C   UNL     1      -7.875   6.900   0.591  1.00  0.00     0.198 A 
ATOM     88  F   UNL     1      -8.204   4.910   1.808  1.00  0.00    -0.203 F 
ATOM     89  F   UNL     1      -8.305  10.360   1.577  1.00  0.00    -0.200 F 
ATOM     90  C   UNL     1      -7.895   8.285   0.527  1.00  0.00     0.200 A 
ATOM     91  F   UNL     1      -7.501   6.185  -0.479  1.00  0.00    -0.200 F 
ATOM     92  F   UNL     1      -7.555   8.909  -0.609  1.00  0.00    -0.200 F 
ENDBRANCH  58  82
BRANCH  70  93
ATOM     93  C   UNL     1     -14.482   5.980   6.515  1.00  0.00     0.064 A 
ATOM     94  C   UNL     1     -15.284   5.390   5.527  1.00  0.00     0.173 A 
ATOM     95  C   UNL     1     -15.054   6.975   7.321  1.00  0.00     0.173 A 
ATOM     96  F   UNL     1     -14.776   4.446   4.721  1.00  0.00    -0.203 F 
ATOM     97  C   UNL     1     -16.604   5.794   5.343  1.00  0.00     0.198 A 
ATOM     98  C   UNL     1     -16.381   7.360   7.150  1.00  0.00     0.198 A 
ATOM     99  F   UNL     1     -14.329   7.567   8.282  1.00  0.00    -0.203 F 
ATOM    100  F   UNL     1     -17.341   5.245   4.368  1.00  0.00    -0.200 F 
ATOM    101  C   UNL     1     -17.153   6.773   6.158  1.00  0.00     0.200 A 
ATOM    102  F   UNL     1     -16.913   8.299   7.944  1.00  0.00    -0.200 F 
ATOM    103  F   UNL     1     -18.425   7.156   5.983  1.00  0.00    -0.200 F 
ENDBRANCH  70  93
ENDBRANCH  44  45
ENDBRANCH  36  39
ENDBRANCH  34  35
ENDBRANCH  33  34
ENDBRANCH  32  33
ENDBRANCH   1  32
TORSDOF 17
