REMARK SMILES Nc1ccccc1NC(=O)N[C@H]1CCCCC[C@H]1C(=O)NCCCCCCNC(=O)c1ccc(-c2c3nc(c(-c4c(F)c(F)c(F)c(F)c4F)c4ccc([nH]4)c(-c4c(F)c(F)c(F)c(F)c4F)c4nc(c(-c5c(F)c(F)c(F)c(F)c5F)c5ccc2[nH]5)C=C4)C=C3)cc1
REMARK SMILES IDX 23 1 22 2 21 3 19 4 20 5 18 7 12 8 11 9 8 10 9 11 10 13 7 15
REMARK SMILES IDX 2 16 3 17 4 18 6 19 5 20 1 21 13 24 14 25 17 27 16 28 15 29
REMARK SMILES IDX 24 31 25 32 26 33 27 34 28 35 29 36 30 38 31 39 32 40 93 41
REMARK SMILES IDX 33 42 92 43 34 44 35 45 36 46 86 47 37 48 91 49 85 50 87 51
REMARK SMILES IDX 38 52 90 53 84 54 83 55 39 57 71 58 51 59 70 60 52 61 55 62
REMARK SMILES IDX 69 63 88 64 53 65 54 66 68 68 89 69 56 70 40 71 41 72 49 73
REMARK SMILES IDX 42 74 43 75 47 76 50 77 44 78 45 79 48 80 46 81 72 82 73 83
REMARK SMILES IDX 81 84 74 85 75 86 79 87 82 88 76 89 77 90 80 91 78 92 57 93
REMARK SMILES IDX 58 94 66 95 59 96 60 97 64 98 67 99 61 100 62 101 65 102
REMARK SMILES IDX 63 103
REMARK H PARENT 21 6 8 12 11 14 1 22 1 23 28 37 87 56 55 67
REMARK Flexibility Score: 90.00
ROOT
ATOM      1  C   UNL     1      -5.822   0.661   1.034  1.00  0.00     0.021 C 
ENDROOT
BRANCH   1   2
ATOM      2  C   UNL     1      -4.854   0.027   0.044  1.00  0.00     0.116 C 
BRANCH   2   3
ATOM      3  N   UNL     1      -4.673   0.764  -1.172  1.00  0.00    -0.356 N 
ATOM      4  C   UNL     1      -3.519   1.059  -1.823  1.00  0.00     0.225 C 
ATOM      5  O   UNL     1      -3.626   1.274  -3.037  1.00  0.00    -0.275 OA
ATOM      6  H   UNL     1      -5.497   1.102  -1.592  1.00  0.00     0.163 HD
BRANCH   4   7
ATOM      7  C   UNL     1      -2.129   1.116  -1.158  1.00  0.00     0.101 C 
BRANCH   7   8
ATOM      8  C   UNL     1      -1.872   2.013   0.078  1.00  0.00     0.096 C 
BRANCH   8   9
ATOM      9  N   UNL     1      -2.867   3.071   0.278  1.00  0.00    -0.334 N 
ATOM     10  N   UNL     1      -1.788   5.228   0.210  1.00  0.00    -0.306 N 
ATOM     11  C   UNL     1      -2.856   4.414   0.260  1.00  0.00     0.319 C 
ATOM     12  H   UNL     1      -2.055   6.123  -0.100  1.00  0.00     0.171 HD
ATOM     13  O   UNL     1      -3.968   4.957   0.216  1.00  0.00    -0.248 OA
ATOM     14  H   UNL     1      -3.762   2.709   0.472  1.00  0.00     0.165 HD
BRANCH  10  15
ATOM     15  C   UNL     1      -0.403   5.191   0.467  1.00  0.00     0.065 A 
ATOM     16  C   UNL     1       0.400   6.260   0.012  1.00  0.00     0.055 A 
ATOM     17  C   UNL     1       1.796   6.107   0.005  1.00  0.00     0.028 A 
ATOM     18  C   UNL     1       2.398   4.988   0.577  1.00  0.00     0.002 A 
ATOM     19  C   UNL     1       0.218   4.188   1.194  1.00  0.00     0.028 A 
ATOM     20  C   UNL     1       1.606   4.048   1.218  1.00  0.00     0.002 A 
BRANCH  16  21
ATOM     21  N   UNL     1      -0.148   7.426  -0.535  1.00  0.00    -0.397 N 
ATOM     22  H   UNL     1       0.443   8.151  -0.842  1.00  0.00     0.156 HD
ATOM     23  H   UNL     1      -1.125   7.521  -0.614  1.00  0.00     0.156 HD
ENDBRANCH  16  21
ENDBRANCH  10  15
ENDBRANCH   8   9
BRANCH   8  24
ATOM     24  C   UNL     1      -1.453   1.389   1.431  1.00  0.00     0.026 C 
BRANCH  24  25
ATOM     25  C   UNL     1      -1.874   0.023   1.936  1.00  0.00     0.002 CG0
ATOM     26  G   UNL     1      -1.301  -1.160   1.174  1.00  0.00     0.000 G0
ENDBRANCH  24  25
ENDBRANCH   8  24
ENDBRANCH   7   8
BRANCH   7  27
ATOM     27  C   UNL     1      -1.332  -0.196  -1.216  1.00  0.00     0.015 C 
BRANCH  27  28
ATOM     28  C   UNL     1      -1.715  -1.333  -0.280  1.00  0.00     0.001 C 
BRANCH  28  29
ATOM     29  C   UNL     1      -1.301  -1.160   1.174  1.00  0.00     0.000 CG0
ATOM     30  G   UNL     1      -1.874   0.023   1.936  1.00  0.00     0.000 G0
ENDBRANCH  28  29
ENDBRANCH  27  28
ENDBRANCH   7  27
ENDBRANCH   4   7
ENDBRANCH   2   3
ENDBRANCH   1   2
BRANCH   1  31
ATOM     31  C   UNL     1      -7.026  -0.225   1.367  1.00  0.00     0.002 C 
BRANCH  31  32
ATOM     32  C   UNL     1      -6.717  -1.646   1.857  1.00  0.00     0.002 C 
BRANCH  32  33
ATOM     33  C   UNL     1      -5.808  -1.762   3.084  1.00  0.00     0.021 C 
BRANCH  33  34
ATOM     34  C   UNL     1      -6.276  -1.002   4.322  1.00  0.00     0.116 C 
BRANCH  34  35
ATOM     35  N   UNL     1      -7.650  -1.315   4.675  1.00  0.00    -0.352 N 
ATOM     36  C   UNL     1      -8.184  -1.901   5.793  1.00  0.00     0.251 C 
ATOM     37  H   UNL     1      -8.313  -1.064   3.992  1.00  0.00     0.163 HD
ATOM     38  O   UNL     1      -9.358  -2.261   5.783  1.00  0.00    -0.269 OA
BRANCH  36  39
ATOM     39  C   UNL     1      -7.372  -2.108   7.012  1.00  0.00     0.039 A 
ATOM     40  C   UNL     1      -7.565  -3.281   7.748  1.00  0.00     0.014 A 
ATOM     41  C   UNL     1      -6.490  -1.130   7.478  1.00  0.00     0.014 A 
ATOM     42  C   UNL     1      -6.845  -3.493   8.925  1.00  0.00     0.010 A 
ATOM     43  C   UNL     1      -5.724  -1.369   8.617  1.00  0.00     0.010 A 
ATOM     44  C   UNL     1      -5.903  -2.548   9.357  1.00  0.00    -0.014 A 
BRANCH  44  45
ATOM     45  C   UNL     1      -5.110  -2.768  10.592  1.00  0.00     0.031 A 
ATOM     46  C   UNL     1      -5.313  -1.883  11.789  1.00  0.00     0.074 A 
ATOM     47  C   UNL     1      -4.176  -3.736  10.617  1.00  0.00     0.049 A 
ATOM     48  N   UNL     1      -4.681  -1.881  12.936  1.00  0.00    -0.248 NA
ATOM     49  C   UNL     1      -6.348  -0.845  11.672  1.00  0.00     0.031 C 
ATOM     50  C   UNL     1      -3.868  -4.641   9.510  1.00  0.00     0.029 A 
ATOM     51  N   UNL     1      -3.310  -4.117  11.611  1.00  0.00    -0.354 N 
ATOM     52  C   UNL     1      -5.234  -0.840  13.670  1.00  0.00     0.074 A 
ATOM     53  C   UNL     1      -6.214  -0.198  12.821  1.00  0.00     0.031 C 
ATOM     54  C   UNL     1      -2.903  -5.492   9.894  1.00  0.00     0.029 A 
ATOM     55  C   UNL     1      -2.500  -5.169  11.260  1.00  0.00     0.049 A 
ATOM     56  H   UNL     1      -3.273  -3.679  12.492  1.00  0.00     0.167 HD
ATOM     57  C   UNL     1      -4.965  -0.468  14.945  1.00  0.00     0.037 A 
ATOM     58  C   UNL     1      -1.541  -5.800  11.962  1.00  0.00     0.037 A 
ATOM     59  C   UNL     1      -4.002  -1.120  15.793  1.00  0.00     0.049 A 
ATOM     60  C   UNL     1      -1.243  -5.352  13.366  1.00  0.00     0.074 A 
ATOM     61  C   UNL     1      -3.686  -0.848  17.113  1.00  0.00     0.029 A 
ATOM     62  N   UNL     1      -3.196  -2.179  15.400  1.00  0.00    -0.354 N 
ATOM     63  N   UNL     1      -1.806  -4.399  14.068  1.00  0.00    -0.248 NA
ATOM     64  C   UNL     1      -0.177  -6.071  14.076  1.00  0.00     0.031 C 
ATOM     65  C   UNL     1      -2.661  -1.716  17.506  1.00  0.00     0.029 A 
ATOM     66  C   UNL     1      -2.369  -2.559  16.445  1.00  0.00     0.049 A 
ATOM     67  H   UNL     1      -3.209  -2.598  14.509  1.00  0.00     0.167 HD
ATOM     68  C   UNL     1      -1.186  -4.422  15.309  1.00  0.00     0.074 A 
ATOM     69  C   UNL     1      -0.209  -5.491  15.267  1.00  0.00     0.031 C 
ATOM     70  C   UNL     1      -1.407  -3.630  16.387  1.00  0.00     0.037 A 
BRANCH  57  71
ATOM     71  C   UNL     1      -5.727   0.704  15.494  1.00  0.00     0.064 A 
ATOM     72  C   UNL     1      -7.100   0.620  15.776  1.00  0.00     0.173 A 
ATOM     73  C   UNL     1      -5.079   1.921  15.752  1.00  0.00     0.173 A 
ATOM     74  F   UNL     1      -7.770  -0.517  15.536  1.00  0.00    -0.203 F 
ATOM     75  C   UNL     1      -7.802   1.722  16.258  1.00  0.00     0.198 A 
ATOM     76  C   UNL     1      -5.778   3.012  16.263  1.00  0.00     0.198 A 
ATOM     77  F   UNL     1      -3.767   2.054  15.507  1.00  0.00    -0.203 F 
ATOM     78  F   UNL     1      -9.123   1.635  16.463  1.00  0.00    -0.200 F 
ATOM     79  C   UNL     1      -7.140   2.915  16.506  1.00  0.00     0.200 A 
ATOM     80  F   UNL     1      -5.135   4.161  16.513  1.00  0.00    -0.200 F 
ATOM     81  F   UNL     1      -7.817   3.975  16.968  1.00  0.00    -0.200 F 
ENDBRANCH  57  71
BRANCH  58  82
ATOM     82  C   UNL     1      -0.823  -6.952  11.361  1.00  0.00     0.064 A 
ATOM     83  C   UNL     1      -1.057  -8.255  11.820  1.00  0.00     0.173 A 
ATOM     84  C   UNL     1       0.096  -6.781  10.316  1.00  0.00     0.173 A 
ATOM     85  F   UNL     1      -1.913  -8.465  12.831  1.00  0.00    -0.203 F 
ATOM     86  C   UNL     1      -0.389  -9.344  11.265  1.00  0.00     0.198 A 
ATOM     87  C   UNL     1       0.745  -7.874   9.745  1.00  0.00     0.198 A 
ATOM     88  F   UNL     1       0.350  -5.554   9.839  1.00  0.00    -0.203 F 
ATOM     89  F   UNL     1      -0.605 -10.576  11.746  1.00  0.00    -0.200 F 
ATOM     90  C   UNL     1       0.506  -9.153  10.223  1.00  0.00     0.200 A 
ATOM     91  F   UNL     1       1.600  -7.687   8.730  1.00  0.00    -0.200 F 
ATOM     92  F   UNL     1       1.143 -10.202   9.685  1.00  0.00    -0.200 F 
ENDBRANCH  58  82
BRANCH  70  93
ATOM     93  C   UNL     1      -0.601  -3.915  17.621  1.00  0.00     0.064 A 
ATOM     94  C   UNL     1       0.762  -3.596  17.699  1.00  0.00     0.173 A 
ATOM     95  C   UNL     1      -1.210  -4.488  18.748  1.00  0.00     0.173 A 
ATOM     96  F   UNL     1       1.392  -3.063  16.641  1.00  0.00    -0.203 F 
ATOM     97  C   UNL     1       1.493  -3.862  18.854  1.00  0.00     0.198 A 
ATOM     98  C   UNL     1      -0.482  -4.727  19.910  1.00  0.00     0.198 A 
ATOM     99  F   UNL     1      -2.512  -4.807  18.725  1.00  0.00    -0.203 F 
ATOM    100  F   UNL     1       2.805  -3.592  18.891  1.00  0.00    -0.200 F 
ATOM    101  C   UNL     1       0.870  -4.421  19.960  1.00  0.00     0.200 A 
ATOM    102  F   UNL     1      -1.088  -5.258  20.981  1.00  0.00    -0.200 F 
ATOM    103  F   UNL     1       1.574  -4.673  21.071  1.00  0.00    -0.200 F 
ENDBRANCH  70  93
ENDBRANCH  44  45
ENDBRANCH  36  39
ENDBRANCH  34  35
ENDBRANCH  33  34
ENDBRANCH  32  33
ENDBRANCH  31  32
ENDBRANCH   1  31
TORSDOF 16
