REMARK SMILES CC(C)CCn1nc(C(=O)NCCCCCCNC(=O)c2ccc(-c3c4nc(c(-c5c(F)c(F)c(F)c(F)c5F)c5ccc([nH]5)c(-c5c(F)c(F)c(F)c(F)c5F)c5nc(c(-c6c(F)c(F)c(F)c(F)c6F)c6ccc3[nH]6)C=C5)C=C4)cc2)c2c1CCN(C(=O)[C@@H]1CCc3nn(C)c(=O)n3C1)C2
REMARK SMILES IDX 14 1 13 2 12 3 11 4 9 5 10 6 8 8 6 9 7 10 85 11 84 12 86 13
REMARK SMILES IDX 102 14 87 15 88 16 5 17 4 18 2 19 1 20 3 21 89 22 90 23
REMARK SMILES IDX 91 24 92 25 101 26 93 27 100 28 94 29 98 30 95 31 96 32
REMARK SMILES IDX 99 33 97 34 15 35 16 36 17 37 18 38 19 39 20 41 21 42 22 43
REMARK SMILES IDX 83 44 23 45 82 46 24 47 25 48 26 49 76 50 27 51 81 52 75 53
REMARK SMILES IDX 77 54 28 55 80 56 74 57 73 58 29 60 61 61 41 62 60 63 42 64
REMARK SMILES IDX 45 65 59 66 78 67 43 68 44 69 58 71 79 72 46 73 30 74 31 75
REMARK SMILES IDX 39 76 32 77 33 78 37 79 40 80 34 81 35 82 38 83 36 84 62 85
REMARK SMILES IDX 63 86 71 87 64 88 65 89 69 90 72 91 66 92 67 93 70 94 68 95
REMARK SMILES IDX 47 96 48 97 56 98 49 99 50 100 54 101 57 102 51 103 52 104
REMARK SMILES IDX 55 105 53 106
REMARK H PARENT 11 7 18 40 77 59 45 70
REMARK Flexibility Score: inf
ROOT
ATOM      1  C   UNL     1       0.155   4.106  -9.650  1.00  0.00     0.002 C 
ENDROOT
BRANCH   1   2
ATOM      2  C   UNL     1      -0.204   3.402  -8.344  1.00  0.00     0.021 C 
BRANCH   2   3
ATOM      3  C   UNL     1       0.525   3.923  -7.087  1.00  0.00     0.116 C 
BRANCH   3   4
ATOM      4  N   UNL     1      -0.396   4.529  -6.135  1.00  0.00    -0.351 N 
ATOM      5  C   UNL     1      -0.933   4.165  -4.917  1.00  0.00     0.272 C 
ATOM      6  O   UNL     1      -1.495   5.088  -4.316  1.00  0.00    -0.267 OA
ATOM      7  H   UNL     1      -0.711   5.412  -6.433  1.00  0.00     0.163 HD
BRANCH   5   8
ATOM      8  C   UNL     1      -0.853   2.802  -4.335  1.00  0.00     0.155 A 
ATOM      9  N   UNL     1      -0.863   1.332  -2.738  1.00  0.00    -0.268 N 
ATOM     10  N   UNL     1      -0.915   2.658  -2.987  1.00  0.00    -0.167 NA
ATOM     11  C   UNL     1      -0.610   0.636  -3.874  1.00  0.00     0.046 A 
ATOM     12  C   UNL     1      -0.786   1.512  -4.930  1.00  0.00     0.026 A 
ATOM     13  C   UNL     1      -0.206  -0.773  -4.067  1.00  0.00     0.078 C 
ATOM     14  C   UNL     1      -0.776   1.060  -6.348  1.00  0.00     0.159 C 
ATOM     15  C   UNL     1       0.464  -0.820  -5.444  1.00  0.00     0.126 C 
ATOM     16  N   UNL     1      -0.442  -0.364  -6.489  1.00  0.00    -0.338 N 
BRANCH   9  17
ATOM     17  C   UNL     1      -1.279   0.871  -1.423  1.00  0.00     0.145 C 
BRANCH  17  18
ATOM     18  C   UNL     1      -0.869  -0.532  -0.954  1.00  0.00     0.027 C 
BRANCH  18  19
ATOM     19  C   UNL     1       0.638  -0.730  -0.704  1.00  0.00    -0.016 C 
ATOM     20  C   UNL     1       1.129   0.032   0.524  1.00  0.00     0.007 C 
ATOM     21  C   UNL     1       0.942  -2.224  -0.549  1.00  0.00     0.007 C 
ENDBRANCH  18  19
ENDBRANCH  17  18
ENDBRANCH   9  17
BRANCH  16  22
ATOM     22  C   UNL     1      -0.717  -0.962  -7.704  1.00  0.00     0.227 C 
ATOM     23  O   UNL     1      -1.213  -0.278  -8.612  1.00  0.00    -0.274 OA
BRANCH  22  24
ATOM     24  C   UNL     1      -0.489  -2.460  -8.020  1.00  0.00     0.099 C 
ATOM     25  C   UNL     1      -1.470  -3.432  -7.359  1.00  0.00     0.023 C 
ATOM     26  C   UNL     1       0.942  -2.985  -7.993  1.00  0.00     0.142 C 
ATOM     27  C   UNL     1      -1.061  -3.910  -5.973  1.00  0.00     0.078 C 
ATOM     28  N   UNL     1       1.282  -3.648  -6.752  1.00  0.00    -0.278 N 
ATOM     29  C   UNL     1       0.423  -3.988  -5.768  1.00  0.00     0.133 A 
ATOM     30  C   UNL     1       2.526  -3.569  -6.168  1.00  0.00     0.345 A 
ATOM     31  N   UNL     1       0.974  -4.164  -4.601  1.00  0.00    -0.155 NA
ATOM     32  N   UNL     1       2.312  -3.893  -4.821  1.00  0.00    -0.216 N 
ATOM     33  O   UNL     1       3.541  -3.112  -6.669  1.00  0.00    -0.246 OA
ATOM     34  C   UNL     1       3.186  -3.466  -3.758  1.00  0.00     0.179 C 
ENDBRANCH  22  24
ENDBRANCH  16  22
ENDBRANCH   5   8
ENDBRANCH   3   4
ENDBRANCH   2   3
ENDBRANCH   1   2
BRANCH   1  35
ATOM     35  C   UNL     1       1.613   3.922 -10.100  1.00  0.00     0.002 C 
BRANCH  35  36
ATOM     36  C   UNL     1       2.083   2.487 -10.400  1.00  0.00     0.021 C 
BRANCH  36  37
ATOM     37  C   UNL     1       1.372   1.830 -11.573  1.00  0.00     0.116 C 
BRANCH  37  38
ATOM     38  N   UNL     1       1.581   2.542 -12.836  1.00  0.00    -0.352 N 
ATOM     39  C   UNL     1       1.133   2.221 -14.106  1.00  0.00     0.251 C 
ATOM     40  H   UNL     1       2.117   3.365 -12.773  1.00  0.00     0.163 HD
ATOM     41  O   UNL     1       1.621   2.732 -15.097  1.00  0.00    -0.269 OA
BRANCH  39  42
ATOM     42  C   UNL     1       0.046   1.235 -14.238  1.00  0.00     0.039 A 
ATOM     43  C   UNL     1       0.042   0.282 -15.262  1.00  0.00     0.014 A 
ATOM     44  C   UNL     1      -0.969   1.262 -13.291  1.00  0.00     0.014 A 
ATOM     45  C   UNL     1      -0.958  -0.688 -15.271  1.00  0.00     0.010 A 
ATOM     46  C   UNL     1      -1.821   0.200 -13.184  1.00  0.00     0.010 A 
ATOM     47  C   UNL     1      -1.880  -0.729 -14.214  1.00  0.00    -0.014 A 
BRANCH  47  48
ATOM     48  C   UNL     1      -2.882  -1.783 -14.116  1.00  0.00     0.031 A 
ATOM     49  C   UNL     1      -2.341  -3.169 -14.130  1.00  0.00     0.074 A 
ATOM     50  C   UNL     1      -4.165  -1.513 -13.789  1.00  0.00     0.049 A 
ATOM     51  N   UNL     1      -2.588  -4.112 -14.978  1.00  0.00    -0.248 NA
ATOM     52  C   UNL     1      -1.310  -3.520 -13.137  1.00  0.00     0.031 C 
ATOM     53  C   UNL     1      -4.763  -0.214 -13.441  1.00  0.00     0.029 A 
ATOM     54  N   UNL     1      -5.196  -2.373 -13.578  1.00  0.00    -0.354 N 
ATOM     55  C   UNL     1      -1.893  -5.233 -14.526  1.00  0.00     0.074 A 
ATOM     56  C   UNL     1      -0.999  -4.766 -13.500  1.00  0.00     0.031 C 
ATOM     57  C   UNL     1      -5.951  -0.407 -12.830  1.00  0.00     0.029 A 
ATOM     58  C   UNL     1      -6.284  -1.814 -12.920  1.00  0.00     0.049 A 
ATOM     59  H   UNL     1      -5.174  -3.314 -13.867  1.00  0.00     0.167 HD
ATOM     60  C   UNL     1      -2.301  -6.488 -14.864  1.00  0.00     0.037 A 
ATOM     61  C   UNL     1      -7.377  -2.466 -12.459  1.00  0.00     0.037 A 
ATOM     62  C   UNL     1      -3.170  -6.452 -16.016  1.00  0.00     0.049 A 
ATOM     63  C   UNL     1      -7.447  -3.757 -13.181  1.00  0.00     0.074 A 
ATOM     64  C   UNL     1      -3.037  -6.045 -17.329  1.00  0.00     0.029 A 
ATOM     65  N   UNL     1      -4.521  -6.554 -15.797  1.00  0.00    -0.354 N 
ATOM     66  N   UNL     1      -7.669  -3.860 -14.463  1.00  0.00    -0.248 NA
ATOM     67  C   UNL     1      -6.823  -4.914 -12.560  1.00  0.00     0.031 C 
ATOM     68  C   UNL     1      -4.299  -5.467 -17.666  1.00  0.00     0.029 A 
ATOM     69  C   UNL     1      -5.144  -5.607 -16.564  1.00  0.00     0.049 A 
ATOM     70  H   UNL     1      -4.963  -7.195 -15.194  1.00  0.00     0.167 HD
ATOM     71  C   UNL     1      -6.838  -4.888 -14.883  1.00  0.00     0.074 A 
ATOM     72  C   UNL     1      -6.424  -5.564 -13.656  1.00  0.00     0.031 C 
ATOM     73  C   UNL     1      -6.340  -4.908 -16.155  1.00  0.00     0.037 A 
BRANCH  60  74
ATOM     74  C   UNL     1      -2.277  -7.679 -13.925  1.00  0.00     0.064 A 
ATOM     75  C   UNL     1      -2.728  -8.927 -14.408  1.00  0.00     0.173 A 
ATOM     76  C   UNL     1      -2.161  -7.585 -12.521  1.00  0.00     0.173 A 
ATOM     77  F   UNL     1      -2.867  -9.143 -15.725  1.00  0.00    -0.203 F 
ATOM     78  C   UNL     1      -3.155  -9.944 -13.549  1.00  0.00     0.198 A 
ATOM     79  C   UNL     1      -2.541  -8.621 -11.669  1.00  0.00     0.198 A 
ATOM     80  F   UNL     1      -1.784  -6.461 -11.902  1.00  0.00    -0.203 F 
ATOM     81  F   UNL     1      -3.719 -11.049 -14.055  1.00  0.00    -0.200 F 
ATOM     82  C   UNL     1      -3.077  -9.783 -12.179  1.00  0.00     0.200 A 
ATOM     83  F   UNL     1      -2.464  -8.440 -10.342  1.00  0.00    -0.200 F 
ATOM     84  F   UNL     1      -3.560 -10.719 -11.352  1.00  0.00    -0.200 F 
ENDBRANCH  60  74
BRANCH  61  85
ATOM     85  C   UNL     1      -8.152  -2.183 -11.229  1.00  0.00     0.064 A 
ATOM     86  C   UNL     1      -9.442  -2.705 -11.048  1.00  0.00     0.173 A 
ATOM     87  C   UNL     1      -7.535  -1.625 -10.091  1.00  0.00     0.173 A 
ATOM     88  F   UNL     1     -10.078  -3.296 -12.069  1.00  0.00    -0.203 F 
ATOM     89  C   UNL     1     -10.067  -2.693  -9.796  1.00  0.00     0.198 A 
ATOM     90  C   UNL     1      -8.161  -1.609  -8.845  1.00  0.00     0.198 A 
ATOM     91  F   UNL     1      -6.272  -1.177 -10.146  1.00  0.00    -0.203 F 
ATOM     92  F   UNL     1     -11.273  -3.259  -9.646  1.00  0.00    -0.200 F 
ATOM     93  C   UNL     1      -9.422  -2.155  -8.694  1.00  0.00     0.200 A 
ATOM     94  F   UNL     1      -7.509  -1.125  -7.778  1.00  0.00    -0.200 F 
ATOM     95  F   UNL     1      -9.994  -2.203  -7.483  1.00  0.00    -0.200 F 
ENDBRANCH  61  85
BRANCH  73  96
ATOM     96  C   UNL     1      -6.937  -3.954 -17.153  1.00  0.00     0.064 A 
ATOM     97  C   UNL     1      -6.815  -2.555 -17.075  1.00  0.00     0.173 A 
ATOM     98  C   UNL     1      -7.524  -4.483 -18.308  1.00  0.00     0.173 A 
ATOM     99  F   UNL     1      -6.182  -1.974 -16.052  1.00  0.00    -0.203 F 
ATOM    100  C   UNL     1      -7.295  -1.727 -18.089  1.00  0.00     0.198 A 
ATOM    101  C   UNL     1      -7.971  -3.657 -19.336  1.00  0.00     0.198 A 
ATOM    102  F   UNL     1      -7.618  -5.813 -18.463  1.00  0.00    -0.203 F 
ATOM    103  F   UNL     1      -7.172  -0.396 -17.985  1.00  0.00    -0.200 F 
ATOM    104  C   UNL     1      -7.864  -2.280 -19.223  1.00  0.00     0.200 A 
ATOM    105  F   UNL     1      -8.478  -4.199 -20.452  1.00  0.00    -0.200 F 
ATOM    106  F   UNL     1      -8.286  -1.488 -20.219  1.00  0.00    -0.200 F 
ENDBRANCH  73  96
ENDBRANCH  47  48
ENDBRANCH  39  42
ENDBRANCH  37  38
ENDBRANCH  36  37
ENDBRANCH  35  36
ENDBRANCH   1  35
TORSDOF 18
