REMARK SMILES C[C@H]1CC[C@@H]([C@H](C(=O)NCCCCCCNC(=O)c2ccc(-c3c4nc(c(-c5c(F)c(F)c(F)c(F)c5F)c5ccc([nH]5)c(-c5c(F)c(F)c(F)c(F)c5F)c5nc(c(-c6c(F)c(F)c(F)c(F)c6F)c6ccc3[nH]6)C=C5)C=C4)cc2)[C@@H]2CCS(=O)(=O)C2)C[C@@H]1C
REMARK SMILES IDX 13 1 12 2 11 3 10 4 9 5 7 6 8 7 6 9 5 10 1 11 2 12 3 13
REMARK SMILES IDX 90 14 4 15 89 16 91 17 82 18 83 19 88 20 84 21 85 22 86 23
REMARK SMILES IDX 87 24 14 25 15 26 16 27 17 28 18 30 19 31 20 32 81 33 21 34
REMARK SMILES IDX 80 35 22 36 23 37 24 38 74 39 25 40 79 41 73 42 75 43 26 44
REMARK SMILES IDX 78 45 72 46 71 47 27 49 59 50 39 51 58 52 40 53 43 54 57 55
REMARK SMILES IDX 76 56 41 57 42 58 56 60 77 61 44 62 28 63 29 64 37 65 30 66
REMARK SMILES IDX 31 67 35 68 38 69 32 70 33 71 36 72 34 73 60 74 61 75 69 76
REMARK SMILES IDX 62 77 63 78 67 79 70 80 64 81 65 82 68 83 66 84 45 85 46 86
REMARK SMILES IDX 54 87 47 88 48 89 52 90 55 91 49 92 50 93 53 94 51 95
REMARK H PARENT 9 8 16 29 75 48 43 59
REMARK Flexibility Score: inf
ROOT
ATOM      1  C   UNL     1      -5.751  -0.342   7.334  1.00  0.00     0.002 C 
ENDROOT
BRANCH   1   2
ATOM      2  C   UNL     1      -5.062  -0.092   5.970  1.00  0.00     0.002 C 
BRANCH   2   3
ATOM      3  C   UNL     1      -5.208   1.377   5.547  1.00  0.00     0.021 C 
BRANCH   3   4
ATOM      4  C   UNL     1      -4.046   2.187   4.886  1.00  0.00     0.116 C 
BRANCH   4   5
ATOM      5  N   UNL     1      -3.512   2.067   3.494  1.00  0.00    -0.356 N 
ATOM      6  C   UNL     1      -3.506   2.444   2.193  1.00  0.00     0.223 C 
ATOM      7  O   UNL     1      -2.330   2.312   1.779  1.00  0.00    -0.275 OA
ATOM      8  H   UNL     1      -2.823   1.367   3.552  1.00  0.00     0.163 HD
BRANCH   6   9
ATOM      9  C   UNL     1      -4.520   3.123   1.135  1.00  0.00     0.085 C 
BRANCH   9  10
ATOM     10  C   UNL     1      -3.806   3.098  -0.354  1.00  0.00     0.002 C 
ATOM     11  C   UNL     1      -7.266   2.376  -2.739  1.00  0.00     0.008 C 
ATOM     12  C   UNL     1      -5.721   2.543  -2.714  1.00  0.00    -0.011 C 
ATOM     13  C   UNL     1      -5.413   3.984  -2.252  1.00  0.00     0.004 C 
ATOM     14  C   UNL     1      -5.126   1.451  -1.813  1.00  0.00    -0.011 C 
ATOM     15  C   UNL     1      -4.180   4.201  -1.373  1.00  0.00     0.005 C 
ATOM     16  C   UNL     1      -3.807   1.757  -1.106  1.00  0.00     0.008 C 
ATOM     17  C   UNL     1      -5.137   0.032  -2.388  1.00  0.00     0.008 C 
ENDBRANCH   9  10
BRANCH   9  18
ATOM     18  C   UNL     1      -6.070   2.901   1.005  1.00  0.00     0.018 C 
ATOM     19  C   UNL     1      -6.878   3.615   2.088  1.00  0.00     0.021 C 
ATOM     20  C   UNL     1      -6.709   1.499   0.986  1.00  0.00     0.141 C 
ATOM     21  C   UNL     1      -6.862   2.686   3.272  1.00  0.00     0.137 C 
ATOM     22  S   UNL     1      -6.793   0.994   2.636  1.00  0.00     0.150 S 
ATOM     23  O   UNL     1      -5.534   0.332   2.878  1.00  0.00    -0.229 OA
ATOM     24  O   UNL     1      -8.054   0.323   2.881  1.00  0.00    -0.229 OA
ENDBRANCH   9  18
ENDBRANCH   6   9
ENDBRANCH   4   5
ENDBRANCH   3   4
ENDBRANCH   2   3
ENDBRANCH   1   2
BRANCH   1  25
ATOM     25  C   UNL     1      -7.236   0.063   7.446  1.00  0.00     0.021 C 
BRANCH  25  26
ATOM     26  C   UNL     1      -8.200  -0.782   6.615  1.00  0.00     0.116 C 
BRANCH  26  27
ATOM     27  N   UNL     1      -8.232  -2.151   7.108  1.00  0.00    -0.352 N 
ATOM     28  C   UNL     1      -9.101  -2.703   8.017  1.00  0.00     0.251 C 
ATOM     29  H   UNL     1      -7.547  -2.756   6.744  1.00  0.00     0.163 HD
ATOM     30  O   UNL     1      -8.785  -3.691   8.670  1.00  0.00    -0.269 OA
BRANCH  28  31
ATOM     31  C   UNL     1     -10.443  -2.108   8.187  1.00  0.00     0.039 A 
ATOM     32  C   UNL     1     -10.961  -1.913   9.469  1.00  0.00     0.014 A 
ATOM     33  C   UNL     1     -11.209  -1.798   7.059  1.00  0.00     0.014 A 
ATOM     34  C   UNL     1     -12.240  -1.371   9.620  1.00  0.00     0.010 A 
ATOM     35  C   UNL     1     -12.456  -1.201   7.212  1.00  0.00     0.010 A 
ATOM     36  C   UNL     1     -12.990  -0.997   8.493  1.00  0.00    -0.014 A 
BRANCH  36  37
ATOM     37  C   UNL     1     -14.348  -0.412   8.630  1.00  0.00     0.031 A 
ATOM     38  C   UNL     1     -15.544  -1.161   8.112  1.00  0.00     0.074 A 
ATOM     39  C   UNL     1     -14.492   0.815   9.165  1.00  0.00     0.049 A 
ATOM     40  N   UNL     1     -16.802  -0.798   8.085  1.00  0.00    -0.248 NA
ATOM     41  C   UNL     1     -15.289  -2.483   7.518  1.00  0.00     0.031 C 
ATOM     42  C   UNL     1     -13.398   1.656   9.652  1.00  0.00     0.029 A 
ATOM     43  N   UNL     1     -15.616   1.574   9.376  1.00  0.00    -0.354 N 
ATOM     44  C   UNL     1     -17.481  -1.840   7.466  1.00  0.00     0.074 A 
ATOM     45  C   UNL     1     -16.491  -2.818   7.075  1.00  0.00     0.031 C 
ATOM     46  C   UNL     1     -13.905   2.806  10.124  1.00  0.00     0.029 A 
ATOM     47  C   UNL     1     -15.354   2.799   9.940  1.00  0.00     0.049 A 
ATOM     48  H   UNL     1     -16.523   1.270   9.146  1.00  0.00     0.167 HD
ATOM     49  C   UNL     1     -18.814  -1.980   7.268  1.00  0.00     0.037 A 
ATOM     50  C   UNL     1     -16.189   3.803  10.265  1.00  0.00     0.037 A 
ATOM     51  C   UNL     1     -19.794  -1.006   7.673  1.00  0.00     0.049 A 
ATOM     52  C   UNL     1     -17.665   3.628  10.027  1.00  0.00     0.074 A 
ATOM     53  C   UNL     1     -21.172  -1.069   7.569  1.00  0.00     0.029 A 
ATOM     54  N   UNL     1     -19.493   0.216   8.259  1.00  0.00    -0.354 N 
ATOM     55  N   UNL     1     -18.305   2.608   9.508  1.00  0.00    -0.248 NA
ATOM     56  C   UNL     1     -18.537   4.741  10.428  1.00  0.00     0.031 C 
ATOM     57  C   UNL     1     -21.701   0.135   8.044  1.00  0.00     0.029 A 
ATOM     58  C   UNL     1     -20.658   0.926   8.499  1.00  0.00     0.049 A 
ATOM     59  H   UNL     1     -18.585   0.532   8.473  1.00  0.00     0.167 HD
ATOM     60  C   UNL     1     -19.652   2.943   9.542  1.00  0.00     0.074 A 
ATOM     61  C   UNL     1     -19.738   4.254  10.152  1.00  0.00     0.031 C 
ATOM     62  C   UNL     1     -20.721   2.231   9.107  1.00  0.00     0.037 A 
BRANCH  49  63
ATOM     63  C   UNL     1     -19.287  -3.233   6.585  1.00  0.00     0.064 A 
ATOM     64  C   UNL     1     -19.189  -4.490   7.203  1.00  0.00     0.173 A 
ATOM     65  C   UNL     1     -19.866  -3.177   5.309  1.00  0.00     0.173 A 
ATOM     66  F   UNL     1     -18.636  -4.603   8.420  1.00  0.00    -0.203 F 
ATOM     67  C   UNL     1     -19.619  -5.645   6.555  1.00  0.00     0.198 A 
ATOM     68  C   UNL     1     -20.326  -4.330   4.677  1.00  0.00     0.198 A 
ATOM     69  F   UNL     1     -19.992  -2.002   4.673  1.00  0.00    -0.203 F 
ATOM     70  F   UNL     1     -19.462  -6.839   7.143  1.00  0.00    -0.200 F 
ATOM     71  C   UNL     1     -20.193  -5.564   5.296  1.00  0.00     0.200 A 
ATOM     72  F   UNL     1     -20.895  -4.248   3.466  1.00  0.00    -0.200 F 
ATOM     73  F   UNL     1     -20.611  -6.676   4.676  1.00  0.00    -0.200 F 
ENDBRANCH  49  63
BRANCH  50  74
ATOM     74  C   UNL     1     -15.650   5.050  10.870  1.00  0.00     0.064 A 
ATOM     75  C   UNL     1     -15.919   5.378  12.207  1.00  0.00     0.173 A 
ATOM     76  C   UNL     1     -14.852   5.934  10.130  1.00  0.00     0.173 A 
ATOM     77  F   UNL     1     -16.692   4.574  12.951  1.00  0.00    -0.203 F 
ATOM     78  C   UNL     1     -15.428   6.553  12.773  1.00  0.00     0.198 A 
ATOM     79  C   UNL     1     -14.335   7.093  10.707  1.00  0.00     0.198 A 
ATOM     80  F   UNL     1     -14.558   5.664   8.850  1.00  0.00    -0.203 F 
ATOM     81  F   UNL     1     -15.738   6.864  14.039  1.00  0.00    -0.200 F 
ATOM     82  C   UNL     1     -14.630   7.406  12.025  1.00  0.00     0.200 A 
ATOM     83  F   UNL     1     -13.551   7.905   9.985  1.00  0.00    -0.200 F 
ATOM     84  F   UNL     1     -14.152   8.531  12.572  1.00  0.00    -0.200 F 
ENDBRANCH  50  74
BRANCH  62  85
ATOM     85  C   UNL     1     -22.078   2.846   9.300  1.00  0.00     0.064 A 
ATOM     86  C   UNL     1     -22.499   3.952   8.547  1.00  0.00     0.173 A 
ATOM     87  C   UNL     1     -22.982   2.295  10.220  1.00  0.00     0.173 A 
ATOM     88  F   UNL     1     -21.666   4.525   7.665  1.00  0.00    -0.203 F 
ATOM     89  C   UNL     1     -23.765   4.501   8.730  1.00  0.00     0.198 A 
ATOM     90  C   UNL     1     -24.259   2.825  10.376  1.00  0.00     0.198 A 
ATOM     91  F   UNL     1     -22.632   1.232  10.960  1.00  0.00    -0.203 F 
ATOM     92  F   UNL     1     -24.127   5.590   8.037  1.00  0.00    -0.200 F 
ATOM     93  C   UNL     1     -24.646   3.933   9.637  1.00  0.00     0.200 A 
ATOM     94  F   UNL     1     -25.115   2.265  11.242  1.00  0.00    -0.200 F 
ATOM     95  F   UNL     1     -25.868   4.458   9.806  1.00  0.00    -0.200 F 
ENDBRANCH  62  85
ENDBRANCH  36  37
ENDBRANCH  28  31
ENDBRANCH  26  27
ENDBRANCH  25  26
ENDBRANCH   1  25
TORSDOF 15
