REMARK SMILES Cc1ccc(S(=O)(=O)Nc2ccccc2/C=C/C(=O)NCCCCCCNC(=O)c2ccc(-c3c4nc(c(-c5c(F)c(F)c(F)c(F)c5F)c5ccc([nH]5)c(-c5c(F)c(F)c(F)c(F)c5F)c5nc(c(-c6c(F)c(F)c(F)c(F)c6F)c6ccc3[nH]6)C=C5)C=C4)cc2)cc1
REMARK SMILES IDX 22 1 21 2 20 3 18 4 19 5 17 7 16 8 15 9 10 10 11 11 12 12
REMARK SMILES IDX 14 13 13 14 9 15 6 17 7 18 8 19 5 20 1 21 2 22 3 23 94 24
REMARK SMILES IDX 4 25 93 26 23 27 24 28 25 29 26 30 27 31 28 32 29 34 30 35
REMARK SMILES IDX 31 36 92 37 32 38 91 39 33 40 34 41 35 42 85 43 36 44 90 45
REMARK SMILES IDX 84 46 86 47 37 48 89 49 83 50 82 51 38 53 70 54 50 55 69 56
REMARK SMILES IDX 51 57 54 58 68 59 87 60 52 61 53 62 67 64 88 65 55 66 39 67
REMARK SMILES IDX 40 68 48 69 41 70 42 71 46 72 49 73 43 74 44 75 47 76 45 77
REMARK SMILES IDX 71 78 72 79 80 80 73 81 74 82 78 83 81 84 75 85 76 86 79 87
REMARK SMILES IDX 77 88 56 89 57 90 65 91 58 92 59 93 63 94 66 95 60 96 61 97
REMARK SMILES IDX 64 98 62 99
REMARK H PARENT 20 6 9 16 27 33 86 52 54 63
REMARK Flexibility Score: inf
ROOT
ATOM      1  C   UNL     1       0.892  -0.253  -3.674  1.00  0.00     0.021 C 
ENDROOT
BRANCH   1   2
ATOM      2  C   UNL     1      -0.414   0.439  -4.058  1.00  0.00     0.116 C 
BRANCH   2   3
ATOM      3  N   UNL     1      -1.556  -0.417  -3.823  1.00  0.00    -0.353 N 
ATOM      4  C   UNL     1      -2.797  -0.120  -3.366  1.00  0.00     0.244 C 
ATOM      5  O   UNL     1      -3.701  -0.944  -3.484  1.00  0.00    -0.270 OA
ATOM      6  H   UNL     1      -1.409  -1.369  -4.030  1.00  0.00     0.163 HD
BRANCH   4   7
ATOM      7  C   UNL     1      -3.099   1.182  -2.731  1.00  0.00     0.072 C 
ATOM      8  C   UNL     1      -2.249   1.780  -1.887  1.00  0.00     0.016 C 
BRANCH   8   9
ATOM      9  C   UNL     1      -2.575   2.892  -0.991  1.00  0.00    -0.001 A 
ATOM     10  C   UNL     1      -3.484   2.723   0.072  1.00  0.00     0.056 A 
ATOM     11  C   UNL     1      -3.623   3.723   1.036  1.00  0.00     0.027 A 
ATOM     12  C   UNL     1      -2.858   4.890   0.946  1.00  0.00     0.002 A 
ATOM     13  C   UNL     1      -1.805   4.059  -1.065  1.00  0.00     0.010 A 
ATOM     14  C   UNL     1      -1.949   5.057  -0.100  1.00  0.00     0.001 A 
BRANCH  10  15
ATOM     15  N   UNL     1      -4.186   1.491   0.228  1.00  0.00    -0.279 N 
ATOM     16  H   UNL     1      -5.058   1.376  -0.213  1.00  0.00     0.180 HD
BRANCH  15  17
ATOM     17  S   UNL     1      -3.553   0.223   1.152  1.00  0.00     0.261 S 
ATOM     18  O   UNL     1      -4.189  -0.965   0.603  1.00  0.00    -0.201 OA
ATOM     19  O   UNL     1      -3.686   0.555   2.548  1.00  0.00    -0.201 OA
BRANCH  17  20
ATOM     20  C   UNL     1      -1.805   0.082   0.813  1.00  0.00     0.087 A 
ATOM     21  C   UNL     1       2.433  -0.226   0.062  1.00  0.00     0.044 C 
ATOM     22  C   UNL     1       0.956  -0.117   0.312  1.00  0.00    -0.051 A 
ATOM     23  C   UNL     1       0.098  -1.185   0.010  1.00  0.00     0.005 A 
ATOM     24  C   UNL     1       0.425   1.027   0.917  1.00  0.00     0.005 A 
ATOM     25  C   UNL     1      -1.281  -1.080   0.235  1.00  0.00     0.022 A 
ATOM     26  C   UNL     1      -0.941   1.111   1.201  1.00  0.00     0.022 A 
ENDBRANCH  17  20
ENDBRANCH  15  17
ENDBRANCH  10  15
ENDBRANCH   8   9
ENDBRANCH   4   7
ENDBRANCH   2   3
ENDBRANCH   1   2
BRANCH   1  27
ATOM     27  C   UNL     1       1.367  -1.299  -4.686  1.00  0.00     0.002 C 
BRANCH  27  28
ATOM     28  C   UNL     1       1.389  -0.829  -6.148  1.00  0.00     0.002 C 
BRANCH  28  29
ATOM     29  C   UNL     1       1.987   0.557  -6.380  1.00  0.00     0.021 C 
BRANCH  29  30
ATOM     30  C   UNL     1       3.478   0.625  -6.123  1.00  0.00     0.116 C 
BRANCH  30  31
ATOM     31  N   UNL     1       4.251   0.239  -7.290  1.00  0.00    -0.352 N 
ATOM     32  C   UNL     1       5.589   0.419  -7.571  1.00  0.00     0.251 C 
ATOM     33  H   UNL     1       3.739  -0.224  -7.992  1.00  0.00     0.163 HD
ATOM     34  O   UNL     1       6.001   0.252  -8.713  1.00  0.00    -0.269 OA
BRANCH  32  35
ATOM     35  C   UNL     1       6.551   0.569  -6.454  1.00  0.00     0.039 A 
ATOM     36  C   UNL     1       7.644  -0.310  -6.492  1.00  0.00     0.014 A 
ATOM     37  C   UNL     1       6.166   1.169  -5.263  1.00  0.00     0.014 A 
ATOM     38  C   UNL     1       8.119  -0.841  -5.307  1.00  0.00     0.010 A 
ATOM     39  C   UNL     1       6.514   0.537  -4.101  1.00  0.00     0.010 A 
ATOM     40  C   UNL     1       7.437  -0.510  -4.146  1.00  0.00    -0.014 A 
BRANCH  40  41
ATOM     41  C   UNL     1       7.649  -1.147  -2.873  1.00  0.00     0.031 A 
ATOM     42  C   UNL     1       8.566  -0.469  -1.952  1.00  0.00     0.074 A 
ATOM     43  C   UNL     1       6.860  -2.190  -2.538  1.00  0.00     0.049 A 
ATOM     44  N   UNL     1       9.102  -1.037  -0.938  1.00  0.00    -0.248 NA
ATOM     45  C   UNL     1       9.018   0.910  -2.141  1.00  0.00     0.031 C 
ATOM     46  C   UNL     1       6.637  -2.773  -1.221  1.00  0.00     0.029 A 
ATOM     47  N   UNL     1       6.208  -3.071  -3.417  1.00  0.00    -0.354 N 
ATOM     48  C   UNL     1       9.661  -0.045  -0.168  1.00  0.00     0.074 A 
ATOM     49  C   UNL     1       9.740   1.100  -1.033  1.00  0.00     0.031 C 
ATOM     50  C   UNL     1       6.196  -4.035  -1.374  1.00  0.00     0.029 A 
ATOM     51  C   UNL     1       6.276  -4.339  -2.792  1.00  0.00     0.049 A 
ATOM     52  H   UNL     1       5.792  -2.853  -4.282  1.00  0.00     0.167 HD
ATOM     53  C   UNL     1       9.813  -0.303   1.159  1.00  0.00     0.037 A 
ATOM     54  C   UNL     1       7.046  -5.330  -3.335  1.00  0.00     0.037 A 
ATOM     55  C   UNL     1       9.527  -1.718   1.412  1.00  0.00     0.049 A 
ATOM     56  C   UNL     1       8.183  -5.740  -2.424  1.00  0.00     0.074 A 
ATOM     57  C   UNL     1       8.434  -2.382   1.941  1.00  0.00     0.029 A 
ATOM     58  N   UNL     1      10.299  -2.676   0.764  1.00  0.00    -0.354 N 
ATOM     59  N   UNL     1       8.705  -4.961  -1.514  1.00  0.00    -0.248 NA
ATOM     60  C   UNL     1       8.783  -7.068  -2.434  1.00  0.00     0.031 C 
ATOM     61  C   UNL     1       8.529  -3.747   1.550  1.00  0.00     0.029 A 
ATOM     62  C   UNL     1       9.694  -3.914   0.818  1.00  0.00     0.049 A 
ATOM     63  H   UNL     1      11.161  -2.495   0.325  1.00  0.00     0.167 HD
ATOM     64  C   UNL     1       9.660  -5.651  -0.807  1.00  0.00     0.074 A 
ATOM     65  C   UNL     1       9.666  -6.965  -1.424  1.00  0.00     0.031 C 
ATOM     66  C   UNL     1      10.347  -5.078   0.231  1.00  0.00     0.037 A 
BRANCH  53  67
ATOM     67  C   UNL     1       9.981   0.709   2.272  1.00  0.00     0.064 A 
ATOM     68  C   UNL     1      10.015   0.262   3.613  1.00  0.00     0.173 A 
ATOM     69  C   UNL     1      10.006   2.112   2.126  1.00  0.00     0.173 A 
ATOM     70  F   UNL     1      10.021  -1.044   3.912  1.00  0.00    -0.203 F 
ATOM     71  C   UNL     1      10.027   1.139   4.703  1.00  0.00     0.198 A 
ATOM     72  C   UNL     1      10.051   2.987   3.216  1.00  0.00     0.198 A 
ATOM     73  F   UNL     1       9.952   2.713   0.937  1.00  0.00    -0.203 F 
ATOM     74  F   UNL     1      10.002   0.648   5.949  1.00  0.00    -0.200 F 
ATOM     75  C   UNL     1      10.046   2.502   4.504  1.00  0.00     0.200 A 
ATOM     76  F   UNL     1      10.074   4.311   2.999  1.00  0.00    -0.200 F 
ATOM     77  F   UNL     1      10.052   3.345   5.545  1.00  0.00    -0.200 F 
ENDBRANCH  53  67
BRANCH  54  78
ATOM     78  C   UNL     1       7.083  -5.247  -4.827  1.00  0.00     0.064 A 
ATOM     79  C   UNL     1       5.848  -5.342  -5.505  1.00  0.00     0.173 A 
ATOM     80  C   UNL     1       8.139  -4.623  -5.503  1.00  0.00     0.173 A 
ATOM     81  F   UNL     1       4.806  -5.947  -4.912  1.00  0.00    -0.203 F 
ATOM     82  C   UNL     1       5.627  -4.676  -6.708  1.00  0.00     0.198 A 
ATOM     83  C   UNL     1       7.922  -3.991  -6.732  1.00  0.00     0.198 A 
ATOM     84  F   UNL     1       9.342  -4.506  -4.923  1.00  0.00    -0.203 F 
ATOM     85  F   UNL     1       4.393  -4.637  -7.234  1.00  0.00    -0.200 F 
ATOM     86  C   UNL     1       6.656  -3.969  -7.303  1.00  0.00     0.200 A 
ATOM     87  F   UNL     1       8.918  -3.306  -7.313  1.00  0.00    -0.200 F 
ATOM     88  F   UNL     1       6.419  -3.233  -8.398  1.00  0.00    -0.200 F 
ENDBRANCH  54  78
BRANCH  66  89
ATOM     89  C   UNL     1      11.643  -5.564   0.870  1.00  0.00     0.064 A 
ATOM     90  C   UNL     1      12.480  -6.554   0.334  1.00  0.00     0.173 A 
ATOM     91  C   UNL     1      12.169  -4.911   2.021  1.00  0.00     0.173 A 
ATOM     92  F   UNL     1      12.199  -7.171  -0.818  1.00  0.00    -0.203 F 
ATOM     93  C   UNL     1      13.695  -6.912   0.933  1.00  0.00     0.198 A 
ATOM     94  C   UNL     1      13.418  -5.211   2.564  1.00  0.00     0.198 A 
ATOM     95  F   UNL     1      11.511  -3.929   2.652  1.00  0.00    -0.203 F 
ATOM     96  F   UNL     1      14.421  -7.908   0.406  1.00  0.00    -0.200 F 
ATOM     97  C   UNL     1      14.171  -6.230   2.035  1.00  0.00     0.200 A 
ATOM     98  F   UNL     1      13.888  -4.486   3.589  1.00  0.00    -0.200 F 
ATOM     99  F   UNL     1      15.360  -6.540   2.568  1.00  0.00    -0.200 F 
ENDBRANCH  66  89
ENDBRANCH  40  41
ENDBRANCH  32  35
ENDBRANCH  30  31
ENDBRANCH  29  30
ENDBRANCH  28  29
ENDBRANCH  27  28
ENDBRANCH   1  27
TORSDOF 17
