REMARK SMILES CCOc1ccc(-n2nnc(-c3nc(C)c(C(=O)NCCCCCCNC(=O)c4ccc(-c5c6nc(c(-c7c(F)c(F)c(F)c(F)c7F)c7ccc([nH]7)c(-c7c(F)c(F)c(F)c(F)c7F)c7nc(c(-c8c(F)c(F)c(F)c(F)c8F)c8ccc5[nH]8)C=C7)C=C6)cc4)s3)c2C)cc1
REMARK SMILES IDX 21 1 20 2 19 3 17 4 18 5 16 7 12 8 13 9 92 10 14 11 15 12
REMARK SMILES IDX 11 13 8 14 9 15 93 16 10 17 94 18 7 19 4 20 5 21 96 22 6 23
REMARK SMILES IDX 95 24 3 25 2 26 1 27 22 28 23 29 24 30 25 31 26 32 27 33
REMARK SMILES IDX 28 35 29 36 30 37 91 38 31 39 90 40 32 41 33 42 34 43 84 44
REMARK SMILES IDX 35 45 89 46 83 47 85 48 36 49 88 50 82 51 81 52 37 54 69 55
REMARK SMILES IDX 49 56 68 57 50 58 53 59 67 60 86 61 51 62 52 63 66 65 87 66
REMARK SMILES IDX 54 67 38 68 39 69 47 70 40 71 41 72 45 73 48 74 42 75 43 76
REMARK SMILES IDX 46 77 44 78 70 79 71 80 79 81 72 82 73 83 77 84 80 85 74 86
REMARK SMILES IDX 75 87 78 88 76 89 55 90 56 91 64 92 57 93 58 94 62 95 65 96
REMARK SMILES IDX 59 97 60 98 63 99 61 100
REMARK H PARENT 19 6 26 34 85 53 53 64
REMARK Flexibility Score: inf
ROOT
ATOM      1  C   UNL     1       8.523   8.549   2.901  1.00  0.00     0.021 C 
ENDROOT
BRANCH   1   2
ATOM      2  C   UNL     1       8.584   7.983   1.482  1.00  0.00     0.116 C 
BRANCH   2   3
ATOM      3  N   UNL     1       9.908   8.179   0.916  1.00  0.00    -0.351 N 
ATOM      4  C   UNL     1      10.960   7.307   0.730  1.00  0.00     0.263 C 
ATOM      5  O   UNL     1      11.965   7.781   0.200  1.00  0.00    -0.268 OA
ATOM      6  H   UNL     1      10.086   9.098   0.612  1.00  0.00     0.163 HD
BRANCH   4   7
ATOM      7  C   UNL     1      10.814   5.901   1.031  1.00  0.00     0.115 A 
ATOM      8  C   UNL     1       9.858   3.798   1.671  1.00  0.00     0.146 A 
ATOM      9  N   UNL     1      10.644   3.615   0.630  1.00  0.00    -0.239 NA
ATOM     10  S   UNL     1      10.073   5.303   2.465  1.00  0.00    -0.107 S 
ATOM     11  C   UNL     1      11.337   4.799   0.365  1.00  0.00     0.062 A 
ATOM     12  C   UNL     1      12.438   4.774  -0.637  1.00  0.00     0.068 C 
BRANCH   8  13
ATOM     13  C   UNL     1       8.723   2.909   2.059  1.00  0.00     0.145 A 
ATOM     14  N   UNL     1       6.679   2.207   2.347  1.00  0.00    -0.217 N 
ATOM     15  N   UNL     1       7.408   1.842   3.429  1.00  0.00    -0.061 NA
ATOM     16  C   UNL     1       7.453   2.996   1.506  1.00  0.00     0.072 A 
ATOM     17  N   UNL     1       8.659   2.240   3.247  1.00  0.00    -0.127 NA
ATOM     18  C   UNL     1       6.930   3.906   0.452  1.00  0.00     0.069 C 
BRANCH  14  19
ATOM     19  C   UNL     1       5.305   1.882   2.245  1.00  0.00     0.067 A 
ATOM     20  C   UNL     1       2.560   1.421   2.020  1.00  0.00     0.119 A 
ATOM     21  C   UNL     1       3.129   1.628   3.278  1.00  0.00     0.048 A 
ATOM     22  C   UNL     1       3.360   1.443   0.881  1.00  0.00     0.048 A 
ATOM     23  C   UNL     1       4.509   1.831   3.398  1.00  0.00     0.032 A 
ATOM     24  C   UNL     1       4.732   1.657   0.990  1.00  0.00     0.032 A 
BRANCH  20  25
ATOM     25  O   UNL     1       1.198   1.353   1.922  1.00  0.00    -0.494 OA
BRANCH  25  26
ATOM     26  C   UNL     1       0.704   0.068   1.521  1.00  0.00     0.226 C 
ATOM     27  C   UNL     1       0.663  -0.102   0.010  1.00  0.00     0.049 C 
ENDBRANCH  25  26
ENDBRANCH  20  25
ENDBRANCH  14  19
ENDBRANCH   8  13
ENDBRANCH   4   7
ENDBRANCH   2   3
ENDBRANCH   1   2
BRANCH   1  28
ATOM     28  C   UNL     1       8.395  10.076   2.935  1.00  0.00     0.002 C 
BRANCH  28  29
ATOM     29  C   UNL     1       7.184  10.648   2.182  1.00  0.00     0.002 C 
BRANCH  29  30
ATOM     30  C   UNL     1       5.822  10.033   2.538  1.00  0.00     0.021 C 
BRANCH  30  31
ATOM     31  C   UNL     1       5.361  10.362   3.950  1.00  0.00     0.116 C 
BRANCH  31  32
ATOM     32  N   UNL     1       5.089  11.789   4.104  1.00  0.00    -0.352 N 
ATOM     33  C   UNL     1       4.721  12.491   5.234  1.00  0.00     0.251 C 
ATOM     34  H   UNL     1       5.181  12.327   3.285  1.00  0.00     0.163 HD
ATOM     35  O   UNL     1       4.166  13.572   5.144  1.00  0.00    -0.269 OA
BRANCH  33  36
ATOM     36  C   UNL     1       5.029  11.924   6.558  1.00  0.00     0.039 A 
ATOM     37  C   UNL     1       4.150  12.088   7.635  1.00  0.00     0.014 A 
ATOM     38  C   UNL     1       6.233  11.244   6.718  1.00  0.00     0.014 A 
ATOM     39  C   UNL     1       4.468  11.507   8.860  1.00  0.00     0.010 A 
ATOM     40  C   UNL     1       6.480  10.556   7.875  1.00  0.00     0.010 A 
ATOM     41  C   UNL     1       5.633  10.737   8.964  1.00  0.00    -0.014 A 
BRANCH  41  42
ATOM     42  C   UNL     1       5.939   9.969  10.164  1.00  0.00     0.031 A 
ATOM     43  C   UNL     1       4.976   8.860  10.412  1.00  0.00     0.074 A 
ATOM     44  C   UNL     1       7.144  10.069  10.768  1.00  0.00     0.049 A 
ATOM     45  N   UNL     1       4.171   8.706  11.411  1.00  0.00    -0.248 NA
ATOM     46  C   UNL     1       4.756   7.886   9.325  1.00  0.00     0.031 C 
ATOM     47  C   UNL     1       8.287  10.890  10.349  1.00  0.00     0.029 A 
ATOM     48  N   UNL     1       7.662   9.357  11.807  1.00  0.00    -0.354 N 
ATOM     49  C   UNL     1       3.512   7.497  11.183  1.00  0.00     0.074 A 
ATOM     50  C   UNL     1       3.719   7.193   9.796  1.00  0.00     0.031 C 
ATOM     51  C   UNL     1       9.409  10.460  10.966  1.00  0.00     0.029 A 
ATOM     52  C   UNL     1       9.050   9.437  11.929  1.00  0.00     0.049 A 
ATOM     53  H   UNL     1       7.103   8.829  12.421  1.00  0.00     0.167 HD
ATOM     54  C   UNL     1       3.136   6.705  12.228  1.00  0.00     0.037 A 
ATOM     55  C   UNL     1       9.833   8.667  12.730  1.00  0.00     0.037 A 
ATOM     56  C   UNL     1       3.132   7.472  13.453  1.00  0.00     0.049 A 
ATOM     57  C   UNL     1       8.935   8.020  13.721  1.00  0.00     0.074 A 
ATOM     58  C   UNL     1       2.483   8.612  13.889  1.00  0.00     0.029 A 
ATOM     59  N   UNL     1       4.192   7.300  14.309  1.00  0.00    -0.354 N 
ATOM     60  N   UNL     1       8.313   8.664  14.668  1.00  0.00    -0.248 NA
ATOM     61  C   UNL     1       8.364   6.731  13.358  1.00  0.00     0.031 C 
ATOM     62  C   UNL     1       3.452   9.317  14.664  1.00  0.00     0.029 A 
ATOM     63  C   UNL     1       4.602   8.532  14.736  1.00  0.00     0.049 A 
ATOM     64  H   UNL     1       4.589   6.438  14.570  1.00  0.00     0.167 HD
ATOM     65  C   UNL     1       7.050   8.094  14.704  1.00  0.00     0.074 A 
ATOM     66  C   UNL     1       7.165   6.859  13.930  1.00  0.00     0.031 C 
ATOM     67  C   UNL     1       5.968   8.829  15.094  1.00  0.00     0.037 A 
BRANCH  54  68
ATOM     68  C   UNL     1       3.230   5.183  12.240  1.00  0.00     0.064 A 
ATOM     69  C   UNL     1       2.915   4.508  13.442  1.00  0.00     0.173 A 
ATOM     70  C   UNL     1       3.894   4.390  11.278  1.00  0.00     0.173 A 
ATOM     71  F   UNL     1       2.252   5.134  14.427  1.00  0.00    -0.203 F 
ATOM     72  C   UNL     1       3.369   3.215  13.714  1.00  0.00     0.198 A 
ATOM     73  C   UNL     1       4.306   3.082  11.536  1.00  0.00     0.198 A 
ATOM     74  F   UNL     1       4.260   4.849  10.080  1.00  0.00    -0.203 F 
ATOM     75  F   UNL     1       3.178   2.688  14.931  1.00  0.00    -0.200 F 
ATOM     76  C   UNL     1       4.083   2.510  12.768  1.00  0.00     0.200 A 
ATOM     77  F   UNL     1       4.994   2.414  10.599  1.00  0.00    -0.200 F 
ATOM     78  F   UNL     1       4.586   1.302  13.050  1.00  0.00    -0.200 F 
ENDBRANCH  54  68
BRANCH  55  79
ATOM     79  C   UNL     1      11.233   8.205  12.545  1.00  0.00     0.064 A 
ATOM     80  C   UNL     1      11.951   7.640  13.615  1.00  0.00     0.173 A 
ATOM     81  C   UNL     1      11.791   8.032  11.264  1.00  0.00     0.173 A 
ATOM     82  F   UNL     1      11.474   7.724  14.866  1.00  0.00    -0.203 F 
ATOM     83  C   UNL     1      13.129   6.913  13.413  1.00  0.00     0.198 A 
ATOM     84  C   UNL     1      12.972   7.312  11.064  1.00  0.00     0.198 A 
ATOM     85  F   UNL     1      11.152   8.472  10.171  1.00  0.00    -0.203 F 
ATOM     86  F   UNL     1      13.742   6.329  14.452  1.00  0.00    -0.200 F 
ATOM     87  C   UNL     1      13.631   6.738  12.135  1.00  0.00     0.200 A 
ATOM     88  F   UNL     1      13.430   7.121   9.818  1.00  0.00    -0.200 F 
ATOM     89  F   UNL     1      14.720   5.984  11.931  1.00  0.00    -0.200 F 
ENDBRANCH  55  79
BRANCH  67  90
ATOM     90  C   UNL     1       6.214  10.150  15.763  1.00  0.00     0.064 A 
ATOM     91  C   UNL     1       6.842  11.249  15.150  1.00  0.00     0.173 A 
ATOM     92  C   UNL     1       5.646  10.353  17.027  1.00  0.00     0.173 A 
ATOM     93  F   UNL     1       7.327  11.164  13.905  1.00  0.00    -0.203 F 
ATOM     94  C   UNL     1       6.924  12.483  15.796  1.00  0.00     0.198 A 
ATOM     95  C   UNL     1       5.693  11.595  17.651  1.00  0.00     0.198 A 
ATOM     96  F   UNL     1       4.992   9.351  17.637  1.00  0.00    -0.203 F 
ATOM     97  F   UNL     1       7.535  13.516  15.197  1.00  0.00    -0.200 F 
ATOM     98  C   UNL     1       6.340  12.657  17.040  1.00  0.00     0.200 A 
ATOM     99  F   UNL     1       5.083  11.769  18.831  1.00  0.00    -0.200 F 
ATOM    100  F   UNL     1       6.375  13.855  17.640  1.00  0.00    -0.200 F 
ENDBRANCH  67  90
ENDBRANCH  41  42
ENDBRANCH  33  36
ENDBRANCH  31  32
ENDBRANCH  30  31
ENDBRANCH  29  30
ENDBRANCH  28  29
ENDBRANCH   1  28
TORSDOF 17
