REMARK SMILES O=C(COc1ccccc1/C=N/N1[C@@H](S)N=N[C@H]1[C@@H]1C=C(c2ccccc2)N=N1)NCCCCCCNC(=O)c1ccc(-c2c3nc(c(-c4c(F)c(F)c(F)c(F)c4F)c4ccc([nH]4)c(-c4c(F)c(F)c(F)c(F)c4F)c4nc(c(-c5c(F)c(F)c(F)c(F)c5F)c5ccc2[nH]5)C=C4)C=C3)cc1
REMARK SMILES IDX 31 1 30 2 1 3 2 4 3 6 4 7 5 8 6 9 10 10 7 11 9 12 8 13 11 14
REMARK SMILES IDX 12 15 13 16 14 17 18 18 16 19 17 20 15 21 19 23 20 24 29 25
REMARK SMILES IDX 21 26 28 27 22 28 23 29 27 30 24 31 26 32 25 33 32 34 33 35
REMARK SMILES IDX 34 36 35 37 36 38 37 39 38 40 39 42 40 43 41 44 102 45 42 46
REMARK SMILES IDX 101 47 43 48 44 49 45 50 95 51 46 52 100 53 94 54 96 55
REMARK SMILES IDX 47 56 99 57 93 58 92 59 48 61 80 62 60 63 79 64 61 65 64 66
REMARK SMILES IDX 78 67 97 68 62 69 63 70 77 72 98 73 65 74 49 75 50 76 58 77
REMARK SMILES IDX 51 78 52 79 56 80 59 81 53 82 54 83 57 84 55 85 81 86 82 87
REMARK SMILES IDX 90 88 83 89 84 90 88 91 91 92 85 93 86 94 89 95 87 96 66 97
REMARK SMILES IDX 67 98 75 99 68 100 69 101 73 102 76 103 70 104 71 105 74 106
REMARK SMILES IDX 72 107
REMARK H PARENT 30 5 15 22 37 41 96 60 64 71
REMARK Flexibility Score: inf
ROOT
ATOM      1  C   UNL     1       3.000  -1.628   1.816  1.00  0.00     0.116 C 
ENDROOT
BRANCH   1   2
ATOM      2  N   UNL     1       3.196  -0.260   1.165  1.00  0.00    -0.353 N 
ATOM      3  O   UNL     1       1.507   0.038  -0.372  1.00  0.00    -0.271 OA
ATOM      4  C   UNL     1       2.373   0.494   0.348  1.00  0.00     0.257 C 
ATOM      5  H   UNL     1       4.063   0.161   1.363  1.00  0.00     0.163 HD
BRANCH   4   6
ATOM      6  C   UNL     1       2.310   2.002   0.174  1.00  0.00     0.329 C 
BRANCH   6   7
ATOM      7  O   UNL     1       2.499   2.902   1.191  1.00  0.00    -0.483 OA
BRANCH   7   8
ATOM      8  C   UNL     1       2.077   2.528   2.428  1.00  0.00     0.128 A 
ATOM      9  C   UNL     1       2.838   3.304   3.318  1.00  0.00     0.047 A 
ATOM     10  C   UNL     1       1.153   1.529   2.863  1.00  0.00     0.037 A 
ATOM     11  C   UNL     1       2.758   3.094   4.671  1.00  0.00     0.004 A 
ATOM     12  C   UNL     1       1.106   1.322   4.245  1.00  0.00     0.013 A 
ATOM     13  C   UNL     1       1.900   2.099   5.131  1.00  0.00     0.001 A 
BRANCH  10  14
ATOM     14  C   UNL     1       0.238   0.722   1.902  1.00  0.00     0.145 C 
ATOM     15  N   UNL     1       0.204  -0.595   1.763  1.00  0.00    -0.180 NA
BRANCH  15  16
ATOM     16  N   UNL     1      -0.333  -1.054   0.480  1.00  0.00    -0.233 NA
ATOM     17  C   UNL     1      -1.525  -1.917   0.549  1.00  0.00     0.298 C 
ATOM     18  C   UNL     1       0.494  -1.968  -0.581  1.00  0.00     0.274 C 
ATOM     19  N   UNL     1      -1.677  -2.608  -0.754  1.00  0.00    -0.153 NA
ATOM     20  N   UNL     1      -0.592  -2.617  -1.393  1.00  0.00    -0.161 NA
BRANCH  17  21
ATOM     21  S   UNL     1      -2.972  -0.970   1.123  1.00  0.00    -0.128 SA
ATOM     22  H   UNL     1      -3.214   0.054   0.262  1.00  0.00     0.106 HD
ENDBRANCH  17  21
BRANCH  18  23
ATOM     23  C   UNL     1       1.856  -1.762  -1.802  1.00  0.00     0.202 C 
ATOM     24  C   UNL     1       3.367  -1.693  -1.508  1.00  0.00     0.037 C 
ATOM     25  N   UNL     1       1.780  -0.518  -2.685  1.00  0.00    -0.177 NA
ATOM     26  C   UNL     1       3.866  -0.514  -1.914  1.00  0.00     0.091 C 
ATOM     27  N   UNL     1       2.898   0.140  -2.660  1.00  0.00    -0.155 NA
BRANCH  26  28
ATOM     28  C   UNL     1       5.088   0.141  -1.233  1.00  0.00     0.002 A 
ATOM     29  C   UNL     1       5.198   1.538  -1.065  1.00  0.00     0.010 A 
ATOM     30  C   UNL     1       6.034  -0.602  -0.491  1.00  0.00     0.010 A 
ATOM     31  C   UNL     1       6.005   2.128  -0.059  1.00  0.00     0.001 A 
ATOM     32  C   UNL     1       6.885  -0.018   0.478  1.00  0.00     0.001 A 
ATOM     33  C   UNL     1       6.833   1.345   0.733  1.00  0.00     0.000 A 
ENDBRANCH  26  28
ENDBRANCH  18  23
ENDBRANCH  15  16
ENDBRANCH  10  14
ENDBRANCH   7   8
ENDBRANCH   6   7
ENDBRANCH   4   6
ENDBRANCH   1   2
BRANCH   1  34
ATOM     34  C   UNL     1       3.107  -3.070   1.191  1.00  0.00     0.021 C 
BRANCH  34  35
ATOM     35  C   UNL     1       4.480  -3.751   1.097  1.00  0.00     0.002 C 
BRANCH  35  36
ATOM     36  C   UNL     1       5.066  -4.204   2.428  1.00  0.00     0.002 C 
BRANCH  36  37
ATOM     37  C   UNL     1       4.320  -5.344   3.133  1.00  0.00     0.021 C 
BRANCH  37  38
ATOM     38  C   UNL     1       4.367  -6.675   2.395  1.00  0.00     0.116 C 
BRANCH  38  39
ATOM     39  N   UNL     1       5.734  -7.173   2.250  1.00  0.00    -0.352 N 
ATOM     40  C   UNL     1       6.163  -8.342   1.652  1.00  0.00     0.251 C 
ATOM     41  H   UNL     1       6.440  -6.600   2.627  1.00  0.00     0.163 HD
ATOM     42  O   UNL     1       7.243  -8.832   1.915  1.00  0.00    -0.269 OA
BRANCH  40  43
ATOM     43  C   UNL     1       5.287  -8.961   0.646  1.00  0.00     0.039 A 
ATOM     44  C   UNL     1       5.137 -10.348   0.561  1.00  0.00     0.014 A 
ATOM     45  C   UNL     1       4.626  -8.106  -0.232  1.00  0.00     0.014 A 
ATOM     46  C   UNL     1       4.283 -10.862  -0.407  1.00  0.00     0.010 A 
ATOM     47  C   UNL     1       3.659  -8.598  -1.059  1.00  0.00     0.010 A 
ATOM     48  C   UNL     1       3.556  -9.973  -1.213  1.00  0.00    -0.014 A 
BRANCH  48  49
ATOM     49  C   UNL     1       2.596 -10.450  -2.189  1.00  0.00     0.031 A 
ATOM     50  C   UNL     1       1.493 -11.249  -1.604  1.00  0.00     0.074 A 
ATOM     51  C   UNL     1       2.591 -10.003  -3.462  1.00  0.00     0.049 A 
ATOM     52  N   UNL     1       1.272 -12.511  -1.762  1.00  0.00    -0.248 NA
ATOM     53  C   UNL     1       0.629 -10.615  -0.594  1.00  0.00     0.031 C 
ATOM     54  C   UNL     1       3.428  -8.967  -4.080  1.00  0.00     0.029 A 
ATOM     55  N   UNL     1       1.734 -10.326  -4.463  1.00  0.00    -0.354 N 
ATOM     56  C   UNL     1       0.116 -12.788  -1.042  1.00  0.00     0.074 A 
ATOM     57  C   UNL     1      -0.111 -11.650  -0.192  1.00  0.00     0.031 C 
ATOM     58  C   UNL     1       2.884  -8.588  -5.258  1.00  0.00     0.029 A 
ATOM     59  C   UNL     1       1.765  -9.461  -5.551  1.00  0.00     0.049 A 
ATOM     60  H   UNL     1       1.139 -11.110  -4.422  1.00  0.00     0.167 HD
ATOM     61  C   UNL     1      -0.695 -13.819  -1.409  1.00  0.00     0.037 A 
ATOM     62  C   UNL     1       0.872  -9.451  -6.573  1.00  0.00     0.037 A 
ATOM     63  C   UNL     1      -0.003 -14.728  -2.293  1.00  0.00     0.049 A 
ATOM     64  C   UNL     1       0.221 -10.793  -6.586  1.00  0.00     0.074 A 
ATOM     65  C   UNL     1       1.155 -15.477  -2.186  1.00  0.00     0.029 A 
ATOM     66  N   UNL     1      -0.259 -14.640  -3.641  1.00  0.00    -0.354 N 
ATOM     67  N   UNL     1       0.865 -11.898  -6.859  1.00  0.00    -0.248 NA
ATOM     68  C   UNL     1      -0.985 -10.955  -5.783  1.00  0.00     0.031 C 
ATOM     69  C   UNL     1       1.799 -15.335  -3.452  1.00  0.00     0.029 A 
ATOM     70  C   UNL     1       0.955 -14.595  -4.281  1.00  0.00     0.049 A 
ATOM     71  H   UNL     1      -1.145 -14.616  -4.068  1.00  0.00     0.167 HD
ATOM     72  C   UNL     1       0.405 -12.818  -5.927  1.00  0.00     0.074 A 
ATOM     73  C   UNL     1      -0.770 -12.191  -5.321  1.00  0.00     0.031 C 
ATOM     74  C   UNL     1       1.182 -13.860  -5.505  1.00  0.00     0.037 A 
BRANCH  61  75
ATOM     75  C   UNL     1      -2.201 -13.798  -1.301  1.00  0.00     0.064 A 
ATOM     76  C   UNL     1      -2.920 -14.965  -1.630  1.00  0.00     0.173 A 
ATOM     77  C   UNL     1      -2.974 -12.621  -1.193  1.00  0.00     0.173 A 
ATOM     78  F   UNL     1      -2.289 -16.141  -1.765  1.00  0.00    -0.203 F 
ATOM     79  C   UNL     1      -4.284 -14.933  -1.929  1.00  0.00     0.198 A 
ATOM     80  C   UNL     1      -4.346 -12.604  -1.438  1.00  0.00     0.198 A 
ATOM     81  F   UNL     1      -2.431 -11.422  -0.960  1.00  0.00    -0.203 F 
ATOM     82  F   UNL     1      -4.893 -16.041  -2.372  1.00  0.00    -0.200 F 
ATOM     83  C   UNL     1      -4.994 -13.750  -1.842  1.00  0.00     0.200 A 
ATOM     84  F   UNL     1      -5.012 -11.443  -1.362  1.00  0.00    -0.200 F 
ATOM     85  F   UNL     1      -6.285 -13.702  -2.193  1.00  0.00    -0.200 F 
ENDBRANCH  61  75
BRANCH  62  86
ATOM     86  C   UNL     1       0.293  -8.256  -7.239  1.00  0.00     0.064 A 
ATOM     87  C   UNL     1      -0.428  -8.364  -8.439  1.00  0.00     0.173 A 
ATOM     88  C   UNL     1       0.210  -7.013  -6.576  1.00  0.00     0.173 A 
ATOM     89  F   UNL     1      -0.448  -9.526  -9.109  1.00  0.00    -0.203 F 
ATOM     90  C   UNL     1      -1.192  -7.301  -8.938  1.00  0.00     0.198 A 
ATOM     91  C   UNL     1      -0.548  -5.952  -7.076  1.00  0.00     0.198 A 
ATOM     92  F   UNL     1       0.787  -6.830  -5.380  1.00  0.00    -0.203 F 
ATOM     93  F   UNL     1      -1.909  -7.460 -10.059  1.00  0.00    -0.200 F 
ATOM     94  C   UNL     1      -1.258  -6.099  -8.252  1.00  0.00     0.200 A 
ATOM     95  F   UNL     1      -0.630  -4.810  -6.380  1.00  0.00    -0.200 F 
ATOM     96  F   UNL     1      -2.032  -5.101  -8.699  1.00  0.00    -0.200 F 
ENDBRANCH  62  86
BRANCH  74  97
ATOM     97  C   UNL     1       2.482 -14.125  -6.216  1.00  0.00     0.064 A 
ATOM     98  C   UNL     1       3.559 -13.220  -6.258  1.00  0.00     0.173 A 
ATOM     99  C   UNL     1       2.713 -15.414  -6.716  1.00  0.00     0.173 A 
ATOM    100  F   UNL     1       3.460 -12.004  -5.710  1.00  0.00    -0.203 F 
ATOM    101  C   UNL     1       4.791 -13.580  -6.805  1.00  0.00     0.198 A 
ATOM    102  C   UNL     1       3.954 -15.782  -7.229  1.00  0.00     0.198 A 
ATOM    103  F   UNL     1       1.745 -16.341  -6.651  1.00  0.00    -0.203 F 
ATOM    104  F   UNL     1       5.799 -12.695  -6.832  1.00  0.00    -0.200 F 
ATOM    105  C   UNL     1       4.990 -14.864  -7.282  1.00  0.00     0.200 A 
ATOM    106  F   UNL     1       4.156 -17.041  -7.640  1.00  0.00    -0.200 F 
ATOM    107  F   UNL     1       6.187 -15.226  -7.765  1.00  0.00    -0.200 F 
ENDBRANCH  74  97
ENDBRANCH  48  49
ENDBRANCH  40  43
ENDBRANCH  38  39
ENDBRANCH  37  38
ENDBRANCH  36  37
ENDBRANCH  35  36
ENDBRANCH  34  35
ENDBRANCH   1  34
TORSDOF 20
