REMARK SMILES CC(C)C[N@@H+](Cc1ccc(C(=O)NCCCCCCNC(=O)c2ccc(-c3c4nc(c(-c5c(F)c(F)c(F)c(F)c5F)c5ccc([nH]5)c(-c5c(F)c(F)c(F)c(F)c5F)c5nc(c(-c6c(F)c(F)c(F)c(F)c6F)c6ccc3[nH]6)C=C5)C=C4)cc2)cn1)C1CC1
REMARK SMILES IDX 15 1 14 2 13 3 11 4 12 5 10 7 7 8 8 9 87 10 9 11 86 12 6 13
REMARK SMILES IDX 5 14 4 16 2 17 1 18 3 19 88 20 89 21 90 22 16 23 17 24 18 25
REMARK SMILES IDX 19 26 20 27 21 28 22 30 23 31 24 32 85 33 25 34 84 35 26 36
REMARK SMILES IDX 27 37 28 38 78 39 29 40 83 41 77 42 79 43 30 44 82 45 76 46
REMARK SMILES IDX 75 47 31 49 63 50 43 51 62 52 44 53 47 54 61 55 80 56 45 57
REMARK SMILES IDX 46 58 60 60 81 61 48 62 32 63 33 64 41 65 34 66 35 67 39 68
REMARK SMILES IDX 42 69 36 70 37 71 40 72 38 73 64 74 65 75 73 76 66 77 67 78
REMARK SMILES IDX 71 79 74 80 68 81 69 82 72 83 70 84 49 85 50 86 58 87 51 88
REMARK SMILES IDX 52 89 56 90 59 91 53 92 54 93 57 94 55 95
REMARK H PARENT 13 6 5 15 20 29 79 48 47 59
REMARK Flexibility Score: inf
ROOT
ATOM      1  C   UNL     1      -4.908  -0.254   5.869  1.00  0.00     0.021 C 
ENDROOT
BRANCH   1   2
ATOM      2  C   UNL     1      -5.781   0.392   4.791  1.00  0.00     0.116 C 
BRANCH   2   3
ATOM      3  N   UNL     1      -5.240   1.685   4.430  1.00  0.00    -0.352 N 
ATOM      4  C   UNL     1      -4.613   2.141   3.303  1.00  0.00     0.252 C 
ATOM      5  O   UNL     1      -4.273   3.323   3.278  1.00  0.00    -0.269 OA
ATOM      6  H   UNL     1      -5.343   2.368   5.131  1.00  0.00     0.163 HD
BRANCH   4   7
ATOM      7  C   UNL     1      -4.348   1.296   2.119  1.00  0.00     0.058 A 
ATOM      8  C   UNL     1      -3.626  -0.000  -0.218  1.00  0.00     0.095 A 
ATOM      9  C   UNL     1      -3.817  -0.741   0.949  1.00  0.00     0.030 A 
ATOM     10  N   UNL     1      -3.884   1.328  -0.268  1.00  0.00    -0.255 NA
ATOM     11  C   UNL     1      -4.122  -0.077   2.134  1.00  0.00     0.017 A 
ATOM     12  C   UNL     1      -4.229   1.941   0.893  1.00  0.00     0.125 A 
BRANCH   8  13
ATOM     13  C   UNL     1      -2.911  -0.647  -1.401  1.00  0.00     0.319 C 
BRANCH  13  14
ATOM     14  N   UNL     1      -1.423  -0.638  -1.341  1.00  0.00    -0.327 N 
ATOM     15  H   UNL     1      -1.156  -1.316  -2.055  1.00  0.00     0.348 HD
BRANCH  14  16
ATOM     16  C   UNL     1      -0.903  -1.167  -0.068  1.00  0.00     0.265 C 
BRANCH  16  17
ATOM     17  C   UNL     1       0.610  -1.453   0.080  1.00  0.00     0.038 C 
ATOM     18  C   UNL     1       1.444  -0.191   0.320  1.00  0.00     0.013 C 
ATOM     19  C   UNL     1       0.814  -2.390   1.283  1.00  0.00     0.013 C 
ENDBRANCH  16  17
ENDBRANCH  14  16
BRANCH  14  20
ATOM     20  C   UNL     1      -0.723   0.538  -1.881  1.00  0.00     0.184 C 
ATOM     21  C   UNL     1      -1.383   1.725  -2.527  1.00  0.00     0.071 C 
ATOM     22  C   UNL     1      -0.742   1.870  -1.179  1.00  0.00     0.071 C 
ENDBRANCH  14  20
ENDBRANCH  13  14
ENDBRANCH   8  13
ENDBRANCH   4   7
ENDBRANCH   2   3
ENDBRANCH   1   2
BRANCH   1  23
ATOM     23  C   UNL     1      -5.174   0.317   7.269  1.00  0.00     0.002 C 
BRANCH  23  24
ATOM     24  C   UNL     1      -6.617   0.145   7.761  1.00  0.00     0.002 C 
BRANCH  24  25
ATOM     25  C   UNL     1      -7.140  -1.292   7.704  1.00  0.00     0.021 C 
BRANCH  25  26
ATOM     26  C   UNL     1      -6.352  -2.264   8.573  1.00  0.00     0.116 C 
BRANCH  26  27
ATOM     27  N   UNL     1      -6.475  -1.931   9.984  1.00  0.00    -0.352 N 
ATOM     28  C   UNL     1      -6.941  -2.707  11.014  1.00  0.00     0.251 C 
ATOM     29  H   UNL     1      -6.185  -1.024  10.233  1.00  0.00     0.163 HD
ATOM     30  O   UNL     1      -7.228  -2.205  12.094  1.00  0.00    -0.269 OA
BRANCH  28  31
ATOM     31  C   UNL     1      -7.096  -4.160  10.807  1.00  0.00     0.039 A 
ATOM     32  C   UNL     1      -8.255  -4.793  11.261  1.00  0.00     0.014 A 
ATOM     33  C   UNL     1      -6.090  -4.891  10.170  1.00  0.00     0.014 A 
ATOM     34  C   UNL     1      -8.425  -6.160  11.033  1.00  0.00     0.010 A 
ATOM     35  C   UNL     1      -6.294  -6.233   9.877  1.00  0.00     0.010 A 
ATOM     36  C   UNL     1      -7.458  -6.883  10.316  1.00  0.00    -0.014 A 
BRANCH  36  37
ATOM     37  C   UNL     1      -7.623  -8.329  10.033  1.00  0.00     0.031 A 
ATOM     38  C   UNL     1      -6.652  -9.318  10.612  1.00  0.00     0.074 A 
ATOM     39  C   UNL     1      -8.596  -8.739   9.197  1.00  0.00     0.049 A 
ATOM     40  N   UNL     1      -6.551 -10.605  10.399  1.00  0.00    -0.248 NA
ATOM     41  C   UNL     1      -5.636  -8.781  11.532  1.00  0.00     0.031 C 
ATOM     42  C   UNL     1      -9.576  -7.868   8.547  1.00  0.00     0.029 A 
ATOM     43  N   UNL     1      -8.909  -9.994   8.738  1.00  0.00    -0.354 N 
ATOM     44  C   UNL     1      -5.455 -11.025  11.141  1.00  0.00     0.074 A 
ATOM     45  C   UNL     1      -4.889  -9.849  11.764  1.00  0.00     0.031 C 
ATOM     46  C   UNL     1     -10.392  -8.616   7.787  1.00  0.00     0.029 A 
ATOM     47  C   UNL     1      -9.965 -10.010   7.860  1.00  0.00     0.049 A 
ATOM     48  H   UNL     1      -8.423 -10.805   9.012  1.00  0.00     0.167 HD
ATOM     49  C   UNL     1      -4.979 -12.282  11.305  1.00  0.00     0.037 A 
ATOM     50  C   UNL     1     -10.515 -11.034   7.180  1.00  0.00     0.037 A 
ATOM     51  C   UNL     1      -5.562 -13.449  10.698  1.00  0.00     0.049 A 
ATOM     52  C   UNL     1      -9.954 -12.419   7.364  1.00  0.00     0.074 A 
ATOM     53  C   UNL     1      -5.190 -14.774  10.840  1.00  0.00     0.029 A 
ATOM     54  N   UNL     1      -6.643 -13.429   9.827  1.00  0.00    -0.354 N 
ATOM     55  N   UNL     1      -8.953 -12.815   8.113  1.00  0.00    -0.248 NA
ATOM     56  C   UNL     1     -10.603 -13.501   6.611  1.00  0.00     0.031 C 
ATOM     57  C   UNL     1      -6.009 -15.549  10.014  1.00  0.00     0.029 A 
ATOM     58  C   UNL     1      -6.935 -14.716   9.406  1.00  0.00     0.049 A 
ATOM     59  H   UNL     1      -7.131 -12.620   9.550  1.00  0.00     0.167 HD
ATOM     60  C   UNL     1      -8.876 -14.192   7.950  1.00  0.00     0.074 A 
ATOM     61  C   UNL     1      -9.938 -14.564   7.039  1.00  0.00     0.031 C 
ATOM     62  C   UNL     1      -8.006 -15.070   8.508  1.00  0.00     0.037 A 
BRANCH  49  63
ATOM     63  C   UNL     1      -3.765 -12.458  12.173  1.00  0.00     0.064 A 
ATOM     64  C   UNL     1      -3.811 -12.242  13.559  1.00  0.00     0.173 A 
ATOM     65  C   UNL     1      -2.547 -12.875  11.616  1.00  0.00     0.173 A 
ATOM     66  F   UNL     1      -4.947 -11.831  14.142  1.00  0.00    -0.203 F 
ATOM     67  C   UNL     1      -2.675 -12.403  14.348  1.00  0.00     0.198 A 
ATOM     68  C   UNL     1      -1.422 -13.069  12.413  1.00  0.00     0.198 A 
ATOM     69  F   UNL     1      -2.447 -13.101  10.297  1.00  0.00    -0.203 F 
ATOM     70  F   UNL     1      -2.729 -12.135  15.660  1.00  0.00    -0.200 F 
ATOM     71  C   UNL     1      -1.484 -12.824  13.776  1.00  0.00     0.200 A 
ATOM     72  F   UNL     1      -0.276 -13.490  11.861  1.00  0.00    -0.200 F 
ATOM     73  F   UNL     1      -0.393 -12.985  14.538  1.00  0.00    -0.200 F 
ENDBRANCH  49  63
BRANCH  50  74
ATOM     74  C   UNL     1     -11.671 -10.791   6.278  1.00  0.00     0.064 A 
ATOM     75  C   UNL     1     -12.944 -11.290   6.591  1.00  0.00     0.173 A 
ATOM     76  C   UNL     1     -11.531 -10.064   5.087  1.00  0.00     0.173 A 
ATOM     77  F   UNL     1     -13.125 -12.007   7.710  1.00  0.00    -0.203 F 
ATOM     78  C   UNL     1     -14.026 -11.090   5.736  1.00  0.00     0.198 A 
ATOM     79  C   UNL     1     -12.621  -9.838   4.249  1.00  0.00     0.198 A 
ATOM     80  F   UNL     1     -10.337  -9.559   4.744  1.00  0.00    -0.203 F 
ATOM     81  F   UNL     1     -15.220 -11.620   6.036  1.00  0.00    -0.200 F 
ATOM     82  C   UNL     1     -13.865 -10.360   4.569  1.00  0.00     0.200 A 
ATOM     83  F   UNL     1     -12.464  -9.117   3.130  1.00  0.00    -0.200 F 
ATOM     84  F   UNL     1     -14.906 -10.165   3.749  1.00  0.00    -0.200 F 
ENDBRANCH  50  74
BRANCH  62  85
ATOM     85  C   UNL     1      -8.194 -16.526   8.191  1.00  0.00     0.064 A 
ATOM     86  C   UNL     1      -7.908 -17.051   6.923  1.00  0.00     0.173 A 
ATOM     87  C   UNL     1      -8.625 -17.415   9.188  1.00  0.00     0.173 A 
ATOM     88  F   UNL     1      -7.507 -16.241   5.931  1.00  0.00    -0.203 F 
ATOM     89  C   UNL     1      -8.070 -18.408   6.658  1.00  0.00     0.198 A 
ATOM     90  C   UNL     1      -8.753 -18.776   8.929  1.00  0.00     0.198 A 
ATOM     91  F   UNL     1      -8.905 -16.965  10.421  1.00  0.00    -0.203 F 
ATOM     92  F   UNL     1      -7.838 -18.880   5.425  1.00  0.00    -0.200 F 
ATOM     93  C   UNL     1      -8.483 -19.270   7.663  1.00  0.00     0.200 A 
ATOM     94  F   UNL     1      -9.136 -19.609   9.906  1.00  0.00    -0.200 F 
ATOM     95  F   UNL     1      -8.628 -20.578   7.408  1.00  0.00    -0.200 F 
ENDBRANCH  62  85
ENDBRANCH  36  37
ENDBRANCH  28  31
ENDBRANCH  26  27
ENDBRANCH  25  26
ENDBRANCH  24  25
ENDBRANCH  23  24
ENDBRANCH   1  23
TORSDOF 18
