REMARK SMILES C[C@@H]1C[N@@H+]([C@@H](C)CC(=O)NCCCCCCNC(=O)c2ccc(-c3c4nc(c(-c5c(F)c(F)c(F)c(F)c5F)c5ccc([nH]5)c(-c5c(F)c(F)c(F)c(F)c5F)c5nc(c(-c6c(F)c(F)c(F)c(F)c6F)c6ccc3[nH]6)C=C5)C=C4)cc2)C[C@H](C)O1
REMARK SMILES IDX 13 1 12 2 11 3 10 4 8 5 9 6 7 8 5 9 6 10 4 11 1 12 2 13 3 14
REMARK SMILES IDX 86 15 84 16 83 17 85 19 14 20 15 21 16 22 17 23 18 24 19 26
REMARK SMILES IDX 20 27 21 28 82 29 22 30 81 31 23 32 24 33 25 34 75 35 26 36
REMARK SMILES IDX 80 37 74 38 76 39 27 40 79 41 73 42 72 43 28 45 60 46 40 47
REMARK SMILES IDX 59 48 41 49 44 50 58 51 77 52 42 53 43 54 57 56 78 57 45 58
REMARK SMILES IDX 29 59 30 60 38 61 31 62 32 63 36 64 39 65 33 66 34 67 37 68
REMARK SMILES IDX 35 69 61 70 62 71 70 72 63 73 64 74 68 75 71 76 65 77 66 78
REMARK SMILES IDX 69 79 67 80 46 81 47 82 55 83 48 84 49 85 53 86 56 87 50 88
REMARK SMILES IDX 51 89 54 90 52 91
REMARK H PARENT 10 7 4 18 17 25 76 44 44 55
REMARK Flexibility Score: inf
ROOT
ATOM      1  C   UNL     1       4.007  -0.699  -2.366  1.00  0.00     0.002 C 
ENDROOT
BRANCH   1   2
ATOM      2  C   UNL     1       2.550  -0.237  -2.379  1.00  0.00     0.021 C 
BRANCH   2   3
ATOM      3  C   UNL     1       2.021   0.231  -3.735  1.00  0.00     0.116 C 
BRANCH   3   4
ATOM      4  N   UNL     1       1.124  -0.757  -4.307  1.00  0.00    -0.356 N 
ATOM      5  C   UNL     1      -0.226  -0.709  -4.477  1.00  0.00     0.225 C 
ATOM      6  O   UNL     1      -0.804  -1.722  -4.875  1.00  0.00    -0.275 OA
ATOM      7  H   UNL     1       1.557  -1.585  -4.618  1.00  0.00     0.163 HD
BRANCH   5   8
ATOM      8  C   UNL     1      -0.998   0.567  -4.205  1.00  0.00     0.164 C 
BRANCH   8   9
ATOM      9  C   UNL     1      -1.651   0.570  -2.804  1.00  0.00     0.190 C 
ATOM     10  C   UNL     1      -3.101   1.077  -2.912  1.00  0.00     0.076 C 
BRANCH   9  11
ATOM     11  N   UNL     1      -0.827   1.278  -1.789  1.00  0.00    -0.328 N 
ATOM     12  C   UNL     1       0.890   0.627   0.816  1.00  0.00     0.045 C 
ATOM     13  C   UNL     1      -0.314   1.547   0.635  1.00  0.00     0.170 C 
ATOM     14  C   UNL     1      -1.306   1.014  -0.414  1.00  0.00     0.294 C 
ATOM     15  O   UNL     1       0.070   2.915   0.448  1.00  0.00    -0.364 OA
ATOM     16  C   UNL     1       0.138   3.426  -0.890  1.00  0.00     0.170 C 
ATOM     17  C   UNL     1      -0.788   2.745  -1.929  1.00  0.00     0.294 C 
ATOM     18  H   UNL     1       0.108   0.905  -1.955  1.00  0.00     0.348 HD
ATOM     19  C   UNL     1       1.582   3.513  -1.361  1.00  0.00     0.045 C 
ENDBRANCH   9  11
ENDBRANCH   8   9
ENDBRANCH   5   8
ENDBRANCH   3   4
ENDBRANCH   2   3
ENDBRANCH   1   2
BRANCH   1  20
ATOM     20  C   UNL     1       5.057   0.383  -2.651  1.00  0.00     0.002 C 
BRANCH  20  21
ATOM     21  C   UNL     1       5.022   1.642  -1.775  1.00  0.00     0.021 C 
BRANCH  21  22
ATOM     22  C   UNL     1       5.025   1.425  -0.261  1.00  0.00     0.116 C 
BRANCH  22  23
ATOM     23  N   UNL     1       6.237   0.770   0.196  1.00  0.00    -0.352 N 
ATOM     24  C   UNL     1       7.185   1.165   1.105  1.00  0.00     0.251 C 
ATOM     25  H   UNL     1       6.408  -0.107  -0.217  1.00  0.00     0.163 HD
ATOM     26  O   UNL     1       8.230   0.525   1.193  1.00  0.00    -0.269 OA
BRANCH  24  27
ATOM     27  C   UNL     1       6.989   2.345   1.983  1.00  0.00     0.039 A 
ATOM     28  C   UNL     1       8.099   3.155   2.252  1.00  0.00     0.014 A 
ATOM     29  C   UNL     1       5.776   2.606   2.627  1.00  0.00     0.014 A 
ATOM     30  C   UNL     1       7.992   4.230   3.140  1.00  0.00     0.010 A 
ATOM     31  C   UNL     1       5.655   3.711   3.479  1.00  0.00     0.010 A 
ATOM     32  C   UNL     1       6.766   4.524   3.756  1.00  0.00    -0.014 A 
BRANCH  32  33
ATOM     33  C   UNL     1       6.655   5.664   4.705  1.00  0.00     0.031 A 
ATOM     34  C   UNL     1       6.450   5.422   6.175  1.00  0.00     0.074 A 
ATOM     35  C   UNL     1       6.720   6.927   4.243  1.00  0.00     0.049 A 
ATOM     36  N   UNL     1       6.345   6.290   7.152  1.00  0.00    -0.248 NA
ATOM     37  C   UNL     1       6.330   4.021   6.603  1.00  0.00     0.031 C 
ATOM     38  C   UNL     1       6.869   7.304   2.838  1.00  0.00     0.029 A 
ATOM     39  N   UNL     1       6.662   8.128   4.908  1.00  0.00    -0.354 N 
ATOM     40  C   UNL     1       6.141   5.543   8.304  1.00  0.00     0.074 A 
ATOM     41  C   UNL     1       6.089   4.154   7.899  1.00  0.00     0.031 C 
ATOM     42  C   UNL     1       6.903   8.643   2.746  1.00  0.00     0.029 A 
ATOM     43  C   UNL     1       6.762   9.219   4.081  1.00  0.00     0.049 A 
ATOM     44  H   UNL     1       6.559   8.199   5.884  1.00  0.00     0.167 HD
ATOM     45  C   UNL     1       6.027   5.972   9.585  1.00  0.00     0.037 A 
ATOM     46  C   UNL     1       6.745  10.535   4.365  1.00  0.00     0.037 A 
ATOM     47  C   UNL     1       6.094   7.350   9.995  1.00  0.00     0.049 A 
ATOM     48  C   UNL     1       6.640  10.988   5.794  1.00  0.00     0.074 A 
ATOM     49  C   UNL     1       6.043   7.875  11.276  1.00  0.00     0.029 A 
ATOM     50  N   UNL     1       6.225   8.426   9.130  1.00  0.00    -0.354 N 
ATOM     51  N   UNL     1       6.519  10.268   6.882  1.00  0.00    -0.248 NA
ATOM     52  C   UNL     1       6.684  12.438   6.036  1.00  0.00     0.031 C 
ATOM     53  C   UNL     1       6.108   9.270  11.182  1.00  0.00     0.029 A 
ATOM     54  C   UNL     1       6.239   9.612   9.847  1.00  0.00     0.049 A 
ATOM     55  H   UNL     1       6.296   8.357   8.150  1.00  0.00     0.167 HD
ATOM     56  C   UNL     1       6.492  11.171   7.936  1.00  0.00     0.074 A 
ATOM     57  C   UNL     1       6.624  12.492   7.360  1.00  0.00     0.031 C 
ATOM     58  C   UNL     1       6.370  10.923   9.263  1.00  0.00     0.037 A 
BRANCH  45  59
ATOM     59  C   UNL     1       5.819   4.928  10.643  1.00  0.00     0.064 A 
ATOM     60  C   UNL     1       6.852   4.058  11.025  1.00  0.00     0.173 A 
ATOM     61  C   UNL     1       4.586   4.812  11.301  1.00  0.00     0.173 A 
ATOM     62  F   UNL     1       8.048   4.123  10.420  1.00  0.00    -0.203 F 
ATOM     63  C   UNL     1       6.647   3.088  12.003  1.00  0.00     0.198 A 
ATOM     64  C   UNL     1       4.393   3.859  12.298  1.00  0.00     0.198 A 
ATOM     65  F   UNL     1       3.569   5.625  10.980  1.00  0.00    -0.203 F 
ATOM     66  F   UNL     1       7.633   2.236  12.317  1.00  0.00    -0.200 F 
ATOM     67  C   UNL     1       5.420   2.993  12.642  1.00  0.00     0.200 A 
ATOM     68  F   UNL     1       3.210   3.775  12.923  1.00  0.00    -0.200 F 
ATOM     69  F   UNL     1       5.225   2.060  13.584  1.00  0.00    -0.200 F 
ENDBRANCH  45  59
BRANCH  46  70
ATOM     70  C   UNL     1       6.869  11.519   3.260  1.00  0.00     0.064 A 
ATOM     71  C   UNL     1       8.059  12.232   3.062  1.00  0.00     0.173 A 
ATOM     72  C   UNL     1       5.812  11.745   2.368  1.00  0.00     0.173 A 
ATOM     73  F   UNL     1       9.089  12.062   3.904  1.00  0.00    -0.203 F 
ATOM     74  C   UNL     1       8.184  13.141   2.014  1.00  0.00     0.198 A 
ATOM     75  C   UNL     1       5.946  12.638   1.308  1.00  0.00     0.198 A 
ATOM     76  F   UNL     1       4.655  11.082   2.516  1.00  0.00    -0.203 F 
ATOM     77  F   UNL     1       9.323  13.831   1.862  1.00  0.00    -0.200 F 
ATOM     78  C   UNL     1       7.131  13.338   1.134  1.00  0.00     0.200 A 
ATOM     79  F   UNL     1       4.931  12.817   0.452  1.00  0.00    -0.200 F 
ATOM     80  F   UNL     1       7.256  14.205   0.120  1.00  0.00    -0.200 F 
ENDBRANCH  46  70
BRANCH  58  81
ATOM     81  C   UNL     1       6.391  12.103  10.189  1.00  0.00     0.064 A 
ATOM     82  C   UNL     1       5.292  12.967  10.299  1.00  0.00     0.173 A 
ATOM     83  C   UNL     1       7.506  12.349  11.004  1.00  0.00     0.173 A 
ATOM     84  F   UNL     1       4.208  12.782   9.530  1.00  0.00    -0.203 F 
ATOM     85  C   UNL     1       5.316  14.047  11.178  1.00  0.00     0.198 A 
ATOM     86  C   UNL     1       7.518  13.416  11.898  1.00  0.00     0.198 A 
ATOM     87  F   UNL     1       8.581  11.549  10.938  1.00  0.00    -0.203 F 
ATOM     88  F   UNL     1       4.270  14.882  11.240  1.00  0.00    -0.200 F 
ATOM     89  C   UNL     1       6.426  14.267  11.981  1.00  0.00     0.200 A 
ATOM     90  F   UNL     1       8.587  13.623  12.679  1.00  0.00    -0.200 F 
ATOM     91  F   UNL     1       6.445  15.303  12.830  1.00  0.00    -0.200 F 
ENDBRANCH  58  81
ENDBRANCH  32  33
ENDBRANCH  24  27
ENDBRANCH  22  23
ENDBRANCH  21  22
ENDBRANCH  20  21
ENDBRANCH   1  20
TORSDOF 15
