REMARK SMILES O=C(CS(=O)(=O)NCc1ccc(N2CCOCC2)nc1)NCCCCCCNC(=O)c1ccc(-c2c3nc(c(-c4c(F)c(F)c(F)c(F)c4F)c4ccc([nH]4)c(-c4c(F)c(F)c(F)c(F)c4F)c4nc(c(-c5c(F)c(F)c(F)c(F)c5F)c5ccc2[nH]5)C=C4)C=C3)cc1
REMARK SMILES IDX 23 1 22 2 21 3 1 4 2 5 3 7 4 8 5 9 6 10 7 11 8 13 9 14 10 15
REMARK SMILES IDX 20 16 11 17 19 18 12 19 13 20 14 21 18 22 15 23 17 24 16 25
REMARK SMILES IDX 24 26 25 27 26 28 27 29 28 30 29 31 30 33 31 34 32 35 93 36
REMARK SMILES IDX 33 37 92 38 34 39 35 40 36 41 86 42 37 43 91 44 85 45 87 46
REMARK SMILES IDX 38 47 90 48 84 49 83 50 39 52 71 53 51 54 70 55 52 56 55 57
REMARK SMILES IDX 69 58 88 59 53 60 54 61 68 63 89 64 56 65 40 66 41 67 49 68
REMARK SMILES IDX 42 69 43 70 47 71 50 72 44 73 45 74 48 75 46 76 72 77 73 78
REMARK SMILES IDX 81 79 74 80 75 81 79 82 82 83 76 84 77 85 80 86 78 87 57 88
REMARK SMILES IDX 58 89 66 90 59 91 60 92 64 93 67 94 61 95 62 96 65 97 63 98
REMARK H PARENT 21 6 7 12 28 32 87 51 55 62
REMARK Flexibility Score: inf
ROOT
ATOM      1  C   UNL     1       2.438   2.319  -2.806  1.00  0.00     0.021 C 
ENDROOT
BRANCH   1   2
ATOM      2  C   UNL     1       1.865   1.135  -2.023  1.00  0.00     0.116 C 
BRANCH   2   3
ATOM      3  N   UNL     1       2.502   0.903  -0.734  1.00  0.00    -0.355 N 
ATOM      4  O   UNL     1       0.839  -0.492  -0.025  1.00  0.00    -0.274 OA
ATOM      5  C   UNL     1       1.933   0.033   0.179  1.00  0.00     0.236 C 
ATOM      6  H   UNL     1       3.341   1.367  -0.511  1.00  0.00     0.163 HD
BRANCH   5   7
ATOM      7  C   UNL     1       2.670  -0.191   1.459  1.00  0.00     0.253 C 
BRANCH   7   8
ATOM      8  S   UNL     1       3.826  -1.542   1.415  1.00  0.00     0.220 S 
ATOM      9  O   UNL     1       4.966  -1.131   0.621  1.00  0.00    -0.212 OA
ATOM     10  O   UNL     1       4.061  -1.922   2.792  1.00  0.00    -0.212 OA
BRANCH   8  11
ATOM     11  N   UNL     1       3.115  -2.884   0.752  1.00  0.00    -0.210 NA
ATOM     12  H   UNL     1       2.283  -3.038   1.323  1.00  0.00     0.141 HD
BRANCH  11  13
ATOM     13  C   UNL     1       2.657  -3.106  -0.627  1.00  0.00     0.135 C 
BRANCH  13  14
ATOM     14  C   UNL     1       3.668  -3.008  -1.729  1.00  0.00    -0.015 A 
ATOM     15  C   UNL     1       4.309  -1.813  -1.993  1.00  0.00     0.010 A 
ATOM     16  C   UNL     1       3.972  -4.042  -2.602  1.00  0.00     0.118 A 
ATOM     17  C   UNL     1       5.293  -1.725  -2.959  1.00  0.00     0.047 A 
ATOM     18  N   UNL     1       4.836  -3.937  -3.653  1.00  0.00    -0.239 NA
ATOM     19  C   UNL     1       5.523  -2.784  -3.813  1.00  0.00     0.128 A 
BRANCH  19  20
ATOM     20  N   UNL     1       6.385  -2.622  -4.867  1.00  0.00    -0.352 N 
ATOM     21  C   UNL     1       7.613  -1.827  -4.797  1.00  0.00     0.146 C 
ATOM     22  C   UNL     1       6.079  -3.205  -6.168  1.00  0.00     0.146 C 
ATOM     23  C   UNL     1       7.624  -0.786  -5.926  1.00  0.00     0.181 C 
ATOM     24  C   UNL     1       6.154  -2.093  -7.235  1.00  0.00     0.181 C 
ATOM     25  O   UNL     1       7.418  -1.404  -7.207  1.00  0.00    -0.378 OA
ENDBRANCH  19  20
ENDBRANCH  13  14
ENDBRANCH  11  13
ENDBRANCH   8  11
ENDBRANCH   7   8
ENDBRANCH   5   7
ENDBRANCH   2   3
ENDBRANCH   1   2
BRANCH   1  26
ATOM     26  C   UNL     1       3.888   2.157  -3.275  1.00  0.00     0.002 C 
BRANCH  26  27
ATOM     27  C   UNL     1       4.118   1.063  -4.316  1.00  0.00     0.002 C 
BRANCH  27  28
ATOM     28  C   UNL     1       3.487   1.251  -5.687  1.00  0.00     0.021 C 
BRANCH  28  29
ATOM     29  C   UNL     1       3.877   2.527  -6.410  1.00  0.00     0.116 C 
BRANCH  29  30
ATOM     30  N   UNL     1       5.300   2.619  -6.710  1.00  0.00    -0.352 N 
ATOM     31  C   UNL     1       5.928   2.870  -7.909  1.00  0.00     0.251 C 
ATOM     32  H   UNL     1       5.900   2.482  -5.942  1.00  0.00     0.163 HD
ATOM     33  O   UNL     1       7.151   2.822  -7.990  1.00  0.00    -0.269 OA
BRANCH  31  34
ATOM     34  C   UNL     1       5.117   3.168  -9.110  1.00  0.00     0.039 A 
ATOM     35  C   UNL     1       5.417   2.530 -10.316  1.00  0.00     0.014 A 
ATOM     36  C   UNL     1       4.030   4.041  -9.032  1.00  0.00     0.014 A 
ATOM     37  C   UNL     1       4.569   2.697 -11.415  1.00  0.00     0.010 A 
ATOM     38  C   UNL     1       3.129   4.116 -10.087  1.00  0.00     0.010 A 
ATOM     39  C   UNL     1       3.389   3.449 -11.293  1.00  0.00    -0.014 A 
BRANCH  39  40
ATOM     40  C   UNL     1       2.410   3.563 -12.407  1.00  0.00     0.031 A 
ATOM     41  C   UNL     1       2.072   4.915 -12.974  1.00  0.00     0.074 A 
ATOM     42  C   UNL     1       1.767   2.466 -12.854  1.00  0.00     0.049 A 
ATOM     43  N   UNL     1       1.176   5.238 -13.873  1.00  0.00    -0.248 NA
ATOM     44  C   UNL     1       2.815   6.064 -12.432  1.00  0.00     0.031 C 
ATOM     45  C   UNL     1       1.966   1.104 -12.354  1.00  0.00     0.029 A 
ATOM     46  N   UNL     1       0.806   2.324 -13.825  1.00  0.00    -0.354 N 
ATOM     47  C   UNL     1       1.241   6.621 -13.991  1.00  0.00     0.074 A 
ATOM     48  C   UNL     1       2.210   7.083 -13.022  1.00  0.00     0.031 C 
ATOM     49  C   UNL     1       1.180   0.262 -13.044  1.00  0.00     0.029 A 
ATOM     50  C   UNL     1       0.387   1.027 -14.001  1.00  0.00     0.049 A 
ATOM     51  H   UNL     1       0.451   3.080 -14.345  1.00  0.00     0.167 HD
ATOM     52  C   UNL     1       0.579   7.430 -14.850  1.00  0.00     0.037 A 
ATOM     53  C   UNL     1      -0.538   0.515 -14.836  1.00  0.00     0.037 A 
ATOM     54  C   UNL     1      -0.367   6.965 -15.831  1.00  0.00     0.049 A 
ATOM     55  C   UNL     1      -1.278   1.438 -15.767  1.00  0.00     0.074 A 
ATOM     56  C   UNL     1      -1.055   7.698 -16.781  1.00  0.00     0.029 A 
ATOM     57  N   UNL     1      -0.756   5.642 -15.985  1.00  0.00    -0.354 N 
ATOM     58  N   UNL     1      -1.163   2.736 -15.911  1.00  0.00    -0.248 NA
ATOM     59  C   UNL     1      -2.273   0.823 -16.656  1.00  0.00     0.031 C 
ATOM     60  C   UNL     1      -1.900   6.827 -17.477  1.00  0.00     0.029 A 
ATOM     61  C   UNL     1      -1.693   5.542 -17.002  1.00  0.00     0.049 A 
ATOM     62  H   UNL     1      -0.418   4.887 -15.452  1.00  0.00     0.167 HD
ATOM     63  C   UNL     1      -2.043   3.088 -16.926  1.00  0.00     0.074 A 
ATOM     64  C   UNL     1      -2.675   1.863 -17.372  1.00  0.00     0.031 C 
ATOM     65  C   UNL     1      -2.304   4.314 -17.443  1.00  0.00     0.037 A 
BRANCH  52  66
ATOM     66  C   UNL     1       0.862   8.904 -14.775  1.00  0.00     0.064 A 
ATOM     67  C   UNL     1       2.107   9.433 -15.152  1.00  0.00     0.173 A 
ATOM     68  C   UNL     1      -0.130   9.802 -14.354  1.00  0.00     0.173 A 
ATOM     69  F   UNL     1       3.095   8.618 -15.550  1.00  0.00    -0.203 F 
ATOM     70  C   UNL     1       2.357  10.801 -15.078  1.00  0.00     0.198 A 
ATOM     71  C   UNL     1       0.113  11.173 -14.316  1.00  0.00     0.198 A 
ATOM     72  F   UNL     1      -1.339   9.352 -13.988  1.00  0.00    -0.203 F 
ATOM     73  F   UNL     1       3.571  11.275 -15.388  1.00  0.00    -0.200 F 
ATOM     74  C   UNL     1       1.358  11.670 -14.668  1.00  0.00     0.200 A 
ATOM     75  F   UNL     1      -0.859  12.013 -13.933  1.00  0.00    -0.200 F 
ATOM     76  F   UNL     1       1.597  12.987 -14.606  1.00  0.00    -0.200 F 
ENDBRANCH  52  66
BRANCH  53  77
ATOM     77  C   UNL     1      -0.797  -0.950 -14.854  1.00  0.00     0.064 A 
ATOM     78  C   UNL     1      -0.443  -1.728 -15.966  1.00  0.00     0.173 A 
ATOM     79  C   UNL     1      -1.410  -1.601 -13.774  1.00  0.00     0.173 A 
ATOM     80  F   UNL     1       0.126  -1.148 -17.034  1.00  0.00    -0.203 F 
ATOM     81  C   UNL     1      -0.711  -3.094 -16.006  1.00  0.00     0.198 A 
ATOM     82  C   UNL     1      -1.649  -2.974 -13.802  1.00  0.00     0.198 A 
ATOM     83  F   UNL     1      -1.765  -0.905 -12.683  1.00  0.00    -0.203 F 
ATOM     84  F   UNL     1      -0.407  -3.802 -17.102  1.00  0.00    -0.200 F 
ATOM     85  C   UNL     1      -1.308  -3.717 -14.921  1.00  0.00     0.200 A 
ATOM     86  F   UNL     1      -2.213  -3.575 -12.745  1.00  0.00    -0.200 F 
ATOM     87  F   UNL     1      -1.563  -5.032 -14.958  1.00  0.00    -0.200 F 
ENDBRANCH  53  77
BRANCH  65  88
ATOM     88  C   UNL     1      -3.283   4.391 -18.579  1.00  0.00     0.064 A 
ATOM     89  C   UNL     1      -4.655   4.175 -18.390  1.00  0.00     0.173 A 
ATOM     90  C   UNL     1      -2.844   4.732 -19.868  1.00  0.00     0.173 A 
ATOM     91  F   UNL     1      -5.125   3.833 -17.180  1.00  0.00    -0.203 F 
ATOM     92  C   UNL     1      -5.548   4.270 -19.454  1.00  0.00     0.198 A 
ATOM     93  C   UNL     1      -3.744   4.861 -20.922  1.00  0.00     0.198 A 
ATOM     94  F   UNL     1      -1.542   4.958 -20.102  1.00  0.00    -0.203 F 
ATOM     95  F   UNL     1      -6.848   4.009 -19.260  1.00  0.00    -0.200 F 
ATOM     96  C   UNL     1      -5.093   4.621 -20.716  1.00  0.00     0.200 A 
ATOM     97  F   UNL     1      -3.304   5.217 -22.137  1.00  0.00    -0.200 F 
ATOM     98  F   UNL     1      -5.956   4.723 -21.737  1.00  0.00    -0.200 F 
ENDBRANCH  65  88
ENDBRANCH  39  40
ENDBRANCH  31  34
ENDBRANCH  29  30
ENDBRANCH  28  29
ENDBRANCH  27  28
ENDBRANCH  26  27
ENDBRANCH   1  26
TORSDOF 18
