REMARK SMILES CS(=O)(=O)c1ccc(C2=NN(c3ccc(C(=O)NCCCCCCNC(=O)c4ccc(-c5c6nc(c(-c7c(F)c(F)c(F)c(F)c7F)c7ccc([nH]7)c(-c7c(F)c(F)c(F)c(F)c7F)c7nc(c(-c8c(F)c(F)c(F)c(F)c8F)c8ccc5[nH]8)C=C7)C=C6)cc4)cc3)[C@H](c3cccs3)C2)cc1
REMARK SMILES IDX 21 1 20 2 19 3 18 4 16 5 17 6 15 8 12 9 13 10 92 11 14 12
REMARK SMILES IDX 91 13 11 14 9 15 10 16 99 17 93 18 8 19 5 20 6 21 101 22
REMARK SMILES IDX 7 23 100 24 2 25 1 26 3 27 4 28 94 29 95 30 98 31 96 32
REMARK SMILES IDX 97 33 22 34 23 35 24 36 25 37 26 38 27 40 28 41 29 42 90 43
REMARK SMILES IDX 30 44 89 45 31 46 32 47 33 48 83 49 34 50 88 51 82 52 84 53
REMARK SMILES IDX 35 54 87 55 81 56 80 57 36 59 68 60 48 61 67 62 49 63 52 64
REMARK SMILES IDX 66 65 85 66 50 67 51 68 65 70 86 71 53 72 37 73 38 74 46 75
REMARK SMILES IDX 39 76 40 77 44 78 47 79 41 80 42 81 45 82 43 83 69 84 70 85
REMARK SMILES IDX 78 86 71 87 72 88 76 89 79 90 73 91 74 92 77 93 75 94 54 95
REMARK SMILES IDX 55 96 63 97 56 98 57 99 61 100 64 101 58 102 59 103 62 104
REMARK SMILES IDX 60 105
REMARK H PARENT 18 7 25 39 84 58 52 69
REMARK Flexibility Score: inf
ROOT
ATOM      1  C   UNL     1       8.386   4.199  13.488  1.00  0.00     0.002 C 
ENDROOT
BRANCH   1   2
ATOM      2  C   UNL     1       7.223   4.205  12.488  1.00  0.00     0.021 C 
BRANCH   2   3
ATOM      3  C   UNL     1       6.951   5.590  11.896  1.00  0.00     0.116 C 
BRANCH   3   4
ATOM      4  N   UNL     1       7.934   5.894  10.874  1.00  0.00    -0.352 N 
ATOM      5  C   UNL     1       7.857   5.888   9.505  1.00  0.00     0.251 C 
ATOM      6  O   UNL     1       8.858   6.207   8.866  1.00  0.00    -0.269 OA
ATOM      7  H   UNL     1       8.816   6.151  11.228  1.00  0.00     0.163 HD
BRANCH   5   8
ATOM      8  C   UNL     1       6.595   5.583   8.783  1.00  0.00     0.039 A 
ATOM      9  C   UNL     1       4.177   5.217   7.383  1.00  0.00     0.060 A 
ATOM     10  C   UNL     1       5.162   6.075   6.885  1.00  0.00     0.029 A 
ATOM     11  C   UNL     1       4.448   4.494   8.546  1.00  0.00     0.029 A 
ATOM     12  C   UNL     1       6.359   6.265   7.583  1.00  0.00     0.016 A 
ATOM     13  C   UNL     1       5.657   4.647   9.222  1.00  0.00     0.016 A 
BRANCH   9  14
ATOM     14  N   UNL     1       2.974   5.032   6.731  1.00  0.00    -0.257 N 
ATOM     15  C   UNL     1       1.809   4.582   5.026  1.00  0.00     0.071 C 
ATOM     16  N   UNL     1       2.956   4.342   5.572  1.00  0.00    -0.176 NA
ATOM     17  C   UNL     1       0.923   5.566   5.738  1.00  0.00     0.091 C 
ATOM     18  C   UNL     1       1.768   5.822   7.000  1.00  0.00     0.154 C 
BRANCH  15  19
ATOM     19  C   UNL     1       1.396   3.910   3.791  1.00  0.00    -0.002 A 
ATOM     20  C   UNL     1       0.746   2.552   1.461  1.00  0.00     0.067 A 
ATOM     21  C   UNL     1       1.174   1.829   2.577  1.00  0.00     0.021 A 
ATOM     22  C   UNL     1       0.651   3.951   1.507  1.00  0.00     0.021 A 
ATOM     23  C   UNL     1       1.512   2.516   3.741  1.00  0.00     0.011 A 
ATOM     24  C   UNL     1       0.966   4.636   2.682  1.00  0.00     0.011 A 
BRANCH  20  25
ATOM     25  S   UNL     1       0.328   1.745  -0.066  1.00  0.00     0.175 S 
ATOM     26  C   UNL     1       1.061   0.134  -0.028  1.00  0.00     0.163 C 
ATOM     27  O   UNL     1       0.987   2.490  -1.119  1.00  0.00    -0.224 OA
ATOM     28  O   UNL     1      -1.115   1.580  -0.051  1.00  0.00    -0.224 OA
ENDBRANCH  20  25
ENDBRANCH  15  19
BRANCH  18  29
ATOM     29  C   UNL     1       1.108   5.527   8.339  1.00  0.00     0.030 A 
ATOM     30  C   UNL     1       1.507   6.025   9.572  1.00  0.00     0.017 A 
ATOM     31  S   UNL     1      -0.211   4.446   8.531  1.00  0.00    -0.147 S 
ATOM     32  C   UNL     1       0.731   5.525  10.655  1.00  0.00     0.012 A 
ATOM     33  C   UNL     1      -0.259   4.675  10.223  1.00  0.00     0.065 A 
ENDBRANCH  18  29
ENDBRANCH   9  14
ENDBRANCH   5   8
ENDBRANCH   3   4
ENDBRANCH   2   3
ENDBRANCH   1   2
BRANCH   1  34
ATOM     34  C   UNL     1       8.156   5.058  14.736  1.00  0.00     0.002 C 
BRANCH  34  35
ATOM     35  C   UNL     1       6.884   4.724  15.518  1.00  0.00     0.021 C 
BRANCH  35  36
ATOM     36  C   UNL     1       6.844   3.298  16.056  1.00  0.00     0.116 C 
BRANCH  36  37
ATOM     37  N   UNL     1       7.890   3.068  17.041  1.00  0.00    -0.352 N 
ATOM     38  C   UNL     1       7.780   2.652  18.343  1.00  0.00     0.251 C 
ATOM     39  H   UNL     1       8.808   3.235  16.727  1.00  0.00     0.163 HD
ATOM     40  O   UNL     1       8.735   2.744  19.106  1.00  0.00    -0.269 OA
BRANCH  38  41
ATOM     41  C   UNL     1       6.499   2.100  18.828  1.00  0.00     0.039 A 
ATOM     42  C   UNL     1       6.024   2.491  20.082  1.00  0.00     0.014 A 
ATOM     43  C   UNL     1       5.778   1.185  18.055  1.00  0.00     0.014 A 
ATOM     44  C   UNL     1       4.800   2.001  20.540  1.00  0.00     0.010 A 
ATOM     45  C   UNL     1       4.524   0.758  18.478  1.00  0.00     0.010 A 
ATOM     46  C   UNL     1       4.027   1.153  19.729  1.00  0.00    -0.014 A 
BRANCH  46  47
ATOM     47  C   UNL     1       2.701   0.661  20.178  1.00  0.00     0.031 A 
ATOM     48  C   UNL     1       2.478  -0.810  20.396  1.00  0.00     0.074 A 
ATOM     49  C   UNL     1       1.684   1.531  20.329  1.00  0.00     0.049 A 
ATOM     50  N   UNL     1       1.378  -1.441  20.723  1.00  0.00    -0.248 NA
ATOM     51  C   UNL     1       3.637  -1.693  20.192  1.00  0.00     0.031 C 
ATOM     52  C   UNL     1       1.766   2.974  20.101  1.00  0.00     0.029 A 
ATOM     53  N   UNL     1       0.379   1.327  20.700  1.00  0.00    -0.354 N 
ATOM     54  C   UNL     1       1.710  -2.789  20.749  1.00  0.00     0.074 A 
ATOM     55  C   UNL     1       3.097  -2.892  20.350  1.00  0.00     0.031 C 
ATOM     56  C   UNL     1       0.571   3.528  20.358  1.00  0.00     0.029 A 
ATOM     57  C   UNL     1      -0.371   2.477  20.728  1.00  0.00     0.049 A 
ATOM     58  H   UNL     1       0.015   0.440  20.925  1.00  0.00     0.167 HD
ATOM     59  C   UNL     1       0.934  -3.844  21.097  1.00  0.00     0.037 A 
ATOM     60  C   UNL     1      -1.675   2.660  21.012  1.00  0.00     0.037 A 
ATOM     61  C   UNL     1      -0.438  -3.732  21.516  1.00  0.00     0.049 A 
ATOM     62  C   UNL     1      -2.516   1.471  21.390  1.00  0.00     0.074 A 
ATOM     63  C   UNL     1      -1.292  -4.731  21.948  1.00  0.00     0.029 A 
ATOM     64  N   UNL     1      -1.160  -2.547  21.550  1.00  0.00    -0.354 N 
ATOM     65  N   UNL     1      -2.173   0.209  21.480  1.00  0.00    -0.248 NA
ATOM     66  C   UNL     1      -3.925   1.734  21.715  1.00  0.00     0.031 C 
ATOM     67  C   UNL     1      -2.546  -4.161  22.191  1.00  0.00     0.029 A 
ATOM     68  C   UNL     1      -2.457  -2.796  21.971  1.00  0.00     0.049 A 
ATOM     69  H   UNL     1      -0.803  -1.661  21.311  1.00  0.00     0.167 HD
ATOM     70  C   UNL     1      -3.310  -0.467  21.902  1.00  0.00     0.074 A 
ATOM     71  C   UNL     1      -4.350   0.528  22.063  1.00  0.00     0.031 C 
ATOM     72  C   UNL     1      -3.478  -1.792  22.134  1.00  0.00     0.037 A 
BRANCH  59  73
ATOM     73  C   UNL     1       1.552  -5.212  21.039  1.00  0.00     0.064 A 
ATOM     74  C   UNL     1       2.558  -5.608  21.934  1.00  0.00     0.173 A 
ATOM     75  C   UNL     1       1.104  -6.155  20.101  1.00  0.00     0.173 A 
ATOM     76  F   UNL     1       3.030  -4.742  22.844  1.00  0.00    -0.203 F 
ATOM     77  C   UNL     1       3.113  -6.883  21.872  1.00  0.00     0.198 A 
ATOM     78  C   UNL     1       1.638  -7.441  20.064  1.00  0.00     0.198 A 
ATOM     79  F   UNL     1       0.140  -5.833  19.225  1.00  0.00    -0.203 F 
ATOM     80  F   UNL     1       4.109  -7.219  22.704  1.00  0.00    -0.200 F 
ATOM     81  C   UNL     1       2.647  -7.801  20.943  1.00  0.00     0.200 A 
ATOM     82  F   UNL     1       1.175  -8.331  19.175  1.00  0.00    -0.200 F 
ATOM     83  F   UNL     1       3.176  -9.031  20.891  1.00  0.00    -0.200 F 
ENDBRANCH  59  73
BRANCH  60  84
ATOM     84  C   UNL     1      -2.259   4.027  20.968  1.00  0.00     0.064 A 
ATOM     85  C   UNL     1      -2.679   4.670  22.141  1.00  0.00     0.173 A 
ATOM     86  C   UNL     1      -2.414   4.716  19.756  1.00  0.00     0.173 A 
ATOM     87  F   UNL     1      -2.569   4.045  23.323  1.00  0.00    -0.203 F 
ATOM     88  C   UNL     1      -3.253   5.938  22.102  1.00  0.00     0.198 A 
ATOM     89  C   UNL     1      -2.960   5.997  19.721  1.00  0.00     0.198 A 
ATOM     90  F   UNL     1      -2.022   4.149  18.606  1.00  0.00    -0.203 F 
ATOM     91  F   UNL     1      -3.692   6.508  23.232  1.00  0.00    -0.200 F 
ATOM     92  C   UNL     1      -3.388   6.604  20.892  1.00  0.00     0.200 A 
ATOM     93  F   UNL     1      -3.072   6.643  18.553  1.00  0.00    -0.200 F 
ATOM     94  F   UNL     1      -3.936   7.825  20.855  1.00  0.00    -0.200 F 
ENDBRANCH  60  84
BRANCH  72  95
ATOM     95  C   UNL     1      -4.824  -2.241  22.629  1.00  0.00     0.064 A 
ATOM     96  C   UNL     1      -5.956  -2.236  21.800  1.00  0.00     0.173 A 
ATOM     97  C   UNL     1      -4.972  -2.720  23.940  1.00  0.00     0.173 A 
ATOM     98  F   UNL     1      -5.871  -1.774  20.544  1.00  0.00    -0.203 F 
ATOM     99  C   UNL     1      -7.192  -2.667  22.275  1.00  0.00     0.198 A 
ATOM    100  C   UNL     1      -6.201  -3.183  24.400  1.00  0.00     0.198 A 
ATOM    101  F   UNL     1      -3.919  -2.753  24.771  1.00  0.00    -0.203 F 
ATOM    102  F   UNL     1      -8.270  -2.604  21.483  1.00  0.00    -0.200 F 
ATOM    103  C   UNL     1      -7.311  -3.148  23.571  1.00  0.00     0.200 A 
ATOM    104  F   UNL     1      -6.311  -3.662  25.647  1.00  0.00    -0.200 F 
ATOM    105  F   UNL     1      -8.500  -3.571  24.023  1.00  0.00    -0.200 F 
ENDBRANCH  72  95
ENDBRANCH  46  47
ENDBRANCH  38  41
ENDBRANCH  36  37
ENDBRANCH  35  36
ENDBRANCH  34  35
ENDBRANCH   1  34
TORSDOF 17
