REMARK SMILES O=C(NCCCCCCNC(=O)[C@H]1CS[C@H](c2cc(F)ccc2F)[NH2+]1)c1ccc(-c2c3nc(c(-c4c(F)c(F)c(F)c(F)c4F)c4ccc([nH]4)c(-c4c(F)c(F)c(F)c(F)c4F)c4nc(c(-c5c(F)c(F)c(F)c(F)c5F)c5ccc2[nH]5)C=C4)C=C3)cc1
REMARK SMILES IDX 6 1 5 2 4 3 3 4 1 5 2 6 26 8 27 9 88 10 28 11 87 12 29 13
REMARK SMILES IDX 30 14 31 15 81 16 32 17 86 18 80 19 82 20 33 21 85 22 79 23
REMARK SMILES IDX 78 24 34 26 66 27 46 28 65 29 47 30 50 31 64 32 83 33 48 34
REMARK SMILES IDX 49 35 63 37 84 38 51 39 35 40 36 41 44 42 37 43 38 44 42 45
REMARK SMILES IDX 45 46 39 47 40 48 43 49 41 50 67 51 68 52 76 53 69 54 70 55
REMARK SMILES IDX 74 56 77 57 71 58 72 59 75 60 73 61 52 62 53 63 61 64 54 65
REMARK SMILES IDX 55 66 59 67 62 68 56 69 57 70 60 71 58 72 7 73 8 74 9 75
REMARK SMILES IDX 10 76 11 77 12 79 13 80 14 81 25 82 15 83 16 84 17 87 18 88
REMARK SMILES IDX 23 89 19 90 22 91 24 92 20 93 21 94
REMARK H PARENT 3 7 82 25 50 36 10 78 25 85 25 86
REMARK Flexibility Score: inf
ROOT
ATOM      1  C   UNL     1       3.853  -3.679  -1.010  1.00  0.00     0.002 C 
ENDROOT
BRANCH   1   2
ATOM      2  C   UNL     1       4.335  -2.623  -0.013  1.00  0.00     0.021 C 
BRANCH   2   3
ATOM      3  C   UNL     1       4.248  -1.188  -0.519  1.00  0.00     0.116 C 
BRANCH   3   4
ATOM      4  N   UNL     1       2.874  -0.761  -0.730  1.00  0.00    -0.352 N 
ATOM      5  O   UNL     1       0.980   0.396  -0.317  1.00  0.00    -0.269 OA
ATOM      6  C   UNL     1       2.194   0.292  -0.171  1.00  0.00     0.251 C 
ATOM      7  H   UNL     1       2.357  -1.306  -1.367  1.00  0.00     0.163 HD
BRANCH   6   8
ATOM      8  C   UNL     1       2.928   1.293   0.633  1.00  0.00     0.039 A 
ATOM      9  C   UNL     1       4.143   1.811   0.182  1.00  0.00     0.014 A 
ATOM     10  C   UNL     1       2.392   1.716   1.853  1.00  0.00     0.014 A 
ATOM     11  C   UNL     1       4.894   2.631   1.017  1.00  0.00     0.010 A 
ATOM     12  C   UNL     1       3.110   2.609   2.653  1.00  0.00     0.010 A 
ATOM     13  C   UNL     1       4.385   3.043   2.259  1.00  0.00    -0.014 A 
BRANCH  13  14
ATOM     14  C   UNL     1       5.198   3.949   3.110  1.00  0.00     0.031 A 
ATOM     15  C   UNL     1       5.726   3.494   4.442  1.00  0.00     0.074 A 
ATOM     16  C   UNL     1       5.502   5.177   2.646  1.00  0.00     0.049 A 
ATOM     17  N   UNL     1       6.485   4.141   5.291  1.00  0.00    -0.248 NA
ATOM     18  C   UNL     1       5.355   2.141   4.885  1.00  0.00     0.031 C 
ATOM     19  C   UNL     1       5.038   5.730   1.371  1.00  0.00     0.029 A 
ATOM     20  N   UNL     1       6.288   6.170   3.171  1.00  0.00    -0.354 N 
ATOM     21  C   UNL     1       6.666   3.286   6.370  1.00  0.00     0.074 A 
ATOM     22  C   UNL     1       5.918   2.081   6.085  1.00  0.00     0.031 C 
ATOM     23  C   UNL     1       5.591   6.937   1.188  1.00  0.00     0.029 A 
ATOM     24  C   UNL     1       6.400   7.270   2.356  1.00  0.00     0.049 A 
ATOM     25  H   UNL     1       6.730   6.101   4.048  1.00  0.00     0.167 HD
ATOM     26  C   UNL     1       7.403   3.486   7.488  1.00  0.00     0.037 A 
ATOM     27  C   UNL     1       7.070   8.424   2.532  1.00  0.00     0.037 A 
ATOM     28  C   UNL     1       8.175   4.673   7.750  1.00  0.00     0.049 A 
ATOM     29  C   UNL     1       7.858   8.627   3.795  1.00  0.00     0.074 A 
ATOM     30  C   UNL     1       8.996   4.944   8.831  1.00  0.00     0.029 A 
ATOM     31  N   UNL     1       8.220   5.786   6.924  1.00  0.00    -0.354 N 
ATOM     32  N   UNL     1       8.049   7.795   4.788  1.00  0.00    -0.248 NA
ATOM     33  C   UNL     1       8.512   9.931   3.967  1.00  0.00     0.031 C 
ATOM     34  C   UNL     1       9.505   6.237   8.681  1.00  0.00     0.029 A 
ATOM     35  C   UNL     1       9.034   6.756   7.486  1.00  0.00     0.049 A 
ATOM     36  H   UNL     1       7.746   5.873   6.066  1.00  0.00     0.167 HD
ATOM     37  C   UNL     1       8.847   8.469   5.701  1.00  0.00     0.074 A 
ATOM     38  C   UNL     1       9.126   9.771   5.132  1.00  0.00     0.031 C 
ATOM     39  C   UNL     1       9.298   8.048   6.907  1.00  0.00     0.037 A 
BRANCH  26  40
ATOM     40  C   UNL     1       7.425   2.402   8.525  1.00  0.00     0.064 A 
ATOM     41  C   UNL     1       6.791   2.592   9.763  1.00  0.00     0.173 A 
ATOM     42  C   UNL     1       8.152   1.219   8.334  1.00  0.00     0.173 A 
ATOM     43  F   UNL     1       6.090   3.711   9.999  1.00  0.00    -0.203 F 
ATOM     44  C   UNL     1       6.897   1.642  10.776  1.00  0.00     0.198 A 
ATOM     45  C   UNL     1       8.237   0.261   9.341  1.00  0.00     0.198 A 
ATOM     46  F   UNL     1       8.769   0.987   7.165  1.00  0.00    -0.203 F 
ATOM     47  F   UNL     1       6.311   1.859  11.961  1.00  0.00    -0.200 F 
ATOM     48  C   UNL     1       7.619   0.477  10.564  1.00  0.00     0.200 A 
ATOM     49  F   UNL     1       8.919  -0.873   9.128  1.00  0.00    -0.200 F 
ATOM     50  F   UNL     1       7.719  -0.437  11.538  1.00  0.00    -0.200 F 
ENDBRANCH  26  40
BRANCH  27  51
ATOM     51  C   UNL     1       7.018   9.471   1.480  1.00  0.00     0.064 A 
ATOM     52  C   UNL     1       5.831  10.165   1.201  1.00  0.00     0.173 A 
ATOM     53  C   UNL     1       8.149   9.777   0.711  1.00  0.00     0.173 A 
ATOM     54  F   UNL     1       4.720   9.905   1.907  1.00  0.00    -0.203 F 
ATOM     55  C   UNL     1       5.771  11.108   0.179  1.00  0.00     0.198 A 
ATOM     56  C   UNL     1       8.096  10.741  -0.293  1.00  0.00     0.198 A 
ATOM     57  F   UNL     1       9.312   9.153   0.953  1.00  0.00    -0.203 F 
ATOM     58  F   UNL     1       4.615  11.729  -0.090  1.00  0.00    -0.200 F 
ATOM     59  C   UNL     1       6.905  11.400  -0.564  1.00  0.00     0.200 A 
ATOM     60  F   UNL     1       9.199  11.037  -0.994  1.00  0.00    -0.200 F 
ATOM     61  F   UNL     1       6.851  12.317  -1.539  1.00  0.00    -0.200 F 
ENDBRANCH  27  51
BRANCH  39  62
ATOM     62  C   UNL     1      10.139   9.001   7.701  1.00  0.00     0.064 A 
ATOM     63  C   UNL     1      11.513   8.774   7.867  1.00  0.00     0.173 A 
ATOM     64  C   UNL     1       9.565  10.094   8.366  1.00  0.00     0.173 A 
ATOM     65  F   UNL     1      12.106   7.737   7.256  1.00  0.00    -0.203 F 
ATOM     66  C   UNL     1      12.279   9.598   8.686  1.00  0.00     0.198 A 
ATOM     67  C   UNL     1      10.339  10.930   9.165  1.00  0.00     0.198 A 
ATOM     68  F   UNL     1       8.257  10.358   8.225  1.00  0.00    -0.203 F 
ATOM     69  F   UNL     1      13.583   9.343   8.859  1.00  0.00    -0.200 F 
ATOM     70  C   UNL     1      11.692  10.675   9.333  1.00  0.00     0.200 A 
ATOM     71  F   UNL     1       9.775  11.983   9.772  1.00  0.00    -0.200 F 
ATOM     72  F   UNL     1      12.431  11.470  10.118  1.00  0.00    -0.200 F 
ENDBRANCH  39  62
ENDBRANCH  13  14
ENDBRANCH   6   8
ENDBRANCH   3   4
ENDBRANCH   2   3
ENDBRANCH   1   2
BRANCH   1  73
ATOM     73  C   UNL     1       4.576  -3.677  -2.361  1.00  0.00     0.002 C 
BRANCH  73  74
ATOM     74  C   UNL     1       6.106  -3.708  -2.284  1.00  0.00     0.021 C 
BRANCH  74  75
ATOM     75  C   UNL     1       6.667  -4.926  -1.553  1.00  0.00     0.116 C 
BRANCH  75  76
ATOM     76  N   UNL     1       6.566  -6.121  -2.364  1.00  0.00    -0.351 N 
ATOM     77  C   UNL     1       7.502  -6.813  -3.075  1.00  0.00     0.279 C 
ATOM     78  H   UNL     1       5.659  -6.502  -2.412  1.00  0.00     0.163 HD
ATOM     79  O   UNL     1       7.089  -7.717  -3.807  1.00  0.00    -0.268 OA
BRANCH  77  80
ATOM     80  C   UNL     1       9.008  -6.507  -2.971  1.00  0.00     0.283 C 
ATOM     81  C   UNL     1       9.385  -5.114  -3.471  1.00  0.00     0.151 C 
ATOM     82  N   UNL     1       9.511  -6.784  -1.595  1.00  0.00    -0.320 N 
ATOM     83  S   UNL     1      10.282  -4.336  -2.110  1.00  0.00    -0.087 SA
ATOM     84  C   UNL     1      10.675  -5.939  -1.335  1.00  0.00     0.277 C 
ATOM     85  H   UNL     1       9.778  -7.766  -1.519  1.00  0.00     0.348 HD
ATOM     86  H   UNL     1       8.780  -6.583  -0.913  1.00  0.00     0.348 HD
BRANCH  84  87
ATOM     87  C   UNL     1      12.027  -6.443  -1.804  1.00  0.00     0.059 A 
ATOM     88  C   UNL     1      13.165  -5.658  -1.512  1.00  0.00     0.053 A 
ATOM     89  C   UNL     1      12.239  -7.625  -2.526  1.00  0.00     0.133 A 
ATOM     90  C   UNL     1      14.424  -6.014  -1.988  1.00  0.00     0.123 A 
ATOM     91  C   UNL     1      13.505  -7.977  -3.003  1.00  0.00     0.043 A 
ATOM     92  F   UNL     1      11.236  -8.468  -2.799  1.00  0.00    -0.206 F 
ATOM     93  F   UNL     1      15.474  -5.228  -1.720  1.00  0.00    -0.207 F 
ATOM     94  C   UNL     1      14.602  -7.162  -2.745  1.00  0.00     0.042 A 
ENDBRANCH  84  87
ENDBRANCH  77  80
ENDBRANCH  75  76
ENDBRANCH  74  75
ENDBRANCH  73  74
ENDBRANCH   1  73
TORSDOF 14
