REMARK SMILES C=C(C(=O)NCCCCCCNC(=O)c1ccc(-c2c3nc(c(-c4c(F)c(F)c(F)c(F)c4F)c4ccc([nH]4)c(-c4c(F)c(F)c(F)c(F)c4F)c4nc(c(-c5c(F)c(F)c(F)c(F)c5F)c5ccc2[nH]5)C=C4)C=C3)cc1)[C@@H]1CC[C@]2(C)C[C@@H](O)CC(=C)[C@H]2C1
REMARK SMILES IDX 8 1 7 2 6 3 5 4 3 5 4 6 2 8 1 9 78 10 79 11 90 12 80 13
REMARK SMILES IDX 89 14 81 15 87 16 82 17 83 18 86 19 88 20 84 21 85 22 9 24
REMARK SMILES IDX 10 25 11 26 12 27 13 28 14 30 15 31 16 32 77 33 17 34 76 35
REMARK SMILES IDX 18 36 19 37 20 38 70 39 21 40 75 41 69 42 71 43 22 44 74 45
REMARK SMILES IDX 68 46 67 47 23 49 55 50 35 51 54 52 36 53 39 54 53 55 72 56
REMARK SMILES IDX 37 57 38 58 52 60 73 61 40 62 24 63 25 64 33 65 26 66 27 67
REMARK SMILES IDX 31 68 34 69 28 70 29 71 32 72 30 73 56 74 57 75 65 76 58 77
REMARK SMILES IDX 59 78 63 79 66 80 60 81 61 82 64 83 62 84 41 85 42 86 50 87
REMARK SMILES IDX 43 88 44 89 48 90 51 91 45 92 46 93 49 94 47 95
REMARK H PARENT 5 7 85 23 12 29 71 48 39 59
REMARK Flexibility Score: inf
ROOT
ATOM      1  C   UNL     1      -3.563   2.255   1.316  1.00  0.00     0.002 C 
ENDROOT
BRANCH   1   2
ATOM      2  C   UNL     1      -2.055   2.046   1.149  1.00  0.00     0.021 C 
BRANCH   2   3
ATOM      3  C   UNL     1      -1.602   0.584   1.239  1.00  0.00     0.116 C 
BRANCH   3   4
ATOM      4  N   UNL     1      -1.895  -0.114   0.002  1.00  0.00    -0.352 N 
ATOM      5  C   UNL     1      -1.153  -0.339  -1.116  1.00  0.00     0.246 C 
ATOM      6  O   UNL     1      -1.706  -0.887  -2.070  1.00  0.00    -0.270 OA
ATOM      7  H   UNL     1      -2.802  -0.496  -0.036  1.00  0.00     0.163 HD
BRANCH   5   8
ATOM      8  C   UNL     1       0.314  -0.013  -1.191  1.00  0.00     0.013 C 
ATOM      9  C   UNL     1       0.788   1.145  -0.694  1.00  0.00     0.018 C 
BRANCH   8  10
ATOM     10  C   UNL     1       1.155  -0.968  -2.060  1.00  0.00     0.025 C 
ATOM     11  C   UNL     1       0.970  -2.474  -1.752  1.00  0.00     0.009 C 
ATOM     12  C   UNL     1       2.670  -0.646  -2.092  1.00  0.00     0.017 C 
ATOM     13  C   UNL     1       1.753  -2.976  -0.536  1.00  0.00     0.008 C 
ATOM     14  C   UNL     1       3.358  -1.057  -0.771  1.00  0.00     0.021 C 
ATOM     15  C   UNL     1       3.259  -2.595  -0.549  1.00  0.00    -0.024 C 
ATOM     16  C   UNL     1       4.774  -0.549  -0.550  1.00  0.00    -0.071 C 
ATOM     17  C   UNL     1       3.977  -3.398  -1.662  1.00  0.00     0.012 C 
ATOM     18  C   UNL     1       3.867  -2.973   0.836  1.00  0.00     0.039 C 
ATOM     19  C   UNL     1       5.303  -0.857   0.838  1.00  0.00     0.062 C 
ATOM     20  C   UNL     1       5.513   0.132  -1.441  1.00  0.00     0.008 C 
ATOM     21  C   UNL     1       5.241  -2.359   1.142  1.00  0.00     0.119 C 
BRANCH  21  22
ATOM     22  O   UNL     1       6.271  -3.064   0.451  1.00  0.00    -0.393 OA
ATOM     23  H   UNL     1       6.137  -2.976  -0.505  1.00  0.00     0.210 HD
ENDBRANCH  21  22
ENDBRANCH   8  10
ENDBRANCH   5   8
ENDBRANCH   3   4
ENDBRANCH   2   3
ENDBRANCH   1   2
BRANCH   1  24
ATOM     24  C   UNL     1      -4.125   1.876   2.688  1.00  0.00     0.002 C 
BRANCH  24  25
ATOM     25  C   UNL     1      -3.388   2.484   3.884  1.00  0.00     0.021 C 
BRANCH  25  26
ATOM     26  C   UNL     1      -3.302   4.007   3.878  1.00  0.00     0.116 C 
BRANCH  26  27
ATOM     27  N   UNL     1      -4.612   4.625   3.986  1.00  0.00    -0.352 N 
ATOM     28  C   UNL     1      -5.069   5.533   4.903  1.00  0.00     0.251 C 
ATOM     29  H   UNL     1      -5.265   4.351   3.302  1.00  0.00     0.163 HD
ATOM     30  O   UNL     1      -6.272   5.783   4.977  1.00  0.00    -0.269 OA
BRANCH  28  31
ATOM     31  C   UNL     1      -4.124   6.216   5.811  1.00  0.00     0.039 A 
ATOM     32  C   UNL     1      -4.476   6.376   7.154  1.00  0.00     0.014 A 
ATOM     33  C   UNL     1      -2.923   6.749   5.331  1.00  0.00     0.014 A 
ATOM     34  C   UNL     1      -3.613   7.047   8.022  1.00  0.00     0.010 A 
ATOM     35  C   UNL     1      -2.035   7.365   6.211  1.00  0.00     0.010 A 
ATOM     36  C   UNL     1      -2.382   7.538   7.560  1.00  0.00    -0.014 A 
BRANCH  36  37
ATOM     37  C   UNL     1      -1.471   8.286   8.461  1.00  0.00     0.031 A 
ATOM     38  C   UNL     1      -1.223   9.751   8.224  1.00  0.00     0.074 A 
ATOM     39  C   UNL     1      -0.844   7.646   9.466  1.00  0.00     0.049 A 
ATOM     40  N   UNL     1      -0.418  10.569   8.853  1.00  0.00    -0.248 NA
ATOM     41  C   UNL     1      -1.962  10.373   7.113  1.00  0.00     0.031 C 
ATOM     42  C   UNL     1      -0.974   6.221   9.773  1.00  0.00     0.029 A 
ATOM     43  N   UNL     1       0.038   8.111  10.409  1.00  0.00    -0.354 N 
ATOM     44  C   UNL     1      -0.548  11.794   8.212  1.00  0.00     0.074 A 
ATOM     45  C   UNL     1      -1.464  11.601   7.109  1.00  0.00     0.031 C 
ATOM     46  C   UNL     1      -0.209   5.930  10.838  1.00  0.00     0.029 A 
ATOM     47  C   UNL     1       0.483   7.141  11.273  1.00  0.00     0.049 A 
ATOM     48  H   UNL     1       0.324   9.052  10.462  1.00  0.00     0.167 HD
ATOM     49  C   UNL     1       0.023  12.980   8.530  1.00  0.00     0.037 A 
ATOM     50  C   UNL     1       1.353   7.221  12.297  1.00  0.00     0.037 A 
ATOM     51  C   UNL     1       0.919  13.176   9.639  1.00  0.00     0.049 A 
ATOM     52  C   UNL     1       1.958   8.557  12.641  1.00  0.00     0.074 A 
ATOM     53  C   UNL     1       1.550  14.337  10.050  1.00  0.00     0.029 A 
ATOM     54  N   UNL     1       1.300  12.179  10.525  1.00  0.00    -0.354 N 
ATOM     55  N   UNL     1       1.800   9.715  12.048  1.00  0.00    -0.248 NA
ATOM     56  C   UNL     1       2.847   8.599  13.810  1.00  0.00     0.031 C 
ATOM     57  C   UNL     1       2.329  14.039  11.173  1.00  0.00     0.029 A 
ATOM     58  C   UNL     1       2.151  12.701  11.485  1.00  0.00     0.049 A 
ATOM     59  H   UNL     1       1.009  11.240  10.479  1.00  0.00     0.167 HD
ATOM     60  C   UNL     1       2.538  10.627  12.789  1.00  0.00     0.074 A 
ATOM     61  C   UNL     1       3.135   9.890  13.884  1.00  0.00     0.031 C 
ATOM     62  C   UNL     1       2.710  11.955  12.582  1.00  0.00     0.037 A 
BRANCH  49  63
ATOM     63  C   UNL     1      -0.321  14.165   7.675  1.00  0.00     0.064 A 
ATOM     64  C   UNL     1      -1.594  14.753   7.723  1.00  0.00     0.173 A 
ATOM     65  C   UNL     1       0.636  14.742   6.827  1.00  0.00     0.173 A 
ATOM     66  F   UNL     1      -2.549  14.230   8.507  1.00  0.00    -0.203 F 
ATOM     67  C   UNL     1      -1.904  15.858   6.936  1.00  0.00     0.198 A 
ATOM     68  C   UNL     1       0.332  15.865   6.063  1.00  0.00     0.198 A 
ATOM     69  F   UNL     1       1.870  14.221   6.746  1.00  0.00    -0.203 F 
ATOM     70  F   UNL     1      -3.141  16.374   6.965  1.00  0.00    -0.200 F 
ATOM     71  C   UNL     1      -0.939  16.418   6.112  1.00  0.00     0.200 A 
ATOM     72  F   UNL     1       1.268  16.412   5.275  1.00  0.00    -0.200 F 
ATOM     73  F   UNL     1      -1.236  17.487   5.361  1.00  0.00    -0.200 F 
ENDBRANCH  49  63
BRANCH  50  74
ATOM     74  C   UNL     1       1.685   6.011  13.091  1.00  0.00     0.064 A 
ATOM     75  C   UNL     1       1.254   5.878  14.419  1.00  0.00     0.173 A 
ATOM     76  C   UNL     1       2.457   4.973  12.549  1.00  0.00     0.173 A 
ATOM     77  F   UNL     1       0.528   6.853  14.987  1.00  0.00    -0.203 F 
ATOM     78  C   UNL     1       1.609   4.769  15.184  1.00  0.00     0.198 A 
ATOM     79  C   UNL     1       2.788   3.851  13.307  1.00  0.00     0.198 A 
ATOM     80  F   UNL     1       2.888   5.048  11.282  1.00  0.00    -0.203 F 
ATOM     81  F   UNL     1       1.229   4.694  16.467  1.00  0.00    -0.200 F 
ATOM     82  C   UNL     1       2.373   3.755  14.626  1.00  0.00     0.200 A 
ATOM     83  F   UNL     1       3.514   2.867  12.760  1.00  0.00    -0.200 F 
ATOM     84  F   UNL     1       2.717   2.690  15.363  1.00  0.00    -0.200 F 
ENDBRANCH  50  74
BRANCH  62  85
ATOM     85  C   UNL     1       3.528  12.706  13.591  1.00  0.00     0.064 A 
ATOM     86  C   UNL     1       4.921  12.564  13.665  1.00  0.00     0.173 A 
ATOM     87  C   UNL     1       2.908  13.602  14.475  1.00  0.00     0.173 A 
ATOM     88  F   UNL     1       5.556  11.710  12.849  1.00  0.00    -0.203 F 
ATOM     89  C   UNL     1       5.661  13.270  14.610  1.00  0.00     0.198 A 
ATOM     90  C   UNL     1       3.654  14.326  15.400  1.00  0.00     0.198 A 
ATOM     91  F   UNL     1       1.578  13.777  14.438  1.00  0.00    -0.203 F 
ATOM     92  F   UNL     1       6.985  13.082  14.697  1.00  0.00    -0.200 F 
ATOM     93  C   UNL     1       5.028  14.153  15.472  1.00  0.00     0.200 A 
ATOM     94  F   UNL     1       3.043  15.187  16.225  1.00  0.00    -0.200 F 
ATOM     95  F   UNL     1       5.743  14.833  16.379  1.00  0.00    -0.200 F 
ENDBRANCH  62  85
ENDBRANCH  36  37
ENDBRANCH  28  31
ENDBRANCH  26  27
ENDBRANCH  25  26
ENDBRANCH  24  25
ENDBRANCH   1  24
TORSDOF 15
