REMARK SMILES Nc1c(Nc2ncc(C(F)(F)F)cc2Cl)ncnc1N1CCC(C(=O)NCCCCCCNC(=O)c2ccc(-c3c4nc(c(-c5c(F)c(F)c(F)c(F)c5F)c5ccc([nH]5)c(-c5c(F)c(F)c(F)c(F)c5F)c5nc(c(-c6c(F)c(F)c(F)c(F)c6F)c6ccc3[nH]6)C=C5)C=C4)cc2)CC1
REMARK SMILES IDX 28 1 27 2 26 3 24 4 25 5 23 7 20 8 21 9 100 10 22 11 99 12
REMARK SMILES IDX 19 13 2 14 3 15 16 16 18 17 17 18 1 19 4 22 5 24 6 25 14 26
REMARK SMILES IDX 7 27 13 28 15 29 8 30 9 31 10 32 11 33 12 34 29 35 30 36
REMARK SMILES IDX 31 37 32 38 33 39 34 40 35 42 36 43 37 44 98 45 38 46 97 47
REMARK SMILES IDX 39 48 40 49 41 50 91 51 42 52 96 53 90 54 92 55 43 56 95 57
REMARK SMILES IDX 89 58 88 59 44 61 76 62 56 63 75 64 57 65 60 66 74 67 93 68
REMARK SMILES IDX 58 69 59 70 73 72 94 73 61 74 45 75 46 76 54 77 47 78 48 79
REMARK SMILES IDX 52 80 55 81 49 82 50 83 53 84 51 85 77 86 78 87 86 88 79 89
REMARK SMILES IDX 80 90 84 91 87 92 81 93 82 94 85 95 83 96 62 97 63 98 71 99
REMARK SMILES IDX 64 100 65 101 69 102 72 103 66 104 67 105 70 106 68 107
REMARK H PARENT 26 6 1 20 1 21 4 23 33 41 92 60 60 71
REMARK Flexibility Score: inf
ROOT
ATOM      1  C   UNL     1       0.762   4.700   5.977  1.00  0.00     0.021 C 
ENDROOT
BRANCH   1   2
ATOM      2  C   UNL     1       0.938   4.993   4.490  1.00  0.00     0.116 C 
BRANCH   2   3
ATOM      3  N   UNL     1       2.189   5.686   4.237  1.00  0.00    -0.356 N 
ATOM      4  C   UNL     1       3.277   5.314   3.511  1.00  0.00     0.223 C 
ATOM      5  O   UNL     1       4.246   6.078   3.490  1.00  0.00    -0.275 OA
ATOM      6  H   UNL     1       2.261   6.572   4.660  1.00  0.00     0.163 HD
BRANCH   4   7
ATOM      7  C   UNL     1       3.304   4.013   2.726  1.00  0.00     0.082 C 
ATOM      8  N   UNL     1       1.986   1.626   1.911  1.00  0.00    -0.355 N 
ATOM      9  C   UNL     1       3.055   1.492   2.884  1.00  0.00     0.119 C 
ATOM     10  C   UNL     1       2.072   2.687   0.925  1.00  0.00     0.119 C 
ATOM     11  C   UNL     1       3.257   2.789   3.650  1.00  0.00     0.035 C 
ATOM     12  C   UNL     1       2.256   4.037   1.602  1.00  0.00     0.035 C 
BRANCH   8  13
ATOM     13  C   UNL     1       0.802   0.936   2.120  1.00  0.00     0.157 A 
ATOM     14  C   UNL     1       0.262   0.133   1.100  1.00  0.00     0.118 A 
ATOM     15  C   UNL     1      -0.881  -0.607   1.438  1.00  0.00     0.160 A 
ATOM     16  N   UNL     1      -1.484  -0.497   2.634  1.00  0.00    -0.217 NA
ATOM     17  N   UNL     1       0.223   1.031   3.333  1.00  0.00    -0.217 NA
ATOM     18  C   UNL     1      -0.898   0.319   3.516  1.00  0.00     0.226 A 
BRANCH  14  19
ATOM     19  N   UNL     1       0.938  -0.094  -0.115  1.00  0.00    -0.393 N 
ATOM     20  H   UNL     1       0.529  -0.662  -0.807  1.00  0.00     0.156 HD
ATOM     21  H   UNL     1       1.819   0.316  -0.273  1.00  0.00     0.156 HD
ENDBRANCH  14  19
BRANCH  15  22
ATOM     22  N   UNL     1      -1.351  -1.552   0.490  1.00  0.00    -0.322 N 
ATOM     23  H   UNL     1      -0.825  -1.639  -0.338  1.00  0.00     0.170 HD
BRANCH  22  24
ATOM     24  C   UNL     1      -2.473  -2.371   0.601  1.00  0.00     0.150 A 
ATOM     25  N   UNL     1      -2.219  -3.693   0.415  1.00  0.00    -0.237 NA
ATOM     26  C   UNL     1      -3.766  -1.910   0.878  1.00  0.00     0.084 A 
ATOM     27  C   UNL     1      -3.231  -4.573   0.598  1.00  0.00     0.126 A 
ATOM     28  C   UNL     1      -4.794  -2.842   1.048  1.00  0.00     0.039 A 
ATOM     29  Cl  UNL     1      -4.193  -0.236   0.915  1.00  0.00    -0.080 Cl
ATOM     30  C   UNL     1      -4.525  -4.207   0.927  1.00  0.00     0.075 A 
BRANCH  30  31
ATOM     31  C   UNL     1      -5.565  -5.261   1.137  1.00  0.00     0.417 C 
ATOM     32  F   UNL     1      -5.720  -6.063   0.048  1.00  0.00    -0.166 F 
ATOM     33  F   UNL     1      -5.262  -6.091   2.172  1.00  0.00    -0.166 F 
ATOM     34  F   UNL     1      -6.801  -4.758   1.408  1.00  0.00    -0.166 F 
ENDBRANCH  30  31
ENDBRANCH  22  24
ENDBRANCH  15  22
ENDBRANCH   8  13
ENDBRANCH   4   7
ENDBRANCH   2   3
ENDBRANCH   1   2
BRANCH   1  35
ATOM     35  C   UNL     1       0.513   5.949   6.829  1.00  0.00     0.002 C 
BRANCH  35  36
ATOM     36  C   UNL     1      -0.691   6.794   6.398  1.00  0.00     0.002 C 
BRANCH  36  37
ATOM     37  C   UNL     1      -2.004   6.022   6.260  1.00  0.00     0.021 C 
BRANCH  37  38
ATOM     38  C   UNL     1      -2.428   5.275   7.518  1.00  0.00     0.116 C 
BRANCH  38  39
ATOM     39  N   UNL     1      -2.688   6.180   8.626  1.00  0.00    -0.352 N 
ATOM     40  C   UNL     1      -3.839   6.354   9.350  1.00  0.00     0.251 C 
ATOM     41  H   UNL     1      -1.930   6.748   8.895  1.00  0.00     0.163 HD
ATOM     42  O   UNL     1      -3.955   7.304  10.119  1.00  0.00    -0.269 OA
BRANCH  40  43
ATOM     43  C   UNL     1      -4.952   5.398   9.186  1.00  0.00     0.039 A 
ATOM     44  C   UNL     1      -6.249   5.892   9.029  1.00  0.00     0.014 A 
ATOM     45  C   UNL     1      -4.715   4.020   9.187  1.00  0.00     0.014 A 
ATOM     46  C   UNL     1      -7.303   5.002   8.821  1.00  0.00     0.010 A 
ATOM     47  C   UNL     1      -5.754   3.140   8.904  1.00  0.00     0.010 A 
ATOM     48  C   UNL     1      -7.060   3.622   8.728  1.00  0.00    -0.014 A 
BRANCH  48  49
ATOM     49  C   UNL     1      -8.167   2.667   8.476  1.00  0.00     0.031 A 
ATOM     50  C   UNL     1      -8.545   1.665   9.531  1.00  0.00     0.074 A 
ATOM     51  C   UNL     1      -8.808   2.683   7.292  1.00  0.00     0.049 A 
ATOM     52  N   UNL     1      -9.452   0.721   9.488  1.00  0.00    -0.248 NA
ATOM     53  C   UNL     1      -7.795   1.714  10.798  1.00  0.00     0.031 C 
ATOM     54  C   UNL     1      -8.509   3.588   6.182  1.00  0.00     0.029 A 
ATOM     55  N   UNL     1      -9.844   1.913   6.822  1.00  0.00    -0.354 N 
ATOM     56  C   UNL     1      -9.379   0.072  10.713  1.00  0.00     0.074 A 
ATOM     57  C   UNL     1      -8.302   0.683  11.458  1.00  0.00     0.031 C 
ATOM     58  C   UNL     1      -9.361   3.344   5.173  1.00  0.00     0.029 A 
ATOM     59  C   UNL     1     -10.238   2.238   5.546  1.00  0.00     0.049 A 
ATOM     60  H   UNL     1     -10.265   1.197   7.350  1.00  0.00     0.167 HD
ATOM     61  C   UNL     1     -10.165  -0.924  11.184  1.00  0.00     0.037 A 
ATOM     62  C   UNL     1     -11.195   1.699   4.765  1.00  0.00     0.037 A 
ATOM     63  C   UNL     1     -11.253  -1.511  10.450  1.00  0.00     0.049 A 
ATOM     64  C   UNL     1     -12.026   0.564   5.305  1.00  0.00     0.074 A 
ATOM     65  C   UNL     1     -12.132  -2.497  10.860  1.00  0.00     0.029 A 
ATOM     66  N   UNL     1     -11.614  -1.163   9.157  1.00  0.00    -0.354 N 
ATOM     67  N   UNL     1     -11.986  -0.002   6.487  1.00  0.00    -0.248 NA
ATOM     68  C   UNL     1     -13.039  -0.005   4.404  1.00  0.00     0.031 C 
ATOM     69  C   UNL     1     -12.993  -2.783   9.799  1.00  0.00     0.029 A 
ATOM     70  C   UNL     1     -12.688  -1.935   8.746  1.00  0.00     0.049 A 
ATOM     71  H   UNL     1     -11.173  -0.471   8.613  1.00  0.00     0.167 HD
ATOM     72  C   UNL     1     -12.980  -0.971   6.481  1.00  0.00     0.074 A 
ATOM     73  C   UNL     1     -13.623  -0.903   5.186  1.00  0.00     0.031 C 
ATOM     74  C   UNL     1     -13.326  -1.844   7.458  1.00  0.00     0.037 A 
BRANCH  61  75
ATOM     75  C   UNL     1      -9.905  -1.433  12.571  1.00  0.00     0.064 A 
ATOM     76  C   UNL     1     -10.226  -0.667  13.701  1.00  0.00     0.173 A 
ATOM     77  C   UNL     1      -9.430  -2.738  12.774  1.00  0.00     0.173 A 
ATOM     78  F   UNL     1     -10.671   0.591  13.559  1.00  0.00    -0.203 F 
ATOM     79  C   UNL     1     -10.081  -1.187  14.983  1.00  0.00     0.198 A 
ATOM     80  C   UNL     1      -9.313  -3.265  14.057  1.00  0.00     0.198 A 
ATOM     81  F   UNL     1      -9.113  -3.513  11.726  1.00  0.00    -0.203 F 
ATOM     82  F   UNL     1     -10.374  -0.430  16.049  1.00  0.00    -0.200 F 
ATOM     83  C   UNL     1      -9.638  -2.490  15.160  1.00  0.00     0.200 A 
ATOM     84  F   UNL     1      -8.901  -4.529  14.226  1.00  0.00    -0.200 F 
ATOM     85  F   UNL     1      -9.528  -2.999  16.395  1.00  0.00    -0.200 F 
ENDBRANCH  61  75
BRANCH  62  86
ATOM     86  C   UNL     1     -11.435   2.233   3.398  1.00  0.00     0.064 A 
ATOM     87  C   UNL     1     -12.633   2.888   3.080  1.00  0.00     0.173 A 
ATOM     88  C   UNL     1     -10.483   2.088   2.377  1.00  0.00     0.173 A 
ATOM     89  F   UNL     1     -13.585   3.033   4.015  1.00  0.00    -0.203 F 
ATOM     90  C   UNL     1     -12.881   3.355   1.791  1.00  0.00     0.198 A 
ATOM     91  C   UNL     1     -10.718   2.585   1.096  1.00  0.00     0.198 A 
ATOM     92  F   UNL     1      -9.319   1.470   2.626  1.00  0.00    -0.203 F 
ATOM     93  F   UNL     1     -14.057   3.929   1.503  1.00  0.00    -0.200 F 
ATOM     94  C   UNL     1     -11.921   3.209   0.801  1.00  0.00     0.200 A 
ATOM     95  F   UNL     1      -9.782   2.453   0.147  1.00  0.00    -0.200 F 
ATOM     96  F   UNL     1     -12.158   3.660  -0.438  1.00  0.00    -0.200 F 
ENDBRANCH  62  86
BRANCH  74  97
ATOM     97  C   UNL     1     -14.463  -2.785   7.185  1.00  0.00     0.064 A 
ATOM     98  C   UNL     1     -14.327  -3.858   6.292  1.00  0.00     0.173 A 
ATOM     99  C   UNL     1     -15.671  -2.664   7.888  1.00  0.00     0.173 A 
ATOM    100  F   UNL     1     -13.195  -4.011   5.588  1.00  0.00    -0.203 F 
ATOM    101  C   UNL     1     -15.365  -4.766   6.101  1.00  0.00     0.198 A 
ATOM    102  C   UNL     1     -16.694  -3.593   7.720  1.00  0.00     0.198 A 
ATOM    103  F   UNL     1     -15.848  -1.662   8.762  1.00  0.00    -0.203 F 
ATOM    104  F   UNL     1     -15.226  -5.762   5.216  1.00  0.00    -0.200 F 
ATOM    105  C   UNL     1     -16.542  -4.640   6.824  1.00  0.00     0.200 A 
ATOM    106  F   UNL     1     -17.823  -3.481   8.434  1.00  0.00    -0.200 F 
ATOM    107  F   UNL     1     -17.531  -5.528   6.655  1.00  0.00    -0.200 F 
ENDBRANCH  74  97
ENDBRANCH  48  49
ENDBRANCH  40  43
ENDBRANCH  38  39
ENDBRANCH  37  38
ENDBRANCH  36  37
ENDBRANCH  35  36
ENDBRANCH   1  35
TORSDOF 18
