REMARK SMILES O=C(NCCCCCCNC(=O)[C@@H]1CCCN(C(=O)Nc2ccccc2)C1)c1ccc(-c2c3nc(c(-c4c(F)c(F)c(F)c(F)c4F)c4ccc([nH]4)c(-c4c(F)c(F)c(F)c(F)c4F)c4nc(c(-c5c(F)c(F)c(F)c(F)c5F)c5ccc2[nH]5)C=C4)C=C3)cc1
REMARK SMILES IDX 6 1 5 2 4 3 3 4 1 5 2 6 28 8 29 9 90 10 30 11 89 12 31 13
REMARK SMILES IDX 32 14 33 15 83 16 34 17 88 18 82 19 84 20 35 21 87 22 81 23
REMARK SMILES IDX 80 24 36 26 68 27 48 28 67 29 49 30 52 31 66 32 85 33 50 34
REMARK SMILES IDX 51 35 65 37 86 38 53 39 37 40 38 41 46 42 39 43 40 44 44 45
REMARK SMILES IDX 47 46 41 47 42 48 45 49 43 50 69 51 70 52 78 53 71 54 72 55
REMARK SMILES IDX 76 56 79 57 73 58 74 59 77 60 75 61 54 62 55 63 63 64 56 65
REMARK SMILES IDX 57 66 61 67 64 68 58 69 59 70 62 71 60 72 7 73 8 74 9 75
REMARK SMILES IDX 10 76 11 77 12 79 13 80 14 81 27 82 15 83 17 84 16 85 18 86
REMARK SMILES IDX 19 87 20 88 21 90 22 91 26 92 23 93 25 94 24 95
REMARK H PARENT 3 7 84 25 52 36 10 78 20 89
REMARK Flexibility Score: inf
ROOT
ATOM      1  C   UNL     1       3.714  -3.648  -1.525  1.00  0.00     0.002 C 
ENDROOT
BRANCH   1   2
ATOM      2  C   UNL     1       4.361  -2.702  -0.512  1.00  0.00     0.021 C 
BRANCH   2   3
ATOM      3  C   UNL     1       4.244  -1.220  -0.851  1.00  0.00     0.116 C 
BRANCH   3   4
ATOM      4  N   UNL     1       2.861  -0.766  -0.903  1.00  0.00    -0.352 N 
ATOM      5  O   UNL     1       0.974   0.250  -0.202  1.00  0.00    -0.269 OA
ATOM      6  C   UNL     1       2.194   0.138  -0.115  1.00  0.00     0.251 C 
ATOM      7  H   UNL     1       2.319  -1.172  -1.618  1.00  0.00     0.163 HD
BRANCH   6   8
ATOM      8  C   UNL     1       2.937   0.967   0.857  1.00  0.00     0.039 A 
ATOM      9  C   UNL     1       4.142   1.573   0.500  1.00  0.00     0.014 A 
ATOM     10  C   UNL     1       2.414   1.154   2.140  1.00  0.00     0.014 A 
ATOM     11  C   UNL     1       4.905   2.215   1.467  1.00  0.00     0.010 A 
ATOM     12  C   UNL     1       3.138   1.885   3.087  1.00  0.00     0.010 A 
ATOM     13  C   UNL     1       4.412   2.383   2.772  1.00  0.00    -0.014 A 
BRANCH  13  14
ATOM     14  C   UNL     1       5.240   3.105   3.773  1.00  0.00     0.031 A 
ATOM     15  C   UNL     1       5.755   2.409   5.003  1.00  0.00     0.074 A 
ATOM     16  C   UNL     1       5.566   4.392   3.541  1.00  0.00     0.049 A 
ATOM     17  N   UNL     1       6.532   2.873   5.951  1.00  0.00    -0.248 NA
ATOM     18  C   UNL     1       5.339   1.012   5.204  1.00  0.00     0.031 C 
ATOM     19  C   UNL     1       5.114   5.179   2.392  1.00  0.00     0.029 A 
ATOM     20  N   UNL     1       6.368   5.257   4.240  1.00  0.00    -0.354 N 
ATOM     21  C   UNL     1       6.676   1.840   6.869  1.00  0.00     0.074 A 
ATOM     22  C   UNL     1       5.886   0.731   6.379  1.00  0.00     0.031 C 
ATOM     23  C   UNL     1       5.689   6.389   2.434  1.00  0.00     0.029 A 
ATOM     24  C   UNL     1       6.500   6.486   3.642  1.00  0.00     0.049 A 
ATOM     25  H   UNL     1       6.807   5.019   5.089  1.00  0.00     0.167 HD
ATOM     26  C   UNL     1       7.407   1.817   8.009  1.00  0.00     0.037 A 
ATOM     27  C   UNL     1       7.190   7.575   4.027  1.00  0.00     0.037 A 
ATOM     28  C   UNL     1       8.211   2.917   8.481  1.00  0.00     0.049 A 
ATOM     29  C   UNL     1       7.985   7.522   5.301  1.00  0.00     0.074 A 
ATOM     30  C   UNL     1       9.023   2.976   9.601  1.00  0.00     0.029 A 
ATOM     31  N   UNL     1       8.299   4.155   7.860  1.00  0.00    -0.354 N 
ATOM     32  N   UNL     1       8.150   6.523   6.133  1.00  0.00    -0.248 NA
ATOM     33  C   UNL     1       8.693   8.750   5.686  1.00  0.00     0.031 C 
ATOM     34  C   UNL     1       9.563   4.264   9.685  1.00  0.00     0.029 A 
ATOM     35  C   UNL     1       9.135   4.991   8.586  1.00  0.00     0.049 A 
ATOM     36  H   UNL     1       7.837   4.404   7.027  1.00  0.00     0.167 HD
ATOM     37  C   UNL     1       9.000   6.991   7.125  1.00  0.00     0.074 A 
ATOM     38  C   UNL     1       9.331   8.359   6.779  1.00  0.00     0.031 C 
ATOM     39  C   UNL     1       9.463   6.346   8.224  1.00  0.00     0.037 A 
BRANCH  26  40
ATOM     40  C   UNL     1       7.360   0.569   8.846  1.00  0.00     0.064 A 
ATOM     41  C   UNL     1       7.970  -0.625   8.431  1.00  0.00     0.173 A 
ATOM     42  C   UNL     1       6.734   0.581  10.102  1.00  0.00     0.173 A 
ATOM     43  F   UNL     1       8.574  -0.695   7.235  1.00  0.00    -0.203 F 
ATOM     44  C   UNL     1       7.931  -1.766   9.230  1.00  0.00     0.198 A 
ATOM     45  C   UNL     1       6.723  -0.552  10.911  1.00  0.00     0.198 A 
ATOM     46  F   UNL     1       6.142   1.698  10.552  1.00  0.00    -0.203 F 
ATOM     47  F   UNL     1       8.480  -2.907   8.792  1.00  0.00    -0.200 F 
ATOM     48  C   UNL     1       7.314  -1.726  10.472  1.00  0.00     0.200 A 
ATOM     49  F   UNL     1       6.138  -0.508  12.117  1.00  0.00    -0.200 F 
ATOM     50  F   UNL     1       7.285  -2.823  11.242  1.00  0.00    -0.200 F 
ENDBRANCH  26  40
BRANCH  27  51
ATOM     51  C   UNL     1       7.168   8.800   3.188  1.00  0.00     0.064 A 
ATOM     52  C   UNL     1       8.318   9.232   2.513  1.00  0.00     0.173 A 
ATOM     53  C   UNL     1       5.999   9.561   3.038  1.00  0.00     0.173 A 
ATOM     54  F   UNL     1       9.464   8.548   2.638  1.00  0.00    -0.203 F 
ATOM     55  C   UNL     1       8.304  10.388   1.736  1.00  0.00     0.198 A 
ATOM     56  C   UNL     1       5.977  10.698   2.236  1.00  0.00     0.198 A 
ATOM     57  F   UNL     1       4.870   9.185   3.658  1.00  0.00    -0.203 F 
ATOM     58  F   UNL     1       9.428  10.804   1.137  1.00  0.00    -0.200 F 
ATOM     59  C   UNL     1       7.132  11.117   1.592  1.00  0.00     0.200 A 
ATOM     60  F   UNL     1       4.839  11.388   2.085  1.00  0.00    -0.200 F 
ATOM     61  F   UNL     1       7.117  12.224   0.839  1.00  0.00    -0.200 F 
ENDBRANCH  27  51
BRANCH  39  62
ATOM     62  C   UNL     1      10.418   7.099   9.105  1.00  0.00     0.064 A 
ATOM     63  C   UNL     1       9.999   8.175   9.901  1.00  0.00     0.173 A 
ATOM     64  C   UNL     1      11.770   6.727   9.162  1.00  0.00     0.173 A 
ATOM     65  F   UNL     1       8.720   8.581   9.870  1.00  0.00    -0.203 F 
ATOM     66  C   UNL     1      10.906   8.873  10.695  1.00  0.00     0.198 A 
ATOM     67  C   UNL     1      12.667   7.407   9.981  1.00  0.00     0.198 A 
ATOM     68  F   UNL     1      12.221   5.701   8.424  1.00  0.00    -0.203 F 
ATOM     69  F   UNL     1      10.495   9.936  11.401  1.00  0.00    -0.200 F 
ATOM     70  C   UNL     1      12.236   8.485  10.739  1.00  0.00     0.200 A 
ATOM     71  F   UNL     1      13.949   7.021  10.032  1.00  0.00    -0.200 F 
ATOM     72  F   UNL     1      13.107   9.158  11.503  1.00  0.00    -0.200 F 
ENDBRANCH  39  62
ENDBRANCH  13  14
ENDBRANCH   6   8
ENDBRANCH   3   4
ENDBRANCH   2   3
ENDBRANCH   1   2
BRANCH   1  73
ATOM     73  C   UNL     1       4.219  -3.524  -2.968  1.00  0.00     0.002 C 
BRANCH  73  74
ATOM     74  C   UNL     1       5.737  -3.600  -3.148  1.00  0.00     0.021 C 
BRANCH  74  75
ATOM     75  C   UNL     1       6.375  -4.905  -2.683  1.00  0.00     0.116 C 
BRANCH  75  76
ATOM     76  N   UNL     1       6.454  -5.892  -3.737  1.00  0.00    -0.356 N 
ATOM     77  C   UNL     1       7.498  -6.457  -4.392  1.00  0.00     0.224 C 
ATOM     78  H   UNL     1       5.575  -6.217  -4.040  1.00  0.00     0.163 HD
ATOM     79  O   UNL     1       7.207  -7.333  -5.218  1.00  0.00    -0.275 OA
BRANCH  77  80
ATOM     80  C   UNL     1       8.971  -6.079  -4.206  1.00  0.00     0.098 C 
ATOM     81  C   UNL     1       9.497  -5.915  -2.787  1.00  0.00     0.017 C 
ATOM     82  C   UNL     1       9.407  -4.958  -5.139  1.00  0.00     0.134 C 
ATOM     83  C   UNL     1       9.838  -4.491  -2.352  1.00  0.00     0.022 C 
ATOM     84  N   UNL     1       9.047  -3.637  -4.638  1.00  0.00    -0.324 N 
ATOM     85  C   UNL     1       9.525  -3.328  -3.299  1.00  0.00     0.121 C 
BRANCH  84  86
ATOM     86  C   UNL     1       8.345  -2.812  -5.495  1.00  0.00     0.321 C 
ATOM     87  O   UNL     1       7.971  -3.199  -6.608  1.00  0.00    -0.248 OA
ATOM     88  N   UNL     1       7.869  -1.596  -5.127  1.00  0.00    -0.308 N 
ATOM     89  H   UNL     1       7.106  -1.309  -5.679  1.00  0.00     0.171 HD
BRANCH  88  90
ATOM     90  C   UNL     1       8.203  -0.655  -4.153  1.00  0.00     0.042 A 
ATOM     91  C   UNL     1       7.154   0.032  -3.537  1.00  0.00     0.026 A 
ATOM     92  C   UNL     1       9.518  -0.365  -3.795  1.00  0.00     0.026 A 
ATOM     93  C   UNL     1       7.410   0.885  -2.464  1.00  0.00     0.002 A 
ATOM     94  C   UNL     1       9.776   0.491  -2.723  1.00  0.00     0.002 A 
ATOM     95  C   UNL     1       8.721   1.094  -2.040  1.00  0.00     0.000 A 
ENDBRANCH  88  90
ENDBRANCH  84  86
ENDBRANCH  77  80
ENDBRANCH  75  76
ENDBRANCH  74  75
ENDBRANCH  73  74
ENDBRANCH   1  73
TORSDOF 15
