REMARK SMILES C[C@H]1C[N@H+]2CCC[C@@H]2CN1c1cc(Cl)ccc1C(=O)NCCCCCCNC(=O)c1ccc(-c2c3nc(c(-c4c(F)c(F)c(F)c(F)c4F)c4ccc([nH]4)c(-c4c(F)c(F)c(F)c(F)c4F)c4nc(c(-c5c(F)c(F)c(F)c(F)c5F)c5ccc2[nH]5)C=C4)C=C3)cc1
REMARK SMILES IDX 24 1 23 2 22 3 21 4 20 5 18 6 19 7 17 9 11 10 12 11 13 12
REMARK SMILES IDX 16 13 14 14 15 15 10 16 1 17 2 18 3 19 4 20 9 21 5 22 8 23
REMARK SMILES IDX 6 25 7 26 25 27 26 28 27 29 28 30 29 32 30 33 31 34 92 35
REMARK SMILES IDX 32 36 91 37 33 38 34 39 35 40 85 41 36 42 90 43 84 44 86 45
REMARK SMILES IDX 37 46 89 47 83 48 82 49 38 51 70 52 50 53 69 54 51 55 54 56
REMARK SMILES IDX 68 57 87 58 52 59 53 60 67 62 88 63 55 64 39 65 40 66 48 67
REMARK SMILES IDX 41 68 42 69 46 70 49 71 43 72 44 73 47 74 45 75 71 76 72 77
REMARK SMILES IDX 80 78 73 79 74 80 78 81 81 82 75 83 76 84 79 85 77 86 56 87
REMARK SMILES IDX 57 88 65 89 58 90 59 91 63 92 66 93 60 94 61 95 64 96 62 97
REMARK H PARENT 20 8 4 24 27 31 86 50 54 61
REMARK Flexibility Score: inf
ROOT
ATOM      1  C   UNL     1      -3.560   2.105   0.658  1.00  0.00     0.002 C 
ENDROOT
BRANCH   1   2
ATOM      2  C   UNL     1      -3.359   1.679  -0.803  1.00  0.00     0.002 C 
BRANCH   2   3
ATOM      3  C   UNL     1      -2.010   1.062  -1.205  1.00  0.00     0.021 C 
BRANCH   3   4
ATOM      4  C   UNL     1      -1.525  -0.156  -0.417  1.00  0.00     0.116 C 
BRANCH   4   5
ATOM      5  N   UNL     1      -2.419  -1.292  -0.424  1.00  0.00    -0.352 N 
ATOM      6  C   UNL     1      -2.135  -2.616  -0.186  1.00  0.00     0.253 C 
ATOM      7  O   UNL     1      -3.078  -3.419  -0.174  1.00  0.00    -0.269 OA
ATOM      8  H   UNL     1      -3.361  -1.090  -0.627  1.00  0.00     0.163 HD
BRANCH   6   9
ATOM      9  C   UNL     1      -0.754  -3.154  -0.011  1.00  0.00     0.063 A 
ATOM     10  C   UNL     1       0.196  -2.688   0.933  1.00  0.00     0.052 A 
ATOM     11  C   UNL     1       1.430  -3.368   1.008  1.00  0.00     0.047 A 
ATOM     12  C   UNL     1       1.714  -4.466   0.194  1.00  0.00     0.043 A 
ATOM     13  C   UNL     1      -0.460  -4.282  -0.806  1.00  0.00     0.017 A 
ATOM     14  Cl  UNL     1       3.234  -5.261   0.332  1.00  0.00    -0.084 Cl
ATOM     15  C   UNL     1       0.770  -4.933  -0.709  1.00  0.00     0.021 A 
BRANCH  10  16
ATOM     16  N   UNL     1      -0.080  -1.653   1.828  1.00  0.00    -0.357 N 
ATOM     17  C   UNL     1       1.742  -0.078   1.080  1.00  0.00     0.037 C 
ATOM     18  C   UNL     1       0.948  -0.656   2.262  1.00  0.00     0.134 C 
ATOM     19  C   UNL     1       0.270   0.551   3.011  1.00  0.00     0.287 C 
ATOM     20  N   UNL     1      -0.713   0.141   4.020  1.00  0.00    -0.329 N 
ATOM     21  C   UNL     1      -1.032  -2.047   2.902  1.00  0.00     0.182 C 
ATOM     22  C   UNL     1      -1.507   1.219   4.603  1.00  0.00     0.262 C 
ATOM     23  C   UNL     1      -1.701  -0.777   3.423  1.00  0.00     0.203 C 
ATOM     24  H   UNL     1      -0.139  -0.277   4.752  1.00  0.00     0.348 HD
ATOM     25  C   UNL     1      -2.808   0.530   5.039  1.00  0.00     0.068 C 
ATOM     26  C   UNL     1      -2.671  -0.921   4.574  1.00  0.00     0.073 C 
ENDBRANCH  10  16
ENDBRANCH   6   9
ENDBRANCH   4   5
ENDBRANCH   3   4
ENDBRANCH   2   3
ENDBRANCH   1   2
BRANCH   1  27
ATOM     27  C   UNL     1      -2.517   3.050   1.264  1.00  0.00     0.021 C 
BRANCH  27  28
ATOM     28  C   UNL     1      -2.413   4.439   0.638  1.00  0.00     0.116 C 
BRANCH  28  29
ATOM     29  N   UNL     1      -3.378   5.380   1.185  1.00  0.00    -0.352 N 
ATOM     30  C   UNL     1      -3.351   6.317   2.188  1.00  0.00     0.251 C 
ATOM     31  H   UNL     1      -4.251   5.335   0.731  1.00  0.00     0.163 HD
ATOM     32  O   UNL     1      -4.428   6.859   2.466  1.00  0.00    -0.269 OA
BRANCH  30  33
ATOM     33  C   UNL     1      -2.143   6.726   2.966  1.00  0.00     0.039 A 
ATOM     34  C   UNL     1      -2.358   7.307   4.231  1.00  0.00     0.014 A 
ATOM     35  C   UNL     1      -0.835   6.696   2.484  1.00  0.00     0.014 A 
ATOM     36  C   UNL     1      -1.299   7.840   4.984  1.00  0.00     0.010 A 
ATOM     37  C   UNL     1       0.236   7.155   3.271  1.00  0.00     0.010 A 
ATOM     38  C   UNL     1       0.018   7.766   4.516  1.00  0.00    -0.014 A 
BRANCH  38  39
ATOM     39  C   UNL     1       1.154   8.391   5.260  1.00  0.00     0.031 A 
ATOM     40  C   UNL     1       1.952   9.509   4.628  1.00  0.00     0.074 A 
ATOM     41  C   UNL     1       1.508   7.950   6.485  1.00  0.00     0.049 A 
ATOM     42  N   UNL     1       3.039  10.105   5.056  1.00  0.00    -0.248 NA
ATOM     43  C   UNL     1       1.480  10.005   3.325  1.00  0.00     0.031 C 
ATOM     44  C   UNL     1       0.852   6.871   7.221  1.00  0.00     0.029 A 
ATOM     45  N   UNL     1       2.522   8.354   7.324  1.00  0.00    -0.354 N 
ATOM     46  C   UNL     1       3.403  11.003   4.059  1.00  0.00     0.074 A 
ATOM     47  C   UNL     1       2.438  10.857   2.991  1.00  0.00     0.031 C 
ATOM     48  C   UNL     1       1.465   6.709   8.406  1.00  0.00     0.029 A 
ATOM     49  C   UNL     1       2.582   7.646   8.501  1.00  0.00     0.049 A 
ATOM     50  H   UNL     1       3.146   9.082   7.103  1.00  0.00     0.167 HD
ATOM     51  C   UNL     1       4.433  11.883   4.037  1.00  0.00     0.037 A 
ATOM     52  C   UNL     1       3.442   7.732   9.536  1.00  0.00     0.037 A 
ATOM     53  C   UNL     1       5.350  12.098   5.126  1.00  0.00     0.049 A 
ATOM     54  C   UNL     1       4.556   8.747   9.502  1.00  0.00     0.074 A 
ATOM     55  C   UNL     1       6.373  13.028   5.221  1.00  0.00     0.029 A 
ATOM     56  N   UNL     1       5.345  11.387   6.315  1.00  0.00    -0.354 N 
ATOM     57  N   UNL     1       4.856   9.617   8.570  1.00  0.00    -0.248 NA
ATOM     58  C   UNL     1       5.448   8.793  10.671  1.00  0.00     0.031 C 
ATOM     59  C   UNL     1       7.007  12.859   6.456  1.00  0.00     0.029 A 
ATOM     60  C   UNL     1       6.354  11.851   7.145  1.00  0.00     0.049 A 
ATOM     61  H   UNL     1       4.719  10.661   6.537  1.00  0.00     0.167 HD
ATOM     62  C   UNL     1       5.942  10.335   9.055  1.00  0.00     0.074 A 
ATOM     63  C   UNL     1       6.245   9.807  10.367  1.00  0.00     0.031 C 
ATOM     64  C   UNL     1       6.628  11.342   8.462  1.00  0.00     0.037 A 
BRANCH  51  65
ATOM     65  C   UNL     1       4.633  12.701   2.794  1.00  0.00     0.064 A 
ATOM     66  C   UNL     1       3.774  13.756   2.458  1.00  0.00     0.173 A 
ATOM     67  C   UNL     1       5.743  12.468   1.965  1.00  0.00     0.173 A 
ATOM     68  F   UNL     1       2.696  14.015   3.212  1.00  0.00    -0.203 F 
ATOM     69  C   UNL     1       4.005  14.535   1.326  1.00  0.00     0.198 A 
ATOM     70  C   UNL     1       5.986  13.265   0.851  1.00  0.00     0.198 A 
ATOM     71  F   UNL     1       6.602  11.477   2.248  1.00  0.00    -0.203 F 
ATOM     72  F   UNL     1       3.149  15.514   1.003  1.00  0.00    -0.200 F 
ATOM     73  C   UNL     1       5.114  14.294   0.529  1.00  0.00     0.200 A 
ATOM     74  F   UNL     1       7.066  13.041   0.089  1.00  0.00    -0.200 F 
ATOM     75  F   UNL     1       5.341  15.053  -0.552  1.00  0.00    -0.200 F 
ENDBRANCH  51  65
BRANCH  52  76
ATOM     76  C   UNL     1       3.284   6.843  10.717  1.00  0.00     0.064 A 
ATOM     77  C   UNL     1       2.884   7.361  11.957  1.00  0.00     0.173 A 
ATOM     78  C   UNL     1       3.568   5.472  10.644  1.00  0.00     0.173 A 
ATOM     79  F   UNL     1       2.629   8.672  12.083  1.00  0.00    -0.203 F 
ATOM     80  C   UNL     1       2.801   6.548  13.085  1.00  0.00     0.198 A 
ATOM     81  C   UNL     1       3.457   4.654  11.767  1.00  0.00     0.198 A 
ATOM     82  F   UNL     1       3.957   4.927   9.482  1.00  0.00    -0.203 F 
ATOM     83  F   UNL     1       2.472   7.081  14.270  1.00  0.00    -0.200 F 
ATOM     84  C   UNL     1       3.084   5.194  12.989  1.00  0.00     0.200 A 
ATOM     85  F   UNL     1       3.724   3.344  11.668  1.00  0.00    -0.200 F 
ATOM     86  F   UNL     1       3.010   4.413  14.075  1.00  0.00    -0.200 F 
ENDBRANCH  52  76
BRANCH  64  87
ATOM     87  C   UNL     1       7.735  11.984   9.245  1.00  0.00     0.064 A 
ATOM     88  C   UNL     1       8.960  11.336   9.457  1.00  0.00     0.173 A 
ATOM     89  C   UNL     1       7.580  13.282   9.755  1.00  0.00     0.173 A 
ATOM     90  F   UNL     1       9.151  10.089   9.001  1.00  0.00    -0.203 F 
ATOM     91  C   UNL     1       9.982  11.955  10.171  1.00  0.00     0.198 A 
ATOM     92  C   UNL     1       8.614  13.909  10.446  1.00  0.00     0.198 A 
ATOM     93  F   UNL     1       6.430  13.948   9.574  1.00  0.00    -0.203 F 
ATOM     94  F   UNL     1      11.130  11.301  10.398  1.00  0.00    -0.200 F 
ATOM     95  C   UNL     1       9.811  13.243  10.659  1.00  0.00     0.200 A 
ATOM     96  F   UNL     1       8.451  15.156  10.907  1.00  0.00    -0.200 F 
ATOM     97  F   UNL     1      10.799  13.839  11.341  1.00  0.00    -0.200 F 
ENDBRANCH  64  87
ENDBRANCH  38  39
ENDBRANCH  30  33
ENDBRANCH  28  29
ENDBRANCH  27  28
ENDBRANCH   1  27
TORSDOF 14
