REMARK SMILES O=C(NCCCCCCNC(=O)[C@@H](Cc1ccc(O)cc1)Nc1c2ccccc2nc2ccccc12)c1ccc(-c2c3nc(c(-c4c(F)c(F)c(F)c(F)c4F)c4ccc([nH]4)c(-c4c(F)c(F)c(F)c(F)c4F)c4nc(c(-c5c(F)c(F)c(F)c(F)c5F)c5ccc2[nH]5)C=C4)C=C3)cc1
REMARK SMILES IDX 7 1 6 2 5 3 4 4 3 5 1 6 2 7 37 9 38 10 99 11 39 12 98 13
REMARK SMILES IDX 40 14 41 15 42 16 92 17 43 18 97 19 91 20 93 21 44 22 96 23
REMARK SMILES IDX 90 24 89 25 45 27 77 28 57 29 76 30 58 31 61 32 75 33 94 34
REMARK SMILES IDX 59 35 60 36 74 38 95 39 62 40 46 41 47 42 55 43 48 44 49 45
REMARK SMILES IDX 53 46 56 47 50 48 51 49 54 50 52 51 78 52 79 53 87 54 80 55
REMARK SMILES IDX 81 56 85 57 88 58 82 59 83 60 86 61 84 62 63 63 64 64 72 65
REMARK SMILES IDX 65 66 66 67 70 68 73 69 67 70 68 71 71 72 69 73 8 74 9 75
REMARK SMILES IDX 10 76 11 77 12 79 13 80 14 81 15 82 16 83 21 84 17 85 20 86
REMARK SMILES IDX 18 87 19 88 22 90 23 92 24 93 36 94 25 95 29 96 31 97 35 98
REMARK SMILES IDX 26 99 28 100 30 101 32 102 34 103 27 104 33 105
REMARK H PARENT 3 8 93 26 61 37 10 78 19 89 22 91
REMARK Flexibility Score: inf
ROOT
ATOM      1  C   UNL     1       3.541  -4.872   0.171  1.00  0.00     0.002 C 
ENDROOT
BRANCH   1   2
ATOM      2  C   UNL     1       3.364  -3.874   1.317  1.00  0.00     0.002 C 
BRANCH   2   3
ATOM      3  C   UNL     1       4.186  -2.583   1.257  1.00  0.00     0.021 C 
BRANCH   3   4
ATOM      4  C   UNL     1       4.049  -1.737  -0.009  1.00  0.00     0.116 C 
BRANCH   4   5
ATOM      5  N   UNL     1       2.696  -1.264  -0.242  1.00  0.00    -0.352 N 
ATOM      6  O   UNL     1       0.926   0.119  -0.261  1.00  0.00    -0.269 OA
ATOM      7  C   UNL     1       2.155  -0.012  -0.151  1.00  0.00     0.251 C 
ATOM      8  H   UNL     1       2.060  -1.965  -0.512  1.00  0.00     0.163 HD
BRANCH   7   9
ATOM      9  C   UNL     1       2.979   1.193   0.088  1.00  0.00     0.039 A 
ATOM     10  C   UNL     1       4.175   1.421  -0.598  1.00  0.00     0.014 A 
ATOM     11  C   UNL     1       2.485   2.176   0.955  1.00  0.00     0.014 A 
ATOM     12  C   UNL     1       4.918   2.577  -0.345  1.00  0.00     0.010 A 
ATOM     13  C   UNL     1       3.197   3.362   1.160  1.00  0.00     0.010 A 
ATOM     14  C   UNL     1       4.430   3.567   0.524  1.00  0.00    -0.014 A 
BRANCH  14  15
ATOM     15  C   UNL     1       5.178   4.840   0.701  1.00  0.00     0.031 A 
ATOM     16  C   UNL     1       5.803   5.199   2.019  1.00  0.00     0.074 A 
ATOM     17  C   UNL     1       5.283   5.688  -0.341  1.00  0.00     0.049 A 
ATOM     18  N   UNL     1       6.494   6.263   2.345  1.00  0.00    -0.248 NA
ATOM     19  C   UNL     1       5.620   4.242   3.120  1.00  0.00     0.031 C 
ATOM     20  C   UNL     1       4.698   5.468  -1.664  1.00  0.00     0.029 A 
ATOM     21  N   UNL     1       5.919   6.899  -0.455  1.00  0.00    -0.354 N 
ATOM     22  C   UNL     1       6.819   6.111   3.687  1.00  0.00     0.074 A 
ATOM     23  C   UNL     1       6.222   4.866   4.124  1.00  0.00     0.031 C 
ATOM     24  C   UNL     1       5.030   6.490  -2.466  1.00  0.00     0.029 A 
ATOM     25  C   UNL     1       5.809   7.460  -1.703  1.00  0.00     0.049 A 
ATOM     26  H   UNL     1       6.407   7.324   0.287  1.00  0.00     0.167 HD
ATOM     27  C   UNL     1       7.558   6.929   4.477  1.00  0.00     0.037 A 
ATOM     28  C   UNL     1       6.274   8.630  -2.180  1.00  0.00     0.037 A 
ATOM     29  C   UNL     1       8.156   8.165   4.038  1.00  0.00     0.049 A 
ATOM     30  C   UNL     1       7.065   9.532  -1.276  1.00  0.00     0.074 A 
ATOM     31  C   UNL     1       8.962   9.036   4.751  1.00  0.00     0.029 A 
ATOM     32  N   UNL     1       8.001   8.714   2.772  1.00  0.00    -0.354 N 
ATOM     33  N   UNL     1       7.416   9.349  -0.027  1.00  0.00    -0.248 NA
ATOM     34  C   UNL     1       7.524  10.805  -1.849  1.00  0.00     0.031 C 
ATOM     35  C   UNL     1       9.254  10.134   3.934  1.00  0.00     0.029 A 
ATOM     36  C   UNL     1       8.674   9.924   2.693  1.00  0.00     0.049 A 
ATOM     37  H   UNL     1       7.489   8.304   2.038  1.00  0.00     0.167 HD
ATOM     38  C   UNL     1       8.151  10.470   0.331  1.00  0.00     0.074 A 
ATOM     39  C   UNL     1       8.211  11.321  -0.839  1.00  0.00     0.031 C 
ATOM     40  C   UNL     1       8.724  10.765   1.524  1.00  0.00     0.037 A 
BRANCH  27  41
ATOM     41  C   UNL     1       7.750   6.522   5.910  1.00  0.00     0.064 A 
ATOM     42  C   UNL     1       8.561   5.433   6.265  1.00  0.00     0.173 A 
ATOM     43  C   UNL     1       7.142   7.250   6.945  1.00  0.00     0.173 A 
ATOM     44  F   UNL     1       9.159   4.699   5.315  1.00  0.00    -0.203 F 
ATOM     45  C   UNL     1       8.731   5.071   7.599  1.00  0.00     0.198 A 
ATOM     46  C   UNL     1       7.338   6.902   8.279  1.00  0.00     0.198 A 
ATOM     47  F   UNL     1       6.364   8.306   6.662  1.00  0.00    -0.203 F 
ATOM     48  F   UNL     1       9.472   3.998   7.910  1.00  0.00    -0.200 F 
ATOM     49  C   UNL     1       8.125   5.808   8.605  1.00  0.00     0.200 A 
ATOM     50  F   UNL     1       6.762   7.624   9.250  1.00  0.00    -0.200 F 
ATOM     51  F   UNL     1       8.292   5.459   9.888  1.00  0.00    -0.200 F 
ENDBRANCH  27  41
BRANCH  28  52
ATOM     52  C   UNL     1       6.011   9.002  -3.594  1.00  0.00     0.064 A 
ATOM     53  C   UNL     1       7.046   9.014  -4.538  1.00  0.00     0.173 A 
ATOM     54  C   UNL     1       4.720   9.328  -4.034  1.00  0.00     0.173 A 
ATOM     55  F   UNL     1       8.301   8.730  -4.159  1.00  0.00    -0.203 F 
ATOM     56  C   UNL     1       6.801   9.346  -5.869  1.00  0.00     0.198 A 
ATOM     57  C   UNL     1       4.471   9.632  -5.370  1.00  0.00     0.198 A 
ATOM     58  F   UNL     1       3.695   9.327  -3.169  1.00  0.00    -0.203 F 
ATOM     59  F   UNL     1       7.814   9.382  -6.745  1.00  0.00    -0.200 F 
ATOM     60  C   UNL     1       5.513   9.646  -6.285  1.00  0.00     0.200 A 
ATOM     61  F   UNL     1       3.223   9.907  -5.771  1.00  0.00    -0.200 F 
ATOM     62  F   UNL     1       5.276   9.952  -7.568  1.00  0.00    -0.200 F 
ENDBRANCH  28  52
BRANCH  40  63
ATOM     63  C   UNL     1       9.489  12.054   1.615  1.00  0.00     0.064 A 
ATOM     64  C   UNL     1       8.838  13.296   1.634  1.00  0.00     0.173 A 
ATOM     65  C   UNL     1      10.889  12.044   1.712  1.00  0.00     0.173 A 
ATOM     66  F   UNL     1       7.502  13.360   1.526  1.00  0.00    -0.203 F 
ATOM     67  C   UNL     1       9.562  14.483   1.721  1.00  0.00     0.198 A 
ATOM     68  C   UNL     1      11.607  13.231   1.827  1.00  0.00     0.198 A 
ATOM     69  F   UNL     1      11.559  10.883   1.702  1.00  0.00    -0.203 F 
ATOM     70  F   UNL     1       8.923  15.660   1.688  1.00  0.00    -0.200 F 
ATOM     71  C   UNL     1      10.945  14.449   1.824  1.00  0.00     0.200 A 
ATOM     72  F   UNL     1      12.943  13.195   1.938  1.00  0.00    -0.200 F 
ATOM     73  F   UNL     1      11.640  15.591   1.912  1.00  0.00    -0.200 F 
ENDBRANCH  40  63
ENDBRANCH  14  15
ENDBRANCH   7   9
ENDBRANCH   4   5
ENDBRANCH   3   4
ENDBRANCH   2   3
ENDBRANCH   1   2
BRANCH   1  74
ATOM     74  C   UNL     1       4.975  -5.221  -0.235  1.00  0.00     0.021 C 
BRANCH  74  75
ATOM     75  C   UNL     1       5.920  -5.840   0.822  1.00  0.00     0.116 C 
BRANCH  75  76
ATOM     76  N   UNL     1       6.455  -7.110   0.335  1.00  0.00    -0.354 N 
ATOM     77  C   UNL     1       7.645  -7.646  -0.025  1.00  0.00     0.242 C 
ATOM     78  H   UNL     1       5.734  -7.774   0.240  1.00  0.00     0.163 HD
ATOM     79  O   UNL     1       7.528  -8.785  -0.515  1.00  0.00    -0.273 OA
BRANCH  77  80
ATOM     80  C   UNL     1       9.076  -7.036   0.047  1.00  0.00     0.173 C 
BRANCH  80  81
ATOM     81  C   UNL     1       9.438  -6.058  -1.101  1.00  0.00     0.070 C 
BRANCH  81  82
ATOM     82  C   UNL     1       9.265  -4.570  -0.917  1.00  0.00    -0.045 A 
ATOM     83  C   UNL     1      10.341  -3.699  -0.688  1.00  0.00     0.007 A 
ATOM     84  C   UNL     1       8.002  -4.017  -1.083  1.00  0.00     0.007 A 
ATOM     85  C   UNL     1      10.130  -2.317  -0.571  1.00  0.00     0.046 A 
ATOM     86  C   UNL     1       7.772  -2.655  -0.902  1.00  0.00     0.046 A 
ATOM     87  C   UNL     1       8.838  -1.811  -0.648  1.00  0.00     0.115 A 
BRANCH  87  88
ATOM     88  O   UNL     1       8.565  -0.483  -0.512  1.00  0.00    -0.508 OA
ATOM     89  H   UNL     1       9.258   0.123  -0.340  1.00  0.00     0.293 HD
ENDBRANCH  87  88
ENDBRANCH  81  82
ENDBRANCH  80  81
BRANCH  80  90
ATOM     90  N   UNL     1       9.505  -6.598   1.385  1.00  0.00    -0.372 N 
ATOM     91  H   UNL     1       9.151  -5.740   1.714  1.00  0.00     0.161 HD
BRANCH  90  92
ATOM     92  C   UNL     1      10.383  -7.306   2.236  1.00  0.00     0.054 A 
ATOM     93  C   UNL     1      11.629  -7.897   1.804  1.00  0.00     0.024 A 
ATOM     94  C   UNL     1      10.008  -7.474   3.612  1.00  0.00     0.024 A 
ATOM     95  C   UNL     1      12.196  -7.849   0.502  1.00  0.00     0.012 A 
ATOM     96  C   UNL     1      12.408  -8.564   2.778  1.00  0.00     0.073 A 
ATOM     97  C   UNL     1      10.908  -8.148   4.466  1.00  0.00     0.073 A 
ATOM     98  C   UNL     1       8.786  -7.031   4.185  1.00  0.00     0.012 A 
ATOM     99  C   UNL     1      13.404  -8.469   0.166  1.00  0.00     0.001 A 
ATOM    100  C   UNL     1      13.619  -9.156   2.439  1.00  0.00     0.029 A 
ATOM    101  N   UNL     1      12.063  -8.665   4.059  1.00  0.00    -0.248 NA
ATOM    102  C   UNL     1      10.608  -8.315   5.810  1.00  0.00     0.029 A 
ATOM    103  C   UNL     1       8.494  -7.223   5.539  1.00  0.00     0.001 A 
ATOM    104  C   UNL     1      14.122  -9.130   1.143  1.00  0.00     0.002 A 
ATOM    105  C   UNL     1       9.413  -7.859   6.358  1.00  0.00     0.002 A 
ENDBRANCH  90  92
ENDBRANCH  80  90
ENDBRANCH  77  80
ENDBRANCH  75  76
ENDBRANCH  74  75
ENDBRANCH   1  74
TORSDOF 18
