REMARK SMILES Cc1nn(C)c(C)c1CNC(=O)N[C@H]1CC[C@@H](C(=O)NCCCCCCNC(=O)c2ccc(-c3c4nc(c(-c5c(F)c(F)c(F)c(F)c5F)c5ccc([nH]5)c(-c5c(F)c(F)c(F)c(F)c5F)c5nc(c(-c6c(F)c(F)c(F)c(F)c6F)c6ccc3[nH]6)C=C5)C=C4)cc2)C1
REMARK SMILES IDX 23 1 22 2 21 3 20 4 18 5 19 6 17 8 14 9 15 10 93 11 16 12
REMARK SMILES IDX 13 13 10 14 11 15 12 17 9 19 8 20 1 21 2 22 3 23 4 24 6 25
REMARK SMILES IDX 5 26 7 27 24 28 25 29 26 30 27 31 28 32 29 34 30 35 31 36
REMARK SMILES IDX 92 37 32 38 91 39 33 40 34 41 35 42 85 43 36 44 90 45 84 46
REMARK SMILES IDX 86 47 37 48 89 49 83 50 82 51 38 53 70 54 50 55 69 56 51 57
REMARK SMILES IDX 54 58 68 59 87 60 52 61 53 62 67 64 88 65 55 66 39 67 40 68
REMARK SMILES IDX 48 69 41 70 42 71 46 72 49 73 43 74 44 75 47 76 45 77 71 78
REMARK SMILES IDX 72 79 80 80 73 81 74 82 78 83 81 84 75 85 76 86 79 87 77 88
REMARK SMILES IDX 56 89 57 90 65 91 58 92 59 93 63 94 66 95 60 96 61 97 64 98
REMARK SMILES IDX 62 99
REMARK H PARENT 20 7 10 16 13 18 27 33 86 52 54 63
REMARK Flexibility Score: inf
ROOT
ATOM      1  C   UNL     1      -3.789   6.949  -2.976  1.00  0.00     0.002 C 
ENDROOT
BRANCH   1   2
ATOM      2  C   UNL     1      -2.279   6.793  -2.777  1.00  0.00     0.021 C 
BRANCH   2   3
ATOM      3  C   UNL     1      -1.775   5.351  -2.794  1.00  0.00     0.116 C 
BRANCH   3   4
ATOM      4  N   UNL     1      -1.292   4.932  -4.090  1.00  0.00    -0.356 N 
ATOM      5  C   UNL     1      -0.177   4.281  -4.496  1.00  0.00     0.223 C 
ATOM      6  O   UNL     1      -0.162   3.937  -5.686  1.00  0.00    -0.275 OA
ATOM      7  H   UNL     1      -1.898   5.169  -4.829  1.00  0.00     0.163 HD
BRANCH   5   8
ATOM      8  C   UNL     1       1.014   3.891  -3.617  1.00  0.00     0.080 C 
ATOM      9  C   UNL     1       1.210   3.641  -1.180  1.00  0.00     0.084 C 
ATOM     10  C   UNL     1       1.647   2.340  -1.851  1.00  0.00     0.026 C 
ATOM     11  C   UNL     1       1.369   4.649  -2.334  1.00  0.00     0.038 C 
ATOM     12  C   UNL     1       0.974   2.406  -3.223  1.00  0.00     0.015 C 
BRANCH   9  13
ATOM     13  N   UNL     1      -0.162   3.473  -0.695  1.00  0.00    -0.335 N 
ATOM     14  N   UNL     1      -0.429   4.733   1.279  1.00  0.00    -0.334 N 
ATOM     15  C   UNL     1      -0.911   4.004   0.274  1.00  0.00     0.315 C 
ATOM     16  H   UNL     1      -1.030   5.443   1.603  1.00  0.00     0.165 HD
ATOM     17  O   UNL     1      -2.131   3.843   0.202  1.00  0.00    -0.249 OA
ATOM     18  H   UNL     1      -0.656   2.798  -1.214  1.00  0.00     0.165 HD
BRANCH  14  19
ATOM     19  C   UNL     1       0.830   4.648   1.964  1.00  0.00     0.157 C 
BRANCH  19  20
ATOM     20  C   UNL     1       1.443   5.991   2.167  1.00  0.00     0.015 A 
ATOM     21  C   UNL     1       3.046   5.347   4.142  1.00  0.00     0.069 C 
ATOM     22  C   UNL     1       2.422   6.275   3.164  1.00  0.00     0.065 A 
ATOM     23  N   UNL     1       2.774   7.562   3.168  1.00  0.00    -0.178 NA
ATOM     24  N   UNL     1       2.043   8.111   2.188  1.00  0.00    -0.272 N 
ATOM     25  C   UNL     1       1.268   7.204   1.507  1.00  0.00     0.040 A 
ATOM     26  C   UNL     1       2.144   9.540   1.996  1.00  0.00     0.174 C 
ATOM     27  C   UNL     1       0.444   7.592   0.332  1.00  0.00     0.067 C 
ENDBRANCH  19  20
ENDBRANCH  14  19
ENDBRANCH   9  13
ENDBRANCH   5   8
ENDBRANCH   3   4
ENDBRANCH   2   3
ENDBRANCH   1   2
BRANCH   1  28
ATOM     28  C   UNL     1      -4.678   6.151  -2.014  1.00  0.00     0.002 C 
BRANCH  28  29
ATOM     29  C   UNL     1      -4.347   6.283  -0.526  1.00  0.00     0.021 C 
BRANCH  29  30
ATOM     30  C   UNL     1      -4.399   7.693   0.048  1.00  0.00     0.116 C 
BRANCH  30  31
ATOM     31  N   UNL     1      -5.699   8.318  -0.117  1.00  0.00    -0.352 N 
ATOM     32  C   UNL     1      -6.559   8.840   0.809  1.00  0.00     0.251 C 
ATOM     33  H   UNL     1      -6.013   8.375  -1.048  1.00  0.00     0.163 HD
ATOM     34  O   UNL     1      -7.694   9.176   0.458  1.00  0.00    -0.269 OA
BRANCH  32  35
ATOM     35  C   UNL     1      -6.166   9.001   2.227  1.00  0.00     0.039 A 
ATOM     36  C   UNL     1      -7.122   8.743   3.215  1.00  0.00     0.014 A 
ATOM     37  C   UNL     1      -4.898   9.461   2.594  1.00  0.00     0.014 A 
ATOM     38  C   UNL     1      -6.798   8.907   4.563  1.00  0.00     0.010 A 
ATOM     39  C   UNL     1      -4.551   9.553   3.942  1.00  0.00     0.010 A 
ATOM     40  C   UNL     1      -5.502   9.292   4.940  1.00  0.00    -0.014 A 
BRANCH  40  41
ATOM     41  C   UNL     1      -5.140   9.448   6.373  1.00  0.00     0.031 A 
ATOM     42  C   UNL     1      -4.780  10.802   6.921  1.00  0.00     0.074 A 
ATOM     43  C   UNL     1      -5.098   8.365   7.172  1.00  0.00     0.049 A 
ATOM     44  N   UNL     1      -4.402  11.133   8.131  1.00  0.00    -0.248 NA
ATOM     45  C   UNL     1      -4.827  11.931   5.979  1.00  0.00     0.031 C 
ATOM     46  C   UNL     1      -5.378   6.992   6.750  1.00  0.00     0.029 A 
ATOM     47  N   UNL     1      -4.797   8.248   8.506  1.00  0.00    -0.354 N 
ATOM     48  C   UNL     1      -4.153  12.498   8.090  1.00  0.00     0.074 A 
ATOM     49  C   UNL     1      -4.372  12.926   6.725  1.00  0.00     0.031 C 
ATOM     50  C   UNL     1      -5.258   6.174   7.808  1.00  0.00     0.029 A 
ATOM     51  C   UNL     1      -4.864   6.958   8.974  1.00  0.00     0.049 A 
ATOM     52  H   UNL     1      -4.555   9.015   9.073  1.00  0.00     0.167 HD
ATOM     53  C   UNL     1      -3.799  13.326   9.103  1.00  0.00     0.037 A 
ATOM     54  C   UNL     1      -4.634   6.465  10.206  1.00  0.00     0.037 A 
ATOM     55  C   UNL     1      -3.610  12.904  10.466  1.00  0.00     0.049 A 
ATOM     56  C   UNL     1      -4.261   7.408  11.317  1.00  0.00     0.074 A 
ATOM     57  C   UNL     1      -3.299  13.673  11.574  1.00  0.00     0.029 A 
ATOM     58  N   UNL     1      -3.717  11.593  10.908  1.00  0.00    -0.354 N 
ATOM     59  N   UNL     1      -4.088   8.706  11.278  1.00  0.00    -0.248 NA
ATOM     60  C   UNL     1      -4.063   6.816  12.648  1.00  0.00     0.031 C 
ATOM     61  C   UNL     1      -3.183  12.823  12.680  1.00  0.00     0.029 A 
ATOM     62  C   UNL     1      -3.467  11.530  12.269  1.00  0.00     0.049 A 
ATOM     63  H   UNL     1      -3.938  10.821  10.338  1.00  0.00     0.167 HD
ATOM     64  C   UNL     1      -3.788   9.091  12.578  1.00  0.00     0.074 A 
ATOM     65  C   UNL     1      -3.819   7.889  13.386  1.00  0.00     0.031 C 
ATOM     66  C   UNL     1      -3.510  10.327  13.060  1.00  0.00     0.037 A 
BRANCH  53  67
ATOM     67  C   UNL     1      -3.600  14.777   8.774  1.00  0.00     0.064 A 
ATOM     68  C   UNL     1      -4.681  15.610   8.445  1.00  0.00     0.173 A 
ATOM     69  C   UNL     1      -2.321  15.351   8.817  1.00  0.00     0.173 A 
ATOM     70  F   UNL     1      -5.923  15.109   8.378  1.00  0.00    -0.203 F 
ATOM     71  C   UNL     1      -4.484  16.955   8.142  1.00  0.00     0.198 A 
ATOM     72  C   UNL     1      -2.131  16.703   8.543  1.00  0.00     0.198 A 
ATOM     73  F   UNL     1      -1.253  14.602   9.131  1.00  0.00    -0.203 F 
ATOM     74  F   UNL     1      -5.525  17.718   7.781  1.00  0.00    -0.200 F 
ATOM     75  C   UNL     1      -3.211  17.502   8.198  1.00  0.00     0.200 A 
ATOM     76  F   UNL     1      -0.902  17.233   8.608  1.00  0.00    -0.200 F 
ATOM     77  F   UNL     1      -3.024  18.797   7.910  1.00  0.00    -0.200 F 
ENDBRANCH  53  67
BRANCH  54  78
ATOM     78  C   UNL     1      -4.785   5.010  10.460  1.00  0.00     0.064 A 
ATOM     79  C   UNL     1      -5.849   4.521  11.231  1.00  0.00     0.173 A 
ATOM     80  C   UNL     1      -3.873   4.080   9.941  1.00  0.00     0.173 A 
ATOM     81  F   UNL     1      -6.735   5.374  11.766  1.00  0.00    -0.203 F 
ATOM     82  C   UNL     1      -5.983   3.159  11.492  1.00  0.00     0.198 A 
ATOM     83  C   UNL     1      -4.023   2.715  10.179  1.00  0.00     0.198 A 
ATOM     84  F   UNL     1      -2.841   4.497   9.193  1.00  0.00    -0.203 F 
ATOM     85  F   UNL     1      -6.983   2.723  12.270  1.00  0.00    -0.200 F 
ATOM     86  C   UNL     1      -5.073   2.256  10.961  1.00  0.00     0.200 A 
ATOM     87  F   UNL     1      -3.149   1.846   9.654  1.00  0.00    -0.200 F 
ATOM     88  F   UNL     1      -5.203   0.946  11.209  1.00  0.00    -0.200 F 
ENDBRANCH  54  78
BRANCH  66  89
ATOM     89  C   UNL     1      -3.253  10.447  14.533  1.00  0.00     0.064 A 
ATOM     90  C   UNL     1      -2.070   9.969  15.115  1.00  0.00     0.173 A 
ATOM     91  C   UNL     1      -4.191  11.072  15.368  1.00  0.00     0.173 A 
ATOM     92  F   UNL     1      -1.149   9.349  14.361  1.00  0.00    -0.203 F 
ATOM     93  C   UNL     1      -1.849  10.086  16.485  1.00  0.00     0.198 A 
ATOM     94  C   UNL     1      -3.954  11.214  16.732  1.00  0.00     0.198 A 
ATOM     95  F   UNL     1      -5.336  11.552  14.859  1.00  0.00    -0.203 F 
ATOM     96  F   UNL     1      -0.734   9.578  17.027  1.00  0.00    -0.200 F 
ATOM     97  C   UNL     1      -2.787  10.714  17.291  1.00  0.00     0.200 A 
ATOM     98  F   UNL     1      -4.856  11.831  17.508  1.00  0.00    -0.200 F 
ATOM     99  F   UNL     1      -2.571  10.829  18.608  1.00  0.00    -0.200 F 
ENDBRANCH  66  89
ENDBRANCH  40  41
ENDBRANCH  32  35
ENDBRANCH  30  31
ENDBRANCH  29  30
ENDBRANCH  28  29
ENDBRANCH   1  28
TORSDOF 16
