REMARK SMILES O=C(NCCCCCCNC(=O)[C@@H]1CN(C(=O)C2CCCC2)C[C@H]1c1ccccc1)c1ccc(-c2c3nc(c(-c4c(F)c(F)c(F)c(F)c4F)c4ccc([nH]4)c(-c4c(F)c(F)c(F)c(F)c4F)c4nc(c(-c5c(F)c(F)c(F)c(F)c5F)c5ccc2[nH]5)C=C4)C=C3)cc1
REMARK SMILES IDX 6 1 5 2 4 3 3 4 1 5 2 6 31 8 32 9 93 10 33 11 92 12 34 13
REMARK SMILES IDX 35 14 36 15 86 16 37 17 91 18 85 19 87 20 38 21 90 22 84 23
REMARK SMILES IDX 83 24 39 26 71 27 51 28 70 29 52 30 55 31 69 32 88 33 53 34
REMARK SMILES IDX 54 35 68 37 89 38 56 39 40 40 41 41 49 42 42 43 43 44 47 45
REMARK SMILES IDX 50 46 44 47 45 48 48 49 46 50 72 51 73 52 81 53 74 54 75 55
REMARK SMILES IDX 79 56 82 57 76 58 77 59 80 60 78 61 57 62 58 63 66 64 59 65
REMARK SMILES IDX 60 66 64 67 67 68 61 69 62 70 65 71 63 72 7 73 8 74 9 75
REMARK SMILES IDX 10 76 11 77 12 79 13 80 14 81 24 82 15 83 23 84 25 85 26 86
REMARK SMILES IDX 30 87 27 88 29 89 28 90 16 91 17 92 18 93 19 94 22 95 20 96
REMARK SMILES IDX 21 97
REMARK H PARENT 3 7 87 25 55 36 10 78
REMARK Flexibility Score: inf
ROOT
ATOM      1  C   UNL     1       4.141  -3.776  -1.073  1.00  0.00     0.002 C 
ENDROOT
BRANCH   1   2
ATOM      2  C   UNL     1       4.558  -2.736  -0.033  1.00  0.00     0.021 C 
BRANCH   2   3
ATOM      3  C   UNL     1       4.421  -1.290  -0.494  1.00  0.00     0.116 C 
BRANCH   3   4
ATOM      4  N   UNL     1       3.036  -0.907  -0.718  1.00  0.00    -0.352 N 
ATOM      5  O   UNL     1       1.121   0.235  -0.359  1.00  0.00    -0.269 OA
ATOM      6  C   UNL     1       2.335   0.154  -0.199  1.00  0.00     0.251 C 
ATOM      7  H   UNL     1       2.530  -1.490  -1.328  1.00  0.00     0.163 HD
BRANCH   6   8
ATOM      8  C   UNL     1       3.046   1.188   0.583  1.00  0.00     0.039 A 
ATOM      9  C   UNL     1       4.258   1.713   0.130  1.00  0.00     0.014 A 
ATOM     10  C   UNL     1       2.498   1.626   1.792  1.00  0.00     0.014 A 
ATOM     11  C   UNL     1       4.996   2.553   0.956  1.00  0.00     0.010 A 
ATOM     12  C   UNL     1       3.203   2.538   2.583  1.00  0.00     0.010 A 
ATOM     13  C   UNL     1       4.478   2.975   2.192  1.00  0.00    -0.014 A 
BRANCH  13  14
ATOM     14  C   UNL     1       5.284   3.888   3.042  1.00  0.00     0.031 A 
ATOM     15  C   UNL     1       5.807   3.441   4.380  1.00  0.00     0.074 A 
ATOM     16  C   UNL     1       5.582   5.116   2.577  1.00  0.00     0.049 A 
ATOM     17  N   UNL     1       6.570   4.089   5.226  1.00  0.00    -0.248 NA
ATOM     18  C   UNL     1       5.419   2.098   4.834  1.00  0.00     0.031 C 
ATOM     19  C   UNL     1       5.120   5.667   1.302  1.00  0.00     0.029 A 
ATOM     20  N   UNL     1       6.360   6.113   3.108  1.00  0.00    -0.354 N 
ATOM     21  C   UNL     1       6.730   3.246   6.318  1.00  0.00     0.074 A 
ATOM     22  C   UNL     1       5.968   2.048   6.040  1.00  0.00     0.031 C 
ATOM     23  C   UNL     1       5.668   6.878   1.122  1.00  0.00     0.029 A 
ATOM     24  C   UNL     1       6.474   7.211   2.291  1.00  0.00     0.049 A 
ATOM     25  H   UNL     1       6.795   6.048   3.988  1.00  0.00     0.167 HD
ATOM     26  C   UNL     1       7.454   3.452   7.446  1.00  0.00     0.037 A 
ATOM     27  C   UNL     1       7.150   8.361   2.465  1.00  0.00     0.037 A 
ATOM     28  C   UNL     1       8.235   4.634   7.707  1.00  0.00     0.049 A 
ATOM     29  C   UNL     1       7.947   8.558   3.723  1.00  0.00     0.074 A 
ATOM     30  C   UNL     1       9.037   4.916   8.799  1.00  0.00     0.029 A 
ATOM     31  N   UNL     1       8.310   5.734   6.864  1.00  0.00    -0.354 N 
ATOM     32  N   UNL     1       8.124   7.736   4.728  1.00  0.00    -0.248 NA
ATOM     33  C   UNL     1       8.640   9.845   3.868  1.00  0.00     0.031 C 
ATOM     34  C   UNL     1       9.565   6.202   8.637  1.00  0.00     0.029 A 
ATOM     35  C   UNL     1       9.130   6.703   7.420  1.00  0.00     0.049 A 
ATOM     36  H   UNL     1       7.848   5.814   5.998  1.00  0.00     0.167 HD
ATOM     37  C   UNL     1       8.967   8.393   5.612  1.00  0.00     0.074 A 
ATOM     38  C   UNL     1       9.278   9.676   5.017  1.00  0.00     0.031 C 
ATOM     39  C   UNL     1       9.440   7.970   6.810  1.00  0.00     0.037 A 
BRANCH  26  40
ATOM     40  C   UNL     1       7.423   2.382   8.499  1.00  0.00     0.064 A 
ATOM     41  C   UNL     1       8.080   1.155   8.326  1.00  0.00     0.173 A 
ATOM     42  C   UNL     1       6.762   2.605   9.717  1.00  0.00     0.173 A 
ATOM     43  F   UNL     1       8.716   0.885   7.176  1.00  0.00    -0.203 F 
ATOM     44  C   UNL     1       8.056   0.182   9.323  1.00  0.00     0.198 A 
ATOM     45  C   UNL     1       6.763   1.641  10.722  1.00  0.00     0.198 A 
ATOM     46  F   UNL     1       6.123   3.764   9.936  1.00  0.00    -0.203 F 
ATOM     47  F   UNL     1       8.654  -1.000   9.118  1.00  0.00    -0.200 F 
ATOM     48  C   UNL     1       7.403   0.428  10.522  1.00  0.00     0.200 A 
ATOM     49  F   UNL     1       6.141   1.886  11.884  1.00  0.00    -0.200 F 
ATOM     50  F   UNL     1       7.386  -0.507  11.482  1.00  0.00    -0.200 F 
ENDBRANCH  26  40
BRANCH  27  51
ATOM     51  C   UNL     1       7.119   9.402   1.407  1.00  0.00     0.064 A 
ATOM     52  C   UNL     1       8.260   9.684   0.643  1.00  0.00     0.173 A 
ATOM     53  C   UNL     1       5.949  10.123   1.128  1.00  0.00     0.173 A 
ATOM     54  F   UNL     1       9.406   9.033   0.886  1.00  0.00    -0.203 F 
ATOM     55  C   UNL     1       8.235  10.661  -0.350  1.00  0.00     0.198 A 
ATOM     56  C   UNL     1       5.918  11.078   0.115  1.00  0.00     0.198 A 
ATOM     57  F   UNL     1       4.830   9.883   1.827  1.00  0.00    -0.203 F 
ATOM     58  F   UNL     1       9.350  10.939  -1.040  1.00  0.00    -0.200 F 
ATOM     59  C   UNL     1       7.063  11.351  -0.618  1.00  0.00     0.200 A 
ATOM     60  F   UNL     1       4.779  11.731  -0.152  1.00  0.00    -0.200 F 
ATOM     61  F   UNL     1       7.038  12.284  -1.580  1.00  0.00    -0.200 F 
ENDBRANCH  27  51
BRANCH  39  62
ATOM     62  C   UNL     1      10.379   8.889   7.535  1.00  0.00     0.064 A 
ATOM     63  C   UNL     1       9.932  10.070   8.145  1.00  0.00     0.173 A 
ATOM     64  C   UNL     1      11.742   8.573   7.632  1.00  0.00     0.173 A 
ATOM     65  F   UNL     1       8.640  10.424   8.064  1.00  0.00    -0.203 F 
ATOM     66  C   UNL     1      10.821  10.916   8.801  1.00  0.00     0.198 A 
ATOM     67  C   UNL     1      12.624   9.407   8.313  1.00  0.00     0.198 A 
ATOM     68  F   UNL     1      12.219   7.452   7.070  1.00  0.00    -0.203 F 
ATOM     69  F   UNL     1      10.382  12.066   9.331  1.00  0.00    -0.200 F 
ATOM     70  C   UNL     1      12.165  10.582   8.889  1.00  0.00     0.200 A 
ATOM     71  F   UNL     1      13.919   9.077   8.407  1.00  0.00    -0.200 F 
ATOM     72  F   UNL     1      13.019  11.398   9.521  1.00  0.00    -0.200 F 
ENDBRANCH  39  62
ENDBRANCH  13  14
ENDBRANCH   6   8
ENDBRANCH   3   4
ENDBRANCH   2   3
ENDBRANCH   1   2
BRANCH   1  73
ATOM     73  C   UNL     1       4.901  -3.701  -2.402  1.00  0.00     0.002 C 
BRANCH  73  74
ATOM     74  C   UNL     1       6.430  -3.760  -2.278  1.00  0.00     0.021 C 
BRANCH  74  75
ATOM     75  C   UNL     1       6.945  -5.036  -1.608  1.00  0.00     0.116 C 
BRANCH  75  76
ATOM     76  N   UNL     1       6.679  -6.186  -2.453  1.00  0.00    -0.356 N 
ATOM     77  C   UNL     1       7.540  -6.922  -3.212  1.00  0.00     0.225 C 
ATOM     78  H   UNL     1       5.739  -6.477  -2.482  1.00  0.00     0.163 HD
ATOM     79  O   UNL     1       7.066  -7.707  -4.031  1.00  0.00    -0.275 OA
BRANCH  77  80
ATOM     80  C   UNL     1       9.027  -6.741  -3.008  1.00  0.00     0.107 C 
ATOM     81  C   UNL     1       9.472  -5.489  -3.751  1.00  0.00     0.133 C 
ATOM     82  C   UNL     1       9.929  -7.842  -3.622  1.00  0.00     0.053 C 
ATOM     83  N   UNL     1      10.901  -5.645  -3.872  1.00  0.00    -0.341 N 
ATOM     84  C   UNL     1      11.243  -7.060  -3.876  1.00  0.00     0.128 C 
BRANCH  82  85
ATOM     85  C   UNL     1      10.068  -9.108  -2.777  1.00  0.00    -0.042 A 
ATOM     86  C   UNL     1      11.309  -9.722  -2.538  1.00  0.00     0.004 A 
ATOM     87  C   UNL     1       8.929  -9.750  -2.259  1.00  0.00     0.004 A 
ATOM     88  C   UNL     1      11.411 -10.885  -1.766  1.00  0.00     0.000 A 
ATOM     89  C   UNL     1       9.027 -10.915  -1.492  1.00  0.00     0.000 A 
ATOM     90  C   UNL     1      10.271 -11.478  -1.237  1.00  0.00     0.000 A 
ENDBRANCH  82  85
BRANCH  83  91
ATOM     91  C   UNL     1      11.897  -4.699  -3.890  1.00  0.00     0.225 C 
ATOM     92  O   UNL     1      13.072  -5.036  -4.071  1.00  0.00    -0.275 OA
BRANCH  91  93
ATOM     93  C   UNL     1      11.598  -3.230  -3.601  1.00  0.00     0.078 C 
ATOM     94  C   UNL     1      10.617  -2.517  -4.522  1.00  0.00     0.013 C 
ATOM     95  C   UNL     1      11.099  -2.963  -2.176  1.00  0.00     0.013 C 
ATOM     96  C   UNL     1      10.229  -1.282  -3.721  1.00  0.00     0.001 C 
ATOM     97  C   UNL     1      10.175  -1.750  -2.272  1.00  0.00     0.001 C 
ENDBRANCH  91  93
ENDBRANCH  83  91
ENDBRANCH  77  80
ENDBRANCH  75  76
ENDBRANCH  74  75
ENDBRANCH  73  74
ENDBRANCH   1  73
TORSDOF 16
