REMARK SMILES Cc1ccc(/C=C/C(=O)N[C@](C)(C(=O)NCCCCCCNC(=O)c2ccc(-c3c4nc(c(-c5c(F)c(F)c(F)c(F)c5F)c5ccc([nH]5)c(-c5c(F)c(F)c(F)c(F)c5F)c5nc(c(-c6c(F)c(F)c(F)c(F)c6F)c6ccc3[nH]6)C=C5)C=C4)cc2)C(F)(F)F)o1
REMARK SMILES IDX 18 1 17 2 16 3 15 4 13 5 14 6 11 8 12 9 10 10 8 11 9 12 7 14
REMARK SMILES IDX 6 15 5 16 1 17 2 18 3 19 92 20 4 21 88 22 89 23 90 24 91 25
REMARK SMILES IDX 19 26 20 27 21 28 22 29 23 30 24 32 25 33 26 34 87 35 27 36
REMARK SMILES IDX 86 37 28 38 29 39 30 40 80 41 31 42 85 43 79 44 81 45 32 46
REMARK SMILES IDX 84 47 78 48 77 49 33 51 65 52 45 53 64 54 46 55 49 56 63 57
REMARK SMILES IDX 82 58 47 59 48 60 62 62 83 63 50 64 34 65 35 66 43 67 36 68
REMARK SMILES IDX 37 69 41 70 44 71 38 72 39 73 42 74 40 75 66 76 67 77 75 78
REMARK SMILES IDX 68 79 69 80 73 81 76 82 70 83 71 84 74 85 72 86 51 87 52 88
REMARK SMILES IDX 60 89 53 90 54 91 58 92 61 93 55 94 56 95 59 96 57 97
REMARK H PARENT 15 7 10 13 22 31 81 50 49 61
REMARK Flexibility Score: inf
ROOT
ATOM      1  C   UNL     1      -9.199   4.026  -2.510  1.00  0.00     0.002 C 
ENDROOT
BRANCH   1   2
ATOM      2  C   UNL     1      -8.114   4.089  -1.433  1.00  0.00     0.021 C 
BRANCH   2   3
ATOM      3  C   UNL     1      -7.786   2.743  -0.770  1.00  0.00     0.116 C 
BRANCH   3   4
ATOM      4  N   UNL     1      -6.688   2.086  -1.463  1.00  0.00    -0.354 N 
ATOM      5  C   UNL     1      -5.391   1.790  -1.184  1.00  0.00     0.254 C 
ATOM      6  O   UNL     1      -4.760   1.385  -2.171  1.00  0.00    -0.272 OA
ATOM      7  H   UNL     1      -6.951   1.778  -2.361  1.00  0.00     0.163 HD
BRANCH   5   8
ATOM      8  C   UNL     1      -4.651   2.017   0.164  1.00  0.00     0.212 C 
ATOM      9  C   UNL     1      -3.526   3.055  -0.033  1.00  0.00     0.056 C 
BRANCH   8  10
ATOM     10  N   UNL     1      -5.513   2.284   1.372  1.00  0.00    -0.331 N 
ATOM     11  C   UNL     1      -5.930   3.329   2.121  1.00  0.00     0.245 C 
ATOM     12  O   UNL     1      -6.556   3.071   3.150  1.00  0.00    -0.270 OA
ATOM     13  H   UNL     1      -5.884   1.441   1.721  1.00  0.00     0.165 HD
BRANCH  11  14
ATOM     14  C   UNL     1      -5.707   4.749   1.788  1.00  0.00     0.075 C 
ATOM     15  C   UNL     1      -5.670   5.204   0.535  1.00  0.00     0.053 C 
BRANCH  15  16
ATOM     16  C   UNL     1      -5.583   6.572   0.191  1.00  0.00     0.127 A 
ATOM     17  C   UNL     1      -6.475   9.991   0.811  1.00  0.00     0.087 C 
ATOM     18  C   UNL     1      -5.921   8.758   0.221  1.00  0.00     0.101 A 
ATOM     19  C   UNL     1      -5.249   8.498  -0.948  1.00  0.00     0.046 A 
ATOM     20  O   UNL     1      -6.104   7.608   0.927  1.00  0.00    -0.462 OA
ATOM     21  C   UNL     1      -5.039   7.104  -0.971  1.00  0.00     0.050 A 
ENDBRANCH  15  16
ENDBRANCH  11  14
ENDBRANCH   8  10
BRANCH   8  22
ATOM     22  C   UNL     1      -3.928   0.653   0.402  1.00  0.00     0.420 C 
ATOM     23  F   UNL     1      -3.052   0.298  -0.560  1.00  0.00    -0.168 F 
ATOM     24  F   UNL     1      -3.220   0.702   1.563  1.00  0.00    -0.168 F 
ATOM     25  F   UNL     1      -4.826  -0.352   0.547  1.00  0.00    -0.168 F 
ENDBRANCH   8  22
ENDBRANCH   5   8
ENDBRANCH   3   4
ENDBRANCH   2   3
ENDBRANCH   1   2
BRANCH   1  26
ATOM     26  C   UNL     1     -10.608   3.723  -1.992  1.00  0.00     0.002 C 
BRANCH  26  27
ATOM     27  C   UNL     1     -11.138   4.668  -0.907  1.00  0.00     0.021 C 
BRANCH  27  28
ATOM     28  C   UNL     1     -11.159   6.152  -1.274  1.00  0.00     0.116 C 
BRANCH  28  29
ATOM     29  N   UNL     1     -11.996   6.419  -2.432  1.00  0.00    -0.352 N 
ATOM     30  C   UNL     1     -13.068   7.257  -2.579  1.00  0.00     0.251 C 
ATOM     31  H   UNL     1     -11.752   5.915  -3.242  1.00  0.00     0.163 HD
ATOM     32  O   UNL     1     -13.758   7.179  -3.598  1.00  0.00    -0.269 OA
BRANCH  30  33
ATOM     33  C   UNL     1     -13.423   8.251  -1.542  1.00  0.00     0.039 A 
ATOM     34  C   UNL     1     -14.777   8.475  -1.271  1.00  0.00     0.014 A 
ATOM     35  C   UNL     1     -12.451   9.017  -0.891  1.00  0.00     0.014 A 
ATOM     36  C   UNL     1     -15.153   9.435  -0.329  1.00  0.00     0.010 A 
ATOM     37  C   UNL     1     -12.825   9.935   0.094  1.00  0.00     0.010 A 
ATOM     38  C   UNL     1     -14.181  10.162   0.376  1.00  0.00    -0.014 A 
BRANCH  38  39
ATOM     39  C   UNL     1     -14.584  11.159   1.402  1.00  0.00     0.031 A 
ATOM     40  C   UNL     1     -14.327  12.627   1.191  1.00  0.00     0.074 A 
ATOM     41  C   UNL     1     -15.157  10.736   2.546  1.00  0.00     0.049 A 
ATOM     42  N   UNL     1     -14.623  13.639   1.969  1.00  0.00    -0.248 NA
ATOM     43  C   UNL     1     -13.624  13.009  -0.043  1.00  0.00     0.031 C 
ATOM     44  C   UNL     1     -15.395   9.336   2.903  1.00  0.00     0.029 A 
ATOM     45  N   UNL     1     -15.638  11.439   3.622  1.00  0.00    -0.354 N 
ATOM     46  C   UNL     1     -14.127  14.768   1.331  1.00  0.00     0.074 A 
ATOM     47  C   UNL     1     -13.477  14.317   0.120  1.00  0.00     0.031 C 
ATOM     48  C   UNL     1     -15.993   9.284   4.104  1.00  0.00     0.029 A 
ATOM     49  C   UNL     1     -16.164  10.642   4.610  1.00  0.00     0.049 A 
ATOM     50  H   UNL     1     -15.609  12.421   3.681  1.00  0.00     0.167 HD
ATOM     51  C   UNL     1     -14.223  16.065   1.712  1.00  0.00     0.037 A 
ATOM     52  C   UNL     1     -16.727  10.971   5.788  1.00  0.00     0.037 A 
ATOM     53  C   UNL     1     -14.911  16.518   2.893  1.00  0.00     0.049 A 
ATOM     54  C   UNL     1     -16.878  12.424   6.150  1.00  0.00     0.074 A 
ATOM     55  C   UNL     1     -15.142  17.817   3.313  1.00  0.00     0.029 A 
ATOM     56  N   UNL     1     -15.481  15.684   3.843  1.00  0.00    -0.354 N 
ATOM     57  N   UNL     1     -16.494  13.488   5.487  1.00  0.00    -0.248 NA
ATOM     58  C   UNL     1     -17.562  12.722   7.417  1.00  0.00     0.031 C 
ATOM     59  C   UNL     1     -15.817  17.769   4.538  1.00  0.00     0.029 A 
ATOM     60  C   UNL     1     -16.047  16.441   4.857  1.00  0.00     0.049 A 
ATOM     61  H   UNL     1     -15.484  14.701   3.803  1.00  0.00     0.167 HD
ATOM     62  C   UNL     1     -16.910  14.577   6.241  1.00  0.00     0.074 A 
ATOM     63  C   UNL     1     -17.599  14.046   7.399  1.00  0.00     0.031 C 
ATOM     64  C   UNL     1     -16.733  15.899   6.000  1.00  0.00     0.037 A 
BRANCH  51  65
ATOM     65  C   UNL     1     -13.579  17.103   0.840  1.00  0.00     0.064 A 
ATOM     66  C   UNL     1     -14.122  17.459  -0.404  1.00  0.00     0.173 A 
ATOM     67  C   UNL     1     -12.448  17.803   1.288  1.00  0.00     0.173 A 
ATOM     68  F   UNL     1     -15.197  16.814  -0.881  1.00  0.00    -0.203 F 
ATOM     69  C   UNL     1     -13.547  18.468  -1.173  1.00  0.00     0.198 A 
ATOM     70  C   UNL     1     -11.891  18.828   0.527  1.00  0.00     0.198 A 
ATOM     71  F   UNL     1     -11.894  17.505   2.472  1.00  0.00    -0.203 F 
ATOM     72  F   UNL     1     -14.063  18.770  -2.373  1.00  0.00    -0.200 F 
ATOM     73  C   UNL     1     -12.438  19.157  -0.704  1.00  0.00     0.200 A 
ATOM     74  F   UNL     1     -10.828  19.500   0.988  1.00  0.00    -0.200 F 
ATOM     75  F   UNL     1     -11.896  20.137  -1.439  1.00  0.00    -0.200 F 
ENDBRANCH  51  65
BRANCH  52  76
ATOM     76  C   UNL     1     -17.220   9.909   6.703  1.00  0.00     0.064 A 
ATOM     77  C   UNL     1     -18.592   9.729   6.928  1.00  0.00     0.173 A 
ATOM     78  C   UNL     1     -16.329   9.073   7.392  1.00  0.00     0.173 A 
ATOM     79  F   UNL     1     -19.481  10.518   6.308  1.00  0.00    -0.203 F 
ATOM     80  C   UNL     1     -19.053   8.775   7.833  1.00  0.00     0.198 A 
ATOM     81  C   UNL     1     -16.793   8.100   8.274  1.00  0.00     0.198 A 
ATOM     82  F   UNL     1     -15.008   9.201   7.206  1.00  0.00    -0.203 F 
ATOM     83  F   UNL     1     -20.367   8.664   8.073  1.00  0.00    -0.200 F 
ATOM     84  C   UNL     1     -18.154   7.959   8.503  1.00  0.00     0.200 A 
ATOM     85  F   UNL     1     -15.922   7.305   8.910  1.00  0.00    -0.200 F 
ATOM     86  F   UNL     1     -18.598   7.046   9.377  1.00  0.00    -0.200 F 
ENDBRANCH  52  76
BRANCH  64  87
ATOM     87  C   UNL     1     -17.320  16.857   6.994  1.00  0.00     0.064 A 
ATOM     88  C   UNL     1     -16.775  17.009   8.278  1.00  0.00     0.173 A 
ATOM     89  C   UNL     1     -18.435  17.638   6.656  1.00  0.00     0.173 A 
ATOM     90  F   UNL     1     -15.717  16.274   8.654  1.00  0.00    -0.203 F 
ATOM     91  C   UNL     1     -17.350  17.879   9.201  1.00  0.00     0.198 A 
ATOM     92  C   UNL     1     -18.989  18.529   7.571  1.00  0.00     0.198 A 
ATOM     93  F   UNL     1     -18.989  17.537   5.439  1.00  0.00    -0.203 F 
ATOM     94  F   UNL     1     -16.850  17.962  10.441  1.00  0.00    -0.200 F 
ATOM     95  C   UNL     1     -18.453  18.641   8.845  1.00  0.00     0.200 A 
ATOM     96  F   UNL     1     -20.047  19.274   7.223  1.00  0.00    -0.200 F 
ATOM     97  F   UNL     1     -19.008  19.475   9.736  1.00  0.00    -0.200 F 
ENDBRANCH  64  87
ENDBRANCH  38  39
ENDBRANCH  30  33
ENDBRANCH  28  29
ENDBRANCH  27  28
ENDBRANCH  26  27
ENDBRANCH   1  26
TORSDOF 17
