REMARK SMILES CCC1C[NH+]([C@H](C(=O)NCCCCCCNC(=O)c2ccc(-c3c4nc(c(-c5c(F)c(F)c(F)c(F)c5F)c5ccc([nH]5)c(-c5c(F)c(F)c(F)c(F)c5F)c5nc(c(-c6c(F)c(F)c(F)c(F)c6F)c6ccc3[nH]6)C=C5)C=C4)cc2)C(C)C)C1
REMARK SMILES IDX 12 1 11 2 10 3 9 4 7 5 8 6 6 8 5 9 3 10 4 11 85 12 2 14 1 15
REMARK SMILES IDX 82 16 83 17 84 18 13 19 14 20 15 21 16 22 17 23 18 25 19 26
REMARK SMILES IDX 20 27 81 28 21 29 80 30 22 31 23 32 24 33 74 34 25 35 79 36
REMARK SMILES IDX 73 37 75 38 26 39 78 40 72 41 71 42 27 44 59 45 39 46 58 47
REMARK SMILES IDX 40 48 43 49 57 50 76 51 41 52 42 53 56 55 77 56 44 57 28 58
REMARK SMILES IDX 29 59 37 60 30 61 31 62 35 63 38 64 32 65 33 66 36 67 34 68
REMARK SMILES IDX 60 69 61 70 69 71 62 72 63 73 67 74 70 75 64 76 65 77 68 78
REMARK SMILES IDX 66 79 45 80 46 81 54 82 47 83 48 84 52 85 55 86 49 87 50 88
REMARK SMILES IDX 53 89 51 90
REMARK H PARENT 9 7 5 13 16 24 75 43 43 54
REMARK Flexibility Score: inf
ROOT
ATOM      1  C   UNL     1       3.668   0.847   3.253  1.00  0.00     0.002 C 
ENDROOT
BRANCH   1   2
ATOM      2  C   UNL     1       4.391   1.970   2.503  1.00  0.00     0.021 C 
BRANCH   2   3
ATOM      3  C   UNL     1       3.625   2.606   1.352  1.00  0.00     0.116 C 
BRANCH   3   4
ATOM      4  N   UNL     1       2.393   3.263   1.704  1.00  0.00    -0.351 N 
ATOM      5  C   UNL     1       1.623   4.071   0.905  1.00  0.00     0.278 C 
ATOM      6  O   UNL     1       0.466   4.277   1.286  1.00  0.00    -0.268 OA
ATOM      7  H   UNL     1       2.066   3.116   2.620  1.00  0.00     0.163 HD
BRANCH   5   8
ATOM      8  C   UNL     1       2.197   4.692  -0.406  1.00  0.00     0.276 C 
BRANCH   8   9
ATOM      9  N   UNL     1       2.019   3.870  -1.631  1.00  0.00    -0.324 N 
ATOM     10  C   UNL     1       1.910   1.873  -2.302  1.00  0.00     0.099 C 
ATOM     11  C   UNL     1       0.952   2.871  -1.605  1.00  0.00     0.272 C 
ATOM     12  C   UNL     1       3.039   2.874  -1.939  1.00  0.00     0.272 C 
ATOM     13  H   UNL     1       1.931   4.672  -2.254  1.00  0.00     0.348 HD
BRANCH  10  14
ATOM     14  C   UNL     1       1.877   0.484  -1.676  1.00  0.00     0.012 C 
ATOM     15  C   UNL     1       2.914  -0.435  -2.293  1.00  0.00     0.004 C 
ENDBRANCH  10  14
ENDBRANCH   8   9
BRANCH   8  16
ATOM     16  C   UNL     1       1.488   6.058  -0.721  1.00  0.00     0.051 C 
ATOM     17  C   UNL     1       1.536   7.061   0.441  1.00  0.00     0.014 C 
ATOM     18  C   UNL     1       2.102   6.746  -1.954  1.00  0.00     0.014 C 
ENDBRANCH   8  16
ENDBRANCH   5   8
ENDBRANCH   3   4
ENDBRANCH   2   3
ENDBRANCH   1   2
BRANCH   1  19
ATOM     19  C   UNL     1       3.067  -0.283   2.410  1.00  0.00     0.002 C 
BRANCH  19  20
ATOM     20  C   UNL     1       4.011  -1.000   1.442  1.00  0.00     0.021 C 
BRANCH  20  21
ATOM     21  C   UNL     1       5.311  -1.527   2.039  1.00  0.00     0.116 C 
BRANCH  21  22
ATOM     22  N   UNL     1       5.105  -2.437   3.152  1.00  0.00    -0.352 N 
ATOM     23  C   UNL     1       5.677  -3.657   3.409  1.00  0.00     0.251 C 
ATOM     24  H   UNL     1       4.456  -2.131   3.826  1.00  0.00     0.163 HD
ATOM     25  O   UNL     1       5.283  -4.331   4.359  1.00  0.00    -0.269 OA
BRANCH  23  26
ATOM     26  C   UNL     1       6.744  -4.189   2.532  1.00  0.00     0.039 A 
ATOM     27  C   UNL     1       6.697  -5.537   2.164  1.00  0.00     0.014 A 
ATOM     28  C   UNL     1       7.793  -3.381   2.084  1.00  0.00     0.014 A 
ATOM     29  C   UNL     1       7.662  -6.057   1.299  1.00  0.00     0.010 A 
ATOM     30  C   UNL     1       8.710  -3.880   1.162  1.00  0.00     0.010 A 
ATOM     31  C   UNL     1       8.656  -5.224   0.760  1.00  0.00    -0.014 A 
BRANCH  31  32
ATOM     32  C   UNL     1       9.637  -5.741  -0.229  1.00  0.00     0.031 A 
ATOM     33  C   UNL     1      11.105  -5.766   0.095  1.00  0.00     0.074 A 
ATOM     34  C   UNL     1       9.210  -6.132  -1.446  1.00  0.00     0.049 A 
ATOM     35  N   UNL     1      12.114  -6.124  -0.658  1.00  0.00    -0.248 NA
ATOM     36  C   UNL     1      11.493  -5.301   1.436  1.00  0.00     0.031 C 
ATOM     37  C   UNL     1       7.819  -6.111  -1.899  1.00  0.00     0.029 A 
ATOM     38  N   UNL     1       9.905  -6.612  -2.529  1.00  0.00    -0.354 N 
ATOM     39  C   UNL     1      13.253  -5.915   0.109  1.00  0.00     0.074 A 
ATOM     40  C   UNL     1      12.816  -5.347   1.366  1.00  0.00     0.031 C 
ATOM     41  C   UNL     1       7.759  -6.575  -3.157  1.00  0.00     0.029 A 
ATOM     42  C   UNL     1       9.109  -6.886  -3.615  1.00  0.00     0.049 A 
ATOM     43  H   UNL     1      10.880  -6.747  -2.527  1.00  0.00     0.167 HD
ATOM     44  C   UNL     1      14.543  -6.190  -0.199  1.00  0.00     0.037 A 
ATOM     45  C   UNL     1       9.432  -7.326  -4.847  1.00  0.00     0.037 A 
ATOM     46  C   UNL     1      14.970  -6.772  -1.446  1.00  0.00     0.049 A 
ATOM     47  C   UNL     1      10.874  -7.614  -5.168  1.00  0.00     0.074 A 
ATOM     48  C   UNL     1      16.245  -7.152  -1.827  1.00  0.00     0.029 A 
ATOM     49  N   UNL     1      14.134  -7.049  -2.518  1.00  0.00    -0.354 N 
ATOM     50  N   UNL     1      11.934  -7.486  -4.407  1.00  0.00    -0.248 NA
ATOM     51  C   UNL     1      11.164  -8.115  -6.519  1.00  0.00     0.031 C 
ATOM     52  C   UNL     1      16.191  -7.598  -3.152  1.00  0.00     0.029 A 
ATOM     53  C   UNL     1      14.871  -7.563  -3.573  1.00  0.00     0.049 A 
ATOM     54  H   UNL     1      13.160  -6.902  -2.527  1.00  0.00     0.167 HD
ATOM     55  C   UNL     1      13.009  -7.916  -5.173  1.00  0.00     0.074 A 
ATOM     56  C   UNL     1      12.471  -8.325  -6.453  1.00  0.00     0.031 C 
ATOM     57  C   UNL     1      14.324  -7.969  -4.843  1.00  0.00     0.037 A 
BRANCH  44  58
ATOM     58  C   UNL     1      15.592  -5.856   0.825  1.00  0.00     0.064 A 
ATOM     59  C   UNL     1      15.686  -6.548   2.042  1.00  0.00     0.173 A 
ATOM     60  C   UNL     1      16.539  -4.852   0.570  1.00  0.00     0.173 A 
ATOM     61  F   UNL     1      14.801  -7.511   2.342  1.00  0.00    -0.203 F 
ATOM     62  C   UNL     1      16.665  -6.225   2.978  1.00  0.00     0.198 A 
ATOM     63  C   UNL     1      17.539  -4.556   1.492  1.00  0.00     0.198 A 
ATOM     64  F   UNL     1      16.502  -4.163  -0.581  1.00  0.00    -0.203 F 
ATOM     65  F   UNL     1      16.699  -6.863   4.157  1.00  0.00    -0.200 F 
ATOM     66  C   UNL     1      17.595  -5.236   2.700  1.00  0.00     0.200 A 
ATOM     67  F   UNL     1      18.447  -3.610   1.214  1.00  0.00    -0.200 F 
ATOM     68  F   UNL     1      18.542  -4.931   3.598  1.00  0.00    -0.200 F 
ENDBRANCH  44  58
BRANCH  45  69
ATOM     69  C   UNL     1       8.367  -7.532  -5.863  1.00  0.00     0.064 A 
ATOM     70  C   UNL     1       8.030  -8.818  -6.309  1.00  0.00     0.173 A 
ATOM     71  C   UNL     1       7.663  -6.448  -6.411  1.00  0.00     0.173 A 
ATOM     72  F   UNL     1       8.687  -9.885  -5.831  1.00  0.00    -0.203 F 
ATOM     73  C   UNL     1       7.048  -9.011  -7.278  1.00  0.00     0.198 A 
ATOM     74  C   UNL     1       6.658  -6.645  -7.356  1.00  0.00     0.198 A 
ATOM     75  F   UNL     1       7.941  -5.197  -6.015  1.00  0.00    -0.203 F 
ATOM     76  F   UNL     1       6.781 -10.246  -7.722  1.00  0.00    -0.200 F 
ATOM     77  C   UNL     1       6.358  -7.925  -7.796  1.00  0.00     0.200 A 
ATOM     78  F   UNL     1       5.982  -5.594  -7.840  1.00  0.00    -0.200 F 
ATOM     79  F   UNL     1       5.409  -8.111  -8.723  1.00  0.00    -0.200 F 
ENDBRANCH  45  69
BRANCH  57  80
ATOM     80  C   UNL     1      15.272  -8.521  -5.870  1.00  0.00     0.064 A 
ATOM     81  C   UNL     1      15.578  -7.822  -7.047  1.00  0.00     0.173 A 
ATOM     82  C   UNL     1      15.913  -9.751  -5.654  1.00  0.00     0.173 A 
ATOM     83  F   UNL     1      14.982  -6.649  -7.311  1.00  0.00    -0.203 F 
ATOM     84  C   UNL     1      16.469  -8.346  -7.981  1.00  0.00     0.198 A 
ATOM     85  C   UNL     1      16.830 -10.255  -6.572  1.00  0.00     0.198 A 
ATOM     86  F   UNL     1      15.663 -10.458  -4.541  1.00  0.00    -0.203 F 
ATOM     87  F   UNL     1      16.705  -7.685  -9.123  1.00  0.00    -0.200 F 
ATOM     88  C   UNL     1      17.100  -9.557  -7.739  1.00  0.00     0.200 A 
ATOM     89  F   UNL     1      17.452 -11.416  -6.327  1.00  0.00    -0.200 F 
ATOM     90  F   UNL     1      17.964 -10.055  -8.634  1.00  0.00    -0.200 F 
ENDBRANCH  57  80
ENDBRANCH  31  32
ENDBRANCH  23  26
ENDBRANCH  21  22
ENDBRANCH  20  21
ENDBRANCH  19  20
ENDBRANCH   1  19
TORSDOF 16
