REMARK SMILES O=C(NCCCCCCNC(=O)[C@H]1CSCN1C(=O)c1cnc2ccccn2c1=O)c1ccc(-c2c3nc(c(-c4c(F)c(F)c(F)c(F)c4F)c4ccc([nH]4)c(-c4c(F)c(F)c(F)c(F)c4F)c4nc(c(-c5c(F)c(F)c(F)c(F)c5F)c5ccc2[nH]5)C=C4)C=C3)cc1
REMARK SMILES IDX 6 1 5 2 4 3 3 4 1 5 2 6 31 8 32 9 93 10 33 11 92 12 34 13
REMARK SMILES IDX 35 14 36 15 86 16 37 17 91 18 85 19 87 20 38 21 90 22 84 23
REMARK SMILES IDX 83 24 39 26 71 27 51 28 70 29 52 30 55 31 69 32 88 33 53 34
REMARK SMILES IDX 54 35 68 37 89 38 56 39 40 40 41 41 49 42 42 43 43 44 47 45
REMARK SMILES IDX 50 46 44 47 45 48 48 49 46 50 72 51 73 52 81 53 74 54 75 55
REMARK SMILES IDX 79 56 82 57 76 58 77 59 80 60 78 61 57 62 58 63 66 64 59 65
REMARK SMILES IDX 60 66 64 67 67 68 61 69 62 70 65 71 63 72 7 73 8 74 9 75
REMARK SMILES IDX 10 76 11 77 12 79 13 80 14 81 17 82 15 83 16 84 18 85 19 86
REMARK SMILES IDX 20 87 21 88 29 89 22 90 28 91 30 92 23 93 27 94 24 95 26 96
REMARK SMILES IDX 25 97
REMARK H PARENT 3 7 87 25 55 36 10 78
REMARK Flexibility Score: inf
ROOT
ATOM      1  C   UNL     1       4.293   2.693   2.864  1.00  0.00     0.002 C 
ENDROOT
BRANCH   1   2
ATOM      2  C   UNL     1       4.752   2.271   1.469  1.00  0.00     0.021 C 
BRANCH   2   3
ATOM      3  C   UNL     1       4.500   0.805   1.149  1.00  0.00     0.116 C 
BRANCH   3   4
ATOM      4  N   UNL     1       3.080   0.501   1.077  1.00  0.00    -0.352 N 
ATOM      5  O   UNL     1       1.138  -0.026   0.048  1.00  0.00    -0.269 OA
ATOM      6  C   UNL     1       2.366  -0.019   0.028  1.00  0.00     0.251 C 
ATOM      7  H   UNL     1       2.561   0.695   1.891  1.00  0.00     0.163 HD
BRANCH   6   8
ATOM      8  C   UNL     1       3.088  -0.566  -1.138  1.00  0.00     0.039 A 
ATOM      9  C   UNL     1       4.189  -1.407  -0.952  1.00  0.00     0.014 A 
ATOM     10  C   UNL     1       2.649  -0.251  -2.426  1.00  0.00     0.014 A 
ATOM     11  C   UNL     1       4.919  -1.843  -2.050  1.00  0.00     0.010 A 
ATOM     12  C   UNL     1       3.331  -0.762  -3.531  1.00  0.00     0.010 A 
ATOM     13  C   UNL     1       4.476  -1.556  -3.351  1.00  0.00    -0.014 A 
BRANCH  13  14
ATOM     14  C   UNL     1       5.147  -2.200  -4.505  1.00  0.00     0.031 A 
ATOM     15  C   UNL     1       5.867  -1.391  -5.543  1.00  0.00     0.074 A 
ATOM     16  C   UNL     1       5.076  -3.542  -4.610  1.00  0.00     0.049 A 
ATOM     17  N   UNL     1       6.461  -1.798  -6.636  1.00  0.00    -0.248 NA
ATOM     18  C   UNL     1       5.924   0.064  -5.336  1.00  0.00     0.031 C 
ATOM     19  C   UNL     1       4.387  -4.423  -3.663  1.00  0.00     0.029 A 
ATOM     20  N   UNL     1       5.578  -4.400  -5.554  1.00  0.00    -0.354 N 
ATOM     21  C   UNL     1       6.941  -0.654  -7.258  1.00  0.00     0.074 A 
ATOM     22  C   UNL     1       6.559   0.469  -6.429  1.00  0.00     0.031 C 
ATOM     23  C   UNL     1       4.526  -5.694  -4.061  1.00  0.00     0.029 A 
ATOM     24  C   UNL     1       5.247  -5.714  -5.327  1.00  0.00     0.049 A 
ATOM     25  H   UNL     1       6.123  -4.104  -6.318  1.00  0.00     0.167 HD
ATOM     26  C   UNL     1       7.637  -0.562  -8.417  1.00  0.00     0.037 A 
ATOM     27  C   UNL     1       5.460  -6.810  -6.077  1.00  0.00     0.037 A 
ATOM     28  C   UNL     1       8.023  -1.694  -9.221  1.00  0.00     0.049 A 
ATOM     29  C   UNL     1       6.196  -6.664  -7.378  1.00  0.00     0.074 A 
ATOM     30  C   UNL     1       8.796  -1.709 -10.370  1.00  0.00     0.029 A 
ATOM     31  N   UNL     1       7.652  -3.007  -8.972  1.00  0.00    -0.354 N 
ATOM     32  N   UNL     1       6.711  -5.587  -7.919  1.00  0.00    -0.248 NA
ATOM     33  C   UNL     1       6.375  -7.882  -8.178  1.00  0.00     0.031 C 
ATOM     34  C   UNL     1       8.831  -3.019 -10.855  1.00  0.00     0.029 A 
ATOM     35  C   UNL     1       8.137  -3.833  -9.974  1.00  0.00     0.049 A 
ATOM     36  H   UNL     1       7.123  -3.308  -8.199  1.00  0.00     0.167 HD
ATOM     37  C   UNL     1       7.287  -5.998  -9.111  1.00  0.00     0.074 A 
ATOM     38  C   UNL     1       7.082  -7.428  -9.203  1.00  0.00     0.031 C 
ATOM     39  C   UNL     1       7.923  -5.256 -10.050  1.00  0.00     0.037 A 
BRANCH  26  40
ATOM     40  C   UNL     1       8.010   0.805  -8.915  1.00  0.00     0.064 A 
ATOM     41  C   UNL     1       9.001   1.578  -8.293  1.00  0.00     0.173 A 
ATOM     42  C   UNL     1       7.426   1.309 -10.089  1.00  0.00     0.173 A 
ATOM     43  F   UNL     1       9.587   1.146  -7.166  1.00  0.00    -0.203 F 
ATOM     44  C   UNL     1       9.384   2.810  -8.820  1.00  0.00     0.198 A 
ATOM     45  C   UNL     1       7.832   2.527 -10.628  1.00  0.00     0.198 A 
ATOM     46  F   UNL     1       6.479   0.607 -10.729  1.00  0.00    -0.203 F 
ATOM     47  F   UNL     1      10.313   3.545  -8.193  1.00  0.00    -0.200 F 
ATOM     48  C   UNL     1       8.807   3.278  -9.992  1.00  0.00     0.200 A 
ATOM     49  F   UNL     1       7.285   2.969 -11.769  1.00  0.00    -0.200 F 
ATOM     50  F   UNL     1       9.192   4.454 -10.507  1.00  0.00    -0.200 F 
ENDBRANCH  26  40
BRANCH  27  51
ATOM     51  C   UNL     1       4.929  -8.126  -5.636  1.00  0.00     0.064 A 
ATOM     52  C   UNL     1       5.789  -9.177  -5.293  1.00  0.00     0.173 A 
ATOM     53  C   UNL     1       3.547  -8.364  -5.561  1.00  0.00     0.173 A 
ATOM     54  F   UNL     1       7.118  -9.006  -5.365  1.00  0.00    -0.203 F 
ATOM     55  C   UNL     1       5.289 -10.423  -4.920  1.00  0.00     0.198 A 
ATOM     56  C   UNL     1       3.049  -9.597  -5.151  1.00  0.00     0.198 A 
ATOM     57  F   UNL     1       2.679  -7.389  -5.871  1.00  0.00    -0.203 F 
ATOM     58  F   UNL     1       6.134 -11.428  -4.653  1.00  0.00    -0.200 F 
ATOM     59  C   UNL     1       3.920 -10.630  -4.843  1.00  0.00     0.200 A 
ATOM     60  F   UNL     1       1.725  -9.785  -5.059  1.00  0.00    -0.200 F 
ATOM     61  F   UNL     1       3.440 -11.828  -4.482  1.00  0.00    -0.200 F 
ENDBRANCH  27  51
BRANCH  39  62
ATOM     62  C   UNL     1       8.460  -5.981 -11.249  1.00  0.00     0.064 A 
ATOM     63  C   UNL     1       7.609  -6.499 -12.236  1.00  0.00     0.173 A 
ATOM     64  C   UNL     1       9.844  -6.118 -11.437  1.00  0.00     0.173 A 
ATOM     65  F   UNL     1       6.277  -6.411 -12.092  1.00  0.00    -0.203 F 
ATOM     66  C   UNL     1       8.122  -7.143 -13.357  1.00  0.00     0.198 A 
ATOM     67  C   UNL     1      10.355  -6.732 -12.576  1.00  0.00     0.198 A 
ATOM     68  F   UNL     1      10.702  -5.637 -10.524  1.00  0.00    -0.203 F 
ATOM     69  F   UNL     1       7.289  -7.670 -14.265  1.00  0.00    -0.200 F 
ATOM     70  C   UNL     1       9.494  -7.250 -13.532  1.00  0.00     0.200 A 
ATOM     71  F   UNL     1      11.681  -6.821 -12.750  1.00  0.00    -0.200 F 
ATOM     72  F   UNL     1       9.987  -7.857 -14.620  1.00  0.00    -0.200 F 
ENDBRANCH  39  62
ENDBRANCH  13  14
ENDBRANCH   6   8
ENDBRANCH   3   4
ENDBRANCH   2   3
ENDBRANCH   1   2
BRANCH   1  73
ATOM     73  C   UNL     1       4.930   1.906   4.014  1.00  0.00     0.002 C 
BRANCH  73  74
ATOM     74  C   UNL     1       6.464   1.881   4.009  1.00  0.00     0.021 C 
BRANCH  74  75
ATOM     75  C   UNL     1       7.110   3.267   4.010  1.00  0.00     0.116 C 
BRANCH  75  76
ATOM     76  N   UNL     1       6.809   3.993   5.229  1.00  0.00    -0.354 N 
ATOM     77  C   UNL     1       7.610   4.275   6.300  1.00  0.00     0.243 C 
ATOM     78  H   UNL     1       5.888   4.335   5.295  1.00  0.00     0.163 HD
ATOM     79  O   UNL     1       7.080   4.757   7.303  1.00  0.00    -0.273 OA
BRANCH  77  80
ATOM     80  C   UNL     1       9.133   4.073   6.190  1.00  0.00     0.185 C 
ATOM     81  C   UNL     1       9.751   5.467   6.046  1.00  0.00     0.106 C 
ATOM     82  N   UNL     1       9.704   3.370   7.341  1.00  0.00    -0.316 N 
ATOM     83  S   UNL     1      11.126   5.584   7.208  1.00  0.00    -0.138 SA
ATOM     84  C   UNL     1      10.986   3.885   7.765  1.00  0.00     0.190 C 
BRANCH  82  85
ATOM     85  C   UNL     1       9.249   2.089   7.604  1.00  0.00     0.262 C 
ATOM     86  O   UNL     1       8.402   1.552   6.885  1.00  0.00    -0.269 OA
BRANCH  85  87
ATOM     87  C   UNL     1       9.857   1.302   8.701  1.00  0.00     0.124 A 
ATOM     88  C   UNL     1      10.171   0.027   8.437  1.00  0.00     0.133 A 
ATOM     89  C   UNL     1      10.070   1.779  10.082  1.00  0.00     0.270 A 
ATOM     90  N   UNL     1      10.762  -0.843   9.311  1.00  0.00    -0.237 NA
ATOM     91  N   UNL     1      10.758   0.904  10.919  1.00  0.00    -0.267 N 
ATOM     92  O   UNL     1       9.658   2.884  10.432  1.00  0.00    -0.268 OA
ATOM     93  C   UNL     1      11.049  -0.387  10.491  1.00  0.00     0.139 A 
ATOM     94  C   UNL     1      11.123   1.332  12.191  1.00  0.00     0.096 A 
ATOM     95  C   UNL     1      11.737  -1.283  11.460  1.00  0.00     0.048 A 
ATOM     96  C   UNL     1      11.769   0.531  13.047  1.00  0.00     0.019 A 
ATOM     97  C   UNL     1      12.080  -0.822  12.669  1.00  0.00     0.005 A 
ENDBRANCH  85  87
ENDBRANCH  82  85
ENDBRANCH  77  80
ENDBRANCH  75  76
ENDBRANCH  74  75
ENDBRANCH  73  74
ENDBRANCH   1  73
TORSDOF 15
