REMARK SMILES O=C(NCCCCCCNC(=O)[C@H]1CCCN(C(=O)c2cc(Br)ccc2Cl)C1)c1ccc(-c2c3nc(c(-c4c(F)c(F)c(F)c(F)c4F)c4ccc([nH]4)c(-c4c(F)c(F)c(F)c(F)c4F)c4nc(c(-c5c(F)c(F)c(F)c(F)c5F)c5ccc2[nH]5)C=C4)C=C3)cc1
REMARK SMILES IDX 6 1 5 2 4 3 3 4 1 5 2 6 29 8 30 9 91 10 31 11 90 12 32 13
REMARK SMILES IDX 33 14 34 15 84 16 35 17 89 18 83 19 85 20 36 21 88 22 82 23
REMARK SMILES IDX 81 24 37 26 69 27 49 28 68 29 50 30 53 31 67 32 86 33 51 34
REMARK SMILES IDX 52 35 66 37 87 38 54 39 38 40 39 41 47 42 40 43 41 44 45 45
REMARK SMILES IDX 48 46 42 47 43 48 46 49 44 50 70 51 71 52 79 53 72 54 73 55
REMARK SMILES IDX 77 56 80 57 74 58 75 59 78 60 76 61 55 62 56 63 64 64 57 65
REMARK SMILES IDX 58 66 62 67 65 68 59 69 60 70 63 71 61 72 7 73 8 74 9 75
REMARK SMILES IDX 10 76 11 77 12 79 13 80 14 81 28 82 15 83 17 84 16 85 18 86
REMARK SMILES IDX 19 87 20 88 21 89 26 90 22 91 25 92 27 93 23 94 24 95
REMARK H PARENT 3 7 85 25 53 36 10 78
REMARK Flexibility Score: inf
ROOT
ATOM      1  C   UNL     1      10.317  11.484  -5.130  1.00  0.00     0.002 C 
ENDROOT
BRANCH   1   2
ATOM      2  C   UNL     1       9.682  12.293  -4.000  1.00  0.00     0.021 C 
BRANCH   2   3
ATOM      3  C   UNL     1      10.686  12.882  -3.020  1.00  0.00     0.116 C 
BRANCH   3   4
ATOM      4  N   UNL     1      11.451  13.970  -3.610  1.00  0.00    -0.352 N 
ATOM      5  O   UNL     1      12.122  16.115  -3.850  1.00  0.00    -0.269 OA
ATOM      6  C   UNL     1      11.613  15.255  -3.147  1.00  0.00     0.251 C 
ATOM      7  H   UNL     1      11.914  13.758  -4.452  1.00  0.00     0.163 HD
BRANCH   6   8
ATOM      8  C   UNL     1      11.151  15.590  -1.782  1.00  0.00     0.039 A 
ATOM      9  C   UNL     1      11.437  14.735  -0.715  1.00  0.00     0.014 A 
ATOM     10  C   UNL     1      10.432  16.769  -1.567  1.00  0.00     0.014 A 
ATOM     11  C   UNL     1      10.898  14.992   0.537  1.00  0.00     0.010 A 
ATOM     12  C   UNL     1       9.967  17.074  -0.284  1.00  0.00     0.010 A 
ATOM     13  C   UNL     1      10.182  16.178   0.774  1.00  0.00    -0.014 A 
BRANCH  13  14
ATOM     14  C   UNL     1       9.766  16.489   2.164  1.00  0.00     0.031 A 
ATOM     15  C   UNL     1       8.320  16.552   2.560  1.00  0.00     0.074 A 
ATOM     16  C   UNL     1      10.734  16.663   3.086  1.00  0.00     0.049 A 
ATOM     17  N   UNL     1       7.801  16.758   3.745  1.00  0.00    -0.248 NA
ATOM     18  C   UNL     1       7.324  16.370   1.493  1.00  0.00     0.031 C 
ATOM     19  C   UNL     1      12.173  16.644   2.805  1.00  0.00     0.029 A 
ATOM     20  N   UNL     1      10.665  16.858   4.441  1.00  0.00    -0.354 N 
ATOM     21  C   UNL     1       6.424  16.738   3.568  1.00  0.00     0.074 A 
ATOM     22  C   UNL     1       6.185  16.528   2.155  1.00  0.00     0.031 C 
ATOM     23  C   UNL     1      12.848  16.761   3.955  1.00  0.00     0.029 A 
ATOM     24  C   UNL     1      11.896  16.928   5.046  1.00  0.00     0.049 A 
ATOM     25  H   UNL     1       9.816  16.939   4.932  1.00  0.00     0.167 HD
ATOM     26  C   UNL     1       5.454  16.873   4.504  1.00  0.00     0.037 A 
ATOM     27  C   UNL     1      12.224  17.119   6.336  1.00  0.00     0.037 A 
ATOM     28  C   UNL     1       5.704  17.072   5.910  1.00  0.00     0.049 A 
ATOM     29  C   UNL     1      11.124  17.272   7.345  1.00  0.00     0.074 A 
ATOM     30  C   UNL     1       4.788  17.207   6.941  1.00  0.00     0.029 A 
ATOM     31  N   UNL     1       6.964  17.165   6.484  1.00  0.00    -0.354 N 
ATOM     32  N   UNL     1       9.826  17.227   7.167  1.00  0.00    -0.248 NA
ATOM     33  C   UNL     1      11.534  17.506   8.735  1.00  0.00     0.031 C 
ATOM     34  C   UNL     1       5.493  17.419   8.130  1.00  0.00     0.029 A 
ATOM     35  C   UNL     1       6.849  17.371   7.851  1.00  0.00     0.049 A 
ATOM     36  H   UNL     1       7.814  17.095   5.994  1.00  0.00     0.167 HD
ATOM     37  C   UNL     1       9.264  17.421   8.419  1.00  0.00     0.074 A 
ATOM     38  C   UNL     1      10.363  17.546   9.354  1.00  0.00     0.031 C 
ATOM     39  C   UNL     1       7.956  17.501   8.763  1.00  0.00     0.037 A 
BRANCH  26  40
ATOM     40  C   UNL     1       4.025  16.815   4.048  1.00  0.00     0.064 A 
ATOM     41  C   UNL     1       3.426  15.607   3.662  1.00  0.00     0.173 A 
ATOM     42  C   UNL     1       3.223  17.967   4.072  1.00  0.00     0.173 A 
ATOM     43  F   UNL     1       4.151  14.480   3.613  1.00  0.00    -0.203 F 
ATOM     44  C   UNL     1       2.080  15.556   3.305  1.00  0.00     0.198 A 
ATOM     45  C   UNL     1       1.872  17.908   3.738  1.00  0.00     0.198 A 
ATOM     46  F   UNL     1       3.744  19.147   4.440  1.00  0.00    -0.203 F 
ATOM     47  F   UNL     1       1.536  14.396   2.914  1.00  0.00    -0.200 F 
ATOM     48  C   UNL     1       1.302  16.704   3.353  1.00  0.00     0.200 A 
ATOM     49  F   UNL     1       1.118  19.015   3.797  1.00  0.00    -0.200 F 
ATOM     50  F   UNL     1       0.004  16.649   3.025  1.00  0.00    -0.200 F 
ENDBRANCH  26  40
BRANCH  27  51
ATOM     51  C   UNL     1      13.653  17.190   6.735  1.00  0.00     0.064 A 
ATOM     52  C   UNL     1      14.232  16.199   7.538  1.00  0.00     0.173 A 
ATOM     53  C   UNL     1      14.469  18.254   6.320  1.00  0.00     0.173 A 
ATOM     54  F   UNL     1      13.489  15.171   7.975  1.00  0.00    -0.203 F 
ATOM     55  C   UNL     1      15.567  16.280   7.929  1.00  0.00     0.198 A 
ATOM     56  C   UNL     1      15.811  18.316   6.683  1.00  0.00     0.198 A 
ATOM     57  F   UNL     1      13.964  19.225   5.545  1.00  0.00    -0.203 F 
ATOM     58  F   UNL     1      16.083  15.345   8.739  1.00  0.00    -0.200 F 
ATOM     59  C   UNL     1      16.357  17.335   7.496  1.00  0.00     0.200 A 
ATOM     60  F   UNL     1      16.574  19.327   6.247  1.00  0.00    -0.200 F 
ATOM     61  F   UNL     1      17.641  17.410   7.869  1.00  0.00    -0.200 F 
ENDBRANCH  27  51
BRANCH  39  62
ATOM     62  C   UNL     1       7.655  17.726  10.215  1.00  0.00     0.064 A 
ATOM     63  C   UNL     1       7.905  18.962  10.830  1.00  0.00     0.173 A 
ATOM     64  C   UNL     1       7.114  16.697  10.999  1.00  0.00     0.173 A 
ATOM     65  F   UNL     1       8.441  19.971  10.126  1.00  0.00    -0.203 F 
ATOM     66  C   UNL     1       7.659  19.148  12.187  1.00  0.00     0.198 A 
ATOM     67  C   UNL     1       6.840  16.896  12.349  1.00  0.00     0.198 A 
ATOM     68  F   UNL     1       6.853  15.499  10.456  1.00  0.00    -0.203 F 
ATOM     69  F   UNL     1       7.962  20.317  12.768  1.00  0.00    -0.200 F 
ATOM     70  C   UNL     1       7.123  18.116  12.944  1.00  0.00     0.200 A 
ATOM     71  F   UNL     1       6.314  15.902  13.077  1.00  0.00    -0.200 F 
ATOM     72  F   UNL     1       6.890  18.295  14.251  1.00  0.00    -0.200 F 
ENDBRANCH  39  62
ENDBRANCH  13  14
ENDBRANCH   6   8
ENDBRANCH   3   4
ENDBRANCH   2   3
ENDBRANCH   1   2
BRANCH   1  73
ATOM     73  C   UNL     1      11.139  10.274  -4.671  1.00  0.00     0.002 C 
BRANCH  73  74
ATOM     74  C   UNL     1      10.409   9.311  -3.722  1.00  0.00     0.021 C 
BRANCH  74  75
ATOM     75  C   UNL     1       9.159   8.672  -4.334  1.00  0.00     0.116 C 
BRANCH  75  76
ATOM     76  N   UNL     1       9.549   7.737  -5.370  1.00  0.00    -0.356 N 
ATOM     77  C   UNL     1       9.700   6.387  -5.325  1.00  0.00     0.224 C 
ATOM     78  H   UNL     1       9.733   8.145  -6.247  1.00  0.00     0.163 HD
ATOM     79  O   UNL     1      10.248   5.856  -6.294  1.00  0.00    -0.275 OA
BRANCH  77  80
ATOM     80  C   UNL     1       9.135   5.570  -4.166  1.00  0.00     0.098 C 
ATOM     81  C   UNL     1       9.249   4.063  -4.495  1.00  0.00     0.017 C 
ATOM     82  C   UNL     1       9.831   5.818  -2.827  1.00  0.00     0.133 C 
ATOM     83  C   UNL     1       8.723   3.179  -3.362  1.00  0.00     0.022 C 
ATOM     84  N   UNL     1       9.222   4.982  -1.790  1.00  0.00    -0.338 N 
ATOM     85  C   UNL     1       9.349   3.545  -2.017  1.00  0.00     0.120 C 
BRANCH  84  86
ATOM     86  C   UNL     1       8.434   5.580  -0.810  1.00  0.00     0.255 C 
ATOM     87  O   UNL     1       8.107   6.765  -0.833  1.00  0.00    -0.269 OA
BRANCH  86  88
ATOM     88  C   UNL     1       7.927   4.761   0.308  1.00  0.00     0.059 A 
ATOM     89  C   UNL     1       6.537   4.617   0.433  1.00  0.00     0.031 A 
ATOM     90  C   UNL     1       8.783   4.196   1.262  1.00  0.00     0.053 A 
ATOM     91  C   UNL     1       6.017   3.869   1.488  1.00  0.00     0.018 A 
ATOM     92  C   UNL     1       8.248   3.440   2.309  1.00  0.00     0.022 A 
ATOM     93  Cl  UNL     1      10.496   4.413   1.223  1.00  0.00    -0.083 Cl
ATOM     94  Br  UNL     1       4.146   3.666   1.666  1.00  0.00    -0.051 Br
ATOM     95  C   UNL     1       6.865   3.272   2.421  1.00  0.00     0.017 A 
ENDBRANCH  86  88
ENDBRANCH  84  86
ENDBRANCH  77  80
ENDBRANCH  75  76
ENDBRANCH  74  75
ENDBRANCH  73  74
ENDBRANCH   1  73
TORSDOF 15
