REMARK SMILES Cc1cccc(N2CCN(c3ncc(NC(=O)c4ccccc4F)cc3C(=O)NCCCCCCNC(=O)c3ccc(-c4c5nc(c(-c6c(F)c(F)c(F)c(F)c6F)c6ccc([nH]6)c(-c6c(F)c(F)c(F)c(F)c6F)c6nc(c(-c7c(F)c(F)c(F)c(F)c7F)c7ccc4[nH]7)C=C6)C=C5)cc3)C[C@@H]2C)c1
REMARK SMILES IDX 32 1 31 2 30 3 29 4 27 5 28 6 26 8 11 9 12 10 13 11 25 12
REMARK SMILES IDX 14 13 10 14 7 15 8 16 103 17 9 18 102 19 104 20 6 21 1 22
REMARK SMILES IDX 2 23 3 24 105 25 4 26 5 27 15 28 16 29 17 31 18 32 19 33
REMARK SMILES IDX 23 34 20 35 22 36 24 37 21 38 33 39 34 40 35 41 36 42 37 43
REMARK SMILES IDX 38 45 39 46 40 47 101 48 41 49 100 50 42 51 43 52 44 53
REMARK SMILES IDX 94 54 45 55 99 56 93 57 95 58 46 59 98 60 92 61 91 62 47 64
REMARK SMILES IDX 79 65 59 66 78 67 60 68 63 69 77 70 96 71 61 72 62 73 76 75
REMARK SMILES IDX 97 76 64 77 48 78 49 79 57 80 50 81 51 82 55 83 58 84 52 85
REMARK SMILES IDX 53 86 56 87 54 88 80 89 81 90 89 91 82 92 83 93 87 94 90 95
REMARK SMILES IDX 84 96 85 97 88 98 86 99 65 100 66 101 74 102 67 103 68 104
REMARK SMILES IDX 72 105 75 106 69 107 70 108 73 109 71 110
REMARK H PARENT 29 7 15 30 36 44 95 63 63 74
REMARK Flexibility Score: inf
ROOT
ATOM      1  C   UNL     1      -6.613   6.386  -4.826  1.00  0.00     0.002 C 
ENDROOT
BRANCH   1   2
ATOM      2  C   UNL     1      -6.772   7.036  -3.443  1.00  0.00     0.021 C 
BRANCH   2   3
ATOM      3  C   UNL     1      -6.916   6.023  -2.297  1.00  0.00     0.116 C 
BRANCH   3   4
ATOM      4  N   UNL     1      -5.639   5.395  -2.023  1.00  0.00    -0.352 N 
ATOM      5  C   UNL     1      -4.587   6.045  -1.416  1.00  0.00     0.255 C 
ATOM      6  O   UNL     1      -3.557   6.241  -2.052  1.00  0.00    -0.269 OA
ATOM      7  H   UNL     1      -5.517   4.454  -2.285  1.00  0.00     0.163 HD
BRANCH   5   8
ATOM      8  C   UNL     1      -4.727   6.484  -0.013  1.00  0.00     0.084 A 
ATOM      9  C   UNL     1      -4.037   5.854   1.038  1.00  0.00     0.141 A 
ATOM     10  N   UNL     1      -4.245   6.258   2.321  1.00  0.00    -0.236 NA
ATOM     11  C   UNL     1      -5.122   7.267   2.565  1.00  0.00     0.139 A 
ATOM     12  C   UNL     1      -5.624   7.519   0.268  1.00  0.00     0.045 A 
ATOM     13  C   UNL     1      -5.848   7.910   1.577  1.00  0.00     0.060 A 
BRANCH   9  14
ATOM     14  N   UNL     1      -3.243   4.739   0.857  1.00  0.00    -0.352 N 
ATOM     15  N   UNL     1      -1.757   2.341   0.441  1.00  0.00    -0.365 N 
ATOM     16  C   UNL     1      -2.926   2.346   1.342  1.00  0.00     0.138 C 
ATOM     17  C   UNL     1      -1.686   3.423  -0.577  1.00  0.00     0.098 C 
ATOM     18  C   UNL     1      -3.177   3.748   1.942  1.00  0.00     0.139 C 
ATOM     19  C   UNL     1      -1.989   4.803   0.083  1.00  0.00     0.142 C 
ATOM     20  C   UNL     1      -2.649   3.125  -1.733  1.00  0.00     0.033 C 
BRANCH  15  21
ATOM     21  C   UNL     1      -1.081   1.153   0.211  1.00  0.00     0.037 A 
ATOM     22  C   UNL     1       2.540  -0.020  -0.132  1.00  0.00     0.044 C 
ATOM     23  C   UNL     1       1.042  -0.038  -0.080  1.00  0.00    -0.049 A 
ATOM     24  C   UNL     1       0.354  -1.252  -0.141  1.00  0.00     0.003 A 
ATOM     25  C   UNL     1       0.315   1.152   0.081  1.00  0.00     0.029 A 
ATOM     26  C   UNL     1      -1.034  -1.273  -0.042  1.00  0.00     0.002 A 
ATOM     27  C   UNL     1      -1.740  -0.081   0.139  1.00  0.00     0.026 A 
ENDBRANCH  15  21
ENDBRANCH   9  14
BRANCH  13  28
ATOM     28  N   UNL     1      -6.834   8.883   1.804  1.00  0.00    -0.320 N 
ATOM     29  C   UNL     1      -6.917   9.844   2.781  1.00  0.00     0.258 C 
ATOM     30  H   UNL     1      -7.582   8.875   1.164  1.00  0.00     0.170 HD
ATOM     31  O   UNL     1      -8.004  10.360   3.038  1.00  0.00    -0.269 OA
BRANCH  29  32
ATOM     32  C   UNL     1      -5.703  10.360   3.446  1.00  0.00     0.075 A 
ATOM     33  C   UNL     1      -5.793  10.779   4.778  1.00  0.00     0.017 A 
ATOM     34  C   UNL     1      -4.506  10.549   2.750  1.00  0.00     0.135 A 
ATOM     35  C   UNL     1      -4.673  11.319   5.416  1.00  0.00     0.001 A 
ATOM     36  C   UNL     1      -3.382  11.060   3.390  1.00  0.00     0.040 A 
ATOM     37  F   UNL     1      -4.411  10.283   1.439  1.00  0.00    -0.206 F 
ATOM     38  C   UNL     1      -3.465  11.442   4.727  1.00  0.00     0.003 A 
ENDBRANCH  29  32
ENDBRANCH  13  28
ENDBRANCH   5   8
ENDBRANCH   3   4
ENDBRANCH   2   3
ENDBRANCH   1   2
BRANCH   1  39
ATOM     39  C   UNL     1      -7.730   5.411  -5.234  1.00  0.00     0.002 C 
BRANCH  39  40
ATOM     40  C   UNL     1      -9.157   5.903  -4.987  1.00  0.00     0.021 C 
BRANCH  40  41
ATOM     41  C   UNL     1      -9.565   7.062  -5.881  1.00  0.00     0.116 C 
BRANCH  41  42
ATOM     42  N   UNL     1     -10.250   6.653  -7.099  1.00  0.00    -0.352 N 
ATOM     43  C   UNL     1     -10.702   7.407  -8.168  1.00  0.00     0.251 C 
ATOM     44  H   UNL     1     -10.418   5.686  -7.174  1.00  0.00     0.163 HD
ATOM     45  O   UNL     1     -11.364   6.877  -9.045  1.00  0.00    -0.269 OA
BRANCH  43  46
ATOM     46  C   UNL     1     -10.251   8.813  -8.329  1.00  0.00     0.039 A 
ATOM     47  C   UNL     1      -9.897   9.242  -9.617  1.00  0.00     0.014 A 
ATOM     48  C   UNL     1      -9.964   9.612  -7.231  1.00  0.00     0.014 A 
ATOM     49  C   UNL     1      -9.034  10.324  -9.768  1.00  0.00     0.010 A 
ATOM     50  C   UNL     1      -9.006  10.589  -7.361  1.00  0.00     0.010 A 
ATOM     51  C   UNL     1      -8.498  10.903  -8.625  1.00  0.00    -0.014 A 
BRANCH  51  52
ATOM     52  C   UNL     1      -7.374  11.824  -8.609  1.00  0.00     0.031 A 
ATOM     53  C   UNL     1      -7.614  13.246  -8.295  1.00  0.00     0.074 A 
ATOM     54  C   UNL     1      -6.122  11.316  -8.650  1.00  0.00     0.049 A 
ATOM     55  N   UNL     1      -6.744  14.183  -8.441  1.00  0.00    -0.248 NA
ATOM     56  C   UNL     1      -8.899  13.735  -7.810  1.00  0.00     0.031 C 
ATOM     57  C   UNL     1      -4.885  11.971  -8.236  1.00  0.00     0.029 A 
ATOM     58  N   UNL     1      -5.697  10.121  -9.257  1.00  0.00    -0.354 N 
ATOM     59  C   UNL     1      -7.231  15.317  -7.829  1.00  0.00     0.074 A 
ATOM     60  C   UNL     1      -8.601  15.001  -7.508  1.00  0.00     0.031 C 
ATOM     61  C   UNL     1      -3.849  11.361  -8.834  1.00  0.00     0.029 A 
ATOM     62  C   UNL     1      -4.409  10.407  -9.774  1.00  0.00     0.049 A 
ATOM     63  H   UNL     1      -6.187   9.270  -9.310  1.00  0.00     0.167 HD
ATOM     64  C   UNL     1      -6.359  16.335  -7.566  1.00  0.00     0.037 A 
ATOM     65  C   UNL     1      -4.176  10.425 -11.119  1.00  0.00     0.037 A 
ATOM     66  C   UNL     1      -5.056  16.055  -8.171  1.00  0.00     0.049 A 
ATOM     67  C   UNL     1      -3.688  11.759 -11.629  1.00  0.00     0.074 A 
ATOM     68  C   UNL     1      -3.873  15.541  -7.665  1.00  0.00     0.029 A 
ATOM     69  N   UNL     1      -4.953  15.989  -9.558  1.00  0.00    -0.354 N 
ATOM     70  N   UNL     1      -3.912  12.894 -11.025  1.00  0.00    -0.248 NA
ATOM     71  C   UNL     1      -2.913  11.920 -12.855  1.00  0.00     0.031 C 
ATOM     72  C   UNL     1      -3.078  15.115  -8.759  1.00  0.00     0.029 A 
ATOM     73  C   UNL     1      -3.765  15.392  -9.928  1.00  0.00     0.049 A 
ATOM     74  H   UNL     1      -5.633  16.323 -10.187  1.00  0.00     0.167 HD
ATOM     75  C   UNL     1      -3.334  13.913 -11.738  1.00  0.00     0.074 A 
ATOM     76  C   UNL     1      -2.715  13.250 -12.871  1.00  0.00     0.031 C 
ATOM     77  C   UNL     1      -3.417  15.216 -11.331  1.00  0.00     0.037 A 
BRANCH  64  78
ATOM     78  C   UNL     1      -6.583  17.447  -6.557  1.00  0.00     0.064 A 
ATOM     79  C   UNL     1      -5.481  18.110  -5.967  1.00  0.00     0.173 A 
ATOM     80  C   UNL     1      -7.835  17.873  -6.075  1.00  0.00     0.173 A 
ATOM     81  F   UNL     1      -4.226  17.891  -6.381  1.00  0.00    -0.203 F 
ATOM     82  C   UNL     1      -5.620  19.028  -4.920  1.00  0.00     0.198 A 
ATOM     83  C   UNL     1      -7.974  18.757  -4.999  1.00  0.00     0.198 A 
ATOM     84  F   UNL     1      -8.977  17.507  -6.663  1.00  0.00    -0.203 F 
ATOM     85  F   UNL     1      -4.531  19.611  -4.399  1.00  0.00    -0.200 F 
ATOM     86  C   UNL     1      -6.865  19.328  -4.414  1.00  0.00     0.200 A 
ATOM     87  F   UNL     1      -9.199  19.055  -4.541  1.00  0.00    -0.200 F 
ATOM     88  F   UNL     1      -6.999  20.181  -3.390  1.00  0.00    -0.200 F 
ENDBRANCH  64  78
BRANCH  65  89
ATOM     89  C   UNL     1      -5.050   9.478 -11.863  1.00  0.00     0.064 A 
ATOM     90  C   UNL     1      -4.894   8.102 -11.602  1.00  0.00     0.173 A 
ATOM     91  C   UNL     1      -6.258   9.897 -12.432  1.00  0.00     0.173 A 
ATOM     92  F   UNL     1      -3.750   7.650 -11.063  1.00  0.00    -0.203 F 
ATOM     93  C   UNL     1      -5.952   7.211 -11.762  1.00  0.00     0.198 A 
ATOM     94  C   UNL     1      -7.311   8.995 -12.609  1.00  0.00     0.198 A 
ATOM     95  F   UNL     1      -6.472  11.194 -12.694  1.00  0.00    -0.203 F 
ATOM     96  F   UNL     1      -5.814   5.934 -11.379  1.00  0.00    -0.200 F 
ATOM     97  C   UNL     1      -7.171   7.666 -12.233  1.00  0.00     0.200 A 
ATOM     98  F   UNL     1      -8.499   9.435 -13.047  1.00  0.00    -0.200 F 
ATOM     99  F   UNL     1      -8.223   6.837 -12.284  1.00  0.00    -0.200 F 
ENDBRANCH  65  89
BRANCH  77 100
ATOM    100  C   UNL     1      -3.088  16.442 -12.156  1.00  0.00     0.064 A 
ATOM    101  C   UNL     1      -3.090  16.472 -13.560  1.00  0.00     0.173 A 
ATOM    102  C   UNL     1      -2.904  17.701 -11.528  1.00  0.00     0.173 A 
ATOM    103  F   UNL     1      -3.379  15.384 -14.284  1.00  0.00    -0.203 F 
ATOM    104  C   UNL     1      -2.860  17.650 -14.278  1.00  0.00     0.198 A 
ATOM    105  C   UNL     1      -2.740  18.884 -12.248  1.00  0.00     0.198 A 
ATOM    106  F   UNL     1      -2.912  17.833 -10.194  1.00  0.00    -0.203 F 
ATOM    107  F   UNL     1      -2.828  17.613 -15.618  1.00  0.00    -0.200 F 
ATOM    108  C   UNL     1      -2.699  18.856 -13.624  1.00  0.00     0.200 A 
ATOM    109  F   UNL     1      -2.647  20.052 -11.596  1.00  0.00    -0.200 F 
ATOM    110  F   UNL     1      -2.530  19.989 -14.318  1.00  0.00    -0.200 F 
ENDBRANCH  77 100
ENDBRANCH  51  52
ENDBRANCH  43  46
ENDBRANCH  41  42
ENDBRANCH  40  41
ENDBRANCH  39  40
ENDBRANCH   1  39
TORSDOF 17
