REMARK SMILES Cc1ccc(-c2cc(OCC(=O)NCCCCCCNC(=O)c3ccc(-c4c5nc(c(-c6c(F)c(F)c(F)c(F)c6F)c6ccc([nH]6)c(-c6c(F)c(F)c(F)c(F)c6F)c6nc(c(-c7c(F)c(F)c(F)c(F)c7F)c7ccc4[nH]7)C=C6)C=C5)cc3)nc(NCc3ccc4c(c3)OCO4)n2)cc1
REMARK SMILES IDX 15 1 14 2 13 3 11 4 12 5 10 7 9 8 8 9 6 10 7 11 99 12 87 13
REMARK SMILES IDX 86 14 5 15 1 16 2 17 3 18 101 19 4 20 100 21 88 22 89 24
REMARK SMILES IDX 90 25 91 26 95 27 92 28 94 29 93 30 96 31 98 32 97 33 16 34
REMARK SMILES IDX 17 35 18 36 19 37 20 38 21 39 22 41 23 42 24 43 85 44 25 45
REMARK SMILES IDX 84 46 26 47 27 48 28 49 78 50 29 51 83 52 77 53 79 54 30 55
REMARK SMILES IDX 82 56 76 57 75 58 31 60 63 61 43 62 62 63 44 64 47 65 61 66
REMARK SMILES IDX 80 67 45 68 46 69 60 71 81 72 48 73 32 74 33 75 41 76 34 77
REMARK SMILES IDX 35 78 39 79 42 80 36 81 37 82 40 83 38 84 64 85 65 86 73 87
REMARK SMILES IDX 66 88 67 89 71 90 74 91 68 92 69 93 72 94 70 95 49 96 50 97
REMARK SMILES IDX 58 98 51 99 52 100 56 101 59 102 53 103 54 104 57 105 55 106
REMARK H PARENT 13 6 88 23 20 40 79 59 47 70
REMARK Flexibility Score: inf
ROOT
ATOM      1  C   UNL     1      -6.697   4.282  -0.332  1.00  0.00     0.021 C 
ENDROOT
BRANCH   1   2
ATOM      2  C   UNL     1      -6.511   4.091  -1.836  1.00  0.00     0.116 C 
BRANCH   2   3
ATOM      3  N   UNL     1      -5.121   3.951  -2.215  1.00  0.00    -0.353 N 
ATOM      4  C   UNL     1      -4.515   2.897  -2.831  1.00  0.00     0.258 C 
ATOM      5  O   UNL     1      -3.324   2.990  -3.134  1.00  0.00    -0.271 OA
ATOM      6  H   UNL     1      -4.539   4.715  -2.000  1.00  0.00     0.163 HD
BRANCH   4   7
ATOM      7  C   UNL     1      -5.322   1.631  -3.143  1.00  0.00     0.331 C 
BRANCH   7   8
ATOM      8  O   UNL     1      -5.947   0.994  -2.042  1.00  0.00    -0.467 OA
BRANCH   8   9
ATOM      9  C   UNL     1      -5.147   0.523  -1.041  1.00  0.00     0.219 A 
ATOM     10  C   UNL     1      -3.158  -0.059   0.027  1.00  0.00     0.080 A 
ATOM     11  C   UNL     1      -3.787   0.387  -1.115  1.00  0.00     0.097 A 
ATOM     12  N   UNL     1      -3.832  -0.421   1.134  1.00  0.00    -0.213 NA
ATOM     13  C   UNL     1      -5.160  -0.269   1.112  1.00  0.00     0.226 A 
ATOM     14  N   UNL     1      -5.840   0.212   0.065  1.00  0.00    -0.177 NA
BRANCH  10  15
ATOM     15  C   UNL     1      -1.694  -0.081   0.100  1.00  0.00     0.000 A 
ATOM     16  C   UNL     1       2.631  -0.088   0.037  1.00  0.00     0.044 C 
ATOM     17  C   UNL     1       1.132  -0.078   0.082  1.00  0.00    -0.051 A 
ATOM     18  C   UNL     1       0.420  -1.282   0.162  1.00  0.00     0.004 A 
ATOM     19  C   UNL     1       0.426   1.125   0.023  1.00  0.00     0.004 A 
ATOM     20  C   UNL     1      -0.980  -1.283   0.179  1.00  0.00     0.010 A 
ATOM     21  C   UNL     1      -0.970   1.122   0.031  1.00  0.00     0.010 A 
ENDBRANCH  10  15
BRANCH  13  22
ATOM     22  N   UNL     1      -5.923  -0.582   2.204  1.00  0.00    -0.350 N 
ATOM     23  H   UNL     1      -6.787  -0.128   2.332  1.00  0.00     0.164 HD
BRANCH  22  24
ATOM     24  C   UNL     1      -5.495  -1.561   3.170  1.00  0.00     0.152 C 
BRANCH  24  25
ATOM     25  C   UNL     1      -5.834  -2.987   2.770  1.00  0.00    -0.025 A 
ATOM     26  C   UNL     1      -5.249  -4.050   3.505  1.00  0.00     0.009 A 
ATOM     27  C   UNL     1      -6.716  -3.298   1.719  1.00  0.00     0.056 A 
ATOM     28  C   UNL     1      -5.497  -5.388   3.177  1.00  0.00     0.051 A 
ATOM     29  C   UNL     1      -6.923  -4.624   1.404  1.00  0.00     0.166 A 
ATOM     30  C   UNL     1      -6.325  -5.641   2.108  1.00  0.00     0.165 A 
ATOM     31  O   UNL     1      -7.696  -5.084   0.383  1.00  0.00    -0.454 OA
ATOM     32  O   UNL     1      -6.641  -6.867   1.612  1.00  0.00    -0.454 OA
ATOM     33  C   UNL     1      -7.392  -6.493   0.439  1.00  0.00     0.468 C 
ENDBRANCH  24  25
ENDBRANCH  22  24
ENDBRANCH  13  22
ENDBRANCH   8   9
ENDBRANCH   7   8
ENDBRANCH   4   7
ENDBRANCH   2   3
ENDBRANCH   1   2
BRANCH   1  34
ATOM     34  C   UNL     1      -6.005   5.506   0.286  1.00  0.00     0.002 C 
BRANCH  34  35
ATOM     35  C   UNL     1      -6.216   6.862  -0.406  1.00  0.00     0.002 C 
BRANCH  35  36
ATOM     36  C   UNL     1      -7.653   7.240  -0.771  1.00  0.00     0.021 C 
BRANCH  36  37
ATOM     37  C   UNL     1      -8.595   7.393   0.414  1.00  0.00     0.116 C 
BRANCH  37  38
ATOM     38  N   UNL     1      -8.844   8.768   0.821  1.00  0.00    -0.352 N 
ATOM     39  C   UNL     1      -9.578   9.253   1.894  1.00  0.00     0.251 C 
ATOM     40  H   UNL     1      -8.431   9.456   0.250  1.00  0.00     0.163 HD
ATOM     41  O   UNL     1      -9.748  10.450   2.028  1.00  0.00    -0.269 OA
BRANCH  39  42
ATOM     42  C   UNL     1     -10.035   8.314   2.953  1.00  0.00     0.039 A 
ATOM     43  C   UNL     1      -9.852   8.698   4.289  1.00  0.00     0.014 A 
ATOM     44  C   UNL     1     -10.438   7.018   2.653  1.00  0.00     0.014 A 
ATOM     45  C   UNL     1      -9.816   7.722   5.283  1.00  0.00     0.010 A 
ATOM     46  C   UNL     1     -10.290   6.037   3.610  1.00  0.00     0.010 A 
ATOM     47  C   UNL     1      -9.907   6.385   4.908  1.00  0.00    -0.014 A 
BRANCH  47  48
ATOM     48  C   UNL     1      -9.530   5.272   5.766  1.00  0.00     0.031 A 
ATOM     49  C   UNL     1     -10.569   4.414   6.365  1.00  0.00     0.074 A 
ATOM     50  C   UNL     1      -8.222   4.952   5.874  1.00  0.00     0.049 A 
ATOM     51  N   UNL     1     -10.366   3.595   7.340  1.00  0.00    -0.248 NA
ATOM     52  C   UNL     1     -11.966   4.473   5.951  1.00  0.00     0.031 C 
ATOM     53  C   UNL     1      -7.650   3.706   6.375  1.00  0.00     0.029 A 
ATOM     54  N   UNL     1      -7.115   5.806   5.718  1.00  0.00    -0.354 N 
ATOM     55  C   UNL     1     -11.496   2.820   7.483  1.00  0.00     0.074 A 
ATOM     56  C   UNL     1     -12.494   3.496   6.693  1.00  0.00     0.031 C 
ATOM     57  C   UNL     1      -6.388   3.937   6.770  1.00  0.00     0.029 A 
ATOM     58  C   UNL     1      -6.173   5.370   6.681  1.00  0.00     0.049 A 
ATOM     59  H   UNL     1      -7.016   6.547   5.078  1.00  0.00     0.167 HD
ATOM     60  C   UNL     1     -11.385   1.627   8.139  1.00  0.00     0.037 A 
ATOM     61  C   UNL     1      -5.814   6.165   7.731  1.00  0.00     0.037 A 
ATOM     62  C   UNL     1     -10.091   1.544   8.827  1.00  0.00     0.049 A 
ATOM     63  C   UNL     1      -6.108   5.564   9.085  1.00  0.00     0.074 A 
ATOM     64  C   UNL     1      -8.910   0.877   8.546  1.00  0.00     0.029 A 
ATOM     65  N   UNL     1      -9.794   2.462   9.834  1.00  0.00    -0.354 N 
ATOM     66  N   UNL     1      -6.965   4.601   9.280  1.00  0.00    -0.248 NA
ATOM     67  C   UNL     1      -5.482   6.016  10.324  1.00  0.00     0.031 C 
ATOM     68  C   UNL     1      -7.881   1.460   9.332  1.00  0.00     0.029 A 
ATOM     69  C   UNL     1      -8.441   2.455  10.115  1.00  0.00     0.049 A 
ATOM     70  H   UNL     1     -10.456   3.035  10.282  1.00  0.00     0.167 HD
ATOM     71  C   UNL     1      -7.030   4.311  10.617  1.00  0.00     0.074 A 
ATOM     72  C   UNL     1      -6.071   5.213  11.228  1.00  0.00     0.031 C 
ATOM     73  C   UNL     1      -7.876   3.358  11.108  1.00  0.00     0.037 A 
BRANCH  60  74
ATOM     74  C   UNL     1     -12.304   0.421   7.958  1.00  0.00     0.064 A 
ATOM     75  C   UNL     1     -11.900  -0.854   8.424  1.00  0.00     0.173 A 
ATOM     76  C   UNL     1     -13.524   0.404   7.251  1.00  0.00     0.173 A 
ATOM     77  F   UNL     1     -10.801  -1.009   9.174  1.00  0.00    -0.203 F 
ATOM     78  C   UNL     1     -12.604  -2.031   8.132  1.00  0.00     0.198 A 
ATOM     79  C   UNL     1     -14.228  -0.771   6.959  1.00  0.00     0.198 A 
ATOM     80  F   UNL     1     -14.117   1.512   6.812  1.00  0.00    -0.203 F 
ATOM     81  F   UNL     1     -12.141  -3.210   8.571  1.00  0.00    -0.200 F 
ATOM     82  C   UNL     1     -13.760  -1.991   7.384  1.00  0.00     0.200 A 
ATOM     83  F   UNL     1     -15.363  -0.699   6.248  1.00  0.00    -0.200 F 
ATOM     84  F   UNL     1     -14.425  -3.114   7.085  1.00  0.00    -0.200 F 
ENDBRANCH  60  74
BRANCH  61  85
ATOM     85  C   UNL     1      -5.869   7.615   7.406  1.00  0.00     0.064 A 
ATOM     86  C   UNL     1      -4.989   8.105   6.422  1.00  0.00     0.173 A 
ATOM     87  C   UNL     1      -6.990   8.393   7.718  1.00  0.00     0.173 A 
ATOM     88  F   UNL     1      -3.897   7.398   6.088  1.00  0.00    -0.203 F 
ATOM     89  C   UNL     1      -5.287   9.253   5.691  1.00  0.00     0.198 A 
ATOM     90  C   UNL     1      -7.276   9.552   6.994  1.00  0.00     0.198 A 
ATOM     91  F   UNL     1      -7.874   7.972   8.634  1.00  0.00    -0.203 F 
ATOM     92  F   UNL     1      -4.490   9.626   4.679  1.00  0.00    -0.200 F 
ATOM     93  C   UNL     1      -6.447   9.958   5.957  1.00  0.00     0.200 A 
ATOM     94  F   UNL     1      -8.412  10.224   7.233  1.00  0.00    -0.200 F 
ATOM     95  F   UNL     1      -6.789  11.003   5.190  1.00  0.00    -0.200 F 
ENDBRANCH  61  85
BRANCH  73  96
ATOM     96  C   UNL     1      -8.184   3.127  12.567  1.00  0.00     0.064 A 
ATOM     97  C   UNL     1      -8.168   4.140  13.540  1.00  0.00     0.173 A 
ATOM     98  C   UNL     1      -8.660   1.868  13.005  1.00  0.00     0.173 A 
ATOM     99  F   UNL     1      -7.853   5.404  13.225  1.00  0.00    -0.203 F 
ATOM    100  C   UNL     1      -8.535   3.897  14.867  1.00  0.00     0.198 A 
ATOM    101  C   UNL     1      -9.080   1.643  14.315  1.00  0.00     0.198 A 
ATOM    102  F   UNL     1      -8.755   0.826  12.167  1.00  0.00    -0.203 F 
ATOM    103  F   UNL     1      -8.461   4.886  15.768  1.00  0.00    -0.200 F 
ATOM    104  C   UNL     1      -9.002   2.653  15.251  1.00  0.00     0.200 A 
ATOM    105  F   UNL     1      -9.580   0.448  14.659  1.00  0.00    -0.200 F 
ATOM    106  F   UNL     1      -9.395   2.437  16.513  1.00  0.00    -0.200 F 
ENDBRANCH  73  96
ENDBRANCH  47  48
ENDBRANCH  39  42
ENDBRANCH  37  38
ENDBRANCH  36  37
ENDBRANCH  35  36
ENDBRANCH  34  35
ENDBRANCH   1  34
TORSDOF 19
