REMARK SMILES O=C(NCCCCCCNC(=O)[C@H]1[C@H]2CC[C@H](C2)[C@@H]1C(=O)N1CCN(c2cccc(Cl)c2)CC1)c1ccc(-c2c3nc(c(-c4c(F)c(F)c(F)c(F)c4F)c4ccc([nH]4)c(-c4c(F)c(F)c(F)c(F)c4F)c4nc(c(-c5c(F)c(F)c(F)c(F)c5F)c5ccc2[nH]5)C=C4)C=C3)cc1
REMARK SMILES IDX 6 1 5 2 4 3 3 4 1 5 2 6 35 8 36 9 97 10 37 11 96 12 38 13
REMARK SMILES IDX 39 14 40 15 90 16 41 17 95 18 89 19 91 20 42 21 94 22 88 23
REMARK SMILES IDX 87 24 43 26 75 27 55 28 74 29 56 30 59 31 73 32 92 33 57 34
REMARK SMILES IDX 58 35 72 37 93 38 60 39 44 40 45 41 53 42 46 43 47 44 51 45
REMARK SMILES IDX 54 46 48 47 49 48 52 49 50 50 76 51 77 52 85 53 78 54 79 55
REMARK SMILES IDX 83 56 86 57 80 58 81 59 84 60 82 61 61 62 62 63 70 64 63 65
REMARK SMILES IDX 64 66 68 67 71 68 65 69 66 70 69 71 67 72 7 73 8 74 9 75
REMARK SMILES IDX 10 76 11 77 12 79 13 80 14 81 19 82 15 83 18 84 17 85 16 86
REMARK SMILES IDX 20 87 21 88 22 89 23 90 34 91 24 92 33 93 25 94 26 95 27 96
REMARK SMILES IDX 32 97 28 98 30 99 29 100 31 101
REMARK H PARENT 3 7 91 25 59 36 10 78
REMARK Flexibility Score: inf
ROOT
ATOM      1  C   UNL     1       6.541   7.963  -3.309  1.00  0.00     0.002 C 
ENDROOT
BRANCH   1   2
ATOM      2  C   UNL     1       5.816   8.814  -4.351  1.00  0.00     0.021 C 
BRANCH   2   3
ATOM      3  C   UNL     1       4.299   8.796  -4.233  1.00  0.00     0.116 C 
BRANCH   3   4
ATOM      4  N   UNL     1       3.824   9.461  -3.031  1.00  0.00    -0.352 N 
ATOM      5  O   UNL     1       2.668  10.998  -1.843  1.00  0.00    -0.269 OA
ATOM      6  C   UNL     1       2.846  10.418  -2.909  1.00  0.00     0.251 C 
ATOM      7  H   UNL     1       4.261   9.189  -2.192  1.00  0.00     0.163 HD
BRANCH   6   8
ATOM      8  C   UNL     1       2.019  10.765  -4.086  1.00  0.00     0.039 A 
ATOM      9  C   UNL     1       1.499   9.760  -4.902  1.00  0.00     0.014 A 
ATOM     10  C   UNL     1       1.771  12.110  -4.381  1.00  0.00     0.014 A 
ATOM     11  C   UNL     1       0.859  10.098  -6.087  1.00  0.00     0.010 A 
ATOM     12  C   UNL     1       1.043  12.447  -5.526  1.00  0.00     0.010 A 
ATOM     13  C   UNL     1       0.605  11.444  -6.404  1.00  0.00    -0.014 A 
BRANCH  13  14
ATOM     14  C   UNL     1      -0.190  11.747  -7.621  1.00  0.00     0.031 A 
ATOM     15  C   UNL     1       0.405  12.479  -8.790  1.00  0.00     0.074 A 
ATOM     16  C   UNL     1      -1.453  11.283  -7.682  1.00  0.00     0.049 A 
ATOM     17  N   UNL     1      -0.134  12.742  -9.955  1.00  0.00    -0.248 NA
ATOM     18  C   UNL     1       1.774  12.991  -8.635  1.00  0.00     0.031 C 
ATOM     19  C   UNL     1      -2.143  10.586  -6.593  1.00  0.00     0.029 A 
ATOM     20  N   UNL     1      -2.369  11.293  -8.701  1.00  0.00    -0.354 N 
ATOM     21  C   UNL     1       0.822  13.453 -10.667  1.00  0.00     0.074 A 
ATOM     22  C   UNL     1       1.966  13.610  -9.793  1.00  0.00     0.031 C 
ATOM     23  C   UNL     1      -3.345  10.179  -7.023  1.00  0.00     0.029 A 
ATOM     24  C   UNL     1      -3.535  10.636  -8.394  1.00  0.00     0.049 A 
ATOM     25  H   UNL     1      -2.206  11.728  -9.569  1.00  0.00     0.167 HD
ATOM     26  C   UNL     1       0.752  13.920 -11.937  1.00  0.00     0.037 A 
ATOM     27  C   UNL     1      -4.640  10.427  -9.132  1.00  0.00     0.037 A 
ATOM     28  C   UNL     1      -0.388  13.755 -12.804  1.00  0.00     0.049 A 
ATOM     29  C   UNL     1      -4.681  10.945 -10.539  1.00  0.00     0.074 A 
ATOM     30  C   UNL     1      -0.554  14.189 -14.108  1.00  0.00     0.029 A 
ATOM     31  N   UNL     1      -1.559  13.098 -12.453  1.00  0.00    -0.354 N 
ATOM     32  N   UNL     1      -3.760  11.598 -11.205  1.00  0.00    -0.248 NA
ATOM     33  C   UNL     1      -5.913  10.698 -11.298  1.00  0.00     0.031 C 
ATOM     34  C   UNL     1      -1.837  13.825 -14.534  1.00  0.00     0.029 A 
ATOM     35  C   UNL     1      -2.455  13.125 -13.511  1.00  0.00     0.049 A 
ATOM     36  H   UNL     1      -1.729  12.674 -11.580  1.00  0.00     0.167 HD
ATOM     37  C   UNL     1      -4.299  11.841 -12.459  1.00  0.00     0.074 A 
ATOM     38  C   UNL     1      -5.613  11.229 -12.474  1.00  0.00     0.031 C 
ATOM     39  C   UNL     1      -3.762  12.522 -13.501  1.00  0.00     0.037 A 
BRANCH  26  40
ATOM     40  C   UNL     1       1.941  14.663 -12.475  1.00  0.00     0.064 A 
ATOM     41  C   UNL     1       3.126  13.997 -12.821  1.00  0.00     0.173 A 
ATOM     42  C   UNL     1       1.873  16.045 -12.710  1.00  0.00     0.173 A 
ATOM     43  F   UNL     1       3.247  12.678 -12.607  1.00  0.00    -0.203 F 
ATOM     44  C   UNL     1       4.204  14.689 -13.368  1.00  0.00     0.198 A 
ATOM     45  C   UNL     1       2.944  16.730 -13.279  1.00  0.00     0.198 A 
ATOM     46  F   UNL     1       0.761  16.729 -12.403  1.00  0.00    -0.203 F 
ATOM     47  F   UNL     1       5.338  14.037 -13.661  1.00  0.00    -0.200 F 
ATOM     48  C   UNL     1       4.110  16.053 -13.604  1.00  0.00     0.200 A 
ATOM     49  F   UNL     1       2.847  18.045 -13.518  1.00  0.00    -0.200 F 
ATOM     50  F   UNL     1       5.144  16.714 -14.142  1.00  0.00    -0.200 F 
ENDBRANCH  26  40
BRANCH  27  51
ATOM     51  C   UNL     1      -5.791   9.697  -8.543  1.00  0.00     0.064 A 
ATOM     52  C   UNL     1      -6.153   8.423  -8.998  1.00  0.00     0.173 A 
ATOM     53  C   UNL     1      -6.543  10.257  -7.499  1.00  0.00     0.173 A 
ATOM     54  F   UNL     1      -5.475   7.854 -10.006  1.00  0.00    -0.203 F 
ATOM     55  C   UNL     1      -7.235   7.743  -8.443  1.00  0.00     0.198 A 
ATOM     56  C   UNL     1      -7.604   9.563  -6.923  1.00  0.00     0.198 A 
ATOM     57  F   UNL     1      -6.231  11.471  -7.022  1.00  0.00    -0.203 F 
ATOM     58  F   UNL     1      -7.588   6.543  -8.925  1.00  0.00    -0.200 F 
ATOM     59  C   UNL     1      -7.954   8.310  -7.401  1.00  0.00     0.200 A 
ATOM     60  F   UNL     1      -8.283  10.107  -5.904  1.00  0.00    -0.200 F 
ATOM     61  F   UNL     1      -8.989   7.651  -6.862  1.00  0.00    -0.200 F 
ENDBRANCH  27  51
BRANCH  39  62
ATOM     62  C   UNL     1      -4.604  12.633 -14.737  1.00  0.00     0.064 A 
ATOM     63  C   UNL     1      -5.738  13.459 -14.776  1.00  0.00     0.173 A 
ATOM     64  C   UNL     1      -4.276  11.909 -15.892  1.00  0.00     0.173 A 
ATOM     65  F   UNL     1      -6.102  14.157 -13.689  1.00  0.00    -0.203 F 
ATOM     66  C   UNL     1      -6.533  13.528 -15.916  1.00  0.00     0.198 A 
ATOM     67  C   UNL     1      -5.058  12.002 -17.040  1.00  0.00     0.198 A 
ATOM     68  F   UNL     1      -3.199  11.110 -15.906  1.00  0.00    -0.203 F 
ATOM     69  F   UNL     1      -7.644  14.278 -15.912  1.00  0.00    -0.200 F 
ATOM     70  C   UNL     1      -6.190  12.803 -17.048  1.00  0.00     0.200 A 
ATOM     71  F   UNL     1      -4.721  11.308 -18.136  1.00  0.00    -0.200 F 
ATOM     72  F   UNL     1      -6.960  12.866 -18.143  1.00  0.00    -0.200 F 
ENDBRANCH  39  62
ENDBRANCH  13  14
ENDBRANCH   6   8
ENDBRANCH   3   4
ENDBRANCH   2   3
ENDBRANCH   1   2
BRANCH   1  73
ATOM     73  C   UNL     1       6.165   6.476  -3.307  1.00  0.00     0.002 C 
BRANCH  73  74
ATOM     74  C   UNL     1       6.256   5.777  -4.671  1.00  0.00     0.021 C 
BRANCH  74  75
ATOM     75  C   UNL     1       7.628   5.897  -5.334  1.00  0.00     0.116 C 
BRANCH  75  76
ATOM     76  N   UNL     1       8.626   5.161  -4.582  1.00  0.00    -0.356 N 
ATOM     77  C   UNL     1       9.243   3.984  -4.890  1.00  0.00     0.224 C 
ATOM     78  H   UNL     1       8.896   5.569  -3.727  1.00  0.00     0.163 HD
ATOM     79  O   UNL     1       9.937   3.439  -4.035  1.00  0.00    -0.275 OA
BRANCH  77  80
ATOM     80  C   UNL     1       9.101   3.459  -6.304  1.00  0.00     0.094 C 
ATOM     81  C   UNL     1      10.092   4.157  -7.270  1.00  0.00     0.002 C 
ATOM     82  C   UNL     1       9.431   1.959  -6.484  1.00  0.00     0.094 C 
ATOM     83  C   UNL     1      11.555   3.943  -6.839  1.00  0.00     0.005 C 
ATOM     84  C   UNL     1      10.016   3.227  -8.474  1.00  0.00     0.009 C 
ATOM     85  C   UNL     1      10.419   1.984  -7.671  1.00  0.00     0.002 C 
ATOM     86  C   UNL     1      11.788   2.450  -7.124  1.00  0.00     0.005 C 
BRANCH  82  87
ATOM     87  C   UNL     1       8.130   1.151  -6.586  1.00  0.00     0.226 C 
ATOM     88  O   UNL     1       7.775   0.443  -5.641  1.00  0.00    -0.275 OA
ATOM     89  N   UNL     1       7.249   1.447  -7.611  1.00  0.00    -0.339 N 
ATOM     90  C   UNL     1       5.825   1.532  -7.270  1.00  0.00     0.141 C 
ATOM     91  C   UNL     1       7.482   1.010  -8.990  1.00  0.00     0.141 C 
ATOM     92  C   UNL     1       5.075   2.463  -8.239  1.00  0.00     0.138 C 
ATOM     93  C   UNL     1       6.732   1.885 -10.012  1.00  0.00     0.138 C 
ATOM     94  N   UNL     1       5.315   2.047  -9.630  1.00  0.00    -0.368 N 
BRANCH  94  95
ATOM     95  C   UNL     1       4.449   2.446 -10.639  1.00  0.00     0.038 A 
ATOM     96  C   UNL     1       4.216   1.585 -11.723  1.00  0.00     0.026 A 
ATOM     97  C   UNL     1       3.786   3.679 -10.633  1.00  0.00     0.046 A 
ATOM     98  C   UNL     1       3.352   1.932 -12.764  1.00  0.00     0.004 A 
ATOM     99  C   UNL     1       2.930   4.033 -11.679  1.00  0.00     0.043 A 
ATOM    100  C   UNL     1       2.708   3.164 -12.744  1.00  0.00     0.020 A 
ATOM    101  Cl  UNL     1       2.146   5.567 -11.656  1.00  0.00    -0.084 Cl
ENDBRANCH  94  95
ENDBRANCH  82  87
ENDBRANCH  77  80
ENDBRANCH  75  76
ENDBRANCH  74  75
ENDBRANCH  73  74
ENDBRANCH   1  73
TORSDOF 15
