REMARK SMILES Cc1c(C(=O)NCCCCCCNC(=O)c2ccc(-c3c4nc(c(-c5c(F)c(F)c(F)c(F)c5F)c5ccc([nH]5)c(-c5c(F)c(F)c(F)c(F)c5F)c5nc(c(-c6c(F)c(F)c(F)c(F)c6F)c6ccc3[nH]6)C=C5)C=C4)cc2)oc2c1/C(=N/NC(=O)C(c1ccccc1)c1ccccc1)CCC2
REMARK SMILES IDX 9 1 8 2 7 3 6 4 4 5 5 6 3 8 1 9 2 10 81 11 79 12 80 13 82 14
REMARK SMILES IDX 102 15 83 16 100 17 101 18 84 19 85 20 86 22 87 23 88 24
REMARK SMILES IDX 89 25 93 26 90 27 92 28 91 29 94 30 95 31 99 32 96 33 98 34
REMARK SMILES IDX 97 35 10 36 11 37 12 38 13 39 14 40 15 42 16 43 17 44 78 45
REMARK SMILES IDX 18 46 77 47 19 48 20 49 21 50 71 51 22 52 76 53 70 54 72 55
REMARK SMILES IDX 23 56 75 57 69 58 68 59 24 61 56 62 36 63 55 64 37 65 40 66
REMARK SMILES IDX 54 67 73 68 38 69 39 70 53 72 74 73 41 74 25 75 26 76 34 77
REMARK SMILES IDX 27 78 28 79 32 80 35 81 29 82 30 83 33 84 31 85 57 86 58 87
REMARK SMILES IDX 66 88 59 89 60 90 64 91 67 92 61 93 62 94 65 95 63 96 42 97
REMARK SMILES IDX 43 98 51 99 44 100 45 101 49 102 52 103 46 104 47 105 50 106
REMARK SMILES IDX 48 107
REMARK H PARENT 6 7 84 21 13 41 72 60 40 71
REMARK Flexibility Score: inf
ROOT
ATOM      1  C   UNL     1      -3.959   2.928  -5.526  1.00  0.00     0.002 C 
ENDROOT
BRANCH   1   2
ATOM      2  C   UNL     1      -2.867   3.272  -4.507  1.00  0.00     0.021 C 
BRANCH   2   3
ATOM      3  C   UNL     1      -3.135   2.664  -3.127  1.00  0.00     0.116 C 
BRANCH   3   4
ATOM      4  N   UNL     1      -2.783   1.241  -3.066  1.00  0.00    -0.349 N 
ATOM      5  C   UNL     1      -1.693   0.593  -2.493  1.00  0.00     0.287 C 
ATOM      6  O   UNL     1      -1.706  -0.637  -2.477  1.00  0.00    -0.266 OA
ATOM      7  H   UNL     1      -3.428   0.642  -3.507  1.00  0.00     0.163 HD
BRANCH   5   8
ATOM      8  C   UNL     1      -0.646   1.395  -1.896  1.00  0.00     0.195 A 
ATOM      9  C   UNL     1       0.811  -0.117  -0.370  1.00  0.00     0.049 C 
ATOM     10  C   UNL     1       0.376   1.173  -0.961  1.00  0.00     0.010 A 
ATOM     11  C   UNL     1       0.796   2.485  -0.554  1.00  0.00     0.043 A 
ATOM     12  O   UNL     1      -0.654   2.704  -2.243  1.00  0.00    -0.455 OA
ATOM     13  C   UNL     1       0.035   3.347  -1.314  1.00  0.00     0.114 A 
ATOM     14  C   UNL     1       1.663   3.059   0.478  1.00  0.00     0.072 C 
ATOM     15  C   UNL     1      -0.228   4.788  -1.181  1.00  0.00     0.076 C 
ATOM     16  N   UNL     1       2.609   2.307   0.953  1.00  0.00    -0.177 NA
ATOM     17  C   UNL     1       1.202   4.460   0.813  1.00  0.00     0.059 C 
ATOM     18  C   UNL     1       0.918   5.358  -0.391  1.00  0.00     0.014 C 
BRANCH  16  19
ATOM     19  N   UNL     1       3.622   2.465   1.870  1.00  0.00    -0.246 N 
ATOM     20  C   UNL     1       4.266   3.438   2.614  1.00  0.00     0.252 C 
ATOM     21  H   UNL     1       4.026   1.589   2.063  1.00  0.00     0.193 HD
ATOM     22  O   UNL     1       5.260   3.071   3.263  1.00  0.00    -0.272 OA
BRANCH  20  23
ATOM     23  C   UNL     1       3.827   4.916   2.705  1.00  0.00     0.140 C 
BRANCH  23  24
ATOM     24  C   UNL     1       4.082   5.574   1.290  1.00  0.00    -0.031 A 
ATOM     25  C   UNL     1       4.697   4.821   0.250  1.00  0.00     0.005 A 
ATOM     26  C   UNL     1       3.697   6.878   0.941  1.00  0.00     0.005 A 
ATOM     27  C   UNL     1       4.751   5.251  -1.078  1.00  0.00     0.000 A 
ATOM     28  C   UNL     1       3.778   7.328  -0.396  1.00  0.00     0.000 A 
ATOM     29  C   UNL     1       4.270   6.503  -1.409  1.00  0.00     0.000 A 
ENDBRANCH  23  24
BRANCH  23  30
ATOM     30  C   UNL     1       2.448   4.936   3.484  1.00  0.00    -0.031 A 
ATOM     31  C   UNL     1       1.568   6.030   3.526  1.00  0.00     0.005 A 
ATOM     32  C   UNL     1       1.968   3.737   4.082  1.00  0.00     0.005 A 
ATOM     33  C   UNL     1       0.224   5.858   3.923  1.00  0.00     0.000 A 
ATOM     34  C   UNL     1       0.632   3.556   4.445  1.00  0.00     0.000 A 
ATOM     35  C   UNL     1      -0.254   4.612   4.331  1.00  0.00     0.000 A 
ENDBRANCH  23  30
ENDBRANCH  20  23
ENDBRANCH  16  19
ENDBRANCH   5   8
ENDBRANCH   3   4
ENDBRANCH   2   3
ENDBRANCH   1   2
BRANCH   1  36
ATOM     36  C   UNL     1      -5.391   3.304  -5.107  1.00  0.00     0.002 C 
BRANCH  36  37
ATOM     37  C   UNL     1      -5.630   4.776  -4.735  1.00  0.00     0.021 C 
BRANCH  37  38
ATOM     38  C   UNL     1      -5.550   5.716  -5.926  1.00  0.00     0.116 C 
BRANCH  38  39
ATOM     39  N   UNL     1      -6.596   5.449  -6.917  1.00  0.00    -0.352 N 
ATOM     40  C   UNL     1      -6.782   6.020  -8.165  1.00  0.00     0.251 C 
ATOM     41  H   UNL     1      -7.260   4.770  -6.659  1.00  0.00     0.163 HD
ATOM     42  O   UNL     1      -7.850   5.965  -8.739  1.00  0.00    -0.269 OA
BRANCH  40  43
ATOM     43  C   UNL     1      -5.631   6.696  -8.788  1.00  0.00     0.039 A 
ATOM     44  C   UNL     1      -5.764   7.904  -9.478  1.00  0.00     0.014 A 
ATOM     45  C   UNL     1      -4.388   6.103  -8.618  1.00  0.00     0.014 A 
ATOM     46  C   UNL     1      -4.611   8.544  -9.926  1.00  0.00     0.010 A 
ATOM     47  C   UNL     1      -3.261   6.835  -8.851  1.00  0.00     0.010 A 
ATOM     48  C   UNL     1      -3.360   8.005  -9.592  1.00  0.00    -0.014 A 
BRANCH  48  49
ATOM     49  C   UNL     1      -2.114   8.669  -9.949  1.00  0.00     0.031 A 
ATOM     50  C   UNL     1      -1.984  10.063  -9.448  1.00  0.00     0.074 A 
ATOM     51  C   UNL     1      -1.070   7.984 -10.469  1.00  0.00     0.049 A 
ATOM     52  N   UNL     1      -1.890  11.150 -10.140  1.00  0.00    -0.248 NA
ATOM     53  C   UNL     1      -2.090  10.289  -7.997  1.00  0.00     0.031 C 
ATOM     54  C   UNL     1      -0.946   6.536 -10.696  1.00  0.00     0.029 A 
ATOM     55  N   UNL     1       0.165   8.437 -10.808  1.00  0.00    -0.354 N 
ATOM     56  C   UNL     1      -1.728  12.180  -9.216  1.00  0.00     0.074 A 
ATOM     57  C   UNL     1      -2.039  11.620  -7.928  1.00  0.00     0.031 C 
ATOM     58  C   UNL     1       0.350   6.212 -10.892  1.00  0.00     0.029 A 
ATOM     59  C   UNL     1       1.112   7.439 -11.004  1.00  0.00     0.049 A 
ATOM     60  H   UNL     1       0.373   9.394 -10.906  1.00  0.00     0.167 HD
ATOM     61  C   UNL     1      -1.102  13.338  -9.566  1.00  0.00     0.037 A 
ATOM     62  C   UNL     1       2.437   7.613 -11.222  1.00  0.00     0.037 A 
ATOM     63  C   UNL     1      -1.045  13.479 -11.000  1.00  0.00     0.049 A 
ATOM     64  C   UNL     1       2.620   9.014 -11.674  1.00  0.00     0.074 A 
ATOM     65  C   UNL     1      -1.983  13.576 -12.009  1.00  0.00     0.029 A 
ATOM     66  N   UNL     1       0.135  13.154 -11.622  1.00  0.00    -0.354 N 
ATOM     67  N   UNL     1       2.158   9.479 -12.802  1.00  0.00    -0.248 NA
ATOM     68  C   UNL     1       2.917  10.012 -10.661  1.00  0.00     0.031 C 
ATOM     69  C   UNL     1      -1.432  12.834 -13.097  1.00  0.00     0.029 A 
ATOM     70  C   UNL     1      -0.165  12.387 -12.717  1.00  0.00     0.049 A 
ATOM     71  H   UNL     1       1.036  13.425 -11.333  1.00  0.00     0.167 HD
ATOM     72  C   UNL     1       1.706  10.755 -12.500  1.00  0.00     0.074 A 
ATOM     73  C   UNL     1       2.285  11.060 -11.193  1.00  0.00     0.031 C 
ATOM     74  C   UNL     1       0.680  11.319 -13.202  1.00  0.00     0.037 A 
BRANCH  61  75
ATOM     75  C   UNL     1      -0.195  14.133  -8.651  1.00  0.00     0.064 A 
ATOM     76  C   UNL     1       0.329  15.360  -9.110  1.00  0.00     0.173 A 
ATOM     77  C   UNL     1       0.425  13.607  -7.497  1.00  0.00     0.173 A 
ATOM     78  F   UNL     1      -0.173  15.951 -10.205  1.00  0.00    -0.203 F 
ATOM     79  C   UNL     1       1.446  15.957  -8.518  1.00  0.00     0.198 A 
ATOM     80  C   UNL     1       1.505  14.233  -6.877  1.00  0.00     0.198 A 
ATOM     81  F   UNL     1       0.097  12.416  -6.985  1.00  0.00    -0.203 F 
ATOM     82  F   UNL     1       1.991  17.047  -9.074  1.00  0.00    -0.200 F 
ATOM     83  C   UNL     1       2.039  15.387  -7.407  1.00  0.00     0.200 A 
ATOM     84  F   UNL     1       2.076  13.655  -5.810  1.00  0.00    -0.200 F 
ATOM     85  F   UNL     1       3.150  15.917  -6.879  1.00  0.00    -0.200 F 
ENDBRANCH  61  75
BRANCH  62  86
ATOM     86  C   UNL     1       3.557   6.777 -10.732  1.00  0.00     0.064 A 
ATOM     87  C   UNL     1       4.835   6.873 -11.303  1.00  0.00     0.173 A 
ATOM     88  C   UNL     1       3.466   6.083  -9.509  1.00  0.00     0.173 A 
ATOM     89  F   UNL     1       5.013   7.559 -12.441  1.00  0.00    -0.203 F 
ATOM     90  C   UNL     1       5.961   6.330 -10.674  1.00  0.00     0.198 A 
ATOM     91  C   UNL     1       4.589   5.539  -8.884  1.00  0.00     0.198 A 
ATOM     92  F   UNL     1       2.301   6.008  -8.848  1.00  0.00    -0.203 F 
ATOM     93  F   UNL     1       7.176   6.498 -11.216  1.00  0.00    -0.200 F 
ATOM     94  C   UNL     1       5.838   5.674  -9.460  1.00  0.00     0.200 A 
ATOM     95  F   UNL     1       4.462   4.945  -7.689  1.00  0.00    -0.200 F 
ATOM     96  F   UNL     1       6.925   5.214  -8.824  1.00  0.00    -0.200 F 
ENDBRANCH  62  86
BRANCH  74  97
ATOM     97  C   UNL     1       0.249  10.644 -14.476  1.00  0.00     0.064 A 
ATOM     98  C   UNL     1      -0.330   9.364 -14.540  1.00  0.00     0.173 A 
ATOM     99  C   UNL     1       0.290  11.388 -15.663  1.00  0.00     0.173 A 
ATOM    100  F   UNL     1      -0.493   8.625 -13.438  1.00  0.00    -0.203 F 
ATOM    101  C   UNL     1      -0.809   8.843 -15.742  1.00  0.00     0.198 A 
ATOM    102  C   UNL     1      -0.221  10.881 -16.854  1.00  0.00     0.198 A 
ATOM    103  F   UNL     1       0.782  12.637 -15.654  1.00  0.00    -0.203 F 
ATOM    104  F   UNL     1      -1.349   7.615 -15.776  1.00  0.00    -0.200 F 
ATOM    105  C   UNL     1      -0.762   9.606 -16.896  1.00  0.00     0.200 A 
ATOM    106  F   UNL     1      -0.216  11.642 -17.957  1.00  0.00    -0.200 F 
ATOM    107  F   UNL     1      -1.261   9.124 -18.043  1.00  0.00    -0.200 F 
ENDBRANCH  74  97
ENDBRANCH  48  49
ENDBRANCH  40  43
ENDBRANCH  38  39
ENDBRANCH  37  38
ENDBRANCH  36  37
ENDBRANCH   1  36
TORSDOF 17
