REMARK SMILES COc1cc2c(c(OC)c1)[C@H](C)C[C@H](CC(=O)NCCCCCCNC(=O)c1ccc(-c3c4nc(c(-c5c(F)c(F)c(F)c(F)c5F)c5ccc([nH]5)c(-c5c(F)c(F)c(F)c(F)c5F)c5nc(c(-c6c(F)c(F)c(F)c(F)c6F)c6ccc3[nH]6)C=C5)C=C4)cc1)C2
REMARK SMILES IDX 21 1 20 2 19 3 18 4 16 5 17 6 15 8 14 9 3 10 4 11 10 12 5 13
REMARK SMILES IDX 7 14 6 15 91 16 11 17 12 18 13 19 2 20 1 21 8 22 9 23 22 24
REMARK SMILES IDX 23 25 24 26 25 27 26 28 27 30 28 31 29 32 90 33 30 34 89 35
REMARK SMILES IDX 31 36 32 37 33 38 83 39 34 40 88 41 82 42 84 43 35 44 87 45
REMARK SMILES IDX 81 46 80 47 36 49 68 50 48 51 67 52 49 53 52 54 66 55 85 56
REMARK SMILES IDX 50 57 51 58 65 60 86 61 53 62 37 63 38 64 46 65 39 66 40 67
REMARK SMILES IDX 44 68 47 69 41 70 42 71 45 72 43 73 69 74 70 75 78 76 71 77
REMARK SMILES IDX 72 78 76 79 79 80 73 81 74 82 77 83 75 84 54 85 55 86 63 87
REMARK SMILES IDX 56 88 57 89 61 90 64 91 58 92 59 93 62 94 60 95
REMARK H PARENT 18 7 25 29 84 48 52 59
REMARK Flexibility Score: inf
ROOT
ATOM      1  C   UNL     1       2.623   9.783  -5.787  1.00  0.00     0.002 C 
ENDROOT
BRANCH   1   2
ATOM      2  C   UNL     1       1.820   8.612  -5.228  1.00  0.00     0.021 C 
BRANCH   2   3
ATOM      3  C   UNL     1       0.285   8.744  -5.297  1.00  0.00     0.116 C 
BRANCH   3   4
ATOM      4  N   UNL     1      -0.259   7.928  -6.377  1.00  0.00    -0.356 N 
ATOM      5  C   UNL     1      -0.923   6.736  -6.392  1.00  0.00     0.220 C 
ATOM      6  O   UNL     1      -1.184   6.251  -7.496  1.00  0.00    -0.275 OA
ATOM      7  H   UNL     1      -0.121   8.314  -7.271  1.00  0.00     0.163 HD
BRANCH   5   8
ATOM      8  C   UNL     1      -1.352   6.009  -5.120  1.00  0.00     0.104 C 
BRANCH   8   9
ATOM      9  C   UNL     1      -0.274   5.061  -4.551  1.00  0.00     0.003 C 
ATOM     10  C   UNL     1       0.875   1.062  -1.873  1.00  0.00     0.122 A 
ATOM     11  C   UNL     1      -0.079   1.828  -2.540  1.00  0.00     0.050 A 
ATOM     12  C   UNL     1       2.179   1.527  -1.750  1.00  0.00     0.093 A 
ATOM     13  C   UNL     1       0.232   3.118  -2.999  1.00  0.00    -0.037 A 
ATOM     14  C   UNL     1       2.510   2.802  -2.202  1.00  0.00     0.126 A 
ATOM     15  C   UNL     1       1.522   3.647  -2.749  1.00  0.00     0.000 A 
ATOM     16  C   UNL     1      -0.854   3.928  -3.689  1.00  0.00     0.040 C 
ATOM     17  C   UNL     1       1.826   5.091  -3.062  1.00  0.00     0.020 C 
ATOM     18  C   UNL     1       2.301   5.892  -1.838  1.00  0.00     0.013 C 
ATOM     19  C   UNL     1       0.649   5.857  -3.650  1.00  0.00     0.012 C 
BRANCH  10  20
ATOM     20  O   UNL     1       0.472  -0.154  -1.389  1.00  0.00    -0.497 OA
ATOM     21  C   UNL     1       0.875  -0.355  -0.032  1.00  0.00     0.278 C 
ENDBRANCH  10  20
BRANCH  14  22
ATOM     22  O   UNL     1       3.809   3.173  -1.959  1.00  0.00    -0.496 OA
ATOM     23  C   UNL     1       4.544   3.556  -3.120  1.00  0.00     0.278 C 
ENDBRANCH  14  22
ENDBRANCH   8   9
ENDBRANCH   5   8
ENDBRANCH   3   4
ENDBRANCH   2   3
ENDBRANCH   1   2
BRANCH   1  24
ATOM     24  C   UNL     1       2.622  11.042  -4.915  1.00  0.00     0.002 C 
BRANCH  24  25
ATOM     25  C   UNL     1       3.071  10.865  -3.457  1.00  0.00     0.021 C 
BRANCH  25  26
ATOM     26  C   UNL     1       4.423  10.181  -3.245  1.00  0.00     0.116 C 
BRANCH  26  27
ATOM     27  N   UNL     1       5.518  10.910  -3.862  1.00  0.00    -0.352 N 
ATOM     28  C   UNL     1       6.592  11.553  -3.298  1.00  0.00     0.251 C 
ATOM     29  H   UNL     1       5.483  10.950  -4.845  1.00  0.00     0.163 HD
ATOM     30  O   UNL     1       7.298  12.277  -3.992  1.00  0.00    -0.269 OA
BRANCH  28  31
ATOM     31  C   UNL     1       6.908  11.394  -1.860  1.00  0.00     0.039 A 
ATOM     32  C   UNL     1       7.282  12.527  -1.130  1.00  0.00     0.014 A 
ATOM     33  C   UNL     1       6.908  10.140  -1.245  1.00  0.00     0.014 A 
ATOM     34  C   UNL     1       7.604  12.411   0.226  1.00  0.00     0.010 A 
ATOM     35  C   UNL     1       7.174  10.033   0.122  1.00  0.00     0.010 A 
ATOM     36  C   UNL     1       7.529  11.166   0.869  1.00  0.00    -0.014 A 
BRANCH  36  37
ATOM     37  C   UNL     1       7.824  11.037   2.320  1.00  0.00     0.031 A 
ATOM     38  C   UNL     1       9.025  10.263   2.788  1.00  0.00     0.074 A 
ATOM     39  C   UNL     1       6.982  11.578   3.222  1.00  0.00     0.049 A 
ATOM     40  N   UNL     1       9.418   9.999   4.010  1.00  0.00    -0.248 NA
ATOM     41  C   UNL     1       9.887   9.688   1.744  1.00  0.00     0.031 C 
ATOM     42  C   UNL     1       5.761  12.318   2.899  1.00  0.00     0.029 A 
ATOM     43  N   UNL     1       7.019  11.581   4.594  1.00  0.00    -0.354 N 
ATOM     44  C   UNL     1      10.561   9.221   3.881  1.00  0.00     0.074 A 
ATOM     45  C   UNL     1      10.773   9.015   2.465  1.00  0.00     0.031 C 
ATOM     46  C   UNL     1       5.176  12.719   4.038  1.00  0.00     0.029 A 
ATOM     47  C   UNL     1       5.961  12.239   5.172  1.00  0.00     0.049 A 
ATOM     48  H   UNL     1       7.736  11.152   5.115  1.00  0.00     0.167 HD
ATOM     49  C   UNL     1      11.371   8.740   4.855  1.00  0.00     0.037 A 
ATOM     50  C   UNL     1       5.657  12.431   6.470  1.00  0.00     0.037 A 
ATOM     51  C   UNL     1      11.174   8.966   6.263  1.00  0.00     0.049 A 
ATOM     52  C   UNL     1       6.574  11.888   7.531  1.00  0.00     0.074 A 
ATOM     53  C   UNL     1      11.971   8.567   7.322  1.00  0.00     0.029 A 
ATOM     54  N   UNL     1      10.101   9.655   6.809  1.00  0.00    -0.354 N 
ATOM     55  N   UNL     1       7.686  11.208   7.395  1.00  0.00    -0.248 NA
ATOM     56  C   UNL     1       6.198  12.148   8.928  1.00  0.00     0.031 C 
ATOM     57  C   UNL     1      11.360   8.981   8.511  1.00  0.00     0.029 A 
ATOM     58  C   UNL     1      10.206   9.677   8.191  1.00  0.00     0.049 A 
ATOM     59  H   UNL     1       9.372  10.067   6.291  1.00  0.00     0.167 HD
ATOM     60  C   UNL     1       8.156  10.982   8.681  1.00  0.00     0.074 A 
ATOM     61  C   UNL     1       7.216  11.611   9.586  1.00  0.00     0.031 C 
ATOM     62  C   UNL     1       9.267  10.314   9.077  1.00  0.00     0.037 A 
BRANCH  49  63
ATOM     63  C   UNL     1      12.555   7.920   4.429  1.00  0.00     0.064 A 
ATOM     64  C   UNL     1      13.659   8.504   3.790  1.00  0.00     0.173 A 
ATOM     65  C   UNL     1      12.604   6.544   4.699  1.00  0.00     0.173 A 
ATOM     66  F   UNL     1      13.658   9.814   3.501  1.00  0.00    -0.203 F 
ATOM     67  C   UNL     1      14.757   7.735   3.410  1.00  0.00     0.198 A 
ATOM     68  C   UNL     1      13.716   5.784   4.343  1.00  0.00     0.198 A 
ATOM     69  F   UNL     1      11.578   5.938   5.314  1.00  0.00    -0.203 F 
ATOM     70  F   UNL     1      15.780   8.306   2.759  1.00  0.00    -0.200 F 
ATOM     71  C   UNL     1      14.787   6.378   3.693  1.00  0.00     0.200 A 
ATOM     72  F   UNL     1      13.749   4.474   4.628  1.00  0.00    -0.200 F 
ATOM     73  F   UNL     1      15.846   5.640   3.332  1.00  0.00    -0.200 F 
ENDBRANCH  49  63
BRANCH  50  74
ATOM     74  C   UNL     1       4.440  13.200   6.839  1.00  0.00     0.064 A 
ATOM     75  C   UNL     1       4.544  14.480   7.402  1.00  0.00     0.173 A 
ATOM     76  C   UNL     1       3.156  12.675   6.642  1.00  0.00     0.173 A 
ATOM     77  F   UNL     1       5.753  15.015   7.630  1.00  0.00    -0.203 F 
ATOM     78  C   UNL     1       3.409  15.198   7.771  1.00  0.00     0.198 A 
ATOM     79  C   UNL     1       2.020  13.405   6.987  1.00  0.00     0.198 A 
ATOM     80  F   UNL     1       3.003  11.457   6.102  1.00  0.00    -0.203 F 
ATOM     81  F   UNL     1       3.537  16.401   8.347  1.00  0.00    -0.200 F 
ATOM     82  C   UNL     1       2.147  14.662   7.558  1.00  0.00     0.200 A 
ATOM     83  F   UNL     1       0.803  12.889   6.768  1.00  0.00    -0.200 F 
ATOM     84  F   UNL     1       1.055  15.354   7.910  1.00  0.00    -0.200 F 
ENDBRANCH  50  74
BRANCH  62  85
ATOM     85  C   UNL     1       9.545  10.258  10.551  1.00  0.00     0.064 A 
ATOM     86  C   UNL     1       8.785   9.453  11.412  1.00  0.00     0.173 A 
ATOM     87  C   UNL     1      10.606  10.992  11.101  1.00  0.00     0.173 A 
ATOM     88  F   UNL     1       7.749   8.745  10.936  1.00  0.00    -0.203 F 
ATOM     89  C   UNL     1       9.062   9.404  12.775  1.00  0.00     0.198 A 
ATOM     90  C   UNL     1      10.898  10.919  12.460  1.00  0.00     0.198 A 
ATOM     91  F   UNL     1      11.366  11.772  10.319  1.00  0.00    -0.203 F 
ATOM     92  F   UNL     1       8.295   8.664  13.587  1.00  0.00    -0.200 F 
ATOM     93  C   UNL     1      10.122  10.132  13.297  1.00  0.00     0.200 A 
ATOM     94  F   UNL     1      11.929  11.614  12.961  1.00  0.00    -0.200 F 
ATOM     95  F   UNL     1      10.390  10.080  14.609  1.00  0.00    -0.200 F 
ENDBRANCH  62  85
ENDBRANCH  36  37
ENDBRANCH  28  31
ENDBRANCH  26  27
ENDBRANCH  25  26
ENDBRANCH  24  25
ENDBRANCH   1  24
TORSDOF 16
