REMARK SMILES O=C(Cn1c(-c2nc(-c3ccc(C(F)(F)F)cc3)no2)cc2ccccc21)NCCCCCCNC(=O)c1ccc(-c2c3nc(c(-c4c(F)c(F)c(F)c(F)c4F)c4ccc([nH]4)c(-c4c(F)c(F)c(F)c(F)c4F)c4nc(c(-c5c(F)c(F)c(F)c(F)c5F)c5ccc2[nH]5)C=C4)C=C3)cc1
REMARK SMILES IDX 30 1 29 2 28 3 1 4 2 5 3 7 4 8 5 9 27 10 21 11 22 12 26 13
REMARK SMILES IDX 23 14 25 15 24 16 6 17 7 18 20 19 8 20 19 21 9 22 10 23
REMARK SMILES IDX 18 24 11 25 17 26 12 27 13 28 14 29 15 30 16 31 31 32 32 33
REMARK SMILES IDX 33 34 34 35 35 36 36 37 37 39 38 40 39 41 100 42 40 43 99 44
REMARK SMILES IDX 41 45 42 46 43 47 93 48 44 49 98 50 92 51 94 52 45 53 97 54
REMARK SMILES IDX 91 55 90 56 46 58 78 59 58 60 77 61 59 62 62 63 76 64 95 65
REMARK SMILES IDX 60 66 61 67 75 69 96 70 63 71 47 72 48 73 56 74 49 75 50 76
REMARK SMILES IDX 54 77 57 78 51 79 52 80 55 81 53 82 79 83 80 84 88 85 81 86
REMARK SMILES IDX 82 87 86 88 89 89 83 90 84 91 87 92 85 93 64 94 65 95 73 96
REMARK SMILES IDX 66 97 67 98 71 99 74 100 68 101 69 102 72 103 70 104
REMARK H PARENT 28 6 35 38 94 57 62 68
REMARK Flexibility Score: inf
ROOT
ATOM      1  C   UNL     1       2.848   2.296   3.059  1.00  0.00     0.021 C 
ENDROOT
BRANCH   1   2
ATOM      2  C   UNL     1       2.177   1.975   1.730  1.00  0.00     0.116 C 
BRANCH   2   3
ATOM      3  N   UNL     1       2.836   0.921   0.988  1.00  0.00    -0.355 N 
ATOM      4  O   UNL     1       0.905   0.130   0.011  1.00  0.00    -0.273 OA
ATOM      5  C   UNL     1       2.135   0.113   0.114  1.00  0.00     0.239 C 
ATOM      6  H   UNL     1       3.802   0.777   1.109  1.00  0.00     0.163 HD
BRANCH   5   7
ATOM      7  C   UNL     1       2.983  -0.867  -0.648  1.00  0.00     0.222 C 
BRANCH   7   8
ATOM      8  N   UNL     1       3.662  -0.415  -1.866  1.00  0.00    -0.327 N 
ATOM      9  C   UNL     1       3.829   0.845  -2.408  1.00  0.00     0.109 A 
ATOM     10  C   UNL     1       4.438  -1.333  -2.597  1.00  0.00     0.049 A 
ATOM     11  C   UNL     1       4.664   0.711  -3.506  1.00  0.00     0.042 A 
ATOM     12  C   UNL     1       5.075  -0.630  -3.617  1.00  0.00     0.000 A 
ATOM     13  C   UNL     1       4.655  -2.714  -2.428  1.00  0.00     0.027 A 
ATOM     14  C   UNL     1       5.962  -1.297  -4.483  1.00  0.00     0.010 A 
ATOM     15  C   UNL     1       5.539  -3.362  -3.301  1.00  0.00     0.002 A 
ATOM     16  C   UNL     1       6.188  -2.663  -4.314  1.00  0.00     0.001 A 
BRANCH   9  17
ATOM     17  C   UNL     1       3.420   2.134  -1.933  1.00  0.00     0.274 A 
ATOM     18  N   UNL     1       2.208   2.566  -1.642  1.00  0.00    -0.185 NA
ATOM     19  O   UNL     1       4.353   3.135  -1.850  1.00  0.00    -0.332 OA
ATOM     20  C   UNL     1       2.418   3.909  -1.355  1.00  0.00     0.202 A 
ATOM     21  N   UNL     1       3.700   4.285  -1.477  1.00  0.00    -0.057 NA
BRANCH  20  22
ATOM     22  C   UNL     1       1.408   4.843  -0.848  1.00  0.00     0.023 A 
ATOM     23  C   UNL     1       1.827   6.086  -0.335  1.00  0.00     0.013 A 
ATOM     24  C   UNL     1       0.043   4.541  -0.815  1.00  0.00     0.013 A 
ATOM     25  C   UNL     1       0.919   6.996   0.208  1.00  0.00     0.014 A 
ATOM     26  C   UNL     1      -0.876   5.464  -0.281  1.00  0.00     0.014 A 
ATOM     27  C   UNL     1      -0.447   6.699   0.236  1.00  0.00     0.056 A 
BRANCH  27  28
ATOM     28  C   UNL     1      -1.402   7.703   0.837  1.00  0.00     0.416 C 
ATOM     29  F   UNL     1      -1.212   7.852   2.179  1.00  0.00    -0.166 F 
ATOM     30  F   UNL     1      -1.252   8.948   0.304  1.00  0.00    -0.166 F 
ATOM     31  F   UNL     1      -2.714   7.382   0.677  1.00  0.00    -0.166 F 
ENDBRANCH  27  28
ENDBRANCH  20  22
ENDBRANCH   9  17
ENDBRANCH   7   8
ENDBRANCH   5   7
ENDBRANCH   2   3
ENDBRANCH   1   2
BRANCH   1  32
ATOM     32  C   UNL     1       4.324   2.701   2.977  1.00  0.00     0.002 C 
BRANCH  32  33
ATOM     33  C   UNL     1       4.642   3.949   2.147  1.00  0.00     0.002 C 
BRANCH  33  34
ATOM     34  C   UNL     1       3.933   5.245   2.567  1.00  0.00     0.021 C 
BRANCH  34  35
ATOM     35  C   UNL     1       4.061   5.604   4.047  1.00  0.00     0.116 C 
BRANCH  35  36
ATOM     36  N   UNL     1       5.435   5.656   4.499  1.00  0.00    -0.352 N 
ATOM     37  C   UNL     1       6.364   6.631   4.705  1.00  0.00     0.251 C 
ATOM     38  H   UNL     1       5.787   4.762   4.712  1.00  0.00     0.163 HD
ATOM     39  O   UNL     1       7.418   6.259   5.229  1.00  0.00    -0.269 OA
BRANCH  37  40
ATOM     40  C   UNL     1       6.239   8.060   4.308  1.00  0.00     0.039 A 
ATOM     41  C   UNL     1       5.177   8.630   3.606  1.00  0.00     0.014 A 
ATOM     42  C   UNL     1       7.359   8.865   4.600  1.00  0.00     0.014 A 
ATOM     43  C   UNL     1       5.280   9.933   3.119  1.00  0.00     0.010 A 
ATOM     44  C   UNL     1       7.462  10.166   4.124  1.00  0.00     0.010 A 
ATOM     45  C   UNL     1       6.449  10.677   3.324  1.00  0.00    -0.014 A 
BRANCH  45  46
ATOM     46  C   UNL     1       6.559  11.992   2.693  1.00  0.00     0.031 A 
ATOM     47  C   UNL     1       5.497  12.974   3.059  1.00  0.00     0.074 A 
ATOM     48  C   UNL     1       7.578  12.342   1.879  1.00  0.00     0.049 A 
ATOM     49  N   UNL     1       4.627  13.539   2.283  1.00  0.00    -0.248 NA
ATOM     50  C   UNL     1       5.329  13.302   4.483  1.00  0.00     0.031 C 
ATOM     51  C   UNL     1       8.822  11.621   1.594  1.00  0.00     0.029 A 
ATOM     52  N   UNL     1       7.729  13.493   1.163  1.00  0.00    -0.354 N 
ATOM     53  C   UNL     1       3.883  14.399   3.090  1.00  0.00     0.074 A 
ATOM     54  C   UNL     1       4.294  14.143   4.447  1.00  0.00     0.031 C 
ATOM     55  C   UNL     1       9.683  12.441   0.947  1.00  0.00     0.029 A 
ATOM     56  C   UNL     1       8.999  13.683   0.634  1.00  0.00     0.049 A 
ATOM     57  H   UNL     1       6.997  14.138   1.032  1.00  0.00     0.167 HD
ATOM     58  C   UNL     1       3.090  15.376   2.568  1.00  0.00     0.037 A 
ATOM     59  C   UNL     1       9.457  14.800   0.015  1.00  0.00     0.037 A 
ATOM     60  C   UNL     1       2.776  15.130   1.188  1.00  0.00     0.049 A 
ATOM     61  C   UNL     1       8.275  15.559  -0.457  1.00  0.00     0.074 A 
ATOM     62  C   UNL     1       2.060  14.162   0.512  1.00  0.00     0.029 A 
ATOM     63  N   UNL     1       3.504  15.781   0.226  1.00  0.00    -0.354 N 
ATOM     64  N   UNL     1       7.487  15.159  -1.413  1.00  0.00    -0.248 NA
ATOM     65  C   UNL     1       7.722  16.566   0.436  1.00  0.00     0.031 C 
ATOM     66  C   UNL     1       2.773  13.957  -0.706  1.00  0.00     0.029 A 
ATOM     67  C   UNL     1       3.848  14.845  -0.716  1.00  0.00     0.049 A 
ATOM     68  H   UNL     1       3.735  16.738   0.213  1.00  0.00     0.167 HD
ATOM     69  C   UNL     1       6.218  15.529  -0.997  1.00  0.00     0.074 A 
ATOM     70  C   UNL     1       6.434  16.462   0.106  1.00  0.00     0.031 C 
ATOM     71  C   UNL     1       5.115  14.836  -1.404  1.00  0.00     0.037 A 
BRANCH  58  72
ATOM     72  C   UNL     1       2.837  16.710   3.222  1.00  0.00     0.064 A 
ATOM     73  C   UNL     1       1.840  17.566   2.712  1.00  0.00     0.173 A 
ATOM     74  C   UNL     1       3.736  17.297   4.138  1.00  0.00     0.173 A 
ATOM     75  F   UNL     1       0.948  17.118   1.816  1.00  0.00    -0.203 F 
ATOM     76  C   UNL     1       1.789  18.922   3.047  1.00  0.00     0.198 A 
ATOM     77  C   UNL     1       3.652  18.639   4.507  1.00  0.00     0.198 A 
ATOM     78  F   UNL     1       4.789  16.627   4.621  1.00  0.00    -0.203 F 
ATOM     79  F   UNL     1       0.895  19.723   2.451  1.00  0.00    -0.200 F 
ATOM     80  C   UNL     1       2.699  19.459   3.940  1.00  0.00     0.200 A 
ATOM     81  F   UNL     1       4.556  19.146   5.357  1.00  0.00    -0.200 F 
ATOM     82  F   UNL     1       2.691  20.769   4.216  1.00  0.00    -0.200 F 
ENDBRANCH  58  72
BRANCH  59  83
ATOM     83  C   UNL     1      10.789  15.441   0.134  1.00  0.00     0.064 A 
ATOM     84  C   UNL     1      11.184  16.450  -0.761  1.00  0.00     0.173 A 
ATOM     85  C   UNL     1      11.552  15.313   1.310  1.00  0.00     0.173 A 
ATOM     86  F   UNL     1      10.486  16.663  -1.887  1.00  0.00    -0.203 F 
ATOM     87  C   UNL     1      12.247  17.312  -0.473  1.00  0.00     0.198 A 
ATOM     88  C   UNL     1      12.616  16.172   1.595  1.00  0.00     0.198 A 
ATOM     89  F   UNL     1      11.213  14.425   2.255  1.00  0.00    -0.203 F 
ATOM     90  F   UNL     1      12.545  18.312  -1.315  1.00  0.00    -0.200 F 
ATOM     91  C   UNL     1      12.951  17.182   0.712  1.00  0.00     0.200 A 
ATOM     92  F   UNL     1      13.265  16.061   2.762  1.00  0.00    -0.200 F 
ATOM     93  F   UNL     1      13.919  18.055   1.025  1.00  0.00    -0.200 F 
ENDBRANCH  59  83
BRANCH  71  94
ATOM     94  C   UNL     1       5.301  13.812  -2.489  1.00  0.00     0.064 A 
ATOM     95  C   UNL     1       6.093  12.658  -2.349  1.00  0.00     0.173 A 
ATOM     96  C   UNL     1       4.549  13.937  -3.664  1.00  0.00     0.173 A 
ATOM     97  F   UNL     1       6.761  12.415  -1.215  1.00  0.00    -0.203 F 
ATOM     98  C   UNL     1       6.164  11.701  -3.360  1.00  0.00     0.198 A 
ATOM     99  C   UNL     1       4.593  12.962  -4.656  1.00  0.00     0.198 A 
ATOM    100  F   UNL     1       3.731  14.988  -3.829  1.00  0.00    -0.203 F 
ATOM    101  F   UNL     1       6.937  10.615  -3.206  1.00  0.00    -0.200 F 
ATOM    102  C   UNL     1       5.409  11.851  -4.510  1.00  0.00     0.200 A 
ATOM    103  F   UNL     1       3.822  13.086  -5.746  1.00  0.00    -0.200 F 
ATOM    104  F   UNL     1       5.444  10.911  -5.466  1.00  0.00    -0.200 F 
ENDBRANCH  71  94
ENDBRANCH  45  46
ENDBRANCH  37  40
ENDBRANCH  35  36
ENDBRANCH  34  35
ENDBRANCH  33  34
ENDBRANCH  32  33
ENDBRANCH   1  32
TORSDOF 17
