REMARK SMILES C[C@@H]1SCCC[C@@]1(CC(=O)NCCCCCCNC(=O)c1ccc(-c2c3nc(c(-c4c(F)c(F)c(F)c(F)c4F)c4ccc([nH]4)c(-c4c(F)c(F)c(F)c(F)c4F)c4nc(c(-c5c(F)c(F)c(F)c(F)c5F)c5ccc2[nH]5)C=C4)C=C3)cc1)[NH+]1CCCC1
REMARK SMILES IDX 14 1 13 2 12 3 11 4 9 5 10 6 8 8 7 9 1 10 2 11 3 12 4 13
REMARK SMILES IDX 6 14 5 15 84 16 85 17 88 18 86 20 87 21 15 22 16 23 17 24
REMARK SMILES IDX 18 25 19 26 20 28 21 29 22 30 83 31 23 32 82 33 24 34 25 35
REMARK SMILES IDX 26 36 76 37 27 38 81 39 75 40 77 41 28 42 80 43 74 44 73 45
REMARK SMILES IDX 29 47 61 48 41 49 60 50 42 51 45 52 59 53 78 54 43 55 44 56
REMARK SMILES IDX 58 58 79 59 46 60 30 61 31 62 39 63 32 64 33 65 37 66 40 67
REMARK SMILES IDX 34 68 35 69 38 70 36 71 62 72 63 73 71 74 64 75 65 76 69 77
REMARK SMILES IDX 72 78 66 79 67 80 70 81 68 82 47 83 48 84 56 85 49 86 50 87
REMARK SMILES IDX 54 88 57 89 51 90 52 91 55 92 53 93
REMARK H PARENT 11 7 84 19 18 27 77 46 45 57
REMARK Flexibility Score: inf
ROOT
ATOM      1  C   UNL     1      -4.434   3.283  -4.018  1.00  0.00     0.002 C 
ENDROOT
BRANCH   1   2
ATOM      2  C   UNL     1      -3.385   2.889  -2.975  1.00  0.00     0.021 C 
BRANCH   2   3
ATOM      3  C   UNL     1      -3.943   2.053  -1.823  1.00  0.00     0.116 C 
BRANCH   3   4
ATOM      4  N   UNL     1      -3.233   0.800  -1.679  1.00  0.00    -0.356 N 
ATOM      5  C   UNL     1      -2.295   0.394  -0.791  1.00  0.00     0.226 C 
ATOM      6  O   UNL     1      -2.002  -0.805  -0.822  1.00  0.00    -0.275 OA
ATOM      7  H   UNL     1      -3.476   0.120  -2.348  1.00  0.00     0.163 HD
BRANCH   5   8
ATOM      8  C   UNL     1      -1.660   1.319   0.239  1.00  0.00     0.169 C 
BRANCH   8   9
ATOM      9  C   UNL     1      -0.360   2.119  -0.180  1.00  0.00     0.118 C 
ATOM     10  C   UNL     1       0.891  -0.217  -0.468  1.00  0.00     0.026 C 
ATOM     11  C   UNL     1       0.590   1.180  -1.071  1.00  0.00     0.105 C 
ATOM     12  S   UNL     1       2.266   1.868  -1.466  1.00  0.00    -0.152 SA
ATOM     13  C   UNL     1       2.803   2.360   0.190  1.00  0.00     0.070 C 
ATOM     14  C   UNL     1       0.438   2.433   1.140  1.00  0.00     0.071 C 
ATOM     15  C   UNL     1       1.761   3.173   0.941  1.00  0.00     0.017 C 
BRANCH   9  16
ATOM     16  N   UNL     1      -0.838   3.402  -0.788  1.00  0.00    -0.329 N 
ATOM     17  C   UNL     1      -0.129   4.135  -1.824  1.00  0.00     0.262 C 
ATOM     18  C   UNL     1      -1.627   4.341   0.017  1.00  0.00     0.262 C 
ATOM     19  H   UNL     1      -1.433   2.767  -1.320  1.00  0.00     0.348 HD
ATOM     20  C   UNL     1      -0.163   5.595  -1.403  1.00  0.00     0.067 C 
ATOM     21  C   UNL     1      -1.416   5.724  -0.576  1.00  0.00     0.067 C 
ENDBRANCH   9  16
ENDBRANCH   8   9
ENDBRANCH   5   8
ENDBRANCH   3   4
ENDBRANCH   2   3
ENDBRANCH   1   2
BRANCH   1  22
ATOM     22  C   UNL     1      -5.520   4.237  -3.509  1.00  0.00     0.002 C 
BRANCH  22  23
ATOM     23  C   UNL     1      -5.028   5.600  -3.010  1.00  0.00     0.021 C 
BRANCH  23  24
ATOM     24  C   UNL     1      -4.174   6.396  -3.997  1.00  0.00     0.116 C 
BRANCH  24  25
ATOM     25  N   UNL     1      -4.863   6.629  -5.257  1.00  0.00    -0.352 N 
ATOM     26  C   UNL     1      -5.292   7.791  -5.840  1.00  0.00     0.251 C 
ATOM     27  H   UNL     1      -5.052   5.816  -5.777  1.00  0.00     0.163 HD
ATOM     28  O   UNL     1      -6.048   7.739  -6.812  1.00  0.00    -0.269 OA
BRANCH  26  29
ATOM     29  C   UNL     1      -4.872   9.111  -5.323  1.00  0.00     0.039 A 
ATOM     30  C   UNL     1      -5.814  10.144  -5.277  1.00  0.00     0.014 A 
ATOM     31  C   UNL     1      -3.548   9.362  -4.951  1.00  0.00     0.014 A 
ATOM     32  C   UNL     1      -5.445  11.409  -4.811  1.00  0.00     0.010 A 
ATOM     33  C   UNL     1      -3.194  10.605  -4.428  1.00  0.00     0.010 A 
ATOM     34  C   UNL     1      -4.138  11.642  -4.356  1.00  0.00    -0.014 A 
BRANCH  34  35
ATOM     35  C   UNL     1      -3.742  12.964  -3.805  1.00  0.00     0.031 A 
ATOM     36  C   UNL     1      -2.727  13.813  -4.518  1.00  0.00     0.074 A 
ATOM     37  C   UNL     1      -4.253  13.372  -2.628  1.00  0.00     0.049 A 
ATOM     38  N   UNL     1      -2.199  14.955  -4.154  1.00  0.00    -0.248 NA
ATOM     39  C   UNL     1      -2.221  13.299  -5.799  1.00  0.00     0.031 C 
ATOM     40  C   UNL     1      -5.213  12.621  -1.819  1.00  0.00     0.029 A 
ATOM     41  N   UNL     1      -4.023  14.513  -1.899  1.00  0.00    -0.354 N 
ATOM     42  C   UNL     1      -1.294  15.289  -5.152  1.00  0.00     0.074 A 
ATOM     43  C   UNL     1      -1.306  14.206  -6.112  1.00  0.00     0.031 C 
ATOM     44  C   UNL     1      -5.497  13.323  -0.711  1.00  0.00     0.029 A 
ATOM     45  C   UNL     1      -4.715  14.556  -0.714  1.00  0.00     0.049 A 
ATOM     46  H   UNL     1      -3.419  15.231  -2.198  1.00  0.00     0.167 HD
ATOM     47  C   UNL     1      -0.537  16.407  -5.269  1.00  0.00     0.037 A 
ATOM     48  C   UNL     1      -4.711  15.479   0.266  1.00  0.00     0.037 A 
ATOM     49  C   UNL     1      -0.538  17.492  -4.322  1.00  0.00     0.049 A 
ATOM     50  C   UNL     1      -3.860  16.711   0.115  1.00  0.00     0.074 A 
ATOM     51  C   UNL     1       0.159  18.686  -4.375  1.00  0.00     0.029 A 
ATOM     52  N   UNL     1      -1.273  17.511  -3.145  1.00  0.00    -0.354 N 
ATOM     53  N   UNL     1      -3.050  17.041  -0.860  1.00  0.00    -0.248 NA
ATOM     54  C   UNL     1      -3.931  17.702   1.198  1.00  0.00     0.031 C 
ATOM     55  C   UNL     1      -0.123  19.411  -3.211  1.00  0.00     0.029 A 
ATOM     56  C   UNL     1      -1.033  18.690  -2.456  1.00  0.00     0.049 A 
ATOM     57  H   UNL     1      -1.877  16.794  -2.844  1.00  0.00     0.167 HD
ATOM     58  C   UNL     1      -2.533  18.284  -0.523  1.00  0.00     0.074 A 
ATOM     59  C   UNL     1      -3.133  18.657   0.742  1.00  0.00     0.031 C 
ATOM     60  C   UNL     1      -1.640  19.048  -1.199  1.00  0.00     0.037 A 
BRANCH  47  61
ATOM     61  C   UNL     1       0.357  16.514  -6.471  1.00  0.00     0.064 A 
ATOM     62  C   UNL     1      -0.166  16.705  -7.759  1.00  0.00     0.173 A 
ATOM     63  C   UNL     1       1.752  16.455  -6.332  1.00  0.00     0.173 A 
ATOM     64  F   UNL     1      -1.493  16.759  -7.948  1.00  0.00    -0.203 F 
ATOM     65  C   UNL     1       0.672  16.801  -8.867  1.00  0.00     0.198 A 
ATOM     66  C   UNL     1       2.588  16.581  -7.439  1.00  0.00     0.198 A 
ATOM     67  F   UNL     1       2.305  16.281  -5.123  1.00  0.00    -0.203 F 
ATOM     68  F   UNL     1       0.147  16.931 -10.093  1.00  0.00    -0.200 F 
ATOM     69  C   UNL     1       2.048  16.744  -8.705  1.00  0.00     0.200 A 
ATOM     70  F   UNL     1       3.918  16.539  -7.279  1.00  0.00    -0.200 F 
ATOM     71  F   UNL     1       2.854  16.840  -9.772  1.00  0.00    -0.200 F 
ENDBRANCH  47  61
BRANCH  48  72
ATOM     72  C   UNL     1      -5.557  15.278   1.470  1.00  0.00     0.064 A 
ATOM     73  C   UNL     1      -6.695  16.065   1.691  1.00  0.00     0.173 A 
ATOM     74  C   UNL     1      -5.252  14.289   2.416  1.00  0.00     0.173 A 
ATOM     75  F   UNL     1      -7.015  17.036   0.824  1.00  0.00    -0.203 F 
ATOM     76  C   UNL     1      -7.488  15.880   2.822  1.00  0.00     0.198 A 
ATOM     77  C   UNL     1      -6.061  14.087   3.532  1.00  0.00     0.198 A 
ATOM     78  F   UNL     1      -4.176  13.505   2.247  1.00  0.00    -0.203 F 
ATOM     79  F   UNL     1      -8.549  16.672   3.029  1.00  0.00    -0.200 F 
ATOM     80  C   UNL     1      -7.174  14.887   3.738  1.00  0.00     0.200 A 
ATOM     81  F   UNL     1      -5.762  13.117   4.407  1.00  0.00    -0.200 F 
ATOM     82  F   UNL     1      -7.942  14.705   4.821  1.00  0.00    -0.200 F 
ENDBRANCH  48  72
BRANCH  60  83
ATOM     83  C   UNL     1      -1.278  20.375  -0.600  1.00  0.00     0.064 A 
ATOM     84  C   UNL     1      -0.464  20.471   0.538  1.00  0.00     0.173 A 
ATOM     85  C   UNL     1      -1.720  21.567  -1.194  1.00  0.00     0.173 A 
ATOM     86  F   UNL     1      -0.029  19.360   1.152  1.00  0.00    -0.203 F 
ATOM     87  C   UNL     1      -0.125  21.711   1.073  1.00  0.00     0.198 A 
ATOM     88  C   UNL     1      -1.357  22.805  -0.672  1.00  0.00     0.198 A 
ATOM     89  F   UNL     1      -2.497  21.530  -2.287  1.00  0.00    -0.203 F 
ATOM     90  F   UNL     1       0.617  21.777   2.188  1.00  0.00    -0.200 F 
ATOM     91  C   UNL     1      -0.566  22.876   0.464  1.00  0.00     0.200 A 
ATOM     92  F   UNL     1      -1.774  23.931  -1.269  1.00  0.00    -0.200 F 
ATOM     93  F   UNL     1      -0.233  24.069   0.977  1.00  0.00    -0.200 F 
ENDBRANCH  60  83
ENDBRANCH  34  35
ENDBRANCH  26  29
ENDBRANCH  24  25
ENDBRANCH  23  24
ENDBRANCH  22  23
ENDBRANCH   1  22
TORSDOF 15
