REMARK SMILES O=C(NCCCCCCNC(=O)c1cncc(Oc2cc(F)ccc2F)n1)c1ccc(-c2c3nc(c(-c4c(F)c(F)c(F)c(F)c4F)c4ccc([nH]4)c(-c4c(F)c(F)c(F)c(F)c4F)c4nc(c(-c5c(F)c(F)c(F)c(F)c5F)c5ccc2[nH]5)C=C4)C=C3)cc1
REMARK SMILES IDX 6 1 5 2 4 3 3 4 1 5 2 6 28 8 29 9 90 10 30 11 89 12 31 13
REMARK SMILES IDX 32 14 33 15 83 16 34 17 88 18 82 19 84 20 35 21 87 22 81 23
REMARK SMILES IDX 80 24 36 26 68 27 48 28 67 29 49 30 52 31 66 32 85 33 50 34
REMARK SMILES IDX 51 35 65 37 86 38 53 39 37 40 38 41 46 42 39 43 40 44 44 45
REMARK SMILES IDX 47 46 41 47 42 48 45 49 43 50 69 51 70 52 78 53 71 54 72 55
REMARK SMILES IDX 76 56 79 57 73 58 74 59 77 60 75 61 54 62 55 63 63 64 56 65
REMARK SMILES IDX 57 66 61 67 64 68 58 69 59 70 62 71 60 72 7 73 8 74 9 75
REMARK SMILES IDX 10 76 11 77 12 79 13 80 14 81 27 82 15 83 17 84 16 85 18 86
REMARK SMILES IDX 19 87 20 88 25 89 21 90 24 91 26 92 22 93 23 94
REMARK H PARENT 3 7 84 25 52 36 10 78
REMARK Flexibility Score: inf
ROOT
ATOM      1  C   UNL     1       4.346  -2.060   3.202  1.00  0.00     0.002 C 
ENDROOT
BRANCH   1   2
ATOM      2  C   UNL     1       4.817  -0.850   2.393  1.00  0.00     0.021 C 
BRANCH   2   3
ATOM      3  C   UNL     1       4.551  -0.937   0.893  1.00  0.00     0.116 C 
BRANCH   3   4
ATOM      4  N   UNL     1       3.131  -0.990   0.588  1.00  0.00    -0.352 N 
ATOM      5  O   UNL     1       1.140  -0.230  -0.149  1.00  0.00    -0.269 OA
ATOM      6  C   UNL     1       2.367  -0.128  -0.154  1.00  0.00     0.251 C 
ATOM      7  H   UNL     1       2.647  -1.757   0.970  1.00  0.00     0.163 HD
BRANCH   6   8
ATOM      8  C   UNL     1       3.007   0.939  -0.949  1.00  0.00     0.039 A 
ATOM      9  C   UNL     1       4.117   0.670  -1.756  1.00  0.00     0.014 A 
ATOM     10  C   UNL     1       2.462   2.225  -0.915  1.00  0.00     0.014 A 
ATOM     11  C   UNL     1       4.745   1.706  -2.443  1.00  0.00     0.010 A 
ATOM     12  C   UNL     1       3.052   3.250  -1.657  1.00  0.00     0.010 A 
ATOM     13  C   UNL     1       4.209   3.003  -2.413  1.00  0.00    -0.014 A 
BRANCH  13  14
ATOM     14  C   UNL     1       4.820   4.090  -3.218  1.00  0.00     0.031 A 
ATOM     15  C   UNL     1       5.448   5.280  -2.548  1.00  0.00     0.074 A 
ATOM     16  C   UNL     1       4.783   4.010  -4.562  1.00  0.00     0.049 A 
ATOM     17  N   UNL     1       5.916   6.379  -3.085  1.00  0.00    -0.248 NA
ATOM     18  C   UNL     1       5.563   5.233  -1.082  1.00  0.00     0.031 C 
ATOM     19  C   UNL     1       4.218   2.896  -5.326  1.00  0.00     0.029 A 
ATOM     20  N   UNL     1       5.221   4.884  -5.526  1.00  0.00    -0.354 N 
ATOM     21  C   UNL     1       6.370   7.156  -2.028  1.00  0.00     0.074 A 
ATOM     22  C   UNL     1       6.101   6.416  -0.813  1.00  0.00     0.031 C 
ATOM     23  C   UNL     1       4.354   3.147  -6.637  1.00  0.00     0.029 A 
ATOM     24  C   UNL     1       4.954   4.465  -6.806  1.00  0.00     0.049 A 
ATOM     25  H   UNL     1       5.681   5.729  -5.319  1.00  0.00     0.167 HD
ATOM     26  C   UNL     1       6.965   8.372  -2.074  1.00  0.00     0.037 A 
ATOM     27  C   UNL     1       5.138   5.090  -7.984  1.00  0.00     0.037 A 
ATOM     28  C   UNL     1       7.236   9.100  -3.288  1.00  0.00     0.049 A 
ATOM     29  C   UNL     1       5.736   6.469  -7.994  1.00  0.00     0.074 A 
ATOM     30  C   UNL     1       7.837  10.339  -3.434  1.00  0.00     0.029 A 
ATOM     31  N   UNL     1       6.929   8.653  -4.564  1.00  0.00    -0.354 N 
ATOM     32  N   UNL     1       6.162   7.195  -6.989  1.00  0.00    -0.248 NA
ATOM     33  C   UNL     1       5.876   7.118  -9.304  1.00  0.00     0.031 C 
ATOM     34  C   UNL     1       7.854  10.661  -4.794  1.00  0.00     0.029 A 
ATOM     35  C   UNL     1       7.314   9.600  -5.501  1.00  0.00     0.049 A 
ATOM     36  H   UNL     1       6.501   7.792  -4.774  1.00  0.00     0.167 HD
ATOM     37  C   UNL     1       6.640   8.373  -7.546  1.00  0.00     0.074 A 
ATOM     38  C   UNL     1       6.479   8.252  -8.980  1.00  0.00     0.031 C 
ATOM     39  C   UNL     1       7.157   9.462  -6.926  1.00  0.00     0.037 A 
BRANCH  26  40
ATOM     40  C   UNL     1       7.374   9.011  -0.779  1.00  0.00     0.064 A 
ATOM     41  C   UNL     1       6.715  10.158  -0.310  1.00  0.00     0.173 A 
ATOM     42  C   UNL     1       8.492   8.558  -0.063  1.00  0.00     0.173 A 
ATOM     43  F   UNL     1       5.644  10.636  -0.963  1.00  0.00    -0.203 F 
ATOM     44  C   UNL     1       7.175  10.843   0.811  1.00  0.00     0.198 A 
ATOM     45  C   UNL     1       8.935   9.232   1.073  1.00  0.00     0.198 A 
ATOM     46  F   UNL     1       9.150   7.460  -0.463  1.00  0.00    -0.203 F 
ATOM     47  F   UNL     1       6.555  11.961   1.214  1.00  0.00    -0.200 F 
ATOM     48  C   UNL     1       8.285  10.380   1.501  1.00  0.00     0.200 A 
ATOM     49  F   UNL     1       9.996   8.772   1.750  1.00  0.00    -0.200 F 
ATOM     50  F   UNL     1       8.731  11.042   2.578  1.00  0.00    -0.200 F 
ENDBRANCH  26  40
BRANCH  27  51
ATOM     51  C   UNL     1       4.736   4.427  -9.254  1.00  0.00     0.064 A 
ATOM     52  C   UNL     1       3.388   4.178  -9.555  1.00  0.00     0.173 A 
ATOM     53  C   UNL     1       5.695   4.054 -10.204  1.00  0.00     0.173 A 
ATOM     54  F   UNL     1       2.429   4.514  -8.680  1.00  0.00    -0.203 F 
ATOM     55  C   UNL     1       3.018   3.573 -10.754  1.00  0.00     0.198 A 
ATOM     56  C   UNL     1       5.321   3.482 -11.418  1.00  0.00     0.198 A 
ATOM     57  F   UNL     1       6.995   4.292  -9.973  1.00  0.00    -0.203 F 
ATOM     58  F   UNL     1       1.726   3.324 -11.005  1.00  0.00    -0.200 F 
ATOM     59  C   UNL     1       3.984   3.237 -11.690  1.00  0.00     0.200 A 
ATOM     60  F   UNL     1       6.256   3.190 -12.333  1.00  0.00    -0.200 F 
ATOM     61  F   UNL     1       3.625   2.687 -12.858  1.00  0.00    -0.200 F 
ENDBRANCH  27  51
BRANCH  39  62
ATOM     62  C   UNL     1       7.617  10.594  -7.799  1.00  0.00     0.064 A 
ATOM     63  C   UNL     1       8.983  10.895  -7.913  1.00  0.00     0.173 A 
ATOM     64  C   UNL     1       6.707  11.397  -8.503  1.00  0.00     0.173 A 
ATOM     65  F   UNL     1       9.895  10.165  -7.254  1.00  0.00    -0.203 F 
ATOM     66  C   UNL     1       9.419  11.958  -8.699  1.00  0.00     0.198 A 
ATOM     67  C   UNL     1       7.150  12.436  -9.316  1.00  0.00     0.198 A 
ATOM     68  F   UNL     1       5.391  11.142  -8.439  1.00  0.00    -0.203 F 
ATOM     69  F   UNL     1      10.727  12.241  -8.773  1.00  0.00    -0.200 F 
ATOM     70  C   UNL     1       8.504  12.720  -9.408  1.00  0.00     0.200 A 
ATOM     71  F   UNL     1       6.266  13.151 -10.026  1.00  0.00    -0.200 F 
ATOM     72  F   UNL     1       8.928  13.724 -10.188  1.00  0.00    -0.200 F 
ENDBRANCH  39  62
ENDBRANCH  13  14
ENDBRANCH   6   8
ENDBRANCH   3   4
ENDBRANCH   2   3
ENDBRANCH   1   2
BRANCH   1  73
ATOM     73  C   UNL     1       4.895  -3.413   2.740  1.00  0.00     0.002 C 
BRANCH  73  74
ATOM     74  C   UNL     1       6.421  -3.510   2.644  1.00  0.00     0.021 C 
BRANCH  74  75
ATOM     75  C   UNL     1       7.174  -3.174   3.929  1.00  0.00     0.116 C 
BRANCH  75  76
ATOM     76  N   UNL     1       6.851  -4.091   5.008  1.00  0.00    -0.351 N 
ATOM     77  C   UNL     1       7.691  -4.884   5.757  1.00  0.00     0.271 C 
ATOM     78  H   UNL     1       5.895  -4.156   5.235  1.00  0.00     0.163 HD
ATOM     79  O   UNL     1       7.216  -5.692   6.551  1.00  0.00    -0.267 OA
BRANCH  77  80
ATOM     80  C   UNL     1       9.158  -4.740   5.620  1.00  0.00     0.150 A 
ATOM     81  C   UNL     1       9.761  -3.514   5.871  1.00  0.00     0.145 A 
ATOM     82  N   UNL     1       9.858  -5.840   5.243  1.00  0.00    -0.205 NA
ATOM     83  N   UNL     1      11.092  -3.316   5.715  1.00  0.00    -0.257 NA
ATOM     84  C   UNL     1      11.191  -5.652   5.119  1.00  0.00     0.238 A 
ATOM     85  C   UNL     1      11.791  -4.416   5.336  1.00  0.00     0.179 A 
BRANCH  84  86
ATOM     86  O   UNL     1      12.025  -6.694   4.732  1.00  0.00    -0.434 OA
BRANCH  86  87
ATOM     87  C   UNL     1      11.480  -7.954   4.738  1.00  0.00     0.168 A 
ATOM     88  C   UNL     1      10.574  -8.355   3.756  1.00  0.00     0.089 A 
ATOM     89  C   UNL     1      11.923  -8.869   5.694  1.00  0.00     0.166 A 
ATOM     90  C   UNL     1      10.092  -9.660   3.776  1.00  0.00     0.127 A 
ATOM     91  C   UNL     1      11.443 -10.177   5.703  1.00  0.00     0.046 A 
ATOM     92  F   UNL     1      12.826  -8.499   6.613  1.00  0.00    -0.203 F 
ATOM     93  F   UNL     1       9.212 -10.049   2.844  1.00  0.00    -0.207 F 
ATOM     94  C   UNL     1      10.517 -10.573   4.738  1.00  0.00     0.042 A 
ENDBRANCH  86  87
ENDBRANCH  84  86
ENDBRANCH  77  80
ENDBRANCH  75  76
ENDBRANCH  74  75
ENDBRANCH  73  74
ENDBRANCH   1  73
TORSDOF 15
