REMARK SMILES O=C(NCCCCCCNC(=O)c1cc(SC[C@H]2CCOC2)ccn1)c1ccc(-c2c3nc(c(-c4c(F)c(F)c(F)c(F)c4F)c4ccc([nH]4)c(-c4c(F)c(F)c(F)c(F)c4F)c4nc(c(-c5c(F)c(F)c(F)c(F)c5F)c5ccc2[nH]5)C=C4)C=C3)cc1
REMARK SMILES IDX 7 1 6 2 5 3 4 4 3 5 1 6 2 7 26 9 27 10 88 11 28 12 87 13
REMARK SMILES IDX 29 14 30 15 31 16 81 17 32 18 86 19 80 20 82 21 33 22 85 23
REMARK SMILES IDX 79 24 78 25 34 27 66 28 46 29 65 30 47 31 50 32 64 33 83 34
REMARK SMILES IDX 48 35 49 36 63 38 84 39 51 40 35 41 36 42 44 43 37 44 38 45
REMARK SMILES IDX 42 46 45 47 39 48 40 49 43 50 41 51 67 52 68 53 76 54 69 55
REMARK SMILES IDX 70 56 74 57 77 58 71 59 72 60 75 61 73 62 52 63 53 64 61 65
REMARK SMILES IDX 54 66 55 67 59 68 62 69 56 70 57 71 60 72 58 73 8 74 9 75
REMARK SMILES IDX 10 76 11 77 12 79 13 80 14 81 25 82 15 83 24 84 23 85 16 86
REMARK SMILES IDX 17 87 18 88 19 89 22 90 20 91 21 92
REMARK H PARENT 3 8 82 26 50 37 10 78
REMARK Flexibility Score: inf
ROOT
ATOM      1  C   UNL     1       6.305  -7.378   5.989  1.00  0.00     0.002 C 
ENDROOT
BRANCH   1   2
ATOM      2  C   UNL     1       7.828  -7.561   6.003  1.00  0.00     0.002 C 
BRANCH   2   3
ATOM      3  C   UNL     1       8.668  -6.322   6.316  1.00  0.00     0.021 C 
BRANCH   3   4
ATOM      4  C   UNL     1       8.320  -5.580   7.602  1.00  0.00     0.116 C 
BRANCH   4   5
ATOM      5  N   UNL     1       8.498  -6.393   8.796  1.00  0.00    -0.352 N 
ATOM      6  O   UNL     1       9.359  -7.039  10.776  1.00  0.00    -0.269 OA
ATOM      7  C   UNL     1       9.238  -6.157   9.928  1.00  0.00     0.251 C 
ATOM      8  H   UNL     1       8.010  -7.248   8.791  1.00  0.00     0.163 HD
BRANCH   7   9
ATOM      9  C   UNL     1       9.920  -4.857  10.130  1.00  0.00     0.039 A 
ATOM     10  C   UNL     1       9.283  -3.651   9.836  1.00  0.00     0.014 A 
ATOM     11  C   UNL     1      11.218  -4.848  10.652  1.00  0.00     0.014 A 
ATOM     12  C   UNL     1       9.992  -2.454   9.914  1.00  0.00     0.010 A 
ATOM     13  C   UNL     1      11.900  -3.638  10.811  1.00  0.00     0.010 A 
ATOM     14  C   UNL     1      11.308  -2.433  10.405  1.00  0.00    -0.014 A 
BRANCH  14  15
ATOM     15  C   UNL     1      12.030  -1.137  10.512  1.00  0.00     0.031 A 
ATOM     16  C   UNL     1      13.259  -0.863   9.691  1.00  0.00     0.074 A 
ATOM     17  C   UNL     1      11.553  -0.190  11.342  1.00  0.00     0.049 A 
ATOM     18  N   UNL     1      13.992   0.222   9.633  1.00  0.00    -0.248 NA
ATOM     19  C   UNL     1      13.737  -1.952   8.827  1.00  0.00     0.031 C 
ATOM     20  C   UNL     1      10.375  -0.339  12.199  1.00  0.00     0.029 A 
ATOM     21  N   UNL     1      11.984   1.089  11.590  1.00  0.00    -0.354 N 
ATOM     22  C   UNL     1      15.025  -0.059   8.748  1.00  0.00     0.074 A 
ATOM     23  C   UNL     1      14.842  -1.429   8.315  1.00  0.00     0.031 C 
ATOM     24  C   UNL     1      10.149   0.816  12.840  1.00  0.00     0.029 A 
ATOM     25  C   UNL     1      11.196   1.768  12.486  1.00  0.00     0.049 A 
ATOM     26  H   UNL     1      12.782   1.481  11.167  1.00  0.00     0.167 HD
ATOM     27  C   UNL     1      16.027   0.753   8.330  1.00  0.00     0.037 A 
ATOM     28  C   UNL     1      11.308   3.017  12.976  1.00  0.00     0.037 A 
ATOM     29  C   UNL     1      16.196   2.120   8.756  1.00  0.00     0.049 A 
ATOM     30  C   UNL     1      12.444   3.885  12.516  1.00  0.00     0.074 A 
ATOM     31  C   UNL     1      17.151   3.038   8.354  1.00  0.00     0.029 A 
ATOM     32  N   UNL     1      15.396   2.763   9.691  1.00  0.00    -0.354 N 
ATOM     33  N   UNL     1      13.384   3.625  11.641  1.00  0.00    -0.248 NA
ATOM     34  C   UNL     1      12.531   5.224  13.114  1.00  0.00     0.031 C 
ATOM     35  C   UNL     1      16.965   4.215   9.087  1.00  0.00     0.029 A 
ATOM     36  C   UNL     1      15.854   4.056   9.899  1.00  0.00     0.049 A 
ATOM     37  H   UNL     1      14.618   2.360  10.140  1.00  0.00     0.167 HD
ATOM     38  C   UNL     1      14.157   4.775  11.559  1.00  0.00     0.074 A 
ATOM     39  C   UNL     1      13.566   5.739  12.465  1.00  0.00     0.031 C 
ATOM     40  C   UNL     1      15.254   5.010  10.798  1.00  0.00     0.037 A 
BRANCH  27  41
ATOM     41  C   UNL     1      17.041   0.174   7.382  1.00  0.00     0.064 A 
ATOM     42  C   UNL     1      16.716  -0.155   6.057  1.00  0.00     0.173 A 
ATOM     43  C   UNL     1      18.365  -0.032   7.800  1.00  0.00     0.173 A 
ATOM     44  F   UNL     1      15.464   0.013   5.606  1.00  0.00    -0.203 F 
ATOM     45  C   UNL     1      17.668  -0.703   5.199  1.00  0.00     0.198 A 
ATOM     46  C   UNL     1      19.322  -0.549   6.930  1.00  0.00     0.198 A 
ATOM     47  F   UNL     1      18.735   0.274   9.052  1.00  0.00    -0.203 F 
ATOM     48  F   UNL     1      17.319  -1.062   3.956  1.00  0.00    -0.200 F 
ATOM     49  C   UNL     1      18.971  -0.894   5.634  1.00  0.00     0.200 A 
ATOM     50  F   UNL     1      20.584  -0.718   7.348  1.00  0.00    -0.200 F 
ATOM     51  F   UNL     1      19.885  -1.419   4.807  1.00  0.00    -0.200 F 
ENDBRANCH  27  41
BRANCH  28  52
ATOM     52  C   UNL     1      10.298   3.520  13.942  1.00  0.00     0.064 A 
ATOM     53  C   UNL     1       9.393   4.526  13.576  1.00  0.00     0.173 A 
ATOM     54  C   UNL     1      10.202   2.995  15.239  1.00  0.00     0.173 A 
ATOM     55  F   UNL     1       9.458   5.072  12.353  1.00  0.00    -0.203 F 
ATOM     56  C   UNL     1       8.439   4.997  14.475  1.00  0.00     0.198 A 
ATOM     57  C   UNL     1       9.228   3.445  16.127  1.00  0.00     0.198 A 
ATOM     58  F   UNL     1      11.041   2.027  15.635  1.00  0.00    -0.203 F 
ATOM     59  F   UNL     1       7.611   5.986  14.113  1.00  0.00    -0.200 F 
ATOM     60  C   UNL     1       8.352   4.450  15.747  1.00  0.00     0.200 A 
ATOM     61  F   UNL     1       9.136   2.902  17.349  1.00  0.00    -0.200 F 
ATOM     62  F   UNL     1       7.427   4.895  16.608  1.00  0.00    -0.200 F 
ENDBRANCH  28  52
BRANCH  40  63
ATOM     63  C   UNL     1      15.858   6.383  10.873  1.00  0.00     0.064 A 
ATOM     64  C   UNL     1      16.541   6.833  12.013  1.00  0.00     0.173 A 
ATOM     65  C   UNL     1      15.769   7.255   9.776  1.00  0.00     0.173 A 
ATOM     66  F   UNL     1      16.640   6.046  13.095  1.00  0.00    -0.203 F 
ATOM     67  C   UNL     1      17.083   8.115  12.063  1.00  0.00     0.198 A 
ATOM     68  C   UNL     1      16.342   8.523   9.818  1.00  0.00     0.198 A 
ATOM     69  F   UNL     1      15.133   6.873   8.658  1.00  0.00    -0.203 F 
ATOM     70  F   UNL     1      17.680   8.544  13.184  1.00  0.00    -0.200 F 
ATOM     71  C   UNL     1      16.989   8.956  10.964  1.00  0.00     0.200 A 
ATOM     72  F   UNL     1      16.262   9.328   8.749  1.00  0.00    -0.200 F 
ATOM     73  F   UNL     1      17.515  10.188  11.014  1.00  0.00    -0.200 F 
ENDBRANCH  40  63
ENDBRANCH  14  15
ENDBRANCH   7   9
ENDBRANCH   4   5
ENDBRANCH   3   4
ENDBRANCH   2   3
ENDBRANCH   1   2
BRANCH   1  74
ATOM     74  C   UNL     1       5.748  -6.275   5.084  1.00  0.00     0.021 C 
BRANCH  74  75
ATOM     75  C   UNL     1       6.135  -6.360   3.614  1.00  0.00     0.116 C 
BRANCH  75  76
ATOM     76  N   UNL     1       5.578  -7.472   2.877  1.00  0.00    -0.351 N 
ATOM     77  C   UNL     1       5.276  -7.505   1.528  1.00  0.00     0.269 C 
ATOM     78  H   UNL     1       5.394  -8.292   3.390  1.00  0.00     0.163 HD
ATOM     79  O   UNL     1       4.977  -8.567   0.989  1.00  0.00    -0.268 OA
BRANCH  77  80
ATOM     80  C   UNL     1       5.302  -6.239   0.736  1.00  0.00     0.129 A 
ATOM     81  C   UNL     1       6.511  -5.652   0.359  1.00  0.00     0.049 A 
ATOM     82  N   UNL     1       4.083  -5.700   0.485  1.00  0.00    -0.251 NA
ATOM     83  C   UNL     1       6.467  -4.400  -0.255  1.00  0.00     0.011 A 
ATOM     84  C   UNL     1       4.067  -4.531  -0.178  1.00  0.00     0.113 A 
ATOM     85  C   UNL     1       5.213  -3.851  -0.551  1.00  0.00     0.035 A 
BRANCH  83  86
ATOM     86  S   UNL     1       7.866  -3.377  -0.711  1.00  0.00    -0.126 SA
BRANCH  86  87
ATOM     87  C   UNL     1       9.310  -3.980   0.240  1.00  0.00     0.081 C 
BRANCH  87  88
ATOM     88  C   UNL     1       9.460  -3.576   1.708  1.00  0.00     0.027 C 
ATOM     89  C   UNL     1       9.316  -2.121   2.105  1.00  0.00     0.035 C 
ATOM     90  C   UNL     1       8.463  -4.216   2.636  1.00  0.00     0.164 C 
ATOM     91  C   UNL     1       9.040  -2.206   3.604  1.00  0.00     0.160 C 
ATOM     92  O   UNL     1       8.583  -3.537   3.886  1.00  0.00    -0.381 OA
ENDBRANCH  87  88
ENDBRANCH  86  87
ENDBRANCH  83  86
ENDBRANCH  77  80
ENDBRANCH  75  76
ENDBRANCH  74  75
ENDBRANCH   1  74
TORSDOF 16
