REMARK SMILES Cc1ncc(CC(=O)N2CCc3c(c(C(=O)NCCCCCCNC(=O)c4ccc(-c5c6nc(c(-c7c(F)c(F)c(F)c(F)c7F)c7ccc([nH]7)c(-c7c(F)c(F)c(F)c(F)c7F)c7nc(c(-c8c(F)c(F)c(F)c(F)c8F)c8ccc5[nH]8)C=C7)C=C6)cc4)nn3CC3CC3)C2)c(=O)[nH]1
REMARK SMILES IDX 20 1 19 2 18 3 17 4 15 5 16 6 14 8 9 9 10 10 96 11 11 12
REMARK SMILES IDX 13 13 12 14 91 15 90 16 7 17 8 18 6 19 5 20 1 21 2 22 3 23
REMARK SMILES IDX 99 24 4 25 97 26 98 28 92 29 93 30 94 31 95 32 21 33 22 34
REMARK SMILES IDX 23 35 24 36 25 37 26 39 27 40 28 41 89 42 29 43 88 44 30 45
REMARK SMILES IDX 31 46 32 47 82 48 33 49 87 50 81 51 83 52 34 53 86 54 80 55
REMARK SMILES IDX 79 56 35 58 67 59 47 60 66 61 48 62 51 63 65 64 84 65 49 66
REMARK SMILES IDX 50 67 64 69 85 70 52 71 36 72 37 73 45 74 38 75 39 76 43 77
REMARK SMILES IDX 46 78 40 79 41 80 44 81 42 82 68 83 69 84 77 85 70 86 71 87
REMARK SMILES IDX 75 88 78 89 72 90 73 91 76 92 74 93 53 94 54 95 62 96 55 97
REMARK SMILES IDX 56 98 60 99 63 100 57 101 58 102 61 103 59 104
REMARK H PARENT 17 7 99 27 24 38 83 57 51 68
REMARK Flexibility Score: inf
ROOT
ATOM      1  C   UNL     1       2.648   7.713   9.900  1.00  0.00     0.002 C 
ENDROOT
BRANCH   1   2
ATOM      2  C   UNL     1       1.606   6.898   9.131  1.00  0.00     0.021 C 
BRANCH   2   3
ATOM      3  C   UNL     1       1.723   6.961   7.609  1.00  0.00     0.116 C 
BRANCH   3   4
ATOM      4  N   UNL     1       2.879   6.236   7.107  1.00  0.00    -0.351 N 
ATOM      5  C   UNL     1       2.995   5.264   6.132  1.00  0.00     0.272 C 
ATOM      6  O   UNL     1       4.126   4.825   5.913  1.00  0.00    -0.267 OA
ATOM      7  H   UNL     1       3.730   6.481   7.538  1.00  0.00     0.163 HD
BRANCH   5   8
ATOM      8  C   UNL     1       1.821   4.740   5.405  1.00  0.00     0.155 A 
ATOM      9  N   UNL     1       2.337   2.013   2.811  1.00  0.00    -0.338 N 
ATOM     10  C   UNL     1       1.057   1.350   3.117  1.00  0.00     0.126 C 
ATOM     11  C   UNL     1       2.914   2.793   3.933  1.00  0.00     0.159 C 
ATOM     12  C   UNL     1      -0.067   2.382   3.314  1.00  0.00     0.078 C 
ATOM     13  C   UNL     1       1.807   3.648   4.487  1.00  0.00     0.026 A 
ATOM     14  C   UNL     1       0.469   3.451   4.191  1.00  0.00     0.046 A 
ATOM     15  N   UNL     1      -0.224   4.421   4.835  1.00  0.00    -0.268 N 
ATOM     16  N   UNL     1       0.578   5.250   5.521  1.00  0.00    -0.167 NA
BRANCH   9  17
ATOM     17  C   UNL     1       3.033   1.972   1.616  1.00  0.00     0.227 C 
ATOM     18  O   UNL     1       4.258   2.141   1.604  1.00  0.00    -0.275 OA
BRANCH  17  19
ATOM     19  C   UNL     1       2.285   2.015   0.267  1.00  0.00     0.143 C 
BRANCH  19  20
ATOM     20  C   UNL     1       1.079   1.172   0.042  1.00  0.00     0.045 A 
ATOM     21  C   UNL     1      -2.347  -1.299  -0.112  1.00  0.00     0.087 C 
ATOM     22  C   UNL     1      -1.157  -0.386  -0.124  1.00  0.00     0.105 A 
ATOM     23  N   UNL     1      -1.305   0.897  -0.176  1.00  0.00    -0.243 NA
ATOM     24  N   UNL     1       0.061  -0.999  -0.052  1.00  0.00    -0.311 N 
ATOM     25  C   UNL     1      -0.164   1.651  -0.118  1.00  0.00     0.123 A 
ATOM     26  C   UNL     1       1.232  -0.298   0.009  1.00  0.00     0.254 A 
ATOM     27  H   UNL     1       0.097  -1.983  -0.044  1.00  0.00     0.171 HD
ATOM     28  O   UNL     1       2.321  -0.848   0.076  1.00  0.00    -0.269 OA
ENDBRANCH  19  20
ENDBRANCH  17  19
ENDBRANCH   9  17
BRANCH  15  29
ATOM     29  C   UNL     1      -1.661   4.658   4.828  1.00  0.00     0.148 C 
BRANCH  29  30
ATOM     30  C   UNL     1      -2.395   4.169   6.050  1.00  0.00     0.011 C 
ATOM     31  C   UNL     1      -1.733   3.638   7.305  1.00  0.00     0.006 C 
ATOM     32  C   UNL     1      -2.363   5.000   7.313  1.00  0.00     0.006 C 
ENDBRANCH  29  30
ENDBRANCH  15  29
ENDBRANCH   5   8
ENDBRANCH   3   4
ENDBRANCH   2   3
ENDBRANCH   1   2
BRANCH   1  33
ATOM     33  C   UNL     1       2.745   9.204   9.540  1.00  0.00     0.002 C 
BRANCH  33  34
ATOM     34  C   UNL     1       1.438  10.010   9.552  1.00  0.00     0.021 C 
BRANCH  34  35
ATOM     35  C   UNL     1       0.758  10.091  10.910  1.00  0.00     0.116 C 
BRANCH  35  36
ATOM     36  N   UNL     1       1.526  10.861  11.888  1.00  0.00    -0.352 N 
ATOM     37  C   UNL     1       1.225  11.099  13.215  1.00  0.00     0.251 C 
ATOM     38  H   UNL     1       2.363  11.260  11.559  1.00  0.00     0.163 HD
ATOM     39  O   UNL     1       1.726  12.037  13.820  1.00  0.00    -0.269 OA
BRANCH  37  40
ATOM     40  C   UNL     1       0.279  10.200  13.899  1.00  0.00     0.039 A 
ATOM     41  C   UNL     1      -0.682  10.694  14.786  1.00  0.00     0.014 A 
ATOM     42  C   UNL     1       0.354   8.839  13.617  1.00  0.00     0.014 A 
ATOM     43  C   UNL     1      -1.621   9.814  15.318  1.00  0.00     0.010 A 
ATOM     44  C   UNL     1      -0.661   8.007  14.012  1.00  0.00     0.010 A 
ATOM     45  C   UNL     1      -1.619   8.472  14.908  1.00  0.00    -0.014 A 
BRANCH  45  46
ATOM     46  C   UNL     1      -2.680   7.561  15.322  1.00  0.00     0.031 A 
ATOM     47  C   UNL     1      -4.063   8.015  15.003  1.00  0.00     0.074 A 
ATOM     48  C   UNL     1      -2.432   6.298  15.736  1.00  0.00     0.049 A 
ATOM     49  N   UNL     1      -5.032   8.241  15.827  1.00  0.00    -0.248 NA
ATOM     50  C   UNL     1      -4.381   8.359  13.606  1.00  0.00     0.031 C 
ATOM     51  C   UNL     1      -1.143   5.598  15.794  1.00  0.00     0.029 A 
ATOM     52  N   UNL     1      -3.313   5.320  16.078  1.00  0.00    -0.354 N 
ATOM     53  C   UNL     1      -6.136   8.580  15.047  1.00  0.00     0.074 A 
ATOM     54  C   UNL     1      -5.638   8.795  13.714  1.00  0.00     0.031 C 
ATOM     55  C   UNL     1      -1.356   4.268  15.896  1.00  0.00     0.029 A 
ATOM     56  C   UNL     1      -2.776   4.038  16.079  1.00  0.00     0.049 A 
ATOM     57  H   UNL     1      -4.253   5.504  16.305  1.00  0.00     0.167 HD
ATOM     58  C   UNL     1      -7.404   8.420  15.521  1.00  0.00     0.037 A 
ATOM     59  C   UNL     1      -3.458   2.871  16.181  1.00  0.00     0.037 A 
ATOM     60  C   UNL     1      -7.410   8.306  16.959  1.00  0.00     0.049 A 
ATOM     61  C   UNL     1      -4.793   3.190  16.750  1.00  0.00     0.074 A 
ATOM     62  C   UNL     1      -6.952   9.104  17.992  1.00  0.00     0.029 A 
ATOM     63  N   UNL     1      -7.595   7.063  17.516  1.00  0.00    -0.354 N 
ATOM     64  N   UNL     1      -4.978   3.601  17.974  1.00  0.00    -0.248 NA
ATOM     65  C   UNL     1      -5.864   3.504  15.816  1.00  0.00     0.031 C 
ATOM     66  C   UNL     1      -6.391   8.193  18.935  1.00  0.00     0.029 A 
ATOM     67  C   UNL     1      -6.615   6.901  18.461  1.00  0.00     0.049 A 
ATOM     68  H   UNL     1      -8.297   6.414  17.282  1.00  0.00     0.167 HD
ATOM     69  C   UNL     1      -5.944   4.589  17.867  1.00  0.00     0.074 A 
ATOM     70  C   UNL     1      -6.514   4.425  16.532  1.00  0.00     0.031 C 
ATOM     71  C   UNL     1      -5.989   5.633  18.747  1.00  0.00     0.037 A 
BRANCH  58  72
ATOM     72  C   UNL     1      -8.583   7.984  14.679  1.00  0.00     0.064 A 
ATOM     73  C   UNL     1      -9.863   7.935  15.271  1.00  0.00     0.173 A 
ATOM     74  C   UNL     1      -8.464   7.319  13.440  1.00  0.00     0.173 A 
ATOM     75  F   UNL     1     -10.093   8.525  16.454  1.00  0.00    -0.203 F 
ATOM     76  C   UNL     1     -10.906   7.189  14.716  1.00  0.00     0.198 A 
ATOM     77  C   UNL     1      -9.524   6.622  12.862  1.00  0.00     0.198 A 
ATOM     78  F   UNL     1      -7.299   7.212  12.792  1.00  0.00    -0.203 F 
ATOM     79  F   UNL     1     -12.057   7.054  15.388  1.00  0.00    -0.200 F 
ATOM     80  C   UNL     1     -10.733   6.525  13.516  1.00  0.00     0.200 A 
ATOM     81  F   UNL     1      -9.330   5.972  11.705  1.00  0.00    -0.200 F 
ATOM     82  F   UNL     1     -11.705   5.752  13.018  1.00  0.00    -0.200 F 
ENDBRANCH  58  72
BRANCH  59  83
ATOM     83  C   UNL     1      -3.139   1.559  15.567  1.00  0.00     0.064 A 
ATOM     84  C   UNL     1      -3.778   0.383  15.996  1.00  0.00     0.173 A 
ATOM     85  C   UNL     1      -2.401   1.464  14.370  1.00  0.00     0.173 A 
ATOM     86  F   UNL     1      -4.540   0.394  17.099  1.00  0.00    -0.203 F 
ATOM     87  C   UNL     1      -3.704  -0.804  15.259  1.00  0.00     0.198 A 
ATOM     88  C   UNL     1      -2.319   0.277  13.642  1.00  0.00     0.198 A 
ATOM     89  F   UNL     1      -1.822   2.546  13.830  1.00  0.00    -0.203 F 
ATOM     90  F   UNL     1      -4.382  -1.887  15.666  1.00  0.00    -0.200 F 
ATOM     91  C   UNL     1      -2.982  -0.854  14.078  1.00  0.00     0.200 A 
ATOM     92  F   UNL     1      -1.647   0.254  12.482  1.00  0.00    -0.200 F 
ATOM     93  F   UNL     1      -2.962  -1.973  13.340  1.00  0.00    -0.200 F 
ENDBRANCH  59  83
BRANCH  71  94
ATOM     94  C   UNL     1      -5.134   5.565  19.982  1.00  0.00     0.064 A 
ATOM     95  C   UNL     1      -3.730   5.488  19.968  1.00  0.00     0.173 A 
ATOM     96  C   UNL     1      -5.754   5.747  21.225  1.00  0.00     0.173 A 
ATOM     97  F   UNL     1      -3.052   5.420  18.817  1.00  0.00    -0.203 F 
ATOM     98  C   UNL     1      -2.990   5.545  21.148  1.00  0.00     0.198 A 
ATOM     99  C   UNL     1      -5.011   5.843  22.398  1.00  0.00     0.198 A 
ATOM    100  F   UNL     1      -7.088   5.884  21.297  1.00  0.00    -0.203 F 
ATOM    101  F   UNL     1      -1.652   5.458  21.107  1.00  0.00    -0.200 F 
ATOM    102  C   UNL     1      -3.631   5.731  22.361  1.00  0.00     0.200 A 
ATOM    103  F   UNL     1      -5.632   6.074  23.563  1.00  0.00    -0.200 F 
ATOM    104  F   UNL     1      -2.917   5.831  23.491  1.00  0.00    -0.200 F 
ENDBRANCH  71  94
ENDBRANCH  45  46
ENDBRANCH  37  40
ENDBRANCH  35  36
ENDBRANCH  34  35
ENDBRANCH  33  34
ENDBRANCH   1  33
TORSDOF 18
