REMARK SMILES CCc1sc(NC(=O)[C@H]2CC(C)=C(C)C[C@H]2C(=O)NCCCCCCNC(=O)c2ccc(-c3c4nc(c(-c5c(F)c(F)c(F)c(F)c5F)c5ccc([nH]5)c(-c5c(F)c(F)c(F)c(F)c5F)c5nc(c(-c6c(F)c(F)c(F)c(F)c6F)c6ccc3[nH]6)C=C5)C=C4)cc2)nc1-c1ccccc1
REMARK SMILES IDX 22 1 21 2 20 3 19 4 17 5 18 6 16 8 9 9 10 10 11 11 15 12
REMARK SMILES IDX 12 13 13 14 14 15 7 16 6 17 8 19 5 20 3 21 4 22 93 23 92 24
REMARK SMILES IDX 2 25 1 26 94 27 95 28 99 29 96 30 98 31 97 32 23 33 24 34
REMARK SMILES IDX 25 35 26 36 27 37 28 39 29 40 30 41 91 42 31 43 90 44 32 45
REMARK SMILES IDX 33 46 34 47 84 48 35 49 89 50 83 51 85 52 36 53 88 54 82 55
REMARK SMILES IDX 81 56 37 58 69 59 49 60 68 61 50 62 53 63 67 64 86 65 51 66
REMARK SMILES IDX 52 67 66 69 87 70 54 71 38 72 39 73 47 74 40 75 41 76 45 77
REMARK SMILES IDX 48 78 42 79 43 80 46 81 44 82 70 83 71 84 79 85 72 86 73 87
REMARK SMILES IDX 77 88 80 89 74 90 75 91 78 92 76 93 55 94 56 95 64 96 57 97
REMARK SMILES IDX 58 98 62 99 65 100 59 101 60 102 63 103 61 104
REMARK H PARENT 19 7 6 18 26 38 85 57 53 68
REMARK Flexibility Score: inf
ROOT
ATOM      1  C   UNL     1       0.481  -5.407  -6.099  1.00  0.00     0.002 C 
ENDROOT
BRANCH   1   2
ATOM      2  C   UNL     1       0.302  -4.880  -4.674  1.00  0.00     0.021 C 
BRANCH   2   3
ATOM      3  C   UNL     1      -1.073  -5.162  -4.082  1.00  0.00     0.116 C 
BRANCH   3   4
ATOM      4  N   UNL     1      -1.197  -6.538  -3.665  1.00  0.00    -0.356 N 
ATOM      5  C   UNL     1      -1.454  -7.087  -2.453  1.00  0.00     0.224 C 
ATOM      6  O   UNL     1      -1.619  -8.312  -2.428  1.00  0.00    -0.275 OA
ATOM      7  H   UNL     1      -1.073  -7.193  -4.389  1.00  0.00     0.163 HD
BRANCH   5   8
ATOM      8  C   UNL     1      -1.665  -6.257  -1.181  1.00  0.00     0.095 C 
ATOM      9  C   UNL     1      -0.509  -5.349  -0.663  1.00  0.00     0.095 C 
ATOM     10  C   UNL     1      -0.791  -3.858  -0.840  1.00  0.00     0.045 C 
ATOM     11  C   UNL     1      -2.160  -3.338  -1.148  1.00  0.00    -0.074 C 
ATOM     12  C   UNL     1      -3.083  -5.648  -1.211  1.00  0.00     0.045 C 
ATOM     13  C   UNL     1      -2.201  -1.832  -1.248  1.00  0.00     0.039 C 
ATOM     14  C   UNL     1      -3.206  -4.154  -1.350  1.00  0.00    -0.074 C 
ATOM     15  C   UNL     1      -4.560  -3.634  -1.750  1.00  0.00     0.039 C 
BRANCH   9  16
ATOM     16  C   UNL     1       0.886  -5.886  -1.100  1.00  0.00     0.230 C 
ATOM     17  N   UNL     1       1.974  -5.169  -1.492  1.00  0.00    -0.302 N 
ATOM     18  H   UNL     1       2.672  -5.723  -1.909  1.00  0.00     0.172 HD
ATOM     19  O   UNL     1       1.051  -7.115  -1.133  1.00  0.00    -0.274 OA
BRANCH  17  20
ATOM     20  C   UNL     1       2.304  -3.848  -1.430  1.00  0.00     0.190 A 
ATOM     21  C   UNL     1       2.163  -1.506  -1.009  1.00  0.00     0.034 A 
ATOM     22  S   UNL     1       2.015  -2.914  -0.031  1.00  0.00    -0.101 S 
ATOM     23  C   UNL     1       2.909  -1.863  -2.124  1.00  0.00     0.087 A 
ATOM     24  N   UNL     1       2.982  -3.226  -2.367  1.00  0.00    -0.220 NA
BRANCH  21  25
ATOM     25  C   UNL     1       1.484  -0.202  -0.702  1.00  0.00     0.046 C 
ATOM     26  C   UNL     1       1.475   0.212   0.753  1.00  0.00     0.010 C 
ENDBRANCH  21  25
BRANCH  23  27
ATOM     27  C   UNL     1       3.385  -0.868  -3.065  1.00  0.00     0.001 A 
ATOM     28  C   UNL     1       4.346   0.071  -2.661  1.00  0.00     0.010 A 
ATOM     29  C   UNL     1       2.769  -0.739  -4.308  1.00  0.00     0.010 A 
ATOM     30  C   UNL     1       4.659   1.155  -3.481  1.00  0.00     0.001 A 
ATOM     31  C   UNL     1       3.066   0.362  -5.109  1.00  0.00     0.001 A 
ATOM     32  C   UNL     1       4.010   1.307  -4.703  1.00  0.00     0.000 A 
ENDBRANCH  23  27
ENDBRANCH  17  20
ENDBRANCH   9  16
ENDBRANCH   5   8
ENDBRANCH   3   4
ENDBRANCH   2   3
ENDBRANCH   1   2
BRANCH   1  33
ATOM     33  C   UNL     1      -0.438  -4.765  -7.143  1.00  0.00     0.002 C 
BRANCH  33  34
ATOM     34  C   UNL     1      -0.358  -3.238  -7.233  1.00  0.00     0.021 C 
BRANCH  34  35
ATOM     35  C   UNL     1       1.036  -2.687  -7.532  1.00  0.00     0.116 C 
BRANCH  35  36
ATOM     36  N   UNL     1       1.531  -3.140  -8.822  1.00  0.00    -0.352 N 
ATOM     37  C   UNL     1       1.871  -2.414  -9.937  1.00  0.00     0.251 C 
ATOM     38  H   UNL     1       1.638  -4.115  -8.910  1.00  0.00     0.163 HD
ATOM     39  O   UNL     1       2.049  -2.973 -11.013  1.00  0.00    -0.269 OA
BRANCH  37  40
ATOM     40  C   UNL     1       2.021  -0.947  -9.841  1.00  0.00     0.039 A 
ATOM     41  C   UNL     1       1.421  -0.127 -10.799  1.00  0.00     0.014 A 
ATOM     42  C   UNL     1       2.784  -0.382  -8.821  1.00  0.00     0.014 A 
ATOM     43  C   UNL     1       1.520   1.265 -10.686  1.00  0.00     0.010 A 
ATOM     44  C   UNL     1       2.828   1.004  -8.681  1.00  0.00     0.010 A 
ATOM     45  C   UNL     1       2.183   1.850  -9.594  1.00  0.00    -0.014 A 
BRANCH  45  46
ATOM     46  C   UNL     1       2.184   3.325  -9.361  1.00  0.00     0.031 A 
ATOM     47  C   UNL     1       3.477   4.087  -9.193  1.00  0.00     0.074 A 
ATOM     48  C   UNL     1       1.015   3.974  -9.178  1.00  0.00     0.049 A 
ATOM     49  N   UNL     1       3.663   5.348  -8.886  1.00  0.00    -0.248 NA
ATOM     50  C   UNL     1       4.725   3.321  -9.330  1.00  0.00     0.031 C 
ATOM     51  C   UNL     1      -0.311   3.353  -9.190  1.00  0.00     0.029 A 
ATOM     52  N   UNL     1       0.753   5.301  -8.930  1.00  0.00    -0.354 N 
ATOM     53  C   UNL     1       5.037   5.512  -8.759  1.00  0.00     0.074 A 
ATOM     54  C   UNL     1       5.633   4.208  -8.950  1.00  0.00     0.031 C 
ATOM     55  C   UNL     1      -1.245   4.300  -9.007  1.00  0.00     0.029 A 
ATOM     56  C   UNL     1      -0.587   5.591  -8.829  1.00  0.00     0.049 A 
ATOM     57  H   UNL     1       1.459   5.980  -8.834  1.00  0.00     0.167 HD
ATOM     58  C   UNL     1       5.744   6.648  -8.542  1.00  0.00     0.037 A 
ATOM     59  C   UNL     1      -1.220   6.762  -8.624  1.00  0.00     0.037 A 
ATOM     60  C   UNL     1       5.161   7.960  -8.428  1.00  0.00     0.049 A 
ATOM     61  C   UNL     1      -0.414   8.024  -8.473  1.00  0.00     0.074 A 
ATOM     62  C   UNL     1       5.802   9.183  -8.327  1.00  0.00     0.029 A 
ATOM     63  N   UNL     1       3.800   8.221  -8.412  1.00  0.00    -0.354 N 
ATOM     64  N   UNL     1       0.886   8.178  -8.461  1.00  0.00    -0.248 NA
ATOM     65  C   UNL     1      -1.168   9.277  -8.320  1.00  0.00     0.031 C 
ATOM     66  C   UNL     1       4.829  10.181  -8.214  1.00  0.00     0.029 A 
ATOM     67  C   UNL     1       3.582   9.585  -8.291  1.00  0.00     0.049 A 
ATOM     68  H   UNL     1       3.093   7.539  -8.477  1.00  0.00     0.167 HD
ATOM     69  C   UNL     1       1.107   9.543  -8.332  1.00  0.00     0.074 A 
ATOM     70  C   UNL     1      -0.194  10.175  -8.282  1.00  0.00     0.031 C 
ATOM     71  C   UNL     1       2.285  10.209  -8.259  1.00  0.00     0.037 A 
BRANCH  58  72
ATOM     72  C   UNL     1       7.241   6.534  -8.449  1.00  0.00     0.064 A 
ATOM     73  C   UNL     1       8.024   6.196  -9.563  1.00  0.00     0.173 A 
ATOM     74  C   UNL     1       7.905   6.814  -7.245  1.00  0.00     0.173 A 
ATOM     75  F   UNL     1       7.440   5.914 -10.738  1.00  0.00    -0.203 F 
ATOM     76  C   UNL     1       9.410   6.104  -9.467  1.00  0.00     0.198 A 
ATOM     77  C   UNL     1       9.294   6.757  -7.161  1.00  0.00     0.198 A 
ATOM     78  F   UNL     1       7.208   7.155  -6.150  1.00  0.00    -0.203 F 
ATOM     79  F   UNL     1      10.129   5.723 -10.531  1.00  0.00    -0.200 F 
ATOM     80  C   UNL     1      10.045   6.393  -8.269  1.00  0.00     0.200 A 
ATOM     81  F   UNL     1       9.908   7.054  -6.007  1.00  0.00    -0.200 F 
ATOM     82  F   UNL     1      11.379   6.314  -8.180  1.00  0.00    -0.200 F 
ENDBRANCH  58  72
BRANCH  59  83
ATOM     83  C   UNL     1      -2.705   6.810  -8.614  1.00  0.00     0.064 A 
ATOM     84  C   UNL     1      -3.408   7.397  -9.676  1.00  0.00     0.173 A 
ATOM     85  C   UNL     1      -3.451   6.279  -7.552  1.00  0.00     0.173 A 
ATOM     86  F   UNL     1      -2.736   7.935 -10.705  1.00  0.00    -0.203 F 
ATOM     87  C   UNL     1      -4.798   7.472  -9.666  1.00  0.00     0.198 A 
ATOM     88  C   UNL     1      -4.843   6.331  -7.556  1.00  0.00     0.198 A 
ATOM     89  F   UNL     1      -2.826   5.700  -6.516  1.00  0.00    -0.203 F 
ATOM     90  F   UNL     1      -5.441   8.080 -10.672  1.00  0.00    -0.200 F 
ATOM     91  C   UNL     1      -5.516   6.934  -8.609  1.00  0.00     0.200 A 
ATOM     92  F   UNL     1      -5.534   5.797  -6.540  1.00  0.00    -0.200 F 
ATOM     93  F   UNL     1      -6.854   7.004  -8.600  1.00  0.00    -0.200 F 
ENDBRANCH  59  83
BRANCH  71  94
ATOM     94  C   UNL     1       2.229  11.706  -8.163  1.00  0.00     0.064 A 
ATOM     95  C   UNL     1       1.812  12.354  -6.991  1.00  0.00     0.173 A 
ATOM     96  C   UNL     1       2.639  12.502  -9.244  1.00  0.00     0.173 A 
ATOM     97  F   UNL     1       1.396  11.639  -5.936  1.00  0.00    -0.203 F 
ATOM     98  C   UNL     1       1.786  13.745  -6.914  1.00  0.00     0.198 A 
ATOM     99  C   UNL     1       2.639  13.891  -9.153  1.00  0.00     0.198 A 
ATOM    100  F   UNL     1       3.053  11.931 -10.385  1.00  0.00    -0.203 F 
ATOM    101  F   UNL     1       1.341  14.343  -5.800  1.00  0.00    -0.200 F 
ATOM    102  C   UNL     1       2.206  14.511  -7.991  1.00  0.00     0.200 A 
ATOM    103  F   UNL     1       3.058  14.629 -10.190  1.00  0.00    -0.200 F 
ATOM    104  F   UNL     1       2.188  15.849  -7.911  1.00  0.00    -0.200 F 
ENDBRANCH  71  94
ENDBRANCH  45  46
ENDBRANCH  37  40
ENDBRANCH  35  36
ENDBRANCH  34  35
ENDBRANCH  33  34
ENDBRANCH   1  33
TORSDOF 17
