REMARK SMILES O=C(NCCCCCCNC(=O)c1ccc(-c2c3nc(c(-c4c(F)c(F)c(F)c(F)c4F)c4ccc([nH]4)c(-c4c(F)c(F)c(F)c(F)c4F)c4nc(c(-c5c(F)c(F)c(F)c(F)c5F)c5ccc2[nH]5)C=C4)C=C3)cc1)C1=Cc2cc(OC(F)(F)F)ccc2O[C@@H]1C(F)(F)F
REMARK SMILES IDX 6 1 5 2 4 3 3 4 1 5 2 6 76 8 77 9 90 10 78 11 89 12 79 13
REMARK SMILES IDX 88 14 80 15 87 16 86 17 91 18 92 19 93 20 94 21 81 22 82 23
REMARK SMILES IDX 83 24 84 25 85 26 7 27 8 28 9 29 10 30 11 31 12 33 13 34
REMARK SMILES IDX 14 35 75 36 15 37 74 38 16 39 17 40 18 41 68 42 19 43 73 44
REMARK SMILES IDX 67 45 69 46 20 47 72 48 66 49 65 50 21 52 53 53 33 54 52 55
REMARK SMILES IDX 34 56 37 57 51 58 70 59 35 60 36 61 50 63 71 64 38 65 22 66
REMARK SMILES IDX 23 67 31 68 24 69 25 70 29 71 32 72 26 73 27 74 30 75 28 76
REMARK SMILES IDX 54 77 55 78 63 79 56 80 57 81 61 82 64 83 58 84 59 85 62 86
REMARK SMILES IDX 60 87 39 88 40 89 48 90 41 91 42 92 46 93 49 94 43 95 44 96
REMARK SMILES IDX 47 97 45 98
REMARK H PARENT 3 7 10 32 69 51 37 62
REMARK Flexibility Score: inf
ROOT
ATOM      1  C   UNL     1       3.795  -4.498   0.337  1.00  0.00     0.002 C 
ENDROOT
BRANCH   1   2
ATOM      2  C   UNL     1       4.168  -3.243   1.123  1.00  0.00     0.021 C 
BRANCH   2   3
ATOM      3  C   UNL     1       3.856  -1.914   0.446  1.00  0.00     0.116 C 
BRANCH   3   4
ATOM      4  N   UNL     1       2.583  -1.315   0.803  1.00  0.00    -0.352 N 
ATOM      5  O   UNL     1       1.029   0.299   0.974  1.00  0.00    -0.270 OA
ATOM      6  C   UNL     1       2.213   0.003   0.820  1.00  0.00     0.251 C 
ATOM      7  H   UNL     1       1.882  -1.951   1.074  1.00  0.00     0.163 HD
BRANCH   6   8
ATOM      8  C   UNL     1       3.185   1.105   0.555  1.00  0.00     0.067 C 
ATOM      9  C   UNL     1       4.364   1.177   1.200  1.00  0.00     0.025 C 
ATOM     10  C   UNL     1       3.071   1.663  -0.844  1.00  0.00     0.314 C 
ATOM     11  C   UNL     1       5.502   0.885   0.291  1.00  0.00     0.021 A 
ATOM     12  O   UNL     1       4.116   1.138  -1.708  1.00  0.00    -0.475 OA
ATOM     13  C   UNL     1       6.704   0.430   0.850  1.00  0.00     0.058 A 
ATOM     14  C   UNL     1       5.280   0.757  -1.088  1.00  0.00     0.128 A 
ATOM     15  C   UNL     1       7.629  -0.263   0.062  1.00  0.00     0.130 A 
ATOM     16  C   UNL     1       6.215   0.094  -1.878  1.00  0.00     0.051 A 
ATOM     17  C   UNL     1       7.375  -0.439  -1.300  1.00  0.00     0.050 A 
BRANCH  10  18
ATOM     18  C   UNL     1       3.039   3.200  -0.855  1.00  0.00     0.429 C 
ATOM     19  F   UNL     1       2.753   3.678  -2.089  1.00  0.00    -0.167 F 
ATOM     20  F   UNL     1       2.092   3.687  -0.016  1.00  0.00    -0.167 F 
ATOM     21  F   UNL     1       4.220   3.745  -0.477  1.00  0.00    -0.167 F 
ENDBRANCH  10  18
BRANCH  15  22
ATOM     22  O   UNL     1       8.752  -0.686   0.715  1.00  0.00    -0.406 OA
BRANCH  22  23
ATOM     23  C   UNL     1       9.245  -1.972   0.370  1.00  0.00     0.573 C 
ATOM     24  F   UNL     1       8.297  -2.916   0.564  1.00  0.00    -0.132 F 
ATOM     25  F   UNL     1       9.675  -2.026  -0.907  1.00  0.00    -0.132 F 
ATOM     26  F   UNL     1      10.291  -2.267   1.175  1.00  0.00    -0.132 F 
ENDBRANCH  22  23
ENDBRANCH  15  22
ENDBRANCH   6   8
ENDBRANCH   3   4
ENDBRANCH   2   3
ENDBRANCH   1   2
BRANCH   1  27
ATOM     27  C   UNL     1       4.395  -4.632  -1.069  1.00  0.00     0.002 C 
BRANCH  27  28
ATOM     28  C   UNL     1       5.908  -4.436  -1.200  1.00  0.00     0.021 C 
BRANCH  28  29
ATOM     29  C   UNL     1       6.785  -5.324  -0.322  1.00  0.00     0.116 C 
BRANCH  29  30
ATOM     30  N   UNL     1       6.583  -6.742  -0.550  1.00  0.00    -0.352 N 
ATOM     31  C   UNL     1       7.505  -7.743  -0.740  1.00  0.00     0.251 C 
ATOM     32  H   UNL     1       5.642  -7.031  -0.573  1.00  0.00     0.163 HD
ATOM     33  O   UNL     1       7.125  -8.870  -1.036  1.00  0.00    -0.269 OA
BRANCH  31  34
ATOM     34  C   UNL     1       8.957  -7.471  -0.619  1.00  0.00     0.039 A 
ATOM     35  C   UNL     1       9.819  -8.042  -1.561  1.00  0.00     0.014 A 
ATOM     36  C   UNL     1       9.482  -6.700   0.422  1.00  0.00     0.014 A 
ATOM     37  C   UNL     1      11.194  -7.801  -1.489  1.00  0.00     0.010 A 
ATOM     38  C   UNL     1      10.846  -6.403   0.453  1.00  0.00     0.010 A 
ATOM     39  C   UNL     1      11.718  -6.957  -0.498  1.00  0.00    -0.014 A 
BRANCH  39  40
ATOM     40  C   UNL     1      13.174  -6.655  -0.446  1.00  0.00     0.031 A 
ATOM     41  C   UNL     1      14.006  -7.108   0.722  1.00  0.00     0.074 A 
ATOM     42  C   UNL     1      13.743  -5.941  -1.437  1.00  0.00     0.049 A 
ATOM     43  N   UNL     1      15.283  -6.925   0.951  1.00  0.00    -0.248 NA
ATOM     44  C   UNL     1      13.309  -7.848   1.784  1.00  0.00     0.031 C 
ATOM     45  C   UNL     1      13.041  -5.415  -2.607  1.00  0.00     0.029 A 
ATOM     46  N   UNL     1      15.042  -5.534  -1.617  1.00  0.00    -0.354 N 
ATOM     47  C   UNL     1      15.536  -7.511   2.185  1.00  0.00     0.074 A 
ATOM     48  C   UNL     1      14.271  -8.011   2.679  1.00  0.00     0.031 C 
ATOM     49  C   UNL     1      13.921  -4.782  -3.400  1.00  0.00     0.029 A 
ATOM     50  C   UNL     1      15.240  -4.821  -2.775  1.00  0.00     0.049 A 
ATOM     51  H   UNL     1      15.763  -5.733  -0.977  1.00  0.00     0.167 HD
ATOM     52  C   UNL     1      16.717  -7.638   2.837  1.00  0.00     0.037 A 
ATOM     53  C   UNL     1      16.358  -4.259  -3.275  1.00  0.00     0.037 A 
ATOM     54  C   UNL     1      17.978  -7.155   2.333  1.00  0.00     0.049 A 
ATOM     55  C   UNL     1      17.652  -4.392  -2.517  1.00  0.00     0.074 A 
ATOM     56  C   UNL     1      19.239  -7.297   2.886  1.00  0.00     0.029 A 
ATOM     57  N   UNL     1      18.136  -6.427   1.163  1.00  0.00    -0.354 N 
ATOM     58  N   UNL     1      17.893  -5.017  -1.391  1.00  0.00    -0.248 NA
ATOM     59  C   UNL     1      18.831  -3.741  -3.106  1.00  0.00     0.031 C 
ATOM     60  C   UNL     1      20.149  -6.599   2.087  1.00  0.00     0.029 A 
ATOM     61  C   UNL     1      19.468  -6.080   0.998  1.00  0.00     0.049 A 
ATOM     62  H   UNL     1      17.410  -6.191   0.542  1.00  0.00     0.167 HD
ATOM     63  C   UNL     1      19.253  -4.865  -1.153  1.00  0.00     0.074 A 
ATOM     64  C   UNL     1      19.787  -4.100  -2.260  1.00  0.00     0.031 C 
ATOM     65  C   UNL     1      19.992  -5.322  -0.111  1.00  0.00     0.037 A 
BRANCH  52  66
ATOM     66  C   UNL     1      16.703  -8.315   4.179  1.00  0.00     0.064 A 
ATOM     67  C   UNL     1      16.432  -9.685   4.316  1.00  0.00     0.173 A 
ATOM     68  C   UNL     1      16.998  -7.588   5.343  1.00  0.00     0.173 A 
ATOM     69  F   UNL     1      16.137 -10.427   3.237  1.00  0.00    -0.203 F 
ATOM     70  C   UNL     1      16.420 -10.293   5.569  1.00  0.00     0.198 A 
ATOM     71  C   UNL     1      17.019  -8.207   6.591  1.00  0.00     0.198 A 
ATOM     72  F   UNL     1      17.273  -6.277   5.271  1.00  0.00    -0.203 F 
ATOM     73  F   UNL     1      16.101 -11.590   5.679  1.00  0.00    -0.200 F 
ATOM     74  C   UNL     1      16.720  -9.556   6.704  1.00  0.00     0.200 A 
ATOM     75  F   UNL     1      17.326  -7.496   7.684  1.00  0.00    -0.200 F 
ATOM     76  F   UNL     1      16.714 -10.143   7.908  1.00  0.00    -0.200 F 
ENDBRANCH  52  66
BRANCH  53  77
ATOM     77  C   UNL     1      16.310  -3.541  -4.576  1.00  0.00     0.064 A 
ATOM     78  C   UNL     1      16.960  -4.058  -5.706  1.00  0.00     0.173 A 
ATOM     79  C   UNL     1      15.622  -2.327  -4.718  1.00  0.00     0.173 A 
ATOM     80  F   UNL     1      17.650  -5.205  -5.615  1.00  0.00    -0.203 F 
ATOM     81  C   UNL     1      16.942  -3.378  -6.922  1.00  0.00     0.198 A 
ATOM     82  C   UNL     1      15.578  -1.664  -5.943  1.00  0.00     0.198 A 
ATOM     83  F   UNL     1      14.981  -1.791  -3.670  1.00  0.00    -0.203 F 
ATOM     84  F   UNL     1      17.612  -3.870  -7.972  1.00  0.00    -0.200 F 
ATOM     85  C   UNL     1      16.245  -2.185  -7.041  1.00  0.00     0.200 A 
ATOM     86  F   UNL     1      14.891  -0.519  -6.058  1.00  0.00    -0.200 F 
ATOM     87  F   UNL     1      16.223  -1.534  -8.212  1.00  0.00    -0.200 F 
ENDBRANCH  53  77
BRANCH  65  88
ATOM     88  C   UNL     1      21.468  -5.042  -0.136  1.00  0.00     0.064 A 
ATOM     89  C   UNL     1      21.980  -3.749   0.049  1.00  0.00     0.173 A 
ATOM     90  C   UNL     1      22.386  -6.091  -0.308  1.00  0.00     0.173 A 
ATOM     91  F   UNL     1      21.148  -2.708   0.204  1.00  0.00    -0.203 F 
ATOM     92  C   UNL     1      23.353  -3.513   0.033  1.00  0.00     0.198 A 
ATOM     93  C   UNL     1      23.758  -5.856  -0.289  1.00  0.00     0.198 A 
ATOM     94  F   UNL     1      21.951  -7.348  -0.482  1.00  0.00    -0.203 F 
ATOM     95  F   UNL     1      23.817  -2.261   0.157  1.00  0.00    -0.200 F 
ATOM     96  C   UNL     1      24.240  -4.567  -0.128  1.00  0.00     0.200 A 
ATOM     97  F   UNL     1      24.613  -6.879  -0.427  1.00  0.00    -0.200 F 
ATOM     98  F   UNL     1      25.561  -4.338  -0.134  1.00  0.00    -0.200 F 
ENDBRANCH  65  88
ENDBRANCH  39  40
ENDBRANCH  31  34
ENDBRANCH  29  30
ENDBRANCH  28  29
ENDBRANCH  27  28
ENDBRANCH   1  27
TORSDOF 16
