REMARK SMILES O=C(NCCCCCCNC(=O)[C@H](c1c[nH]c2ccc(Br)cc12)[N@H+]1CCC[C@H](c2nc3ccccc3s2)C1)c1ccc(-c2c3nc(c(-c4c(F)c(F)c(F)c(F)c4F)c4ccc([nH]4)c(-c4c(F)c(F)c(F)c(F)c4F)c4nc(c(-c5c(F)c(F)c(F)c(F)c5F)c5ccc2[nH]5)C=C4)C=C3)cc1
REMARK SMILES IDX 6 1 5 2 4 3 3 4 1 5 2 6 39 8 40 9 101 10 41 11 100 12 42 13
REMARK SMILES IDX 43 14 44 15 94 16 45 17 99 18 93 19 95 20 46 21 98 22 92 23
REMARK SMILES IDX 91 24 47 26 79 27 59 28 78 29 60 30 63 31 77 32 96 33 61 34
REMARK SMILES IDX 62 35 76 37 97 38 64 39 48 40 49 41 57 42 50 43 51 44 55 45
REMARK SMILES IDX 58 46 52 47 53 48 56 49 54 50 80 51 81 52 89 53 82 54 83 55
REMARK SMILES IDX 87 56 90 57 84 58 85 59 88 60 86 61 65 62 66 63 74 64 67 65
REMARK SMILES IDX 68 66 72 67 75 68 69 69 70 70 73 71 71 72 7 73 8 74 9 75
REMARK SMILES IDX 10 76 11 77 12 79 13 80 24 81 25 82 38 83 26 85 28 86 27 87
REMARK SMILES IDX 29 88 30 89 37 90 31 91 36 92 32 93 35 94 33 95 34 96 14 97
REMARK SMILES IDX 15 98 23 99 16 100 17 101 22 102 18 104 20 105 19 106 21 107
REMARK H PARENT 3 7 95 25 63 36 10 78 24 84 16 103
REMARK Flexibility Score: inf
ROOT
ATOM      1  C   UNL     1       6.870  -8.351   1.525  1.00  0.00     0.002 C 
ENDROOT
BRANCH   1   2
ATOM      2  C   UNL     1       5.904  -9.284   2.258  1.00  0.00     0.021 C 
BRANCH   2   3
ATOM      3  C   UNL     1       4.436  -9.014   1.948  1.00  0.00     0.116 C 
BRANCH   3   4
ATOM      4  N   UNL     1       4.145  -9.234   0.540  1.00  0.00    -0.352 N 
ATOM      5  O   UNL     1       3.439 -10.436  -1.237  1.00  0.00    -0.269 OA
ATOM      6  C   UNL     1       3.368 -10.203  -0.028  1.00  0.00     0.251 C 
ATOM      7  H   UNL     1       4.564  -8.600  -0.086  1.00  0.00     0.163 HD
BRANCH   6   8
ATOM      8  C   UNL     1       2.440 -10.975   0.816  1.00  0.00     0.039 A 
ATOM      9  C   UNL     1       1.614 -10.318   1.735  1.00  0.00     0.014 A 
ATOM     10  C   UNL     1       2.379 -12.361   0.669  1.00  0.00     0.014 A 
ATOM     11  C   UNL     1       0.796 -11.058   2.580  1.00  0.00     0.010 A 
ATOM     12  C   UNL     1       1.505 -13.096   1.468  1.00  0.00     0.010 A 
ATOM     13  C   UNL     1       0.719 -12.450   2.438  1.00  0.00    -0.014 A 
BRANCH  13  14
ATOM     14  C   UNL     1      -0.234 -13.232   3.260  1.00  0.00     0.031 A 
ATOM     15  C   UNL     1       0.262 -14.245   4.246  1.00  0.00     0.074 A 
ATOM     16  C   UNL     1      -1.554 -13.055   3.066  1.00  0.00     0.049 A 
ATOM     17  N   UNL     1      -0.418 -15.105   4.960  1.00  0.00    -0.248 NA
ATOM     18  C   UNL     1       1.717 -14.308   4.447  1.00  0.00     0.031 C 
ATOM     19  C   UNL     1      -2.144 -12.096   2.131  1.00  0.00     0.029 A 
ATOM     20  N   UNL     1      -2.634 -13.686   3.625  1.00  0.00    -0.354 N 
ATOM     21  C   UNL     1       0.525 -15.831   5.675  1.00  0.00     0.074 A 
ATOM     22  C   UNL     1       1.826 -15.325   5.291  1.00  0.00     0.031 C 
ATOM     23  C   UNL     1      -3.479 -12.203   2.179  1.00  0.00     0.029 A 
ATOM     24  C   UNL     1      -3.833 -13.280   3.097  1.00  0.00     0.049 A 
ATOM     25  H   UNL     1      -2.557 -14.364   4.335  1.00  0.00     0.167 HD
ATOM     26  C   UNL     1       0.316 -16.827   6.569  1.00  0.00     0.037 A 
ATOM     27  C   UNL     1      -5.078 -13.751   3.295  1.00  0.00     0.037 A 
ATOM     28  C   UNL     1      -0.988 -17.317   6.938  1.00  0.00     0.049 A 
ATOM     29  C   UNL     1      -5.284 -14.884   4.257  1.00  0.00     0.074 A 
ATOM     30  C   UNL     1      -1.314 -18.292   7.864  1.00  0.00     0.029 A 
ATOM     31  N   UNL     1      -2.184 -16.875   6.385  1.00  0.00    -0.354 N 
ATOM     32  N   UNL     1      -4.392 -15.542   4.958  1.00  0.00    -0.248 NA
ATOM     33  C   UNL     1      -6.664 -15.342   4.457  1.00  0.00     0.031 C 
ATOM     34  C   UNL     1      -2.699 -18.484   7.827  1.00  0.00     0.029 A 
ATOM     35  C   UNL     1      -3.246 -17.581   6.928  1.00  0.00     0.049 A 
ATOM     36  H   UNL     1      -2.265 -16.166   5.708  1.00  0.00     0.167 HD
ATOM     37  C   UNL     1      -5.102 -16.470   5.705  1.00  0.00     0.074 A 
ATOM     38  C   UNL     1      -6.501 -16.291   5.371  1.00  0.00     0.031 C 
ATOM     39  C   UNL     1      -4.635 -17.382   6.593  1.00  0.00     0.037 A 
BRANCH  26  40
ATOM     40  C   UNL     1       1.526 -17.479   7.175  1.00  0.00     0.064 A 
ATOM     41  C   UNL     1       2.371 -16.799   8.065  1.00  0.00     0.173 A 
ATOM     42  C   UNL     1       1.842 -18.812   6.865  1.00  0.00     0.173 A 
ATOM     43  F   UNL     1       2.122 -15.521   8.390  1.00  0.00    -0.203 F 
ATOM     44  C   UNL     1       3.508 -17.412   8.586  1.00  0.00     0.198 A 
ATOM     45  C   UNL     1       2.961 -19.433   7.415  1.00  0.00     0.198 A 
ATOM     46  F   UNL     1       1.065 -19.514   6.028  1.00  0.00    -0.203 F 
ATOM     47  F   UNL     1       4.335 -16.719   9.383  1.00  0.00    -0.200 F 
ATOM     48  C   UNL     1       3.800 -18.729   8.265  1.00  0.00     0.200 A 
ATOM     49  F   UNL     1       3.231 -20.710   7.115  1.00  0.00    -0.200 F 
ATOM     50  F   UNL     1       4.896 -19.316   8.765  1.00  0.00    -0.200 F 
ENDBRANCH  26  40
BRANCH  27  51
ATOM     51  C   UNL     1      -6.207 -13.141   2.549  1.00  0.00     0.064 A 
ATOM     52  C   UNL     1      -7.145 -12.329   3.198  1.00  0.00     0.173 A 
ATOM     53  C   UNL     1      -6.333 -13.307   1.161  1.00  0.00     0.173 A 
ATOM     54  F   UNL     1      -7.073 -12.152   4.525  1.00  0.00    -0.203 F 
ATOM     55  C   UNL     1      -8.169 -11.706   2.487  1.00  0.00     0.198 A 
ATOM     56  C   UNL     1      -7.339 -12.662   0.447  1.00  0.00     0.198 A 
ATOM     57  F   UNL     1      -5.451 -14.066   0.493  1.00  0.00    -0.203 F 
ATOM     58  F   UNL     1      -9.067 -10.951   3.134  1.00  0.00    -0.200 F 
ATOM     59  C   UNL     1      -8.258 -11.864   1.111  1.00  0.00     0.200 A 
ATOM     60  F   UNL     1      -7.408 -12.800  -0.884  1.00  0.00    -0.200 F 
ATOM     61  F   UNL     1      -9.230 -11.247   0.426  1.00  0.00    -0.200 F 
ENDBRANCH  27  51
BRANCH  39  62
ATOM     62  C   UNL     1      -5.644 -18.227   7.314  1.00  0.00     0.064 A 
ATOM     63  C   UNL     1      -6.325 -19.273   6.676  1.00  0.00     0.173 A 
ATOM     64  C   UNL     1      -5.872 -18.031   8.685  1.00  0.00     0.173 A 
ATOM     65  F   UNL     1      -6.155 -19.489   5.364  1.00  0.00    -0.203 F 
ATOM     66  C   UNL     1      -7.204 -20.088   7.385  1.00  0.00     0.198 A 
ATOM     67  C   UNL     1      -6.728 -18.866   9.396  1.00  0.00     0.198 A 
ATOM     68  F   UNL     1      -5.242 -17.045   9.341  1.00  0.00    -0.203 F 
ATOM     69  F   UNL     1      -7.869 -21.064   6.750  1.00  0.00    -0.200 F 
ATOM     70  C   UNL     1      -7.396 -19.892   8.745  1.00  0.00     0.200 A 
ATOM     71  F   UNL     1      -6.900 -18.683  10.712  1.00  0.00    -0.200 F 
ATOM     72  F   UNL     1      -8.226 -20.691   9.429  1.00  0.00    -0.200 F 
ENDBRANCH  39  62
ENDBRANCH  13  14
ENDBRANCH   6   8
ENDBRANCH   3   4
ENDBRANCH   2   3
ENDBRANCH   1   2
BRANCH   1  73
ATOM     73  C   UNL     1       6.615  -6.864   1.773  1.00  0.00     0.002 C 
BRANCH  73  74
ATOM     74  C   UNL     1       6.550  -6.475   3.254  1.00  0.00     0.021 C 
BRANCH  74  75
ATOM     75  C   UNL     1       7.854  -6.744   4.013  1.00  0.00     0.116 C 
BRANCH  75  76
ATOM     76  N   UNL     1       8.861  -5.792   3.598  1.00  0.00    -0.351 N 
ATOM     77  C   UNL     1       9.018  -4.497   4.033  1.00  0.00     0.283 C 
ATOM     78  H   UNL     1       9.509  -6.108   2.928  1.00  0.00     0.163 HD
ATOM     79  O   UNL     1       9.480  -3.718   3.193  1.00  0.00    -0.268 OA
BRANCH  77  80
ATOM     80  C   UNL     1       8.733  -4.124   5.530  1.00  0.00     0.307 C 
BRANCH  80  81
ATOM     81  N   UNL     1       9.259  -2.782   5.941  1.00  0.00    -0.320 N 
ATOM     82  C   UNL     1      10.671  -2.560   5.597  1.00  0.00     0.263 C 
ATOM     83  C   UNL     1       8.417  -1.623   5.604  1.00  0.00     0.274 C 
ATOM     84  H   UNL     1       9.207  -2.842   6.958  1.00  0.00     0.349 HD
ATOM     85  C   UNL     1      11.232  -1.245   6.154  1.00  0.00     0.062 C 
ATOM     86  C   UNL     1       8.907  -0.291   6.217  1.00  0.00     0.104 C 
ATOM     87  C   UNL     1      10.353  -0.055   5.776  1.00  0.00     0.022 C 
BRANCH  86  88
ATOM     88  C   UNL     1       8.757  -0.282   7.730  1.00  0.00     0.103 A 
ATOM     89  N   UNL     1       8.427  -1.330   8.453  1.00  0.00    -0.241 NA
ATOM     90  S   UNL     1       9.035   1.157   8.636  1.00  0.00    -0.118 S 
ATOM     91  C   UNL     1       8.531  -1.050   9.797  1.00  0.00     0.082 A 
ATOM     92  C   UNL     1       8.868   0.267  10.104  1.00  0.00     0.055 A 
ATOM     93  C   UNL     1       8.343  -1.973  10.844  1.00  0.00     0.030 A 
ATOM     94  C   UNL     1       9.028   0.696  11.431  1.00  0.00     0.021 A 
ATOM     95  C   UNL     1       8.513  -1.561  12.168  1.00  0.00     0.002 A 
ATOM     96  C   UNL     1       8.852  -0.241  12.455  1.00  0.00     0.002 A 
ENDBRANCH  86  88
ENDBRANCH  80  81
BRANCH  80  97
ATOM     97  C   UNL     1       7.264  -4.300   5.911  1.00  0.00     0.044 A 
ATOM     98  C   UNL     1       6.167  -3.739   5.272  1.00  0.00     0.094 A 
ATOM     99  C   UNL     1       6.721  -5.168   6.930  1.00  0.00     0.010 A 
ATOM    100  N   UNL     1       5.025  -4.174   5.880  1.00  0.00    -0.361 N 
ATOM    101  C   UNL     1       5.328  -5.104   6.842  1.00  0.00     0.046 A 
ATOM    102  C   UNL     1       7.284  -6.063   7.869  1.00  0.00     0.026 A 
ATOM    103  H   UNL     1       4.117  -3.865   5.660  1.00  0.00     0.166 HD
ATOM    104  C   UNL     1       4.471  -5.888   7.623  1.00  0.00     0.028 A 
ATOM    105  C   UNL     1       6.435  -6.870   8.638  1.00  0.00     0.018 A 
ATOM    106  C   UNL     1       5.051  -6.788   8.518  1.00  0.00     0.018 A 
ATOM    107  Br  UNL     1       7.184  -8.128   9.839  1.00  0.00    -0.051 Br
ENDBRANCH  80  97
ENDBRANCH  77  80
ENDBRANCH  75  76
ENDBRANCH  74  75
ENDBRANCH  73  74
ENDBRANCH   1  73
TORSDOF 16
