REMARK SMILES CCOc1cc(C=O)ccc1OCc1ccc(C(=O)NCCCCCCNC(=O)c2ccc(-c3c4nc(c(-c5c(F)c(F)c(F)c(F)c5F)c5ccc([nH]5)c(-c5c(F)c(F)c(F)c(F)c5F)c5nc(c(-c6c(F)c(F)c(F)c(F)c6F)c6ccc3[nH]6)C=C5)C=C4)cc2)cc1
REMARK SMILES IDX 22 1 21 2 20 3 18 4 19 5 17 7 14 8 15 9 94 10 16 11 93 12
REMARK SMILES IDX 13 13 12 14 11 15 4 16 5 17 6 18 10 19 9 20 3 21 2 22 1 23
REMARK SMILES IDX 7 24 8 25 23 26 24 27 25 28 26 29 27 30 28 31 29 33 30 34
REMARK SMILES IDX 31 35 92 36 32 37 91 38 33 39 34 40 35 41 85 42 36 43 90 44
REMARK SMILES IDX 84 45 86 46 37 47 89 48 83 49 82 50 38 52 70 53 50 54 69 55
REMARK SMILES IDX 51 56 54 57 68 58 87 59 52 60 53 61 67 63 88 64 55 65 39 66
REMARK SMILES IDX 40 67 48 68 41 69 42 70 46 71 49 72 43 73 44 74 47 75 45 76
REMARK SMILES IDX 71 77 72 78 80 79 73 80 74 81 78 82 81 83 75 84 76 85 79 86
REMARK SMILES IDX 77 87 56 88 57 89 65 90 58 91 59 92 63 93 66 94 60 95 61 96
REMARK SMILES IDX 64 97 62 98
REMARK H PARENT 20 6 27 32 86 51 54 62
REMARK Flexibility Score: inf
ROOT
ATOM      1  C   UNL     1       1.912  -6.945  -1.328  1.00  0.00     0.021 C 
ENDROOT
BRANCH   1   2
ATOM      2  C   UNL     1       2.215  -6.008  -2.501  1.00  0.00     0.116 C 
BRANCH   2   3
ATOM      3  N   UNL     1       0.977  -5.503  -3.066  1.00  0.00    -0.352 N 
ATOM      4  C   UNL     1       0.386  -4.267  -3.086  1.00  0.00     0.251 C 
ATOM      5  O   UNL     1      -0.676  -4.152  -3.699  1.00  0.00    -0.269 OA
ATOM      6  H   UNL     1       0.452  -6.193  -3.533  1.00  0.00     0.163 HD
BRANCH   4   7
ATOM      7  C   UNL     1       0.984  -3.067  -2.443  1.00  0.00     0.039 A 
ATOM      8  C   UNL     1       2.058  -0.709  -1.270  1.00  0.00    -0.011 A 
ATOM      9  C   UNL     1       1.099  -0.635  -2.294  1.00  0.00     0.008 A 
ATOM     10  C   UNL     1       2.508  -1.980  -0.914  1.00  0.00     0.008 A 
ATOM     11  C   UNL     1       0.592  -1.799  -2.894  1.00  0.00     0.014 A 
ATOM     12  C   UNL     1       1.892  -3.131  -1.397  1.00  0.00     0.014 A 
BRANCH   8  13
ATOM     13  C   UNL     1       2.443   0.565  -0.514  1.00  0.00     0.265 C 
BRANCH  13  14
ATOM     14  O   UNL     1       3.458   0.545   0.508  1.00  0.00    -0.485 OA
BRANCH  14  15
ATOM     15  C   UNL     1       3.409  -0.396   1.505  1.00  0.00     0.161 A 
ATOM     16  C   UNL     1       2.253  -1.001   2.031  1.00  0.00     0.161 A 
ATOM     17  C   UNL     1       2.380  -2.192   2.757  1.00  0.00     0.062 A 
ATOM     18  C   UNL     1       3.657  -2.724   3.005  1.00  0.00     0.018 A 
ATOM     19  C   UNL     1       4.678  -0.874   1.859  1.00  0.00     0.051 A 
ATOM     20  C   UNL     1       4.808  -2.041   2.605  1.00  0.00     0.015 A 
BRANCH  16  21
ATOM     21  O   UNL     1       1.063  -0.361   1.836  1.00  0.00    -0.490 OA
BRANCH  21  22
ATOM     22  C   UNL     1      -0.066  -1.165   1.490  1.00  0.00     0.226 C 
ATOM     23  C   UNL     1      -1.079  -0.229   0.844  1.00  0.00     0.049 C 
ENDBRANCH  21  22
ENDBRANCH  16  21
BRANCH  18  24
ATOM     24  C   UNL     1       3.825  -4.039   3.656  1.00  0.00     0.260 C 
ATOM     25  O   UNL     1       2.889  -4.813   3.810  1.00  0.00    -0.298 OA
ENDBRANCH  18  24
ENDBRANCH  14  15
ENDBRANCH  13  14
ENDBRANCH   8  13
ENDBRANCH   4   7
ENDBRANCH   2   3
ENDBRANCH   1   2
BRANCH   1  26
ATOM     26  C   UNL     1       1.925  -8.414  -1.762  1.00  0.00     0.002 C 
BRANCH  26  27
ATOM     27  C   UNL     1       3.299  -8.905  -2.239  1.00  0.00     0.002 C 
BRANCH  27  28
ATOM     28  C   UNL     1       4.414  -8.787  -1.196  1.00  0.00     0.021 C 
BRANCH  28  29
ATOM     29  C   UNL     1       4.166  -9.614   0.059  1.00  0.00     0.116 C 
BRANCH  29  30
ATOM     30  N   UNL     1       4.078 -11.032  -0.257  1.00  0.00    -0.352 N 
ATOM     31  C   UNL     1       4.855 -12.063   0.189  1.00  0.00     0.251 C 
ATOM     32  H   UNL     1       3.357 -11.284  -0.879  1.00  0.00     0.163 HD
ATOM     33  O   UNL     1       4.840 -13.152  -0.393  1.00  0.00    -0.269 OA
BRANCH  31  34
ATOM     34  C   UNL     1       5.713 -11.873   1.371  1.00  0.00     0.039 A 
ATOM     35  C   UNL     1       7.006 -12.399   1.367  1.00  0.00     0.014 A 
ATOM     36  C   UNL     1       5.226 -11.195   2.493  1.00  0.00     0.014 A 
ATOM     37  C   UNL     1       7.827 -12.209   2.478  1.00  0.00     0.010 A 
ATOM     38  C   UNL     1       6.071 -10.938   3.565  1.00  0.00     0.010 A 
ATOM     39  C   UNL     1       7.374 -11.457   3.574  1.00  0.00    -0.014 A 
BRANCH  39  40
ATOM     40  C   UNL     1       8.245 -11.217   4.748  1.00  0.00     0.031 A 
ATOM     41  C   UNL     1       7.866 -11.770   6.093  1.00  0.00     0.074 A 
ATOM     42  C   UNL     1       9.339 -10.445   4.613  1.00  0.00     0.049 A 
ATOM     43  N   UNL     1       8.469 -11.628   7.246  1.00  0.00    -0.248 NA
ATOM     44  C   UNL     1       6.628 -12.562   6.157  1.00  0.00     0.031 C 
ATOM     45  C   UNL     1       9.771  -9.804   3.370  1.00  0.00     0.029 A 
ATOM     46  N   UNL     1      10.279 -10.057   5.533  1.00  0.00    -0.354 N 
ATOM     47  C   UNL     1       7.676 -12.294   8.170  1.00  0.00     0.074 A 
ATOM     48  C   UNL     1       6.520 -12.791   7.457  1.00  0.00     0.031 C 
ATOM     49  C   UNL     1      10.902  -9.120   3.600  1.00  0.00     0.029 A 
ATOM     50  C   UNL     1      11.254  -9.244   5.011  1.00  0.00     0.049 A 
ATOM     51  H   UNL     1      10.258 -10.336   6.477  1.00  0.00     0.167 HD
ATOM     52  C   UNL     1       7.903 -12.491   9.491  1.00  0.00     0.037 A 
ATOM     53  C   UNL     1      12.308  -8.657   5.608  1.00  0.00     0.037 A 
ATOM     54  C   UNL     1       9.069 -12.011  10.186  1.00  0.00     0.049 A 
ATOM     55  C   UNL     1      12.549  -8.902   7.072  1.00  0.00     0.074 A 
ATOM     56  C   UNL     1       9.437 -12.224  11.502  1.00  0.00     0.029 A 
ATOM     57  N   UNL     1      10.052 -11.211   9.620  1.00  0.00    -0.354 N 
ATOM     58  N   UNL     1      11.840  -9.607   7.920  1.00  0.00    -0.248 NA
ATOM     59  C   UNL     1      13.742  -8.278   7.660  1.00  0.00     0.031 C 
ATOM     60  C   UNL     1      10.611 -11.504  11.748  1.00  0.00     0.029 A 
ATOM     61  C   UNL     1      11.010 -10.894  10.569  1.00  0.00     0.049 A 
ATOM     62  H   UNL     1      10.066 -10.913   8.681  1.00  0.00     0.167 HD
ATOM     63  C   UNL     1      12.511  -9.534   9.133  1.00  0.00     0.074 A 
ATOM     64  C   UNL     1      13.693  -8.727   8.906  1.00  0.00     0.031 C 
ATOM     65  C   UNL     1      12.178 -10.085  10.327  1.00  0.00     0.037 A 
BRANCH  52  66
ATOM     66  C   UNL     1       6.864 -13.248  10.269  1.00  0.00     0.064 A 
ATOM     67  C   UNL     1       6.622 -14.613  10.051  1.00  0.00     0.173 A 
ATOM     68  C   UNL     1       6.110 -12.601  11.260  1.00  0.00     0.173 A 
ATOM     69  F   UNL     1       7.308 -15.278   9.108  1.00  0.00    -0.203 F 
ATOM     70  C   UNL     1       5.639 -15.292  10.767  1.00  0.00     0.198 A 
ATOM     71  C   UNL     1       5.152 -13.292  11.999  1.00  0.00     0.198 A 
ATOM     72  F   UNL     1       6.303 -11.299  11.516  1.00  0.00    -0.203 F 
ATOM     73  F   UNL     1       5.385 -16.580  10.497  1.00  0.00    -0.200 F 
ATOM     74  C   UNL     1       4.909 -14.633  11.744  1.00  0.00     0.200 A 
ATOM     75  F   UNL     1       4.458 -12.656  12.953  1.00  0.00    -0.200 F 
ATOM     76  F   UNL     1       3.966 -15.288  12.434  1.00  0.00    -0.200 F 
ENDBRANCH  52  66
BRANCH  53  77
ATOM     77  C   UNL     1      13.223  -7.803   4.807  1.00  0.00     0.064 A 
ATOM     78  C   UNL     1      14.526  -8.223   4.507  1.00  0.00     0.173 A 
ATOM     79  C   UNL     1      12.804  -6.563   4.303  1.00  0.00     0.173 A 
ATOM     80  F   UNL     1      14.977  -9.395   4.980  1.00  0.00    -0.203 F 
ATOM     81  C   UNL     1      15.381  -7.428   3.747  1.00  0.00     0.198 A 
ATOM     82  C   UNL     1      13.650  -5.782   3.519  1.00  0.00     0.198 A 
ATOM     83  F   UNL     1      11.563  -6.119   4.553  1.00  0.00    -0.203 F 
ATOM     84  F   UNL     1      16.634  -7.837   3.506  1.00  0.00    -0.200 F 
ATOM     85  C   UNL     1      14.940  -6.212   3.247  1.00  0.00     0.200 A 
ATOM     86  F   UNL     1      13.213  -4.617   3.022  1.00  0.00    -0.200 F 
ATOM     87  F   UNL     1      15.759  -5.454   2.505  1.00  0.00    -0.200 F 
ENDBRANCH  53  77
BRANCH  65  88
ATOM     88  C   UNL     1      13.118  -9.855  11.476  1.00  0.00     0.064 A 
ATOM     89  C   UNL     1      13.249  -8.597  12.082  1.00  0.00     0.173 A 
ATOM     90  C   UNL     1      13.870 -10.918  12.000  1.00  0.00     0.173 A 
ATOM     91  F   UNL     1      12.564  -7.545  11.609  1.00  0.00    -0.203 F 
ATOM     92  C   UNL     1      14.117  -8.406  13.154  1.00  0.00     0.198 A 
ATOM     93  C   UNL     1      14.711 -10.731  13.093  1.00  0.00     0.198 A 
ATOM     94  F   UNL     1      13.777 -12.143  11.461  1.00  0.00    -0.203 F 
ATOM     95  F   UNL     1      14.265  -7.185  13.684  1.00  0.00    -0.200 F 
ATOM     96  C   UNL     1      14.841  -9.474  13.663  1.00  0.00     0.200 A 
ATOM     97  F   UNL     1      15.398 -11.768  13.593  1.00  0.00    -0.200 F 
ATOM     98  F   UNL     1      15.670  -9.290  14.700  1.00  0.00    -0.200 F 
ENDBRANCH  65  88
ENDBRANCH  39  40
ENDBRANCH  31  34
ENDBRANCH  29  30
ENDBRANCH  28  29
ENDBRANCH  27  28
ENDBRANCH  26  27
ENDBRANCH   1  26
TORSDOF 19
