REMARK SMILES C[C@@H](C(=O)NCCCCCCNC(=O)c1ccc(-c2c3nc(c(-c4c(F)c(F)c(F)c(F)c4F)c4ccc([nH]4)c(-c4c(F)c(F)c(F)c(F)c4F)c4nc(c(-c5c(F)c(F)c(F)c(F)c5F)c5ccc2[nH]5)C=C4)C=C3)cc1)N1C(=O)/C(=C/c2ccc(-c3ccc([N+](=O)[O-])cc3Cl)o2)SC1=S
REMARK SMILES IDX 7 1 6 2 5 3 3 4 4 5 2 7 1 8 78 9 79 10 99 11 80 12 81 13
REMARK SMILES IDX 98 14 100 15 82 16 83 17 84 18 97 19 85 20 86 21 87 22 88 23
REMARK SMILES IDX 95 24 89 25 94 26 96 27 90 28 91 29 92 30 93 31 8 32 9 33
REMARK SMILES IDX 10 34 11 35 12 36 13 37 14 39 15 40 16 41 77 42 17 43 76 44
REMARK SMILES IDX 18 45 19 46 20 47 70 48 21 49 75 50 69 51 71 52 22 53 74 54
REMARK SMILES IDX 68 55 67 56 23 58 55 59 35 60 54 61 36 62 39 63 53 64 72 65
REMARK SMILES IDX 37 66 38 67 52 69 73 70 40 71 24 72 25 73 33 74 26 75 27 76
REMARK SMILES IDX 31 77 34 78 28 79 29 80 32 81 30 82 56 83 57 84 65 85 58 86
REMARK SMILES IDX 59 87 63 88 66 89 60 90 61 91 64 92 62 93 41 94 42 95 50 96
REMARK SMILES IDX 43 97 44 98 48 99 51 100 45 101 46 102 49 103 47 104
REMARK H PARENT 5 6 12 38 71 57 39 68
REMARK Flexibility Score: inf
ROOT
ATOM      1  C   UNL     1       4.170   1.006  -1.146  1.00  0.00     0.021 C 
ENDROOT
BRANCH   1   2
ATOM      2  C   UNL     1       3.280   2.054  -0.474  1.00  0.00     0.116 C 
BRANCH   2   3
ATOM      3  N   UNL     1       2.130   2.326  -1.315  1.00  0.00    -0.354 N 
ATOM      4  C   UNL     1       0.848   1.868  -1.198  1.00  0.00     0.242 C 
ATOM      5  O   UNL     1       0.089   2.023  -2.156  1.00  0.00    -0.273 OA
ATOM      6  H   UNL     1       2.297   2.925  -2.078  1.00  0.00     0.163 HD
BRANCH   4   7
ATOM      7  C   UNL     1       0.390   1.219   0.127  1.00  0.00     0.178 C 
ATOM      8  C   UNL     1       0.958  -0.197   0.254  1.00  0.00     0.042 C 
BRANCH   7   9
ATOM      9  N   UNL     1      -1.088   1.329   0.183  1.00  0.00    -0.281 N 
ATOM     10  C   UNL     1      -1.913   0.242  -0.057  1.00  0.00     0.267 C 
ATOM     11  C   UNL     1      -1.734   2.542   0.374  1.00  0.00     0.149 C 
ATOM     12  O   UNL     1      -1.581  -0.912  -0.266  1.00  0.00    -0.268 OA
ATOM     13  C   UNL     1      -3.340   0.647  -0.009  1.00  0.00     0.084 C 
ATOM     14  S   UNL     1      -3.471   2.345   0.170  1.00  0.00    -0.054 SA
ATOM     15  S   UNL     1      -1.066   4.028   0.751  1.00  0.00    -0.052 S 
ATOM     16  C   UNL     1      -4.308  -0.276  -0.070  1.00  0.00     0.068 C 
BRANCH  16  17
ATOM     17  C   UNL     1      -5.686   0.045  -0.134  1.00  0.00     0.128 A 
ATOM     18  C   UNL     1      -6.369   0.730  -1.131  1.00  0.00     0.051 A 
ATOM     19  O   UNL     1      -6.603  -0.351   0.812  1.00  0.00    -0.457 OA
ATOM     20  C   UNL     1      -7.732   0.768  -0.771  1.00  0.00     0.051 A 
ATOM     21  C   UNL     1      -7.823   0.125   0.441  1.00  0.00     0.136 A 
BRANCH  21  22
ATOM     22  C   UNL     1      -8.940  -0.148   1.331  1.00  0.00     0.036 A 
ATOM     23  C   UNL     1     -10.072  -0.789   0.794  1.00  0.00     0.020 A 
ATOM     24  C   UNL     1      -8.977   0.280   2.671  1.00  0.00     0.058 A 
ATOM     25  C   UNL     1     -11.225  -0.974   1.560  1.00  0.00     0.086 A 
ATOM     26  C   UNL     1     -10.130   0.101   3.445  1.00  0.00     0.106 A 
ATOM     27  Cl  UNL     1      -7.652   1.108   3.416  1.00  0.00    -0.083 Cl
ATOM     28  C   UNL     1     -11.254  -0.512   2.880  1.00  0.00     0.270 A 
BRANCH  28  29
ATOM     29  N   UNL     1     -12.486  -0.642   3.667  1.00  0.00     0.062 N 
ATOM     30  O   UNL     1     -13.466  -1.167   3.119  1.00  0.00    -0.258 OA
ATOM     31  O   UNL     1     -12.476  -0.210   4.827  1.00  0.00    -0.258 OA
ENDBRANCH  28  29
ENDBRANCH  21  22
ENDBRANCH  16  17
ENDBRANCH   7   9
ENDBRANCH   4   7
ENDBRANCH   2   3
ENDBRANCH   1   2
BRANCH   1  32
ATOM     32  C   UNL     1       4.949   1.556  -2.347  1.00  0.00     0.002 C 
BRANCH  32  33
ATOM     33  C   UNL     1       5.932   2.681  -2.007  1.00  0.00     0.002 C 
BRANCH  33  34
ATOM     34  C   UNL     1       6.968   2.325  -0.938  1.00  0.00     0.021 C 
BRANCH  34  35
ATOM     35  C   UNL     1       7.858   1.138  -1.295  1.00  0.00     0.116 C 
BRANCH  35  36
ATOM     36  N   UNL     1       8.659   1.402  -2.479  1.00  0.00    -0.352 N 
ATOM     37  C   UNL     1      10.016   1.319  -2.655  1.00  0.00     0.251 C 
ATOM     38  H   UNL     1       8.151   1.681  -3.274  1.00  0.00     0.163 HD
ATOM     39  O   UNL     1      10.532   1.795  -3.662  1.00  0.00    -0.269 OA
BRANCH  37  40
ATOM     40  C   UNL     1      10.864   0.674  -1.631  1.00  0.00     0.039 A 
ATOM     41  C   UNL     1      12.095   1.257  -1.319  1.00  0.00     0.014 A 
ATOM     42  C   UNL     1      10.475  -0.515  -1.006  1.00  0.00     0.014 A 
ATOM     43  C   UNL     1      12.911   0.674  -0.349  1.00  0.00     0.010 A 
ATOM     44  C   UNL     1      11.255  -1.053   0.016  1.00  0.00     0.010 A 
ATOM     45  C   UNL     1      12.485  -0.469   0.349  1.00  0.00    -0.014 A 
BRANCH  45  46
ATOM     46  C   UNL     1      13.325  -1.048   1.429  1.00  0.00     0.031 A 
ATOM     47  C   UNL     1      13.910  -2.426   1.289  1.00  0.00     0.074 A 
ATOM     48  C   UNL     1      13.541  -0.333   2.551  1.00  0.00     0.049 A 
ATOM     49  N   UNL     1      14.669  -3.091   2.125  1.00  0.00    -0.248 NA
ATOM     50  C   UNL     1      13.583  -3.166   0.061  1.00  0.00     0.031 C 
ATOM     51  C   UNL     1      12.980   0.990   2.829  1.00  0.00     0.029 A 
ATOM     52  N   UNL     1      14.289  -0.617   3.666  1.00  0.00    -0.354 N 
ATOM     53  C   UNL     1      14.916  -4.316   1.521  1.00  0.00     0.074 A 
ATOM     54  C   UNL     1      14.169  -4.334   0.282  1.00  0.00     0.031 C 
ATOM     55  C   UNL     1      13.424   1.414   4.023  1.00  0.00     0.029 A 
ATOM     56  C   UNL     1      14.273   0.381   4.609  1.00  0.00     0.049 A 
ATOM     57  H   UNL     1      14.790  -1.457   3.779  1.00  0.00     0.167 HD
ATOM     58  C   UNL     1      15.719  -5.322   1.944  1.00  0.00     0.037 A 
ATOM     59  C   UNL     1      14.872   0.455   5.812  1.00  0.00     0.037 A 
ATOM     60  C   UNL     1      16.465  -5.301   3.176  1.00  0.00     0.049 A 
ATOM     61  C   UNL     1      15.750  -0.682   6.262  1.00  0.00     0.074 A 
ATOM     62  C   UNL     1      17.326  -6.260   3.682  1.00  0.00     0.029 A 
ATOM     63  N   UNL     1      16.436  -4.265   4.098  1.00  0.00    -0.354 N 
ATOM     64  N   UNL     1      16.028  -1.807   5.649  1.00  0.00    -0.248 NA
ATOM     65  C   UNL     1      16.410  -0.532   7.565  1.00  0.00     0.031 C 
ATOM     66  C   UNL     1      17.783  -5.824   4.929  1.00  0.00     0.029 A 
ATOM     67  C   UNL     1      17.252  -4.569   5.177  1.00  0.00     0.049 A 
ATOM     68  H   UNL     1      15.913  -3.437   4.001  1.00  0.00     0.167 HD
ATOM     69  C   UNL     1      16.912  -2.485   6.478  1.00  0.00     0.074 A 
ATOM     70  C   UNL     1      17.146  -1.632   7.623  1.00  0.00     0.031 C 
ATOM     71  C   UNL     1      17.476  -3.707   6.309  1.00  0.00     0.037 A 
BRANCH  58  72
ATOM     72  C   UNL     1      15.849  -6.528   1.056  1.00  0.00     0.064 A 
ATOM     73  C   UNL     1      16.520  -6.460  -0.175  1.00  0.00     0.173 A 
ATOM     74  C   UNL     1      15.344  -7.774   1.458  1.00  0.00     0.173 A 
ATOM     75  F   UNL     1      17.012  -5.290  -0.612  1.00  0.00    -0.203 F 
ATOM     76  C   UNL     1      16.659  -7.587  -0.981  1.00  0.00     0.198 A 
ATOM     77  C   UNL     1      15.513  -8.906   0.664  1.00  0.00     0.198 A 
ATOM     78  F   UNL     1      14.699  -7.898   2.627  1.00  0.00    -0.203 F 
ATOM     79  F   UNL     1      17.264  -7.486  -2.172  1.00  0.00    -0.200 F 
ATOM     80  C   UNL     1      16.164  -8.810  -0.557  1.00  0.00     0.200 A 
ATOM     81  F   UNL     1      15.047 -10.091   1.082  1.00  0.00    -0.200 F 
ATOM     82  F   UNL     1      16.310  -9.897  -1.327  1.00  0.00    -0.200 F 
ENDBRANCH  58  72
BRANCH  59  83
ATOM     83  C   UNL     1      14.674   1.651   6.673  1.00  0.00     0.064 A 
ATOM     84  C   UNL     1      15.732   2.527   6.955  1.00  0.00     0.173 A 
ATOM     85  C   UNL     1      13.426   1.930   7.251  1.00  0.00     0.173 A 
ATOM     86  F   UNL     1      16.948   2.295   6.441  1.00  0.00    -0.203 F 
ATOM     87  C   UNL     1      15.559   3.614   7.809  1.00  0.00     0.198 A 
ATOM     88  C   UNL     1      13.246   3.037   8.076  1.00  0.00     0.198 A 
ATOM     89  F   UNL     1      12.378   1.129   7.007  1.00  0.00    -0.203 F 
ATOM     90  F   UNL     1      16.602   4.399   8.111  1.00  0.00    -0.200 F 
ATOM     91  C   UNL     1      14.315   3.871   8.366  1.00  0.00     0.200 A 
ATOM     92  F   UNL     1      12.037   3.292   8.597  1.00  0.00    -0.200 F 
ATOM     93  F   UNL     1      14.149   4.916   9.187  1.00  0.00    -0.200 F 
ENDBRANCH  59  83
BRANCH  71  94
ATOM     94  C   UNL     1      18.423  -4.176   7.377  1.00  0.00     0.064 A 
ATOM     95  C   UNL     1      17.975  -4.523   8.661  1.00  0.00     0.173 A 
ATOM     96  C   UNL     1      19.796  -4.293   7.108  1.00  0.00     0.173 A 
ATOM     97  F   UNL     1      16.675  -4.416   8.974  1.00  0.00    -0.203 F 
ATOM     98  C   UNL     1      18.870  -4.931   9.646  1.00  0.00     0.198 A 
ATOM     99  C   UNL     1      20.683  -4.735   8.085  1.00  0.00     0.198 A 
ATOM    100  F   UNL     1      20.276  -3.982   5.894  1.00  0.00    -0.203 F 
ATOM    101  F   UNL     1      18.427  -5.195  10.883  1.00  0.00    -0.200 F 
ATOM    102  C   UNL     1      20.222  -5.042   9.356  1.00  0.00     0.200 A 
ATOM    103  F   UNL     1      21.986  -4.856   7.798  1.00  0.00    -0.200 F 
ATOM    104  F   UNL     1      21.082  -5.435  10.305  1.00  0.00    -0.200 F 
ENDBRANCH  71  94
ENDBRANCH  45  46
ENDBRANCH  37  40
ENDBRANCH  35  36
ENDBRANCH  34  35
ENDBRANCH  33  34
ENDBRANCH  32  33
ENDBRANCH   1  32
TORSDOF 17
