REMARK SMILES O=C(NCCCCCCNC(=O)[C@H](F)[C@H](O)C1CCOCC1)c1ccc(-c2c3nc(c(-c4c(F)c(F)c(F)c(F)c4F)c4ccc([nH]4)c(-c4c(F)c(F)c(F)c(F)c4F)c4nc(c(-c5c(F)c(F)c(F)c(F)c5F)c5ccc2[nH]5)C=C4)C=C3)cc1
REMARK SMILES IDX 6 1 5 2 4 3 3 4 1 5 2 6 23 8 24 9 85 10 25 11 84 12 26 13
REMARK SMILES IDX 27 14 28 15 78 16 29 17 83 18 77 19 79 20 30 21 82 22 76 23
REMARK SMILES IDX 75 24 31 26 63 27 43 28 62 29 44 30 47 31 61 32 80 33 45 34
REMARK SMILES IDX 46 35 60 37 81 38 48 39 32 40 33 41 41 42 34 43 35 44 39 45
REMARK SMILES IDX 42 46 36 47 37 48 40 49 38 50 64 51 65 52 73 53 66 54 67 55
REMARK SMILES IDX 71 56 74 57 68 58 69 59 72 60 70 61 49 62 50 63 58 64 51 65
REMARK SMILES IDX 52 66 56 67 59 68 53 69 54 70 57 71 55 72 7 73 8 74 9 75
REMARK SMILES IDX 10 76 11 77 12 79 13 80 14 81 15 82 17 83 18 84 22 85 19 86
REMARK SMILES IDX 21 87 20 88 16 89
REMARK H PARENT 3 7 79 25 47 36 10 78 16 90
REMARK Flexibility Score: inf
ROOT
ATOM      1  C   UNL     1       5.455  -5.154  11.125  1.00  0.00     0.002 C 
ENDROOT
BRANCH   1   2
ATOM      2  C   UNL     1       6.322  -5.319  12.373  1.00  0.00     0.021 C 
BRANCH   2   3
ATOM      3  C   UNL     1       6.241  -4.155  13.352  1.00  0.00     0.116 C 
BRANCH   3   4
ATOM      4  N   UNL     1       4.905  -3.999  13.906  1.00  0.00    -0.352 N 
ATOM      5  O   UNL     1       3.304  -4.095  15.494  1.00  0.00    -0.269 OA
ATOM      6  C   UNL     1       4.499  -4.045  15.214  1.00  0.00     0.251 C 
ATOM      7  H   UNL     1       4.191  -3.838  13.247  1.00  0.00     0.163 HD
BRANCH   6   8
ATOM      8  C   UNL     1       5.509  -4.054  16.292  1.00  0.00     0.039 A 
ATOM      9  C   UNL     1       6.594  -3.174  16.259  1.00  0.00     0.014 A 
ATOM     10  C   UNL     1       5.360  -4.951  17.351  1.00  0.00     0.014 A 
ATOM     11  C   UNL     1       7.599  -3.279  17.214  1.00  0.00     0.010 A 
ATOM     12  C   UNL     1       6.328  -4.998  18.355  1.00  0.00     0.010 A 
ATOM     13  C   UNL     1       7.469  -4.182  18.279  1.00  0.00    -0.014 A 
BRANCH  13  14
ATOM     14  C   UNL     1       8.504  -4.235  19.340  1.00  0.00     0.031 A 
ATOM     15  C   UNL     1       9.317  -5.477  19.560  1.00  0.00     0.074 A 
ATOM     16  C   UNL     1       8.689  -3.156  20.124  1.00  0.00     0.049 A 
ATOM     17  N   UNL     1      10.206  -5.732  20.486  1.00  0.00    -0.248 NA
ATOM     18  C   UNL     1       9.094  -6.586  18.620  1.00  0.00     0.031 C 
ATOM     19  C   UNL     1       7.959  -1.893  20.003  1.00  0.00     0.029 A 
ATOM     20  N   UNL     1       9.537  -2.951  21.182  1.00  0.00    -0.354 N 
ATOM     21  C   UNL     1      10.632  -7.034  20.257  1.00  0.00     0.074 A 
ATOM     22  C   UNL     1       9.882  -7.527  19.121  1.00  0.00     0.031 C 
ATOM     23  C   UNL     1       8.400  -1.040  20.938  1.00  0.00     0.029 A 
ATOM     24  C   UNL     1       9.392  -1.718  21.766  1.00  0.00     0.049 A 
ATOM     25  H   UNL     1      10.187  -3.623  21.492  1.00  0.00     0.167 HD
ATOM     26  C   UNL     1      11.566  -7.746  20.933  1.00  0.00     0.037 A 
ATOM     27  C   UNL     1       9.965  -1.200  22.867  1.00  0.00     0.037 A 
ATOM     28  C   UNL     1      12.304  -7.242  22.064  1.00  0.00     0.049 A 
ATOM     29  C   UNL     1      10.959  -2.028  23.631  1.00  0.00     0.074 A 
ATOM     30  C   UNL     1      13.295  -7.870  22.797  1.00  0.00     0.029 A 
ATOM     31  N   UNL     1      12.120  -5.990  22.635  1.00  0.00    -0.354 N 
ATOM     32  N   UNL     1      11.381  -3.245  23.388  1.00  0.00    -0.248 NA
ATOM     33  C   UNL     1      11.558  -1.410  24.821  1.00  0.00     0.031 C 
ATOM     34  C   UNL     1      13.663  -7.026  23.850  1.00  0.00     0.029 A 
ATOM     35  C   UNL     1      12.957  -5.840  23.730  1.00  0.00     0.049 A 
ATOM     36  H   UNL     1      11.487  -5.309  22.311  1.00  0.00     0.167 HD
ATOM     37  C   UNL     1      12.317  -3.528  24.372  1.00  0.00     0.074 A 
ATOM     38  C   UNL     1      12.404  -2.352  25.213  1.00  0.00     0.031 C 
ATOM     39  C   UNL     1      13.043  -4.659  24.554  1.00  0.00     0.037 A 
BRANCH  26  40
ATOM     40  C   UNL     1      11.816  -9.161  20.489  1.00  0.00     0.064 A 
ATOM     41  C   UNL     1      12.412  -9.459  19.254  1.00  0.00     0.173 A 
ATOM     42  C   UNL     1      11.469 -10.237  21.322  1.00  0.00     0.173 A 
ATOM     43  F   UNL     1      12.757  -8.471  18.414  1.00  0.00    -0.203 F 
ATOM     44  C   UNL     1      12.612 -10.778  18.852  1.00  0.00     0.198 A 
ATOM     45  C   UNL     1      11.704 -11.553  20.932  1.00  0.00     0.198 A 
ATOM     46  F   UNL     1      10.905 -10.013  22.518  1.00  0.00    -0.203 F 
ATOM     47  F   UNL     1      13.124 -11.037  17.641  1.00  0.00    -0.200 F 
ATOM     48  C   UNL     1      12.263 -11.823  19.693  1.00  0.00     0.200 A 
ATOM     49  F   UNL     1      11.380 -12.561  21.754  1.00  0.00    -0.200 F 
ATOM     50  F   UNL     1      12.456 -13.091  19.305  1.00  0.00    -0.200 F 
ENDBRANCH  26  40
BRANCH  27  51
ATOM     51  C   UNL     1       9.598   0.171  23.305  1.00  0.00     0.064 A 
ATOM     52  C   UNL     1      10.512   1.227  23.211  1.00  0.00     0.173 A 
ATOM     53  C   UNL     1       8.313   0.459  23.790  1.00  0.00     0.173 A 
ATOM     54  F   UNL     1      11.757   0.997  22.768  1.00  0.00    -0.203 F 
ATOM     55  C   UNL     1      10.160   2.519  23.596  1.00  0.00     0.198 A 
ATOM     56  C   UNL     1       7.952   1.756  24.144  1.00  0.00     0.198 A 
ATOM     57  F   UNL     1       7.397  -0.516  23.889  1.00  0.00    -0.203 F 
ATOM     58  F   UNL     1      11.065   3.505  23.529  1.00  0.00    -0.200 F 
ATOM     59  C   UNL     1       8.878   2.784  24.053  1.00  0.00     0.200 A 
ATOM     60  F   UNL     1       6.705   2.012  24.565  1.00  0.00    -0.200 F 
ATOM     61  F   UNL     1       8.535   4.030  24.408  1.00  0.00    -0.200 F 
ENDBRANCH  27  51
BRANCH  39  62
ATOM     62  C   UNL     1      14.042  -4.665  25.676  1.00  0.00     0.064 A 
ATOM     63  C   UNL     1      13.651  -4.713  27.021  1.00  0.00     0.173 A 
ATOM     64  C   UNL     1      15.417  -4.679  25.391  1.00  0.00     0.173 A 
ATOM     65  F   UNL     1      12.350  -4.685  27.348  1.00  0.00    -0.203 F 
ATOM     66  C   UNL     1      14.599  -4.755  28.041  1.00  0.00     0.198 A 
ATOM     67  C   UNL     1      16.361  -4.755  26.411  1.00  0.00     0.198 A 
ATOM     68  F   UNL     1      15.845  -4.638  24.120  1.00  0.00    -0.203 F 
ATOM     69  F   UNL     1      14.203  -4.756  29.322  1.00  0.00    -0.200 F 
ATOM     70  C   UNL     1      15.952  -4.787  27.735  1.00  0.00     0.200 A 
ATOM     71  F   UNL     1      17.666  -4.801  26.111  1.00  0.00    -0.200 F 
ATOM     72  F   UNL     1      16.862  -4.842  28.717  1.00  0.00    -0.200 F 
ENDBRANCH  39  62
ENDBRANCH  13  14
ENDBRANCH   6   8
ENDBRANCH   3   4
ENDBRANCH   2   3
ENDBRANCH   1   2
BRANCH   1  73
ATOM     73  C   UNL     1       5.731  -3.884  10.313  1.00  0.00     0.002 C 
BRANCH  73  74
ATOM     74  C   UNL     1       7.189  -3.700   9.871  1.00  0.00     0.021 C 
BRANCH  74  75
ATOM     75  C   UNL     1       7.747  -4.871   9.067  1.00  0.00     0.116 C 
BRANCH  75  76
ATOM     76  N   UNL     1       7.005  -5.064   7.836  1.00  0.00    -0.353 N 
ATOM     77  C   UNL     1       7.462  -4.937   6.553  1.00  0.00     0.257 C 
ATOM     78  H   UNL     1       6.059  -5.316   7.936  1.00  0.00     0.163 HD
ATOM     79  O   UNL     1       6.674  -5.119   5.623  1.00  0.00    -0.272 OA
BRANCH  77  80
ATOM     80  C   UNL     1       8.944  -4.650   6.343  1.00  0.00     0.283 C 
ATOM     81  F   UNL     1       9.297  -3.441   6.876  1.00  0.00    -0.234 F 
BRANCH  80  82
ATOM     82  C   UNL     1       9.323  -4.679   4.855  1.00  0.00     0.161 C 
BRANCH  82  83
ATOM     83  C   UNL     1      10.838  -4.390   4.690  1.00  0.00     0.026 C 
ATOM     84  C   UNL     1      11.070  -2.953   4.192  1.00  0.00     0.035 C 
ATOM     85  C   UNL     1      11.568  -5.377   3.768  1.00  0.00     0.035 C 
ATOM     86  C   UNL     1      12.554  -2.683   3.974  1.00  0.00     0.160 C 
ATOM     87  C   UNL     1      13.026  -4.973   3.599  1.00  0.00     0.160 C 
ATOM     88  O   UNL     1      13.123  -3.645   3.088  1.00  0.00    -0.381 OA
ENDBRANCH  82  83
BRANCH  82  89
ATOM     89  O   UNL     1       9.002  -5.962   4.301  1.00  0.00    -0.389 OA
ATOM     90  H   UNL     1       9.500  -6.650   4.769  1.00  0.00     0.211 HD
ENDBRANCH  82  89
ENDBRANCH  80  82
ENDBRANCH  77  80
ENDBRANCH  75  76
ENDBRANCH  74  75
ENDBRANCH  73  74
ENDBRANCH   1  73
TORSDOF 16
