REMARK SMILES Cc1cc(Cl)c2c(c1)C=C(C(=O)NCCCCCCNC(=O)c1ccc(-c3c4nc(c(-c5c(F)c(F)c(F)c(F)c5F)c5ccc([nH]5)c(-c5c(F)c(F)c(F)c(F)c5F)c5nc(c(-c6c(F)c(F)c(F)c(F)c6F)c6ccc3[nH]6)C=C5)C=C4)cc1)[C@@H](C(F)(F)F)O2
REMARK SMILES IDX 17 1 16 2 15 3 14 4 13 5 11 6 12 7 10 9 1 10 2 11 3 12 8 13
REMARK SMILES IDX 4 14 7 15 5 16 6 17 9 18 91 19 86 20 87 21 88 22 89 23 90 24
REMARK SMILES IDX 18 25 19 26 20 27 21 28 22 30 23 31 24 32 85 33 25 34 84 35
REMARK SMILES IDX 26 36 27 37 28 38 78 39 29 40 83 41 77 42 79 43 30 44 82 45
REMARK SMILES IDX 76 46 75 47 31 49 63 50 43 51 62 52 44 53 47 54 61 55 80 56
REMARK SMILES IDX 45 57 46 58 60 60 81 61 48 62 32 63 33 64 41 65 34 66 35 67
REMARK SMILES IDX 39 68 42 69 36 70 37 71 40 72 38 73 64 74 65 75 73 76 66 77
REMARK SMILES IDX 67 78 71 79 74 80 68 81 69 82 72 83 70 84 49 85 50 86 58 87
REMARK SMILES IDX 51 88 52 89 56 90 59 91 53 92 54 93 57 94 55 95
REMARK H PARENT 13 8 20 29 79 48 47 59
REMARK Flexibility Score: inf
ROOT
ATOM      1  C   UNL     1       0.240  10.796   5.635  1.00  0.00     0.002 C 
ENDROOT
BRANCH   1   2
ATOM      2  C   UNL     1       1.501   9.951   5.409  1.00  0.00     0.002 C 
BRANCH   2   3
ATOM      3  C   UNL     1       1.296   8.433   5.446  1.00  0.00     0.021 C 
BRANCH   3   4
ATOM      4  C   UNL     1       0.256   7.918   4.456  1.00  0.00     0.116 C 
BRANCH   4   5
ATOM      5  N   UNL     1       0.819   7.725   3.133  1.00  0.00    -0.352 N 
ATOM      6  C   UNL     1       0.979   6.702   2.263  1.00  0.00     0.251 C 
ATOM      7  O   UNL     1       1.517   7.008   1.193  1.00  0.00    -0.270 OA
ATOM      8  H   UNL     1       1.182   8.566   2.770  1.00  0.00     0.163 HD
BRANCH   6   9
ATOM      9  C   UNL     1       0.568   5.285   2.501  1.00  0.00     0.067 C 
ATOM     10  C   UNL     1       1.067  -0.257  -0.211  1.00  0.00     0.044 C 
ATOM     11  C   UNL     1       0.679   0.716   0.862  1.00  0.00    -0.049 A 
ATOM     12  C   UNL     1       0.036   0.281   2.026  1.00  0.00     0.028 A 
ATOM     13  C   UNL     1       0.990   2.076   0.721  1.00  0.00     0.015 A 
ATOM     14  C   UNL     1      -0.299   1.195   3.027  1.00  0.00     0.084 A 
ATOM     15  C   UNL     1       0.655   2.995   1.724  1.00  0.00     0.019 A 
ATOM     16  Cl  UNL     1      -1.087   0.607   4.447  1.00  0.00    -0.080 Cl
ATOM     17  C   UNL     1       0.003   2.553   2.875  1.00  0.00     0.146 A 
ATOM     18  C   UNL     1       1.022   4.399   1.595  1.00  0.00     0.025 C 
ATOM     19  O   UNL     1      -0.309   3.401   3.898  1.00  0.00    -0.474 OA
ATOM     20  C   UNL     1      -0.320   4.827   3.623  1.00  0.00     0.314 C 
BRANCH  20  21
ATOM     21  C   UNL     1      -1.778   5.290   3.461  1.00  0.00     0.429 C 
ATOM     22  F   UNL     1      -2.454   5.153   4.630  1.00  0.00    -0.167 F 
ATOM     23  F   UNL     1      -1.876   6.596   3.119  1.00  0.00    -0.167 F 
ATOM     24  F   UNL     1      -2.444   4.584   2.520  1.00  0.00    -0.167 F 
ENDBRANCH  20  21
ENDBRANCH   6   9
ENDBRANCH   4   5
ENDBRANCH   3   4
ENDBRANCH   2   3
ENDBRANCH   1   2
BRANCH   1  25
ATOM     25  C   UNL     1      -0.621  10.393   6.835  1.00  0.00     0.021 C 
BRANCH  25  26
ATOM     26  C   UNL     1       0.112  10.378   8.171  1.00  0.00     0.116 C 
BRANCH  26  27
ATOM     27  N   UNL     1       0.586  11.697   8.550  1.00  0.00    -0.352 N 
ATOM     28  C   UNL     1       0.269  12.450   9.652  1.00  0.00     0.251 C 
ATOM     29  H   UNL     1       1.226  12.111   7.927  1.00  0.00     0.163 HD
ATOM     30  O   UNL     1       0.614  13.625   9.723  1.00  0.00    -0.269 OA
BRANCH  28  31
ATOM     31  C   UNL     1      -0.508  11.845  10.753  1.00  0.00     0.039 A 
ATOM     32  C   UNL     1      -1.596  12.547  11.275  1.00  0.00     0.014 A 
ATOM     33  C   UNL     1      -0.155  10.596  11.276  1.00  0.00     0.014 A 
ATOM     34  C   UNL     1      -2.360  11.976  12.293  1.00  0.00     0.010 A 
ATOM     35  C   UNL     1      -0.958   9.999  12.243  1.00  0.00     0.010 A 
ATOM     36  C   UNL     1      -2.059  10.690  12.770  1.00  0.00    -0.014 A 
BRANCH  36  37
ATOM     37  C   UNL     1      -2.872  10.073  13.845  1.00  0.00     0.031 A 
ATOM     38  C   UNL     1      -2.270   9.844  15.202  1.00  0.00     0.074 A 
ATOM     39  C   UNL     1      -4.142   9.702  13.593  1.00  0.00     0.049 A 
ATOM     40  N   UNL     1      -2.817   9.324  16.272  1.00  0.00    -0.248 NA
ATOM     41  C   UNL     1      -0.861  10.232  15.377  1.00  0.00     0.031 C 
ATOM     42  C   UNL     1      -4.820   9.837  12.304  1.00  0.00     0.029 A 
ATOM     43  N   UNL     1      -5.090   9.140  14.412  1.00  0.00    -0.354 N 
ATOM     44  C   UNL     1      -1.822   9.324  17.240  1.00  0.00     0.074 A 
ATOM     45  C   UNL     1      -0.621   9.835  16.618  1.00  0.00     0.031 C 
ATOM     46  C   UNL     1      -6.086   9.406  12.427  1.00  0.00     0.029 A 
ATOM     47  C   UNL     1      -6.300   8.940  13.795  1.00  0.00     0.049 A 
ATOM     48  H   UNL     1      -4.918   8.903  15.352  1.00  0.00     0.167 HD
ATOM     49  C   UNL     1      -1.913   8.963  18.541  1.00  0.00     0.037 A 
ATOM     50  C   UNL     1      -7.454   8.446  14.283  1.00  0.00     0.037 A 
ATOM     51  C   UNL     1      -3.116   8.483  19.164  1.00  0.00     0.049 A 
ATOM     52  C   UNL     1      -7.522   8.029  15.727  1.00  0.00     0.074 A 
ATOM     53  C   UNL     1      -3.325   8.146  20.489  1.00  0.00     0.029 A 
ATOM     54  N   UNL     1      -4.317   8.274  18.501  1.00  0.00    -0.354 N 
ATOM     55  N   UNL     1      -6.594   8.095  16.650  1.00  0.00    -0.248 NA
ATOM     56  C   UNL     1      -8.797   7.469  16.198  1.00  0.00     0.031 C 
ATOM     57  C   UNL     1      -4.643   7.697  20.621  1.00  0.00     0.029 A 
ATOM     58  C   UNL     1      -5.265   7.790  19.386  1.00  0.00     0.049 A 
ATOM     59  H   UNL     1      -4.471   8.444  17.544  1.00  0.00     0.167 HD
ATOM     60  C   UNL     1      -7.174   7.604  17.811  1.00  0.00     0.074 A 
ATOM     61  C   UNL     1      -8.541   7.257  17.482  1.00  0.00     0.031 C 
ATOM     62  C   UNL     1      -6.621   7.452  19.039  1.00  0.00     0.037 A 
BRANCH  49  63
ATOM     63  C   UNL     1      -0.683   9.098  19.386  1.00  0.00     0.064 A 
ATOM     64  C   UNL     1      -0.200  10.357  19.774  1.00  0.00     0.173 A 
ATOM     65  C   UNL     1      -0.008   7.961  19.856  1.00  0.00     0.173 A 
ATOM     66  F   UNL     1      -0.805  11.474  19.341  1.00  0.00    -0.203 F 
ATOM     67  C   UNL     1       0.925  10.474  20.585  1.00  0.00     0.198 A 
ATOM     68  C   UNL     1       1.103   8.082  20.687  1.00  0.00     0.198 A 
ATOM     69  F   UNL     1      -0.431   6.735  19.517  1.00  0.00    -0.203 F 
ATOM     70  F   UNL     1       1.390  11.688  20.911  1.00  0.00    -0.200 F 
ATOM     71  C   UNL     1       1.571   9.337  21.047  1.00  0.00     0.200 A 
ATOM     72  F   UNL     1       1.720   6.983  21.142  1.00  0.00    -0.200 F 
ATOM     73  F   UNL     1       2.648   9.451  21.836  1.00  0.00    -0.200 F 
ENDBRANCH  49  63
BRANCH  50  74
ATOM     74  C   UNL     1      -8.650   8.364  13.407  1.00  0.00     0.064 A 
ATOM     75  C   UNL     1      -9.733   9.233  13.593  1.00  0.00     0.173 A 
ATOM     76  C   UNL     1      -8.729   7.436  12.358  1.00  0.00     0.173 A 
ATOM     77  F   UNL     1      -9.711  10.124  14.595  1.00  0.00    -0.203 F 
ATOM     78  C   UNL     1     -10.855   9.172  12.769  1.00  0.00     0.198 A 
ATOM     79  C   UNL     1      -9.842   7.391  11.521  1.00  0.00     0.198 A 
ATOM     80  F   UNL     1      -7.717   6.585  12.137  1.00  0.00    -0.203 F 
ATOM     81  F   UNL     1     -11.889   9.995  12.988  1.00  0.00    -0.200 F 
ATOM     82  C   UNL     1     -10.905   8.256  11.729  1.00  0.00     0.200 A 
ATOM     83  F   UNL     1      -9.882   6.513  10.510  1.00  0.00    -0.200 F 
ATOM     84  F   UNL     1     -11.980   8.204  10.931  1.00  0.00    -0.200 F 
ENDBRANCH  50  74
BRANCH  62  85
ATOM     85  C   UNL     1      -7.486   6.888  20.126  1.00  0.00     0.064 A 
ATOM     86  C   UNL     1      -7.793   5.522  20.173  1.00  0.00     0.173 A 
ATOM     87  C   UNL     1      -7.931   7.703  21.177  1.00  0.00     0.173 A 
ATOM     88  F   UNL     1      -7.399   4.707  19.183  1.00  0.00    -0.203 F 
ATOM     89  C   UNL     1      -8.518   4.990  21.235  1.00  0.00     0.198 A 
ATOM     90  C   UNL     1      -8.635   7.164  22.250  1.00  0.00     0.198 A 
ATOM     91  F   UNL     1      -7.655   9.016  21.179  1.00  0.00    -0.203 F 
ATOM     92  F   UNL     1      -8.818   3.684  21.252  1.00  0.00    -0.200 F 
ATOM     93  C   UNL     1      -8.929   5.809  22.277  1.00  0.00     0.200 A 
ATOM     94  F   UNL     1      -9.019   7.953  23.263  1.00  0.00    -0.200 F 
ATOM     95  F   UNL     1      -9.608   5.291  23.310  1.00  0.00    -0.200 F 
ENDBRANCH  62  85
ENDBRANCH  36  37
ENDBRANCH  28  31
ENDBRANCH  26  27
ENDBRANCH  25  26
ENDBRANCH   1  25
TORSDOF 14
