REMARK SMILES O=C(CCCC(=O)Nc1ccccc1F)NCCCCCCNC(=O)c1ccc(-c2c3nc(c(-c4c(F)c(F)c(F)c(F)c4F)c4ccc([nH]4)c(-c4c(F)c(F)c(F)c(F)c4F)c4nc(c(-c5c(F)c(F)c(F)c(F)c5F)c5ccc2[nH]5)C=C4)C=C3)cc1
REMARK SMILES IDX 18 1 17 2 16 3 1 4 2 5 3 7 4 8 5 9 6 10 7 11 8 12 9 14 10 15
REMARK SMILES IDX 14 16 11 17 13 18 15 19 12 20 19 21 20 22 21 23 22 24 23 25
REMARK SMILES IDX 24 26 25 28 26 29 27 30 88 31 28 32 87 33 29 34 30 35 31 36
REMARK SMILES IDX 81 37 32 38 86 39 80 40 82 41 33 42 85 43 79 44 78 45 34 47
REMARK SMILES IDX 66 48 46 49 65 50 47 51 50 52 64 53 83 54 48 55 49 56 63 58
REMARK SMILES IDX 84 59 51 60 35 61 36 62 44 63 37 64 38 65 42 66 45 67 39 68
REMARK SMILES IDX 40 69 43 70 41 71 67 72 68 73 76 74 69 75 70 76 74 77 77 78
REMARK SMILES IDX 71 79 72 80 75 81 73 82 52 83 53 84 61 85 54 86 55 87 59 88
REMARK SMILES IDX 62 89 56 90 57 91 60 92 58 93
REMARK H PARENT 16 6 8 13 23 27 82 46 50 57
REMARK Flexibility Score: inf
ROOT
ATOM      1  C   UNL     1       2.577   3.256  -1.436  1.00  0.00     0.021 C 
ENDROOT
BRANCH   1   2
ATOM      2  C   UNL     1       1.986   1.919  -1.884  1.00  0.00     0.116 C 
BRANCH   2   3
ATOM      3  N   UNL     1       2.476   0.797  -1.113  1.00  0.00    -0.356 N 
ATOM      4  O   UNL     1       1.147  -0.745  -2.142  1.00  0.00    -0.275 OA
ATOM      5  C   UNL     1       2.023  -0.482  -1.321  1.00  0.00     0.220 C 
ATOM      6  H   UNL     1       3.155   0.955  -0.418  1.00  0.00     0.163 HD
BRANCH   5   7
ATOM      7  C   UNL     1       2.591  -1.544  -0.394  1.00  0.00     0.100 C 
BRANCH   7   8
ATOM      8  C   UNL     1       4.089  -1.857  -0.435  1.00  0.00     0.020 C 
BRANCH   8   9
ATOM      9  C   UNL     1       5.130  -0.743  -0.409  1.00  0.00     0.101 C 
BRANCH   9  10
ATOM     10  C   UNL     1       5.769  -0.246   0.894  1.00  0.00     0.224 C 
ATOM     11  O   UNL     1       6.927  -0.569   1.174  1.00  0.00    -0.275 OA
ATOM     12  N   UNL     1       5.212   0.801   1.579  1.00  0.00    -0.324 N 
ATOM     13  H   UNL     1       5.842   1.514   1.830  1.00  0.00     0.170 HD
BRANCH  12  14
ATOM     14  C   UNL     1       3.887   1.015   1.979  1.00  0.00     0.077 A 
ATOM     15  C   UNL     1       3.396   2.322   1.958  1.00  0.00     0.029 A 
ATOM     16  C   UNL     1       3.062  -0.004   2.449  1.00  0.00     0.146 A 
ATOM     17  C   UNL     1       2.046   2.567   2.232  1.00  0.00     0.002 A 
ATOM     18  C   UNL     1       1.723   0.239   2.754  1.00  0.00     0.041 A 
ATOM     19  F   UNL     1       3.545  -1.245   2.606  1.00  0.00    -0.205 F 
ATOM     20  C   UNL     1       1.202   1.521   2.604  1.00  0.00     0.003 A 
ENDBRANCH  12  14
ENDBRANCH   9  10
ENDBRANCH   8   9
ENDBRANCH   7   8
ENDBRANCH   5   7
ENDBRANCH   2   3
ENDBRANCH   1   2
BRANCH   1  21
ATOM     21  C   UNL     1       4.104   3.367  -1.537  1.00  0.00     0.002 C 
BRANCH  21  22
ATOM     22  C   UNL     1       4.670   3.257  -2.954  1.00  0.00     0.002 C 
BRANCH  22  23
ATOM     23  C   UNL     1       4.071   4.236  -3.965  1.00  0.00     0.021 C 
BRANCH  23  24
ATOM     24  C   UNL     1       4.171   5.706  -3.571  1.00  0.00     0.116 C 
BRANCH  24  25
ATOM     25  N   UNL     1       5.544   6.186  -3.563  1.00  0.00    -0.352 N 
ATOM     26  C   UNL     1       6.104   7.225  -4.268  1.00  0.00     0.251 C 
ATOM     27  H   UNL     1       6.159   5.697  -2.971  1.00  0.00     0.163 HD
ATOM     28  O   UNL     1       7.318   7.381  -4.287  1.00  0.00    -0.269 OA
BRANCH  26  29
ATOM     29  C   UNL     1       5.230   8.144  -5.029  1.00  0.00     0.039 A 
ATOM     30  C   UNL     1       5.556   8.442  -6.354  1.00  0.00     0.014 A 
ATOM     31  C   UNL     1       4.083   8.690  -4.445  1.00  0.00     0.014 A 
ATOM     32  C   UNL     1       4.688   9.223  -7.120  1.00  0.00     0.010 A 
ATOM     33  C   UNL     1       3.184   9.408  -5.229  1.00  0.00     0.010 A 
ATOM     34  C   UNL     1       3.471   9.671  -6.577  1.00  0.00    -0.014 A 
BRANCH  34  35
ATOM     35  C   UNL     1       2.467  10.371  -7.418  1.00  0.00     0.031 A 
ATOM     36  C   UNL     1       2.076  11.790  -7.124  1.00  0.00     0.074 A 
ATOM     37  C   UNL     1       1.851   9.695  -8.407  1.00  0.00     0.049 A 
ATOM     38  N   UNL     1       1.174  12.536  -7.709  1.00  0.00    -0.248 NA
ATOM     39  C   UNL     1       2.774  12.452  -6.011  1.00  0.00     0.031 C 
ATOM     40  C   UNL     1       2.112   8.299  -8.761  1.00  0.00     0.029 A 
ATOM     41  N   UNL     1       0.872  10.084  -9.288  1.00  0.00    -0.354 N 
ATOM     42  C   UNL     1       1.188  13.747  -7.032  1.00  0.00     0.074 A 
ATOM     43  C   UNL     1       2.152  13.621  -5.960  1.00  0.00     0.031 C 
ATOM     44  C   UNL     1       1.338   7.958  -9.801  1.00  0.00     0.029 A 
ATOM     45  C   UNL     1       0.490   9.092 -10.158  1.00  0.00     0.049 A 
ATOM     46  H   UNL     1       0.482  10.988  -9.296  1.00  0.00     0.167 HD
ATOM     47  C   UNL     1       0.476  14.868  -7.297  1.00  0.00     0.037 A 
ATOM     48  C   UNL     1      -0.445   9.088 -11.128  1.00  0.00     0.037 A 
ATOM     49  C   UNL     1      -0.468  14.991  -8.378  1.00  0.00     0.049 A 
ATOM     50  C   UNL     1      -1.246  10.334 -11.385  1.00  0.00     0.074 A 
ATOM     51  C   UNL     1      -1.179  16.110  -8.774  1.00  0.00     0.029 A 
ATOM     52  N   UNL     1      -0.841  13.959  -9.227  1.00  0.00    -0.354 N 
ATOM     53  N   UNL     1      -1.172  11.497 -10.786  1.00  0.00    -0.248 NA
ATOM     54  C   UNL     1      -2.259  10.268 -12.447  1.00  0.00     0.031 C 
ATOM     55  C   UNL     1      -2.032  15.739  -9.816  1.00  0.00     0.029 A 
ATOM     56  C   UNL     1      -1.806  14.405 -10.117  1.00  0.00     0.049 A 
ATOM     57  H   UNL     1      -0.474  13.046  -9.202  1.00  0.00     0.167 HD
ATOM     58  C   UNL     1      -2.116  12.306 -11.404  1.00  0.00     0.074 A 
ATOM     59  C   UNL     1      -2.740  11.505 -12.436  1.00  0.00     0.031 C 
ATOM     60  C   UNL     1      -2.432  13.597 -11.135  1.00  0.00     0.037 A 
BRANCH  47  61
ATOM     61  C   UNL     1       0.682  16.058  -6.404  1.00  0.00     0.064 A 
ATOM     62  C   UNL     1      -0.357  16.515  -5.578  1.00  0.00     0.173 A 
ATOM     63  C   UNL     1       1.883  16.785  -6.407  1.00  0.00     0.173 A 
ATOM     64  F   UNL     1      -1.529  15.863  -5.541  1.00  0.00    -0.203 F 
ATOM     65  C   UNL     1      -0.204  17.658  -4.798  1.00  0.00     0.198 A 
ATOM     66  C   UNL     1       2.043  17.908  -5.599  1.00  0.00     0.198 A 
ATOM     67  F   UNL     1       2.911  16.387  -7.171  1.00  0.00    -0.203 F 
ATOM     68  F   UNL     1      -1.222  18.092  -4.042  1.00  0.00    -0.200 F 
ATOM     69  C   UNL     1       0.997  18.349  -4.803  1.00  0.00     0.200 A 
ATOM     70  F   UNL     1       3.215  18.559  -5.586  1.00  0.00    -0.200 F 
ATOM     71  F   UNL     1       1.149  19.439  -4.038  1.00  0.00    -0.200 F 
ENDBRANCH  47  61
BRANCH  48  72
ATOM     72  C   UNL     1      -0.638   7.859 -11.939  1.00  0.00     0.064 A 
ATOM     73  C   UNL     1      -1.186   6.694 -11.380  1.00  0.00     0.173 A 
ATOM     74  C   UNL     1      -0.206   7.804 -13.270  1.00  0.00     0.173 A 
ATOM     75  F   UNL     1      -1.609   6.694 -10.107  1.00  0.00    -0.203 F 
ATOM     76  C   UNL     1      -1.260   5.511 -12.113  1.00  0.00     0.198 A 
ATOM     77  C   UNL     1      -0.305   6.627 -14.010  1.00  0.00     0.198 A 
ATOM     78  F   UNL     1       0.305   8.898 -13.853  1.00  0.00    -0.203 F 
ATOM     79  F   UNL     1      -1.739   4.399 -11.539  1.00  0.00    -0.200 F 
ATOM     80  C   UNL     1      -0.819   5.478 -13.427  1.00  0.00     0.200 A 
ATOM     81  F   UNL     1       0.104   6.604 -15.286  1.00  0.00    -0.200 F 
ATOM     82  F   UNL     1      -0.886   4.340 -14.130  1.00  0.00    -0.200 F 
ENDBRANCH  48  72
BRANCH  60  83
ATOM     83  C   UNL     1      -3.505  14.243 -11.963  1.00  0.00     0.064 A 
ATOM     84  C   UNL     1      -3.188  15.274 -12.861  1.00  0.00     0.173 A 
ATOM     85  C   UNL     1      -4.857  13.913 -11.793  1.00  0.00     0.173 A 
ATOM     86  F   UNL     1      -1.910  15.634 -13.054  1.00  0.00    -0.203 F 
ATOM     87  C   UNL     1      -4.187  15.969 -13.537  1.00  0.00     0.198 A 
ATOM     88  C   UNL     1      -5.852  14.590 -12.494  1.00  0.00     0.198 A 
ATOM     89  F   UNL     1      -5.211  12.926 -10.957  1.00  0.00    -0.203 F 
ATOM     90  F   UNL     1      -3.862  16.982 -14.352  1.00  0.00    -0.200 F 
ATOM     91  C   UNL     1      -5.518  15.626 -13.354  1.00  0.00     0.200 A 
ATOM     92  F   UNL     1      -7.136  14.242 -12.334  1.00  0.00    -0.200 F 
ATOM     93  F   UNL     1      -6.479  16.294 -14.006  1.00  0.00    -0.200 F 
ENDBRANCH  60  83
ENDBRANCH  34  35
ENDBRANCH  26  29
ENDBRANCH  24  25
ENDBRANCH  23  24
ENDBRANCH  22  23
ENDBRANCH  21  22
ENDBRANCH   1  21
TORSDOF 17
