REMARK SMILES Cc1ccc(C)c(NC(=O)/C=C/C(=O)NCCCCCCNC(=O)c2ccc(-c3c4nc(c(-c5c(F)c(F)c(F)c(F)c5F)c5ccc([nH]5)c(-c5c(F)c(F)c(F)c(F)c5F)c5nc(c(-c6c(F)c(F)c(F)c(F)c6F)c6ccc3[nH]6)C=C5)C=C4)cc2)c1
REMARK SMILES IDX 18 1 17 2 16 3 15 4 13 5 14 6 12 8 11 9 9 10 8 11 10 13 7 14
REMARK SMILES IDX 1 15 2 16 3 17 88 18 4 19 5 20 6 21 19 22 20 23 21 24 22 25
REMARK SMILES IDX 23 26 24 28 25 29 26 30 87 31 27 32 86 33 28 34 29 35 30 36
REMARK SMILES IDX 80 37 31 38 85 39 79 40 81 41 32 42 84 43 78 44 77 45 33 47
REMARK SMILES IDX 65 48 45 49 64 50 46 51 49 52 63 53 82 54 47 55 48 56 62 58
REMARK SMILES IDX 83 59 50 60 34 61 35 62 43 63 36 64 37 65 41 66 44 67 38 68
REMARK SMILES IDX 39 69 42 70 40 71 66 72 67 73 75 74 68 75 69 76 73 77 76 78
REMARK SMILES IDX 70 79 71 80 74 81 72 82 51 83 52 84 60 85 53 86 54 87 58 88
REMARK SMILES IDX 61 89 55 90 56 91 59 92 57 93
REMARK H PARENT 15 7 8 12 22 27 81 46 49 57
REMARK Flexibility Score: inf
ROOT
ATOM      1  C   UNL     1      -8.191  -1.451  -0.861  1.00  0.00     0.002 C 
ENDROOT
BRANCH   1   2
ATOM      2  C   UNL     1      -7.306  -0.204  -0.929  1.00  0.00     0.021 C 
BRANCH   2   3
ATOM      3  C   UNL     1      -6.388   0.026   0.269  1.00  0.00     0.116 C 
BRANCH   3   4
ATOM      4  N   UNL     1      -5.379  -1.004   0.409  1.00  0.00    -0.353 N 
ATOM      5  C   UNL     1      -4.178  -0.955   1.046  1.00  0.00     0.244 C 
ATOM      6  O   UNL     1      -3.644  -2.003   1.401  1.00  0.00    -0.270 OA
ATOM      7  H   UNL     1      -5.593  -1.865  -0.019  1.00  0.00     0.163 HD
BRANCH   5   8
ATOM      8  C   UNL     1      -3.477   0.324   1.291  1.00  0.00     0.077 C 
ATOM      9  C   UNL     1      -3.423   1.273   0.348  1.00  0.00     0.077 C 
BRANCH   9  10
ATOM     10  C   UNL     1      -2.486   2.396   0.432  1.00  0.00     0.248 C 
ATOM     11  N   UNL     1      -1.158   2.214   0.180  1.00  0.00    -0.322 N 
ATOM     12  H   UNL     1      -0.637   3.047   0.229  1.00  0.00     0.170 HD
ATOM     13  O   UNL     1      -2.921   3.508   0.729  1.00  0.00    -0.270 OA
BRANCH  11  14
ATOM     14  C   UNL     1      -0.371   1.083  -0.137  1.00  0.00     0.044 A 
ATOM     15  C   UNL     1       3.325   0.258   0.412  1.00  0.00     0.044 C 
ATOM     16  C   UNL     1       1.861   0.104   0.136  1.00  0.00    -0.049 A 
ATOM     17  C   UNL     1       1.350  -1.141  -0.218  1.00  0.00     0.004 A 
ATOM     18  C   UNL     1       0.983   1.192   0.227  1.00  0.00     0.029 A 
ATOM     19  C   UNL     1       0.040  -1.242  -0.673  1.00  0.00     0.006 A 
ATOM     20  C   UNL     1      -0.786  -0.106  -0.756  1.00  0.00    -0.027 A 
ATOM     21  C   UNL     1      -1.952  -0.233  -1.697  1.00  0.00     0.046 C 
ENDBRANCH  11  14
ENDBRANCH   9  10
ENDBRANCH   5   8
ENDBRANCH   3   4
ENDBRANCH   2   3
ENDBRANCH   1   2
BRANCH   1  22
ATOM     22  C   UNL     1      -9.014  -1.687   0.412  1.00  0.00     0.002 C 
BRANCH  22  23
ATOM     23  C   UNL     1      -9.765  -0.536   1.104  1.00  0.00     0.021 C 
BRANCH  23  24
ATOM     24  C   UNL     1     -10.895   0.192   0.379  1.00  0.00     0.116 C 
BRANCH  24  25
ATOM     25  N   UNL     1     -11.908  -0.698  -0.198  1.00  0.00    -0.352 N 
ATOM     26  C   UNL     1     -12.578  -0.725  -1.406  1.00  0.00     0.251 C 
ATOM     27  H   UNL     1     -12.165  -1.434   0.404  1.00  0.00     0.163 HD
ATOM     28  O   UNL     1     -13.607  -1.401  -1.503  1.00  0.00    -0.269 OA
BRANCH  26  29
ATOM     29  C   UNL     1     -12.095   0.019  -2.589  1.00  0.00     0.039 A 
ATOM     30  C   UNL     1     -12.812   0.122  -3.784  1.00  0.00     0.014 A 
ATOM     31  C   UNL     1     -10.832   0.577  -2.541  1.00  0.00     0.014 A 
ATOM     32  C   UNL     1     -12.175   0.694  -4.891  1.00  0.00     0.010 A 
ATOM     33  C   UNL     1     -10.389   1.462  -3.465  1.00  0.00     0.010 A 
ATOM     34  C   UNL     1     -10.928   1.312  -4.713  1.00  0.00    -0.014 A 
BRANCH  34  35
ATOM     35  C   UNL     1     -10.099   1.817  -5.786  1.00  0.00     0.031 A 
ATOM     36  C   UNL     1     -10.672   2.977  -6.475  1.00  0.00     0.074 A 
ATOM     37  C   UNL     1      -8.799   1.487  -5.968  1.00  0.00     0.049 A 
ATOM     38  N   UNL     1     -11.130   3.015  -7.676  1.00  0.00    -0.248 NA
ATOM     39  C   UNL     1     -10.870   4.204  -5.693  1.00  0.00     0.031 C 
ATOM     40  C   UNL     1      -7.920   0.658  -5.130  1.00  0.00     0.029 A 
ATOM     41  N   UNL     1      -7.953   1.933  -6.938  1.00  0.00    -0.354 N 
ATOM     42  C   UNL     1     -11.521   4.328  -7.873  1.00  0.00     0.074 A 
ATOM     43  C   UNL     1     -11.509   4.966  -6.580  1.00  0.00     0.031 C 
ATOM     44  C   UNL     1      -6.636   0.811  -5.530  1.00  0.00     0.029 A 
ATOM     45  C   UNL     1      -6.617   1.619  -6.737  1.00  0.00     0.049 A 
ATOM     46  H   UNL     1      -8.266   2.439  -7.722  1.00  0.00     0.167 HD
ATOM     47  C   UNL     1     -11.586   4.854  -9.122  1.00  0.00     0.037 A 
ATOM     48  C   UNL     1      -5.574   2.026  -7.500  1.00  0.00     0.037 A 
ATOM     49  C   UNL     1     -11.547   3.835 -10.140  1.00  0.00     0.049 A 
ATOM     50  C   UNL     1      -6.123   2.437  -8.818  1.00  0.00     0.074 A 
ATOM     51  C   UNL     1     -12.329   2.732 -10.428  1.00  0.00     0.029 A 
ATOM     52  N   UNL     1     -10.359   3.626 -10.798  1.00  0.00    -0.354 N 
ATOM     53  N   UNL     1      -6.651   1.614  -9.681  1.00  0.00    -0.248 NA
ATOM     54  C   UNL     1      -6.463   3.839  -9.009  1.00  0.00     0.031 C 
ATOM     55  C   UNL     1     -11.410   1.718 -10.834  1.00  0.00     0.029 A 
ATOM     56  C   UNL     1     -10.129   2.272 -10.815  1.00  0.00     0.049 A 
ATOM     57  H   UNL     1      -9.779   4.319 -11.187  1.00  0.00     0.167 HD
ATOM     58  C   UNL     1      -7.708   2.318 -10.240  1.00  0.00     0.074 A 
ATOM     59  C   UNL     1      -7.469   3.711  -9.877  1.00  0.00     0.031 C 
ATOM     60  C   UNL     1      -8.818   1.671 -10.701  1.00  0.00     0.037 A 
BRANCH  47  61
ATOM     61  C   UNL     1     -11.339   6.303  -9.402  1.00  0.00     0.064 A 
ATOM     62  C   UNL     1     -11.776   6.860 -10.613  1.00  0.00     0.173 A 
ATOM     63  C   UNL     1     -10.473   7.103  -8.625  1.00  0.00     0.173 A 
ATOM     64  F   UNL     1     -12.559   6.154 -11.442  1.00  0.00    -0.203 F 
ATOM     65  C   UNL     1     -11.353   8.123 -11.028  1.00  0.00     0.198 A 
ATOM     66  C   UNL     1     -10.104   8.386  -9.011  1.00  0.00     0.198 A 
ATOM     67  F   UNL     1      -9.870   6.630  -7.525  1.00  0.00    -0.203 F 
ATOM     68  F   UNL     1     -11.706   8.577 -12.238  1.00  0.00    -0.200 F 
ATOM     69  C   UNL     1     -10.523   8.888 -10.225  1.00  0.00     0.200 A 
ATOM     70  F   UNL     1      -9.279   9.099  -8.230  1.00  0.00    -0.200 F 
ATOM     71  F   UNL     1     -10.085  10.083 -10.641  1.00  0.00    -0.200 F 
ENDBRANCH  47  61
BRANCH  48  72
ATOM     72  C   UNL     1      -4.182   2.328  -7.094  1.00  0.00     0.064 A 
ATOM     73  C   UNL     1      -3.145   2.403  -8.039  1.00  0.00     0.173 A 
ATOM     74  C   UNL     1      -3.895   2.825  -5.808  1.00  0.00     0.173 A 
ATOM     75  F   UNL     1      -3.347   1.985  -9.296  1.00  0.00    -0.203 F 
ATOM     76  C   UNL     1      -1.907   2.974  -7.725  1.00  0.00     0.198 A 
ATOM     77  C   UNL     1      -2.658   3.389  -5.494  1.00  0.00     0.198 A 
ATOM     78  F   UNL     1      -4.841   2.859  -4.858  1.00  0.00    -0.203 F 
ATOM     79  F   UNL     1      -0.963   3.087  -8.670  1.00  0.00    -0.200 F 
ATOM     80  C   UNL     1      -1.669   3.478  -6.457  1.00  0.00     0.200 A 
ATOM     81  F   UNL     1      -2.452   3.901  -4.273  1.00  0.00    -0.200 F 
ATOM     82  F   UNL     1      -0.507   4.084  -6.174  1.00  0.00    -0.200 F 
ENDBRANCH  48  72
BRANCH  60  83
ATOM     83  C   UNL     1      -8.730   0.178 -10.867  1.00  0.00     0.064 A 
ATOM     84  C   UNL     1      -8.511  -0.722  -9.808  1.00  0.00     0.173 A 
ATOM     85  C   UNL     1      -8.990  -0.371 -12.129  1.00  0.00     0.173 A 
ATOM     86  F   UNL     1      -8.356  -0.286  -8.552  1.00  0.00    -0.203 F 
ATOM     87  C   UNL     1      -8.497  -2.100 -10.018  1.00  0.00     0.198 A 
ATOM     88  C   UNL     1      -9.014  -1.750 -12.329  1.00  0.00     0.198 A 
ATOM     89  F   UNL     1      -9.262   0.434 -13.169  1.00  0.00    -0.203 F 
ATOM     90  F   UNL     1      -8.263  -2.934  -8.993  1.00  0.00    -0.200 F 
ATOM     91  C   UNL     1      -8.754  -2.613 -11.277  1.00  0.00     0.200 A 
ATOM     92  F   UNL     1      -9.311  -2.242 -13.540  1.00  0.00    -0.200 F 
ATOM     93  F   UNL     1      -8.776  -3.939 -11.473  1.00  0.00    -0.200 F 
ENDBRANCH  60  83
ENDBRANCH  34  35
ENDBRANCH  26  29
ENDBRANCH  24  25
ENDBRANCH  23  24
ENDBRANCH  22  23
ENDBRANCH   1  22
TORSDOF 15
