REMARK SMILES Cc1nc(C[NH2+][C@@H](C(=O)NCCCCCCNC(=O)c2ccc(-c3c4nc(c(-c5c(F)c(F)c(F)c(F)c5F)c5ccc([nH]5)c(-c5c(F)c(F)c(F)c(F)c5F)c5nc(c(-c6c(F)c(F)c(F)c(F)c6F)c6ccc3[nH]6)C=C5)C=C4)cc2)c2ccccc2)sc1C
REMARK SMILES IDX 13 1 12 2 11 3 10 4 8 5 9 6 7 8 6 9 5 12 4 13 1 14 2 15 3 16
REMARK SMILES IDX 90 17 89 18 91 19 83 20 84 21 88 22 85 23 87 24 86 25 14 26
REMARK SMILES IDX 15 27 16 28 17 29 18 30 19 32 20 33 21 34 82 35 22 36 81 37
REMARK SMILES IDX 23 38 24 39 25 40 75 41 26 42 80 43 74 44 76 45 27 46 79 47
REMARK SMILES IDX 73 48 72 49 28 51 60 52 40 53 59 54 41 55 44 56 58 57 77 58
REMARK SMILES IDX 42 59 43 60 57 62 78 63 45 64 29 65 30 66 38 67 31 68 32 69
REMARK SMILES IDX 36 70 39 71 33 72 34 73 37 74 35 75 61 76 62 77 70 78 63 79
REMARK SMILES IDX 64 80 68 81 71 82 65 83 66 84 69 85 67 86 46 87 47 88 55 89
REMARK SMILES IDX 48 90 49 91 53 92 56 93 50 94 51 95 54 96 52 97
REMARK H PARENT 10 7 6 10 6 11 17 31 76 50 44 61
REMARK Flexibility Score: inf
ROOT
ATOM      1  C   UNL     1      -5.532   1.041  -1.476  1.00  0.00     0.002 C 
ENDROOT
BRANCH   1   2
ATOM      2  C   UNL     1      -4.179   1.674  -1.137  1.00  0.00     0.021 C 
BRANCH   2   3
ATOM      3  C   UNL     1      -4.222   3.197  -0.923  1.00  0.00     0.116 C 
BRANCH   3   4
ATOM      4  N   UNL     1      -4.683   3.478   0.423  1.00  0.00    -0.351 N 
ATOM      5  C   UNL     1      -3.972   3.663   1.577  1.00  0.00     0.283 C 
ATOM      6  O   UNL     1      -4.551   3.321   2.614  1.00  0.00    -0.268 OA
ATOM      7  H   UNL     1      -5.660   3.546   0.521  1.00  0.00     0.163 HD
BRANCH   5   8
ATOM      8  C   UNL     1      -2.526   4.275   1.579  1.00  0.00     0.304 C 
BRANCH   8   9
ATOM      9  N   UNL     1      -1.492   3.220   1.744  1.00  0.00    -0.326 N 
ATOM     10  H   UNL     1      -0.660   3.639   2.160  1.00  0.00     0.347 HD
ATOM     11  H   UNL     1      -1.881   2.493   2.344  1.00  0.00     0.347 HD
BRANCH   9  12
ATOM     12  C   UNL     1      -1.123   2.603   0.477  1.00  0.00     0.330 C 
BRANCH  12  13
ATOM     13  C   UNL     1      -0.202   1.418   0.565  1.00  0.00     0.148 A 
ATOM     14  C   UNL     1       3.060   0.037  -0.028  1.00  0.00     0.068 C 
ATOM     15  C   UNL     1       1.606   0.175   0.245  1.00  0.00     0.052 A 
ATOM     16  N   UNL     1       1.095   1.458   0.351  1.00  0.00    -0.240 NA
ATOM     17  C   UNL     1       0.668  -0.838   0.364  1.00  0.00     0.025 A 
ATOM     18  S   UNL     1      -0.864  -0.164   0.729  1.00  0.00    -0.118 S 
ATOM     19  C   UNL     1       0.837  -2.309   0.216  1.00  0.00     0.058 C 
ENDBRANCH  12  13
ENDBRANCH   9  12
ENDBRANCH   8   9
BRANCH   8  20
ATOM     20  C   UNL     1      -2.390   5.300   2.712  1.00  0.00     0.019 A 
ATOM     21  C   UNL     1      -2.492   4.907   4.061  1.00  0.00     0.010 A 
ATOM     22  C   UNL     1      -2.184   6.661   2.436  1.00  0.00     0.010 A 
ATOM     23  C   UNL     1      -2.416   5.841   5.095  1.00  0.00     0.001 A 
ATOM     24  C   UNL     1      -2.101   7.596   3.475  1.00  0.00     0.001 A 
ATOM     25  C   UNL     1      -2.222   7.186   4.802  1.00  0.00     0.000 A 
ENDBRANCH   8  20
ENDBRANCH   5   8
ENDBRANCH   3   4
ENDBRANCH   2   3
ENDBRANCH   1   2
BRANCH   1  26
ATOM     26  C   UNL     1      -6.051   1.346  -2.883  1.00  0.00     0.002 C 
BRANCH  26  27
ATOM     27  C   UNL     1      -5.090   1.004  -4.026  1.00  0.00     0.021 C 
BRANCH  27  28
ATOM     28  C   UNL     1      -4.567  -0.431  -4.027  1.00  0.00     0.116 C 
BRANCH  28  29
ATOM     29  N   UNL     1      -5.632  -1.405  -4.199  1.00  0.00    -0.352 N 
ATOM     30  C   UNL     1      -5.841  -2.303  -5.216  1.00  0.00     0.251 C 
ATOM     31  H   UNL     1      -6.304  -1.423  -3.480  1.00  0.00     0.163 HD
ATOM     32  O   UNL     1      -6.903  -2.910  -5.298  1.00  0.00    -0.269 OA
BRANCH  30  33
ATOM     33  C   UNL     1      -4.788  -2.533  -6.227  1.00  0.00     0.039 A 
ATOM     34  C   UNL     1      -5.143  -2.564  -7.579  1.00  0.00     0.014 A 
ATOM     35  C   UNL     1      -3.459  -2.739  -5.845  1.00  0.00     0.014 A 
ATOM     36  C   UNL     1      -4.157  -2.744  -8.551  1.00  0.00     0.010 A 
ATOM     37  C   UNL     1      -2.468  -2.853  -6.816  1.00  0.00     0.010 A 
ATOM     38  C   UNL     1      -2.808  -2.861  -8.178  1.00  0.00    -0.014 A 
BRANCH  38  39
ATOM     39  C   UNL     1      -1.737  -2.997  -9.197  1.00  0.00     0.031 A 
ATOM     40  C   UNL     1      -0.935  -4.264  -9.284  1.00  0.00     0.074 A 
ATOM     41  C   UNL     1      -1.445  -1.956 -10.000  1.00  0.00     0.049 A 
ATOM     42  N   UNL     1       0.082  -4.551 -10.057  1.00  0.00    -0.248 NA
ATOM     43  C   UNL     1      -1.308  -5.345  -8.358  1.00  0.00     0.031 C 
ATOM     44  C   UNL     1      -2.126  -0.661  -9.986  1.00  0.00     0.029 A 
ATOM     45  N   UNL     1      -0.492  -1.821 -10.978  1.00  0.00    -0.354 N 
ATOM     46  C   UNL     1       0.480  -5.832  -9.699  1.00  0.00     0.074 A 
ATOM     47  C   UNL     1      -0.373  -6.249  -8.607  1.00  0.00     0.031 C 
ATOM     48  C   UNL     1      -1.588   0.128 -10.930  1.00  0.00     0.029 A 
ATOM     49  C   UNL     1      -0.501  -0.591 -11.589  1.00  0.00     0.049 A 
ATOM     50  H   UNL     1       0.139  -2.537 -11.219  1.00  0.00     0.167 HD
ATOM     51  C   UNL     1       1.454  -6.599 -10.245  1.00  0.00     0.037 A 
ATOM     52  C   UNL     1       0.281  -0.100 -12.569  1.00  0.00     0.037 A 
ATOM     53  C   UNL     1       2.280  -6.192 -11.352  1.00  0.00     0.049 A 
ATOM     54  C   UNL     1       1.365  -0.967 -13.149  1.00  0.00     0.074 A 
ATOM     55  C   UNL     1       3.243  -6.922 -12.026  1.00  0.00     0.029 A 
ATOM     56  N   UNL     1       2.240  -4.938 -11.946  1.00  0.00    -0.354 N 
ATOM     57  N   UNL     1       1.685  -2.202 -12.851  1.00  0.00    -0.248 NA
ATOM     58  C   UNL     1       2.194  -0.369 -14.205  1.00  0.00     0.031 C 
ATOM     59  C   UNL     1       3.818  -6.095 -12.998  1.00  0.00     0.029 A 
ATOM     60  C   UNL     1       3.181  -4.865 -12.961  1.00  0.00     0.049 A 
ATOM     61  H   UNL     1       1.633  -4.208 -11.685  1.00  0.00     0.167 HD
ATOM     62  C   UNL     1       2.730  -2.541 -13.701  1.00  0.00     0.074 A 
ATOM     63  C   UNL     1       2.983  -1.382 -14.533  1.00  0.00     0.031 C 
ATOM     64  C   UNL     1       3.415  -3.707 -13.785  1.00  0.00     0.037 A 
BRANCH  51  65
ATOM     65  C   UNL     1       1.680  -7.957  -9.648  1.00  0.00     0.064 A 
ATOM     66  C   UNL     1       0.745  -8.993  -9.796  1.00  0.00     0.173 A 
ATOM     67  C   UNL     1       2.855  -8.233  -8.932  1.00  0.00     0.173 A 
ATOM     68  F   UNL     1      -0.400  -8.779 -10.461  1.00  0.00    -0.203 F 
ATOM     69  C   UNL     1       0.961 -10.242  -9.219  1.00  0.00     0.198 A 
ATOM     70  C   UNL     1       3.082  -9.492  -8.383  1.00  0.00     0.198 A 
ATOM     71  F   UNL     1       3.785  -7.281  -8.766  1.00  0.00    -0.203 F 
ATOM     72  F   UNL     1       0.027 -11.198  -9.326  1.00  0.00    -0.200 F 
ATOM     73  C   UNL     1       2.131 -10.492  -8.518  1.00  0.00     0.200 A 
ATOM     74  F   UNL     1       4.218  -9.736  -7.715  1.00  0.00    -0.200 F 
ATOM     75  F   UNL     1       2.337 -11.695  -7.964  1.00  0.00    -0.200 F 
ENDBRANCH  51  65
BRANCH  52  76
ATOM     76  C   UNL     1       0.042   1.269 -13.091  1.00  0.00     0.064 A 
ATOM     77  C   UNL     1      -0.490   1.460 -14.375  1.00  0.00     0.173 A 
ATOM     78  C   UNL     1       0.331   2.409 -12.328  1.00  0.00     0.173 A 
ATOM     79  F   UNL     1      -0.763   0.399 -15.149  1.00  0.00    -0.203 F 
ATOM     80  C   UNL     1      -0.709   2.739 -14.881  1.00  0.00     0.198 A 
ATOM     81  C   UNL     1       0.088   3.688 -12.826  1.00  0.00     0.198 A 
ATOM     82  F   UNL     1       0.838   2.280 -11.093  1.00  0.00    -0.203 F 
ATOM     83  F   UNL     1      -1.182   2.892 -16.125  1.00  0.00    -0.200 F 
ATOM     84  C   UNL     1      -0.425   3.852 -14.104  1.00  0.00     0.200 A 
ATOM     85  F   UNL     1       0.351   4.761 -12.068  1.00  0.00    -0.200 F 
ATOM     86  F   UNL     1      -0.641   5.082 -14.589  1.00  0.00    -0.200 F 
ENDBRANCH  52  76
BRANCH  64  87
ATOM     87  C   UNL     1       4.480  -3.803 -14.838  1.00  0.00     0.064 A 
ATOM     88  C   UNL     1       5.702  -3.126 -14.712  1.00  0.00     0.173 A 
ATOM     89  C   UNL     1       4.289  -4.611 -15.969  1.00  0.00     0.173 A 
ATOM     90  F   UNL     1       5.925  -2.327 -13.658  1.00  0.00    -0.203 F 
ATOM     91  C   UNL     1       6.685  -3.237 -15.692  1.00  0.00     0.198 A 
ATOM     92  C   UNL     1       5.285  -4.742 -16.932  1.00  0.00     0.198 A 
ATOM     93  F   UNL     1       3.140  -5.283 -16.133  1.00  0.00    -0.203 F 
ATOM     94  F   UNL     1       7.827  -2.546 -15.574  1.00  0.00    -0.200 F 
ATOM     95  C   UNL     1       6.479  -4.050 -16.797  1.00  0.00     0.200 A 
ATOM     96  F   UNL     1       5.089  -5.538 -17.993  1.00  0.00    -0.200 F 
ATOM     97  F   UNL     1       7.429  -4.161 -17.735  1.00  0.00    -0.200 F 
ENDBRANCH  64  87
ENDBRANCH  38  39
ENDBRANCH  30  33
ENDBRANCH  28  29
ENDBRANCH  27  28
ENDBRANCH  26  27
ENDBRANCH   1  26
TORSDOF 17
