REMARK SMILES NS(=O)(=O)c1ccc(-c2coc(=O)n2-c2ccc(C(=O)NCCCCCCNC(=O)c3ccc(-c4c5nc(c(-c6c(F)c(F)c(F)c(F)c6F)c6ccc([nH]6)c(-c6c(F)c(F)c(F)c(F)c6F)c6nc(c(-c7c(F)c(F)c(F)c(F)c7F)c7ccc4[nH]7)C=C6)C=C5)cc3)cc2)cc1
REMARK SMILES IDX 23 1 22 2 21 3 19 4 20 5 18 7 15 8 16 9 95 10 17 11 94 12
REMARK SMILES IDX 14 13 9 14 10 15 11 16 12 17 13 18 8 19 5 20 6 21 97 22 7 23
REMARK SMILES IDX 96 24 2 25 3 26 4 27 1 28 24 31 25 32 26 33 27 34 28 35
REMARK SMILES IDX 29 36 30 38 31 39 32 40 93 41 33 42 92 43 34 44 35 45 36 46
REMARK SMILES IDX 86 47 37 48 91 49 85 50 87 51 38 52 90 53 84 54 83 55 39 57
REMARK SMILES IDX 71 58 51 59 70 60 52 61 55 62 69 63 88 64 53 65 54 66 68 68
REMARK SMILES IDX 89 69 56 70 40 71 41 72 49 73 42 74 43 75 47 76 50 77 44 78
REMARK SMILES IDX 45 79 48 80 46 81 72 82 73 83 81 84 74 85 75 86 79 87 82 88
REMARK SMILES IDX 76 89 77 90 80 91 78 92 57 93 58 94 66 95 59 96 60 97 64 98
REMARK SMILES IDX 67 99 61 100 62 101 65 102 63 103
REMARK H PARENT 21 6 1 29 1 30 28 37 87 56 55 67
REMARK Flexibility Score: inf
ROOT
ATOM      1  C   UNL     1       8.973   3.914   1.572  1.00  0.00     0.021 C 
ENDROOT
BRANCH   1   2
ATOM      2  C   UNL     1       7.885   2.899   1.930  1.00  0.00     0.116 C 
BRANCH   2   3
ATOM      3  N   UNL     1       8.078   2.434   3.289  1.00  0.00    -0.352 N 
ATOM      4  C   UNL     1       7.470   2.733   4.479  1.00  0.00     0.251 C 
ATOM      5  O   UNL     1       7.908   2.182   5.489  1.00  0.00    -0.269 OA
ATOM      6  H   UNL     1       8.795   1.764   3.374  1.00  0.00     0.163 HD
BRANCH   4   7
ATOM      7  C   UNL     1       6.272   3.614   4.594  1.00  0.00     0.039 A 
ATOM      8  C   UNL     1       3.839   4.997   4.840  1.00  0.00     0.053 A 
ATOM      9  C   UNL     1       4.251   4.138   5.857  1.00  0.00     0.028 A 
ATOM     10  C   UNL     1       4.679   5.233   3.751  1.00  0.00     0.028 A 
ATOM     11  C   UNL     1       5.444   3.422   5.713  1.00  0.00     0.016 A 
ATOM     12  C   UNL     1       5.919   4.598   3.671  1.00  0.00     0.016 A 
BRANCH   8  13
ATOM     13  N   UNL     1       2.600   5.651   4.902  1.00  0.00    -0.242 N 
ATOM     14  C   UNL     1       1.589   5.644   3.985  1.00  0.00     0.095 A 
ATOM     15  C   UNL     1       0.734   6.578   4.384  1.00  0.00     0.228 A 
ATOM     16  O   UNL     1       1.105   7.240   5.553  1.00  0.00    -0.415 OA
ATOM     17  C   UNL     1       2.308   6.610   5.868  1.00  0.00     0.424 A 
ATOM     18  O   UNL     1       2.983   6.925   6.839  1.00  0.00    -0.223 OA
BRANCH  14  19
ATOM     19  C   UNL     1       1.411   4.683   2.894  1.00  0.00     0.002 A 
ATOM     20  C   UNL     1       0.937   2.807   0.857  1.00  0.00     0.082 A 
ATOM     21  C   UNL     1       1.266   2.364   2.137  1.00  0.00     0.022 A 
ATOM     22  C   UNL     1       0.857   4.176   0.581  1.00  0.00     0.022 A 
ATOM     23  C   UNL     1       1.501   3.302   3.148  1.00  0.00     0.012 A 
ATOM     24  C   UNL     1       1.086   5.108   1.599  1.00  0.00     0.012 A 
BRANCH  20  25
ATOM     25  S   UNL     1       0.631   1.667  -0.461  1.00  0.00     0.238 S 
ATOM     26  O   UNL     1       1.396   2.080  -1.607  1.00  0.00    -0.207 OA
ATOM     27  O   UNL     1      -0.795   1.413  -0.514  1.00  0.00    -0.207 OA
BRANCH  25  28
ATOM     28  N   UNL     1       1.334   0.226   0.045  1.00  0.00    -0.225 NA
ATOM     29  H   UNL     1       1.198  -0.488  -0.670  1.00  0.00     0.137 HD
ATOM     30  H   UNL     1       0.898  -0.077   0.916  1.00  0.00     0.137 HD
ENDBRANCH  25  28
ENDBRANCH  20  25
ENDBRANCH  14  19
ENDBRANCH   8  13
ENDBRANCH   4   7
ENDBRANCH   2   3
ENDBRANCH   1   2
BRANCH   1  31
ATOM     31  C   UNL     1      10.300   3.246   1.186  1.00  0.00     0.002 C 
BRANCH  31  32
ATOM     32  C   UNL     1      10.212   2.261   0.009  1.00  0.00     0.002 C 
BRANCH  32  33
ATOM     33  C   UNL     1       9.547   2.808  -1.264  1.00  0.00     0.021 C 
BRANCH  33  34
ATOM     34  C   UNL     1      10.394   3.864  -1.952  1.00  0.00     0.116 C 
BRANCH  34  35
ATOM     35  N   UNL     1      11.616   3.290  -2.512  1.00  0.00    -0.352 N 
ATOM     36  C   UNL     1      12.586   3.911  -3.267  1.00  0.00     0.251 C 
ATOM     37  H   UNL     1      11.765   2.335  -2.326  1.00  0.00     0.163 HD
ATOM     38  O   UNL     1      13.364   3.265  -3.958  1.00  0.00    -0.269 OA
BRANCH  36  39
ATOM     39  C   UNL     1      12.681   5.377  -3.213  1.00  0.00     0.039 A 
ATOM     40  C   UNL     1      12.951   6.130  -4.360  1.00  0.00     0.014 A 
ATOM     41  C   UNL     1      12.486   5.993  -1.979  1.00  0.00     0.014 A 
ATOM     42  C   UNL     1      12.966   7.516  -4.259  1.00  0.00     0.010 A 
ATOM     43  C   UNL     1      12.339   7.350  -1.913  1.00  0.00     0.010 A 
ATOM     44  C   UNL     1      12.649   8.115  -3.030  1.00  0.00    -0.014 A 
BRANCH  44  45
ATOM     45  C   UNL     1      12.520   9.558  -2.902  1.00  0.00     0.031 A 
ATOM     46  C   UNL     1      11.462  10.141  -3.771  1.00  0.00     0.074 A 
ATOM     47  C   UNL     1      13.126  10.240  -1.906  1.00  0.00     0.049 A 
ATOM     48  N   UNL     1      11.612  10.956  -4.761  1.00  0.00    -0.248 NA
ATOM     49  C   UNL     1      10.085   9.637  -3.623  1.00  0.00     0.031 C 
ATOM     50  C   UNL     1      13.926   9.704  -0.796  1.00  0.00     0.029 A 
ATOM     51  N   UNL     1      13.067  11.566  -1.608  1.00  0.00    -0.354 N 
ATOM     52  C   UNL     1      10.328  11.237  -5.223  1.00  0.00     0.074 A 
ATOM     53  C   UNL     1       9.463  10.254  -4.630  1.00  0.00     0.031 C 
ATOM     54  C   UNL     1      14.072  10.646   0.161  1.00  0.00     0.029 A 
ATOM     55  C   UNL     1      13.533  11.896  -0.338  1.00  0.00     0.049 A 
ATOM     56  H   UNL     1      12.723  12.238  -2.240  1.00  0.00     0.167 HD
ATOM     57  C   UNL     1      10.057  12.429  -5.825  1.00  0.00     0.037 A 
ATOM     58  C   UNL     1      13.446  13.110   0.262  1.00  0.00     0.037 A 
ATOM     59  C   UNL     1      11.279  13.073  -6.242  1.00  0.00     0.049 A 
ATOM     60  C   UNL     1      13.200  14.105  -0.810  1.00  0.00     0.074 A 
ATOM     61  C   UNL     1      12.300  12.768  -7.120  1.00  0.00     0.029 A 
ATOM     62  N   UNL     1      11.774  14.053  -5.419  1.00  0.00    -0.354 N 
ATOM     63  N   UNL     1      14.069  14.400  -1.737  1.00  0.00    -0.248 NA
ATOM     64  C   UNL     1      11.817  14.423  -1.124  1.00  0.00     0.031 C 
ATOM     65  C   UNL     1      13.488  13.242  -6.487  1.00  0.00     0.029 A 
ATOM     66  C   UNL     1      13.125  13.878  -5.299  1.00  0.00     0.049 A 
ATOM     67  H   UNL     1      11.245  14.763  -4.987  1.00  0.00     0.167 HD
ATOM     68  C   UNL     1      13.317  14.522  -2.896  1.00  0.00     0.074 A 
ATOM     69  C   UNL     1      11.932  14.617  -2.440  1.00  0.00     0.031 C 
ATOM     70  C   UNL     1      13.869  14.235  -4.112  1.00  0.00     0.037 A 
BRANCH  57  71
ATOM     71  C   UNL     1       8.772  13.213  -5.643  1.00  0.00     0.064 A 
ATOM     72  C   UNL     1       8.619  14.427  -6.346  1.00  0.00     0.173 A 
ATOM     73  C   UNL     1       7.851  13.008  -4.592  1.00  0.00     0.173 A 
ATOM     74  F   UNL     1       9.436  14.736  -7.364  1.00  0.00    -0.203 F 
ATOM     75  C   UNL     1       7.695  15.401  -5.955  1.00  0.00     0.198 A 
ATOM     76  C   UNL     1       6.896  13.960  -4.237  1.00  0.00     0.198 A 
ATOM     77  F   UNL     1       7.898  11.940  -3.790  1.00  0.00    -0.203 F 
ATOM     78  F   UNL     1       7.688  16.594  -6.563  1.00  0.00    -0.200 F 
ATOM     79  C   UNL     1       6.842  15.171  -4.892  1.00  0.00     0.200 A 
ATOM     80  F   UNL     1       6.089  13.723  -3.194  1.00  0.00    -0.200 F 
ATOM     81  F   UNL     1       6.006  16.127  -4.468  1.00  0.00    -0.200 F 
ENDBRANCH  57  71
BRANCH  58  82
ATOM     82  C   UNL     1      13.218  13.426   1.693  1.00  0.00     0.064 A 
ATOM     83  C   UNL     1      13.457  14.716   2.198  1.00  0.00     0.173 A 
ATOM     84  C   UNL     1      12.479  12.558   2.521  1.00  0.00     0.173 A 
ATOM     85  F   UNL     1      14.110  15.619   1.453  1.00  0.00    -0.203 F 
ATOM     86  C   UNL     1      12.959  15.123   3.441  1.00  0.00     0.198 A 
ATOM     87  C   UNL     1      11.986  12.964   3.763  1.00  0.00     0.198 A 
ATOM     88  F   UNL     1      12.132  11.335   2.095  1.00  0.00    -0.203 F 
ATOM     89  F   UNL     1      13.150  16.382   3.858  1.00  0.00    -0.200 F 
ATOM     90  C   UNL     1      12.214  14.250   4.217  1.00  0.00     0.200 A 
ATOM     91  F   UNL     1      11.229  12.125   4.484  1.00  0.00    -0.200 F 
ATOM     92  F   UNL     1      11.679  14.660   5.375  1.00  0.00    -0.200 F 
ENDBRANCH  58  82
BRANCH  70  93
ATOM     93  C   UNL     1      15.364  14.082  -4.178  1.00  0.00     0.064 A 
ATOM     94  C   UNL     1      16.093  13.067  -3.531  1.00  0.00     0.173 A 
ATOM     95  C   UNL     1      16.071  14.927  -5.042  1.00  0.00     0.173 A 
ATOM     96  F   UNL     1      15.479  12.160  -2.762  1.00  0.00    -0.203 F 
ATOM     97  C   UNL     1      17.470  12.937  -3.711  1.00  0.00     0.198 A 
ATOM     98  C   UNL     1      17.438  14.772  -5.250  1.00  0.00     0.198 A 
ATOM     99  F   UNL     1      15.421  15.881  -5.727  1.00  0.00    -0.203 F 
ATOM    100  F   UNL     1      18.144  11.969  -3.072  1.00  0.00    -0.200 F 
ATOM    101  C   UNL     1      18.139  13.785  -4.577  1.00  0.00     0.200 A 
ATOM    102  F   UNL     1      18.072  15.565  -6.125  1.00  0.00    -0.200 F 
ATOM    103  F   UNL     1      19.456  13.636  -4.782  1.00  0.00    -0.200 F 
ENDBRANCH  70  93
ENDBRANCH  44  45
ENDBRANCH  36  39
ENDBRANCH  34  35
ENDBRANCH  33  34
ENDBRANCH  32  33
ENDBRANCH  31  32
ENDBRANCH   1  31
TORSDOF 17
