REMARK SMILES CCC[N@@H+]1CC2(CCN(c3nccnc3C)CC2)C[C@H]1C(=O)NCCCCCCNC(=O)c1ccc(-c2c3nc(c(-c4c(F)c(F)c(F)c(F)c4F)c4ccc([nH]4)c(-c4c(F)c(F)c(F)c(F)c4F)c4nc(c(-c5c(F)c(F)c(F)c(F)c5F)c5ccc2[nH]5)C=C4)C=C3)cc1
REMARK SMILES IDX 26 1 25 2 24 3 23 4 21 5 22 6 20 8 4 9 5 10 6 12 19 13 7 14
REMARK SMILES IDX 18 15 8 16 17 17 9 18 3 19 2 20 1 21 10 22 11 23 15 24 12 25
REMARK SMILES IDX 14 26 16 27 13 28 27 29 28 30 29 31 30 32 31 33 32 35 33 36
REMARK SMILES IDX 34 37 95 38 35 39 94 40 36 41 37 42 38 43 88 44 39 45 93 46
REMARK SMILES IDX 87 47 89 48 40 49 92 50 86 51 85 52 41 54 73 55 53 56 72 57
REMARK SMILES IDX 54 58 57 59 71 60 90 61 55 62 56 63 70 65 91 66 58 67 42 68
REMARK SMILES IDX 43 69 51 70 44 71 45 72 49 73 52 74 46 75 47 76 50 77 48 78
REMARK SMILES IDX 74 79 75 80 83 81 76 82 77 83 81 84 84 85 78 86 79 87 82 88
REMARK SMILES IDX 80 89 59 90 60 91 68 92 61 93 62 94 66 95 69 96 63 97 64 98
REMARK SMILES IDX 67 99 65 100
REMARK H PARENT 23 7 4 11 30 34 89 53 57 64
REMARK Flexibility Score: inf
ROOT
ATOM      1  C   UNL     1      -3.286  -5.136  -3.656  1.00  0.00     0.002 C 
ENDROOT
BRANCH   1   2
ATOM      2  C   UNL     1      -2.339  -3.942  -3.491  1.00  0.00     0.021 C 
BRANCH   2   3
ATOM      3  C   UNL     1      -1.188  -4.190  -2.518  1.00  0.00     0.116 C 
BRANCH   3   4
ATOM      4  N   UNL     1       0.132  -4.146  -3.088  1.00  0.00    -0.351 N 
ATOM      5  C   UNL     1       1.214  -3.390  -2.728  1.00  0.00     0.278 C 
ATOM      6  O   UNL     1       2.295  -3.716  -3.238  1.00  0.00    -0.268 OA
ATOM      7  H   UNL     1       0.279  -4.750  -3.851  1.00  0.00     0.163 HD
BRANCH   5   8
ATOM      8  C   UNL     1       1.158  -2.168  -1.757  1.00  0.00     0.274 C 
ATOM      9  N   UNL     1       0.298  -1.113  -2.302  1.00  0.00    -0.324 N 
ATOM     10  C   UNL     1      -0.859  -0.897  -1.437  1.00  0.00     0.270 C 
ATOM     11  H   UNL     1      -0.107  -1.437  -3.180  1.00  0.00     0.348 HD
ATOM     12  C   UNL     1      -0.542  -1.522  -0.060  1.00  0.00     0.029 C 
ATOM     13  C   UNL     1       0.703  -2.411  -0.322  1.00  0.00     0.088 C 
ATOM     14  C   UNL     1      -1.657  -2.426   0.550  1.00  0.00     0.034 C 
ATOM     15  C   UNL     1      -0.267  -0.385   0.968  1.00  0.00     0.034 C 
ATOM     16  C   UNL     1      -2.898  -1.672   1.008  1.00  0.00     0.119 C 
ATOM     17  C   UNL     1      -1.554   0.357   1.372  1.00  0.00     0.119 C 
ATOM     18  N   UNL     1      -2.453  -0.640   1.917  1.00  0.00    -0.355 N 
BRANCH   9  19
ATOM     19  C   UNL     1       1.017   0.058  -2.814  1.00  0.00     0.262 C 
BRANCH  19  20
ATOM     20  C   UNL     1       1.451   1.182  -1.854  1.00  0.00     0.058 C 
ATOM     21  C   UNL     1       2.592   0.851  -0.903  1.00  0.00     0.010 C 
ENDBRANCH  19  20
ENDBRANCH   9  19
BRANCH  18  22
ATOM     22  C   UNL     1      -3.242  -0.301   2.992  1.00  0.00     0.150 A 
ATOM     23  N   UNL     1      -3.887   0.888   2.949  1.00  0.00    -0.236 NA
ATOM     24  C   UNL     1      -3.330  -1.121   4.138  1.00  0.00     0.080 A 
ATOM     25  C   UNL     1      -4.602   1.228   4.045  1.00  0.00     0.133 A 
ATOM     26  N   UNL     1      -4.057  -0.767   5.235  1.00  0.00    -0.256 NA
ATOM     27  C   UNL     1      -2.535  -2.383   4.299  1.00  0.00     0.071 C 
ATOM     28  C   UNL     1      -4.682   0.423   5.163  1.00  0.00     0.131 A 
ENDBRANCH  18  22
ENDBRANCH   5   8
ENDBRANCH   3   4
ENDBRANCH   2   3
ENDBRANCH   1   2
BRANCH   1  29
ATOM     29  C   UNL     1      -3.969  -5.647  -2.378  1.00  0.00     0.002 C 
BRANCH  29  30
ATOM     30  C   UNL     1      -4.862  -4.653  -1.629  1.00  0.00     0.021 C 
BRANCH  30  31
ATOM     31  C   UNL     1      -6.011  -4.047  -2.435  1.00  0.00     0.116 C 
BRANCH  31  32
ATOM     32  N   UNL     1      -6.859  -5.056  -3.050  1.00  0.00    -0.352 N 
ATOM     33  C   UNL     1      -8.211  -5.253  -2.986  1.00  0.00     0.251 C 
ATOM     34  H   UNL     1      -6.378  -5.708  -3.609  1.00  0.00     0.163 HD
ATOM     35  O   UNL     1      -8.691  -6.287  -3.463  1.00  0.00    -0.269 OA
BRANCH  33  36
ATOM     36  C   UNL     1      -9.113  -4.269  -2.349  1.00  0.00     0.039 A 
ATOM     37  C   UNL     1     -10.192  -4.746  -1.596  1.00  0.00     0.014 A 
ATOM     38  C   UNL     1      -8.954  -2.893  -2.535  1.00  0.00     0.014 A 
ATOM     39  C   UNL     1     -11.075  -3.849  -0.991  1.00  0.00     0.010 A 
ATOM     40  C   UNL     1      -9.800  -1.996  -1.880  1.00  0.00     0.010 A 
ATOM     41  C   UNL     1     -10.870  -2.465  -1.103  1.00  0.00    -0.014 A 
BRANCH  41  42
ATOM     42  C   UNL     1     -11.762  -1.508  -0.398  1.00  0.00     0.031 A 
ATOM     43  C   UNL     1     -12.659  -0.581  -1.170  1.00  0.00     0.074 A 
ATOM     44  C   UNL     1     -11.739  -1.457   0.949  1.00  0.00     0.049 A 
ATOM     45  N   UNL     1     -13.492   0.327  -0.724  1.00  0.00    -0.248 NA
ATOM     46  C   UNL     1     -12.600  -0.669  -2.637  1.00  0.00     0.031 C 
ATOM     47  C   UNL     1     -10.877  -2.270   1.809  1.00  0.00     0.029 A 
ATOM     48  N   UNL     1     -12.455  -0.687   1.830  1.00  0.00    -0.354 N 
ATOM     49  C   UNL     1     -14.051   0.916  -1.851  1.00  0.00     0.074 A 
ATOM     50  C   UNL     1     -13.427   0.301  -3.002  1.00  0.00     0.031 C 
ATOM     51  C   UNL     1     -11.133  -1.975   3.093  1.00  0.00     0.029 A 
ATOM     52  C   UNL     1     -12.151  -0.931   3.148  1.00  0.00     0.049 A 
ATOM     53  H   UNL     1     -13.123  -0.022   1.546  1.00  0.00     0.167 HD
ATOM     54  C   UNL     1     -15.016   1.866  -1.918  1.00  0.00     0.037 A 
ATOM     55  C   UNL     1     -12.638  -0.374   4.272  1.00  0.00     0.037 A 
ATOM     56  C   UNL     1     -15.648   2.465  -0.771  1.00  0.00     0.049 A 
ATOM     57  C   UNL     1     -13.707   0.680   4.165  1.00  0.00     0.074 A 
ATOM     58  C   UNL     1     -16.665   3.405  -0.737  1.00  0.00     0.029 A 
ATOM     59  N   UNL     1     -15.324   2.182   0.548  1.00  0.00    -0.354 N 
ATOM     60  N   UNL     1     -14.273   1.181   3.095  1.00  0.00    -0.248 NA
ATOM     61  C   UNL     1     -14.212   1.238   5.428  1.00  0.00     0.031 C 
ATOM     62  C   UNL     1     -16.928   3.719   0.601  1.00  0.00     0.029 A 
ATOM     63  C   UNL     1     -16.108   2.941   1.402  1.00  0.00     0.049 A 
ATOM     64  H   UNL     1     -14.637   1.537   0.835  1.00  0.00     0.167 HD
ATOM     65  C   UNL     1     -15.214   2.092   3.552  1.00  0.00     0.074 A 
ATOM     66  C   UNL     1     -15.161   2.057   4.999  1.00  0.00     0.031 C 
ATOM     67  C   UNL     1     -16.045   2.892   2.839  1.00  0.00     0.037 A 
BRANCH  54  68
ATOM     68  C   UNL     1     -15.463   2.311  -3.280  1.00  0.00     0.064 A 
ATOM     69  C   UNL     1     -16.231   1.476  -4.106  1.00  0.00     0.173 A 
ATOM     70  C   UNL     1     -15.178   3.605  -3.740  1.00  0.00     0.173 A 
ATOM     71  F   UNL     1     -16.523   0.225  -3.718  1.00  0.00    -0.203 F 
ATOM     72  C   UNL     1     -16.679   1.913  -5.350  1.00  0.00     0.198 A 
ATOM     73  C   UNL     1     -15.651   4.049  -4.973  1.00  0.00     0.198 A 
ATOM     74  F   UNL     1     -14.454   4.447  -2.987  1.00  0.00    -0.203 F 
ATOM     75  F   UNL     1     -17.380   1.085  -6.137  1.00  0.00    -0.200 F 
ATOM     76  C   UNL     1     -16.397   3.201  -5.778  1.00  0.00     0.200 A 
ATOM     77  F   UNL     1     -15.389   5.299  -5.380  1.00  0.00    -0.200 F 
ATOM     78  F   UNL     1     -16.841   3.626  -6.969  1.00  0.00    -0.200 F 
ENDBRANCH  54  68
BRANCH  55  79
ATOM     79  C   UNL     1     -12.138  -0.813   5.601  1.00  0.00     0.064 A 
ATOM     80  C   UNL     1     -12.966  -1.520   6.485  1.00  0.00     0.173 A 
ATOM     81  C   UNL     1     -10.836  -0.512   6.027  1.00  0.00     0.173 A 
ATOM     82  F   UNL     1     -14.227  -1.811   6.132  1.00  0.00    -0.203 F 
ATOM     83  C   UNL     1     -12.522  -1.882   7.755  1.00  0.00     0.198 A 
ATOM     84  C   UNL     1     -10.383  -0.901   7.286  1.00  0.00     0.198 A 
ATOM     85  F   UNL     1     -10.003   0.161   5.219  1.00  0.00    -0.203 F 
ATOM     86  F   UNL     1     -13.354  -2.504   8.601  1.00  0.00    -0.200 F 
ATOM     87  C   UNL     1     -11.229  -1.575   8.153  1.00  0.00     0.200 A 
ATOM     88  F   UNL     1      -9.130  -0.611   7.662  1.00  0.00    -0.200 F 
ATOM     89  F   UNL     1     -10.804  -1.918   9.376  1.00  0.00    -0.200 F 
ENDBRANCH  55  79
BRANCH  67  90
ATOM     90  C   UNL     1     -16.978   3.772   3.618  1.00  0.00     0.064 A 
ATOM     91  C   UNL     1     -16.512   4.882   4.339  1.00  0.00     0.173 A 
ATOM     92  C   UNL     1     -18.356   3.510   3.634  1.00  0.00     0.173 A 
ATOM     93  F   UNL     1     -15.200   5.165   4.368  1.00  0.00    -0.203 F 
ATOM     94  C   UNL     1     -17.386   5.676   5.075  1.00  0.00     0.198 A 
ATOM     95  C   UNL     1     -19.232   4.325   4.346  1.00  0.00     0.198 A 
ATOM     96  F   UNL     1     -18.855   2.466   2.956  1.00  0.00    -0.203 F 
ATOM     97  F   UNL     1     -16.910   6.696   5.802  1.00  0.00    -0.200 F 
ATOM     98  C   UNL     1     -18.745   5.401   5.073  1.00  0.00     0.200 A 
ATOM     99  F   UNL     1     -20.547   4.065   4.334  1.00  0.00    -0.200 F 
ATOM    100  F   UNL     1     -19.586   6.166   5.783  1.00  0.00    -0.200 F 
ENDBRANCH  67  90
ENDBRANCH  41  42
ENDBRANCH  33  36
ENDBRANCH  31  32
ENDBRANCH  30  31
ENDBRANCH  29  30
ENDBRANCH   1  29
TORSDOF 16
