REMARK SMILES C[C@@H]([NH2+]CC(C)(C)C(=O)NCCCCCCNC(=O)c1ccc(-c2c3nc(c(-c4c(F)c(F)c(F)c(F)c4F)c4ccc([nH]4)c(-c4c(F)c(F)c(F)c(F)c4F)c4nc(c(-c5c(F)c(F)c(F)c(F)c5F)c5ccc2[nH]5)C=C4)C=C3)cc1)C1CC1
REMARK SMILES IDX 12 1 11 2 10 3 8 4 9 5 5 7 6 8 7 9 4 10 3 11 2 14 1 15 83 16
REMARK SMILES IDX 84 17 85 18 13 19 14 20 15 21 16 22 17 23 18 24 19 26 20 27
REMARK SMILES IDX 21 28 82 29 22 30 81 31 23 32 24 33 25 34 75 35 26 36 80 37
REMARK SMILES IDX 74 38 76 39 27 40 79 41 73 42 72 43 28 45 60 46 40 47 59 48
REMARK SMILES IDX 41 49 44 50 58 51 77 52 42 53 43 54 57 56 78 57 45 58 29 59
REMARK SMILES IDX 30 60 38 61 31 62 32 63 36 64 39 65 33 66 34 67 37 68 35 69
REMARK SMILES IDX 61 70 62 71 70 72 63 73 64 74 68 75 71 76 65 77 66 78 69 79
REMARK SMILES IDX 67 80 46 81 47 82 55 83 48 84 49 85 53 86 56 87 50 88 51 89
REMARK SMILES IDX 54 90 52 91
REMARK H PARENT 10 6 3 12 3 13 17 25 76 44 44 55
REMARK Flexibility Score: inf
ROOT
ATOM      1  C   UNL     1       0.841   6.050   3.921  1.00  0.00     0.021 C 
ENDROOT
BRANCH   1   2
ATOM      2  C   UNL     1       1.798   5.220   3.064  1.00  0.00     0.116 C 
BRANCH   2   3
ATOM      3  N   UNL     1       1.123   4.035   2.585  1.00  0.00    -0.355 N 
ATOM      4  C   UNL     1       0.433   3.923   1.417  1.00  0.00     0.231 C 
ATOM      5  O   UNL     1      -0.710   3.474   1.508  1.00  0.00    -0.274 OA
ATOM      6  H   UNL     1       1.166   3.235   3.157  1.00  0.00     0.163 HD
BRANCH   4   7
ATOM      7  C   UNL     1       1.054   4.370   0.083  1.00  0.00     0.092 C 
ATOM      8  C   UNL     1       2.581   4.200   0.023  1.00  0.00     0.027 C 
ATOM      9  C   UNL     1       0.663   5.847  -0.137  1.00  0.00     0.027 C 
BRANCH   7  10
ATOM     10  C   UNL     1       0.407   3.561  -1.088  1.00  0.00     0.277 C 
BRANCH  10  11
ATOM     11  N   UNL     1       0.728   2.136  -1.298  1.00  0.00    -0.343 N 
ATOM     12  H   UNL     1       0.340   1.860  -2.201  1.00  0.00     0.346 HD
ATOM     13  H   UNL     1       1.744   2.074  -1.242  1.00  0.00     0.346 HD
BRANCH  11  14
ATOM     14  C   UNL     1       0.220   1.204  -0.289  1.00  0.00     0.182 C 
ATOM     15  C   UNL     1       0.884  -0.168  -0.479  1.00  0.00     0.075 C 
BRANCH  14  16
ATOM     16  C   UNL     1      -1.281   1.047  -0.228  1.00  0.00     0.047 C 
ATOM     17  C   UNL     1      -2.286   1.744  -1.127  1.00  0.00     0.010 C 
ATOM     18  C   UNL     1      -2.059   0.273  -1.271  1.00  0.00     0.010 C 
ENDBRANCH  14  16
ENDBRANCH  11  14
ENDBRANCH  10  11
ENDBRANCH   7  10
ENDBRANCH   4   7
ENDBRANCH   2   3
ENDBRANCH   1   2
BRANCH   1  19
ATOM     19  C   UNL     1       0.438   5.372   5.237  1.00  0.00     0.002 C 
BRANCH  19  20
ATOM     20  C   UNL     1       1.613   4.918   6.110  1.00  0.00     0.002 C 
BRANCH  20  21
ATOM     21  C   UNL     1       2.662   5.998   6.380  1.00  0.00     0.021 C 
BRANCH  21  22
ATOM     22  C   UNL     1       2.105   7.263   7.016  1.00  0.00     0.116 C 
BRANCH  22  23
ATOM     23  N   UNL     1       1.571   7.012   8.343  1.00  0.00    -0.352 N 
ATOM     24  C   UNL     1       1.881   7.633   9.527  1.00  0.00     0.251 C 
ATOM     25  H   UNL     1       0.896   6.298   8.402  1.00  0.00     0.163 HD
ATOM     26  O   UNL     1       1.500   7.166  10.593  1.00  0.00    -0.269 OA
BRANCH  24  27
ATOM     27  C   UNL     1       2.699   8.863   9.506  1.00  0.00     0.039 A 
ATOM     28  C   UNL     1       3.753   8.987  10.413  1.00  0.00     0.014 A 
ATOM     29  C   UNL     1       2.430   9.885   8.590  1.00  0.00     0.014 A 
ATOM     30  C   UNL     1       4.571  10.117  10.367  1.00  0.00     0.010 A 
ATOM     31  C   UNL     1       3.293  10.971   8.493  1.00  0.00     0.010 A 
ATOM     32  C   UNL     1       4.366  11.102   9.387  1.00  0.00    -0.014 A 
BRANCH  32  33
ATOM     33  C   UNL     1       5.260  12.283   9.290  1.00  0.00     0.031 A 
ATOM     34  C   UNL     1       4.713  13.663   9.528  1.00  0.00     0.074 A 
ATOM     35  C   UNL     1       6.548  12.117   8.935  1.00  0.00     0.049 A 
ATOM     36  N   UNL     1       5.318  14.821   9.437  1.00  0.00    -0.248 NA
ATOM     37  C   UNL     1       3.291  13.757   9.892  1.00  0.00     0.031 C 
ATOM     38  C   UNL     1       7.183  10.832   8.637  1.00  0.00     0.029 A 
ATOM     39  N   UNL     1       7.554  13.033   8.758  1.00  0.00    -0.354 N 
ATOM     40  C   UNL     1       4.350  15.775   9.721  1.00  0.00     0.074 A 
ATOM     41  C   UNL     1       3.105  15.068   9.927  1.00  0.00     0.031 C 
ATOM     42  C   UNL     1       8.476  11.039   8.341  1.00  0.00     0.029 A 
ATOM     43  C   UNL     1       8.751  12.472   8.387  1.00  0.00     0.049 A 
ATOM     44  H   UNL     1       7.429  14.001   8.886  1.00  0.00     0.167 HD
ATOM     45  C   UNL     1       4.493  17.118   9.828  1.00  0.00     0.037 A 
ATOM     46  C   UNL     1       9.935  13.050   8.107  1.00  0.00     0.037 A 
ATOM     47  C   UNL     1       5.738  17.815   9.638  1.00  0.00     0.049 A 
ATOM     48  C   UNL     1      10.060  14.547   8.209  1.00  0.00     0.074 A 
ATOM     49  C   UNL     1       6.000  19.167   9.773  1.00  0.00     0.029 A 
ATOM     50  N   UNL     1       6.931  17.212   9.266  1.00  0.00    -0.354 N 
ATOM     51  N   UNL     1       9.156  15.434   8.546  1.00  0.00    -0.248 NA
ATOM     52  C   UNL     1      11.376  15.122   7.896  1.00  0.00     0.031 C 
ATOM     53  C   UNL     1       7.337  19.390   9.430  1.00  0.00     0.029 A 
ATOM     54  C   UNL     1       7.926  18.169   9.140  1.00  0.00     0.049 A 
ATOM     55  H   UNL     1       7.053  16.247   9.113  1.00  0.00     0.167 HD
ATOM     56  C   UNL     1       9.797  16.664   8.517  1.00  0.00     0.074 A 
ATOM     57  C   UNL     1      11.173  16.408   8.145  1.00  0.00     0.031 C 
ATOM     58  C   UNL     1       9.293  17.896   8.775  1.00  0.00     0.037 A 
BRANCH  45  59
ATOM     59  C   UNL     1       3.269  17.922  10.165  1.00  0.00     0.064 A 
ATOM     60  C   UNL     1       2.658  17.839  11.427  1.00  0.00     0.173 A 
ATOM     61  C   UNL     1       2.717  18.808   9.228  1.00  0.00     0.173 A 
ATOM     62  F   UNL     1       3.138  16.999  12.356  1.00  0.00    -0.203 F 
ATOM     63  C   UNL     1       1.522  18.588  11.724  1.00  0.00     0.198 A 
ATOM     64  C   UNL     1       1.602  19.581   9.541  1.00  0.00     0.198 A 
ATOM     65  F   UNL     1       3.264  18.932   8.009  1.00  0.00    -0.203 F 
ATOM     66  F   UNL     1       0.924  18.449  12.916  1.00  0.00    -0.200 F 
ATOM     67  C   UNL     1       1.000  19.463  10.785  1.00  0.00     0.200 A 
ATOM     68  F   UNL     1       1.107  20.438   8.637  1.00  0.00    -0.200 F 
ATOM     69  F   UNL     1      -0.089  20.188  11.075  1.00  0.00    -0.200 F 
ENDBRANCH  45  59
BRANCH  46  70
ATOM     70  C   UNL     1      11.102  12.211   7.727  1.00  0.00     0.064 A 
ATOM     71  C   UNL     1      12.210  12.091   8.578  1.00  0.00     0.173 A 
ATOM     72  C   UNL     1      11.140  11.521   6.507  1.00  0.00     0.173 A 
ATOM     73  F   UNL     1      12.230  12.748   9.747  1.00  0.00    -0.203 F 
ATOM     74  C   UNL     1      13.320  11.334   8.212  1.00  0.00     0.198 A 
ATOM     75  C   UNL     1      12.237  10.738   6.157  1.00  0.00     0.198 A 
ATOM     76  F   UNL     1      10.103  11.596   5.659  1.00  0.00    -0.203 F 
ATOM     77  F   UNL     1      14.386  11.278   9.022  1.00  0.00    -0.200 F 
ATOM     78  C   UNL     1      13.331  10.653   7.005  1.00  0.00     0.200 A 
ATOM     79  F   UNL     1      12.236  10.068   4.996  1.00  0.00    -0.200 F 
ATOM     80  F   UNL     1      14.398   9.921   6.655  1.00  0.00    -0.200 F 
ENDBRANCH  46  70
BRANCH  58  81
ATOM     81  C   UNL     1      10.242  19.058   8.702  1.00  0.00     0.064 A 
ATOM     82  C   UNL     1      10.758  19.516   7.480  1.00  0.00     0.173 A 
ATOM     83  C   UNL     1      10.611  19.747   9.869  1.00  0.00     0.173 A 
ATOM     84  F   UNL     1      10.449  18.883   6.338  1.00  0.00    -0.203 F 
ATOM     85  C   UNL     1      11.629  20.601   7.433  1.00  0.00     0.198 A 
ATOM     86  C   UNL     1      11.454  20.852   9.813  1.00  0.00     0.198 A 
ATOM     87  F   UNL     1      10.140  19.355  11.062  1.00  0.00    -0.203 F 
ATOM     88  F   UNL     1      12.151  20.987   6.260  1.00  0.00    -0.200 F 
ATOM     89  C   UNL     1      11.970  21.273   8.597  1.00  0.00     0.200 A 
ATOM     90  F   UNL     1      11.769  21.510  10.938  1.00  0.00    -0.200 F 
ATOM     91  F   UNL     1      12.802  22.322   8.547  1.00  0.00    -0.200 F 
ENDBRANCH  58  81
ENDBRANCH  32  33
ENDBRANCH  24  27
ENDBRANCH  22  23
ENDBRANCH  21  22
ENDBRANCH  20  21
ENDBRANCH  19  20
ENDBRANCH   1  19
TORSDOF 17
