REMARK SMILES Cc1c(C(=O)NCCCCCCNC(=O)c2ccc(-c3c4nc(c(-c5c(F)c(F)c(F)c(F)c5F)c5ccc([nH]5)c(-c5c(F)c(F)c(F)c(F)c5F)c5nc(c(-c6c(F)c(F)c(F)c(F)c6F)c6ccc3[nH]6)C=C5)C=C4)cc2)sc2ncnc(NCc3cn4c(n3)SCC4)c12
REMARK SMILES IDX 9 1 8 2 7 3 6 4 4 5 5 6 3 8 1 9 2 10 95 11 79 12 80 13 84 14
REMARK SMILES IDX 81 15 83 16 82 17 85 18 86 20 87 21 88 22 91 23 89 24 90 25
REMARK SMILES IDX 94 26 92 27 93 28 10 29 11 30 12 31 13 32 14 33 15 35 16 36
REMARK SMILES IDX 17 37 78 38 18 39 77 40 19 41 20 42 21 43 71 44 22 45 76 46
REMARK SMILES IDX 70 47 72 48 23 49 75 50 69 51 68 52 24 54 56 55 36 56 55 57
REMARK SMILES IDX 37 58 40 59 54 60 73 61 38 62 39 63 53 65 74 66 41 67 25 68
REMARK SMILES IDX 26 69 34 70 27 71 28 72 32 73 35 74 29 75 30 76 33 77 31 78
REMARK SMILES IDX 57 79 58 80 66 81 59 82 60 83 64 84 67 85 61 86 62 87 65 88
REMARK SMILES IDX 63 89 42 90 43 91 51 92 44 93 45 94 49 95 52 96 46 97 47 98
REMARK SMILES IDX 50 99 48 100
REMARK H PARENT 6 7 85 19 13 34 72 53 40 64
REMARK Flexibility Score: inf
ROOT
ATOM      1  C   UNL     1       2.213   6.717   2.541  1.00  0.00     0.002 C 
ENDROOT
BRANCH   1   2
ATOM      2  C   UNL     1       1.339   6.227   1.379  1.00  0.00     0.021 C 
BRANCH   2   3
ATOM      3  C   UNL     1       2.092   5.308   0.418  1.00  0.00     0.116 C 
BRANCH   3   4
ATOM      4  N   UNL     1       2.325   4.040   1.069  1.00  0.00    -0.351 N 
ATOM      5  C   UNL     1       1.704   2.825   0.986  1.00  0.00     0.261 C 
ATOM      6  O   UNL     1       2.034   2.027   1.869  1.00  0.00    -0.268 OA
ATOM      7  H   UNL     1       3.083   4.053   1.697  1.00  0.00     0.163 HD
BRANCH   5   8
ATOM      8  C   UNL     1       0.812   2.458  -0.110  1.00  0.00     0.098 A 
ATOM      9  C   UNL     1       1.655   0.096  -0.273  1.00  0.00     0.047 C 
ATOM     10  C   UNL     1       0.718   1.187  -0.685  1.00  0.00    -0.014 A 
ATOM     11  C   UNL     1      -0.321   1.113  -1.716  1.00  0.00     0.057 A 
ATOM     12  S   UNL     1      -0.315   3.525  -0.794  1.00  0.00    -0.110 S 
ATOM     13  C   UNL     1      -0.775   2.404  -1.972  1.00  0.00     0.129 A 
ATOM     14  C   UNL     1      -0.930   0.115  -2.525  1.00  0.00     0.138 A 
ATOM     15  N   UNL     1      -1.557   2.825  -2.978  1.00  0.00    -0.225 NA
ATOM     16  N   UNL     1      -1.717   0.525  -3.559  1.00  0.00    -0.219 NA
ATOM     17  C   UNL     1      -1.949   1.826  -3.755  1.00  0.00     0.225 A 
BRANCH  14  18
ATOM     18  N   UNL     1      -0.885  -1.251  -2.474  1.00  0.00    -0.364 N 
ATOM     19  H   UNL     1      -1.302  -1.693  -3.249  1.00  0.00     0.162 HD
BRANCH  18  20
ATOM     20  C   UNL     1      -0.345  -2.168  -1.503  1.00  0.00     0.172 C 
BRANCH  20  21
ATOM     21  C   UNL     1      -1.145  -2.482  -0.279  1.00  0.00     0.079 A 
ATOM     22  C   UNL     1      -1.907  -3.620  -0.033  1.00  0.00     0.113 A 
ATOM     23  N   UNL     1      -1.216  -1.597   0.791  1.00  0.00    -0.226 NA
ATOM     24  N   UNL     1      -2.472  -3.378   1.170  1.00  0.00    -0.325 N 
ATOM     25  C   UNL     1      -2.030  -2.178   1.625  1.00  0.00     0.168 A 
ATOM     26  C   UNL     1      -3.583  -3.977   1.877  1.00  0.00     0.135 C 
ATOM     27  S   UNL     1      -2.927  -1.622   2.985  1.00  0.00    -0.086 SA
ATOM     28  C   UNL     1      -4.277  -2.807   2.577  1.00  0.00     0.100 C 
ENDBRANCH  20  21
ENDBRANCH  18  20
ENDBRANCH  14  18
ENDBRANCH   5   8
ENDBRANCH   3   4
ENDBRANCH   2   3
ENDBRANCH   1   2
BRANCH   1  29
ATOM     29  C   UNL     1       3.550   7.356   2.130  1.00  0.00     0.002 C 
BRANCH  29  30
ATOM     30  C   UNL     1       3.481   8.414   1.017  1.00  0.00     0.021 C 
BRANCH  30  31
ATOM     31  C   UNL     1       2.719   9.663   1.417  1.00  0.00     0.116 C 
BRANCH  31  32
ATOM     32  N   UNL     1       3.399  10.405   2.482  1.00  0.00    -0.352 N 
ATOM     33  C   UNL     1       2.950  11.500   3.186  1.00  0.00     0.251 C 
ATOM     34  H   UNL     1       4.295  10.078   2.726  1.00  0.00     0.163 HD
ATOM     35  O   UNL     1       3.738  12.256   3.761  1.00  0.00    -0.269 OA
BRANCH  33  36
ATOM     36  C   UNL     1       1.505  11.743   3.260  1.00  0.00     0.039 A 
ATOM     37  C   UNL     1       0.952  13.024   3.227  1.00  0.00     0.014 A 
ATOM     38  C   UNL     1       0.691  10.618   3.330  1.00  0.00     0.014 A 
ATOM     39  C   UNL     1      -0.435  13.144   3.221  1.00  0.00     0.010 A 
ATOM     40  C   UNL     1      -0.639  10.729   3.059  1.00  0.00     0.010 A 
ATOM     41  C   UNL     1      -1.219  11.980   3.132  1.00  0.00    -0.014 A 
BRANCH  41  42
ATOM     42  C   UNL     1      -2.667  12.021   3.040  1.00  0.00     0.031 A 
ATOM     43  C   UNL     1      -3.169  12.820   1.901  1.00  0.00     0.074 A 
ATOM     44  C   UNL     1      -3.466  11.231   3.793  1.00  0.00     0.049 A 
ATOM     45  N   UNL     1      -3.763  13.963   1.958  1.00  0.00    -0.248 NA
ATOM     46  C   UNL     1      -2.824  12.391   0.537  1.00  0.00     0.031 C 
ATOM     47  C   UNL     1      -3.095  10.170   4.740  1.00  0.00     0.029 A 
ATOM     48  N   UNL     1      -4.824  11.169   3.807  1.00  0.00    -0.354 N 
ATOM     49  C   UNL     1      -4.054  14.307   0.644  1.00  0.00     0.074 A 
ATOM     50  C   UNL     1      -3.288  13.414  -0.185  1.00  0.00     0.031 C 
ATOM     51  C   UNL     1      -4.187   9.440   5.065  1.00  0.00     0.029 A 
ATOM     52  C   UNL     1      -5.355  10.084   4.497  1.00  0.00     0.049 A 
ATOM     53  H   UNL     1      -5.388  11.842   3.363  1.00  0.00     0.167 HD
ATOM     54  C   UNL     1      -5.098  15.134   0.364  1.00  0.00     0.037 A 
ATOM     55  C   UNL     1      -6.667   9.751   4.585  1.00  0.00     0.037 A 
ATOM     56  C   UNL     1      -5.537  15.823   1.554  1.00  0.00     0.049 A 
ATOM     57  C   UNL     1      -7.441  10.973   4.253  1.00  0.00     0.074 A 
ATOM     58  C   UNL     1      -4.946  16.714   2.429  1.00  0.00     0.029 A 
ATOM     59  N   UNL     1      -6.621  15.305   2.221  1.00  0.00    -0.354 N 
ATOM     60  N   UNL     1      -7.460  12.039   5.005  1.00  0.00    -0.248 NA
ATOM     61  C   UNL     1      -7.792  11.184   2.857  1.00  0.00     0.031 C 
ATOM     62  C   UNL     1      -5.413  16.328   3.720  1.00  0.00     0.029 A 
ATOM     63  C   UNL     1      -6.321  15.280   3.558  1.00  0.00     0.049 A 
ATOM     64  H   UNL     1      -7.464  15.004   1.810  1.00  0.00     0.167 HD
ATOM     65  C   UNL     1      -7.396  13.099   4.113  1.00  0.00     0.074 A 
ATOM     66  C   UNL     1      -7.681  12.514   2.804  1.00  0.00     0.031 C 
ATOM     67  C   UNL     1      -6.829  14.286   4.477  1.00  0.00     0.037 A 
BRANCH  54  68
ATOM     68  C   UNL     1      -5.961  15.036  -0.868  1.00  0.00     0.064 A 
ATOM     69  C   UNL     1      -6.931  16.032  -1.099  1.00  0.00     0.173 A 
ATOM     70  C   UNL     1      -6.081  13.874  -1.659  1.00  0.00     0.173 A 
ATOM     71  F   UNL     1      -6.926  17.170  -0.390  1.00  0.00    -0.203 F 
ATOM     72  C   UNL     1      -7.984  15.841  -1.998  1.00  0.00     0.198 A 
ATOM     73  C   UNL     1      -7.101  13.711  -2.594  1.00  0.00     0.198 A 
ATOM     74  F   UNL     1      -5.297  12.805  -1.486  1.00  0.00    -0.203 F 
ATOM     75  F   UNL     1      -8.954  16.761  -2.089  1.00  0.00    -0.200 F 
ATOM     76  C   UNL     1      -8.071  14.679  -2.741  1.00  0.00     0.200 A 
ATOM     77  F   UNL     1      -7.179  12.567  -3.289  1.00  0.00    -0.200 F 
ATOM     78  F   UNL     1      -9.111  14.468  -3.558  1.00  0.00    -0.200 F 
ENDBRANCH  54  68
BRANCH  55  79
ATOM     79  C   UNL     1      -7.299   8.411   4.641  1.00  0.00     0.064 A 
ATOM     80  C   UNL     1      -8.632   8.251   5.056  1.00  0.00     0.173 A 
ATOM     81  C   UNL     1      -6.707   7.305   4.000  1.00  0.00     0.173 A 
ATOM     82  F   UNL     1      -9.284   9.271   5.633  1.00  0.00    -0.203 F 
ATOM     83  C   UNL     1      -9.341   7.068   4.816  1.00  0.00     0.198 A 
ATOM     84  C   UNL     1      -7.415   6.125   3.761  1.00  0.00     0.198 A 
ATOM     85  F   UNL     1      -5.464   7.388   3.504  1.00  0.00    -0.203 F 
ATOM     86  F   UNL     1     -10.631   6.978   5.168  1.00  0.00    -0.200 F 
ATOM     87  C   UNL     1      -8.736   6.011   4.157  1.00  0.00     0.200 A 
ATOM     88  F   UNL     1      -6.833   5.125   3.085  1.00  0.00    -0.200 F 
ATOM     89  F   UNL     1      -9.435   4.905   3.864  1.00  0.00    -0.200 F 
ENDBRANCH  55  79
BRANCH  67  90
ATOM     90  C   UNL     1      -6.504  14.494   5.933  1.00  0.00     0.064 A 
ATOM     91  C   UNL     1      -5.531  13.763   6.639  1.00  0.00     0.173 A 
ATOM     92  C   UNL     1      -7.077  15.593   6.584  1.00  0.00     0.173 A 
ATOM     93  F   UNL     1      -4.875  12.751   6.062  1.00  0.00    -0.203 F 
ATOM     94  C   UNL     1      -5.168  14.108   7.941  1.00  0.00     0.198 A 
ATOM     95  C   UNL     1      -6.688  15.957   7.870  1.00  0.00     0.198 A 
ATOM     96  F   UNL     1      -7.976  16.356   5.943  1.00  0.00    -0.203 F 
ATOM     97  F   UNL     1      -4.234  13.397   8.591  1.00  0.00    -0.200 F 
ATOM     98  C   UNL     1      -5.738  15.212   8.550  1.00  0.00     0.200 A 
ATOM     99  F   UNL     1      -7.210  17.054   8.437  1.00  0.00    -0.200 F 
ATOM    100  F   UNL     1      -5.352  15.577   9.781  1.00  0.00    -0.200 F 
ENDBRANCH  67  90
ENDBRANCH  41  42
ENDBRANCH  33  36
ENDBRANCH  31  32
ENDBRANCH  30  31
ENDBRANCH  29  30
ENDBRANCH   1  29
TORSDOF 16
