REMARK SMILES CC[C@H]1CCCC[C@@H]1C1(C(=O)NCCCCCCNC(=O)c2ccc(-c3c4nc(c(-c5c(F)c(F)c(F)c(F)c5F)c5ccc([nH]5)c(-c5c(F)c(F)c(F)c(F)c5F)c5nc(c(-c6c(F)c(F)c(F)c(F)c6F)c6ccc3[nH]6)C=C5)C=C4)cc2)CC1
REMARK SMILES IDX 15 1 14 2 13 3 12 4 10 5 11 6 9 8 85 9 86 10 8 11 3 12 4 13
REMARK SMILES IDX 5 14 7 15 6 16 2 17 1 18 16 19 17 20 18 21 19 22 20 23 21 25
REMARK SMILES IDX 22 26 23 27 84 28 24 29 83 30 25 31 26 32 27 33 77 34 28 35
REMARK SMILES IDX 82 36 76 37 78 38 29 39 81 40 75 41 74 42 30 44 62 45 42 46
REMARK SMILES IDX 61 47 43 48 46 49 60 50 79 51 44 52 45 53 59 55 80 56 47 57
REMARK SMILES IDX 31 58 32 59 40 60 33 61 34 62 38 63 41 64 35 65 36 66 39 67
REMARK SMILES IDX 37 68 63 69 64 70 72 71 65 72 66 73 70 74 73 75 67 76 68 77
REMARK SMILES IDX 71 78 69 79 48 80 49 81 57 82 50 83 51 84 55 85 58 86 52 87
REMARK SMILES IDX 53 88 56 89 54 90
REMARK H PARENT 12 7 19 24 78 43 46 54
REMARK Flexibility Score: inf
ROOT
ATOM      1  C   UNL     1       1.463   9.096   0.924  1.00  0.00     0.002 C 
ENDROOT
BRANCH   1   2
ATOM      2  C   UNL     1       2.177   7.833   1.434  1.00  0.00     0.021 C 
BRANCH   2   3
ATOM      3  C   UNL     1       1.262   6.802   2.094  1.00  0.00     0.116 C 
BRANCH   3   4
ATOM      4  N   UNL     1       0.215   6.357   1.206  1.00  0.00    -0.356 N 
ATOM      5  C   UNL     1       0.012   5.268   0.411  1.00  0.00     0.226 C 
ATOM      6  O   UNL     1      -1.082   5.221  -0.148  1.00  0.00    -0.274 OA
ATOM      7  H   UNL     1      -0.534   6.995   1.163  1.00  0.00     0.163 HD
BRANCH   5   8
ATOM      8  C   UNL     1       1.006   4.123   0.194  1.00  0.00     0.052 C 
ATOM      9  C   UNL     1       1.318   3.338   1.475  1.00  0.00     0.018 C 
ATOM     10  C   UNL     1       2.408   4.085   0.777  1.00  0.00     0.018 C 
BRANCH   8  11
ATOM     11  C   UNL     1       0.792   3.393  -1.181  1.00  0.00     0.008 C 
ATOM     12  C   UNL     1       1.200   1.898  -1.323  1.00  0.00    -0.007 C 
ATOM     13  C   UNL     1       2.686   1.700  -1.682  1.00  0.00     0.004 C 
ATOM     14  C   UNL     1       3.182   2.609  -2.803  1.00  0.00     0.000 C 
ATOM     15  C   UNL     1       1.331   4.257  -2.338  1.00  0.00     0.005 C 
ATOM     16  C   UNL     1       2.823   4.072  -2.584  1.00  0.00     0.000 C 
BRANCH  12  17
ATOM     17  C   UNL     1       0.286   1.216  -2.383  1.00  0.00     0.000 C 
ATOM     18  C   UNL     1       0.318  -0.306  -2.334  1.00  0.00     0.004 C 
ENDBRANCH  12  17
ENDBRANCH   8  11
ENDBRANCH   5   8
ENDBRANCH   3   4
ENDBRANCH   2   3
ENDBRANCH   1   2
BRANCH   1  19
ATOM     19  C   UNL     1       0.503   9.774   1.910  1.00  0.00     0.002 C 
BRANCH  19  20
ATOM     20  C   UNL     1       1.086  10.099   3.285  1.00  0.00     0.021 C 
BRANCH  20  21
ATOM     21  C   UNL     1       2.286  11.034   3.266  1.00  0.00     0.116 C 
BRANCH  21  22
ATOM     22  N   UNL     1       1.930  12.378   2.845  1.00  0.00    -0.352 N 
ATOM     23  C   UNL     1       2.201  13.575   3.461  1.00  0.00     0.251 C 
ATOM     24  H   UNL     1       1.425  12.440   2.002  1.00  0.00     0.163 HD
ATOM     25  O   UNL     1       1.680  14.611   3.063  1.00  0.00    -0.269 OA
BRANCH  23  26
ATOM     26  C   UNL     1       3.112  13.611   4.626  1.00  0.00     0.039 A 
ATOM     27  C   UNL     1       2.744  14.360   5.747  1.00  0.00     0.014 A 
ATOM     28  C   UNL     1       4.325  12.917   4.612  1.00  0.00     0.014 A 
ATOM     29  C   UNL     1       3.571  14.373   6.873  1.00  0.00     0.010 A 
ATOM     30  C   UNL     1       5.113  12.873   5.758  1.00  0.00     0.010 A 
ATOM     31  C   UNL     1       4.749  13.610   6.896  1.00  0.00    -0.014 A 
BRANCH  31  32
ATOM     32  C   UNL     1       5.632  13.593   8.088  1.00  0.00     0.031 A 
ATOM     33  C   UNL     1       7.018  14.170   8.002  1.00  0.00     0.074 A 
ATOM     34  C   UNL     1       5.213  13.004   9.224  1.00  0.00     0.049 A 
ATOM     35  N   UNL     1       7.967  14.185   8.904  1.00  0.00    -0.248 NA
ATOM     36  C   UNL     1       7.397  14.786   6.721  1.00  0.00     0.031 C 
ATOM     37  C   UNL     1       3.909  12.370   9.418  1.00  0.00     0.029 A 
ATOM     38  N   UNL     1       5.848  12.834  10.430  1.00  0.00    -0.354 N 
ATOM     39  C   UNL     1       9.058  14.789   8.292  1.00  0.00     0.074 A 
ATOM     40  C   UNL     1       8.671  15.084   6.929  1.00  0.00     0.031 C 
ATOM     41  C   UNL     1       3.832  11.898  10.673  1.00  0.00     0.029 A 
ATOM     42  C   UNL     1       5.091  12.168  11.361  1.00  0.00     0.049 A 
ATOM     43  H   UNL     1       6.760  13.160  10.609  1.00  0.00     0.167 HD
ATOM     44  C   UNL     1      10.266  15.090   8.825  1.00  0.00     0.037 A 
ATOM     45  C   UNL     1       5.383  11.814  12.627  1.00  0.00     0.037 A 
ATOM     46  C   UNL     1      10.633  14.833  10.192  1.00  0.00     0.049 A 
ATOM     47  C   UNL     1       6.726  12.176  13.201  1.00  0.00     0.074 A 
ATOM     48  C   UNL     1      11.806  15.163  10.848  1.00  0.00     0.029 A 
ATOM     49  N   UNL     1       9.827  14.183  11.115  1.00  0.00    -0.354 N 
ATOM     50  N   UNL     1       7.725  12.806  12.634  1.00  0.00    -0.248 NA
ATOM     51  C   UNL     1       6.977  11.784  14.595  1.00  0.00     0.031 C 
ATOM     52  C   UNL     1      11.725  14.680  12.158  1.00  0.00     0.029 A 
ATOM     53  C   UNL     1      10.485  14.088  12.331  1.00  0.00     0.049 A 
ATOM     54  H   UNL     1       8.922  13.841  10.933  1.00  0.00     0.167 HD
ATOM     55  C   UNL     1       8.710  12.914  13.607  1.00  0.00     0.074 A 
ATOM     56  C   UNL     1       8.183  12.293  14.804  1.00  0.00     0.031 C 
ATOM     57  C   UNL     1       9.939  13.479  13.516  1.00  0.00     0.037 A 
BRANCH  44  58
ATOM     58  C   UNL     1      11.278  15.738   7.926  1.00  0.00     0.064 A 
ATOM     59  C   UNL     1      11.131  17.062   7.486  1.00  0.00     0.173 A 
ATOM     60  C   UNL     1      12.424  15.036   7.524  1.00  0.00     0.173 A 
ATOM     61  F   UNL     1      10.046  17.772   7.832  1.00  0.00    -0.203 F 
ATOM     62  C   UNL     1      12.079  17.649   6.652  1.00  0.00     0.198 A 
ATOM     63  C   UNL     1      13.385  15.636   6.714  1.00  0.00     0.198 A 
ATOM     64  F   UNL     1      12.615  13.768   7.921  1.00  0.00    -0.203 F 
ATOM     65  F   UNL     1      11.893  18.898   6.204  1.00  0.00    -0.200 F 
ATOM     66  C   UNL     1      13.208  16.938   6.273  1.00  0.00     0.200 A 
ATOM     67  F   UNL     1      14.480  14.952   6.357  1.00  0.00    -0.200 F 
ATOM     68  F   UNL     1      14.122  17.507   5.474  1.00  0.00    -0.200 F 
ENDBRANCH  44  58
BRANCH  45  69
ATOM     69  C   UNL     1       4.370  11.105  13.451  1.00  0.00     0.064 A 
ATOM     70  C   UNL     1       3.734  11.754  14.519  1.00  0.00     0.173 A 
ATOM     71  C   UNL     1       4.019   9.773  13.194  1.00  0.00     0.173 A 
ATOM     72  F   UNL     1       4.053  13.023  14.816  1.00  0.00    -0.203 F 
ATOM     73  C   UNL     1       2.800  11.091  15.311  1.00  0.00     0.198 A 
ATOM     74  C   UNL     1       3.066   9.118  13.971  1.00  0.00     0.198 A 
ATOM     75  F   UNL     1       4.596   9.109  12.181  1.00  0.00    -0.203 F 
ATOM     76  F   UNL     1       2.238  11.722  16.351  1.00  0.00    -0.200 F 
ATOM     77  C   UNL     1       2.462   9.775  15.033  1.00  0.00     0.200 A 
ATOM     78  F   UNL     1       2.733   7.850  13.692  1.00  0.00    -0.200 F 
ATOM     79  F   UNL     1       1.561   9.138  15.793  1.00  0.00    -0.200 F 
ENDBRANCH  45  69
BRANCH  57  80
ATOM     80  C   UNL     1      10.783  13.488  14.756  1.00  0.00     0.064 A 
ATOM     81  C   UNL     1      11.394  12.322  15.238  1.00  0.00     0.173 A 
ATOM     82  C   UNL     1      11.018  14.688  15.444  1.00  0.00     0.173 A 
ATOM     83  F   UNL     1      11.187  11.147  14.623  1.00  0.00    -0.203 F 
ATOM     84  C   UNL     1      12.192  12.353  16.379  1.00  0.00     0.198 A 
ATOM     85  C   UNL     1      11.837  14.720  16.568  1.00  0.00     0.198 A 
ATOM     86  F   UNL     1      10.460  15.832  15.018  1.00  0.00    -0.203 F 
ATOM     87  F   UNL     1      12.731  11.220  16.848  1.00  0.00    -0.200 F 
ATOM     88  C   UNL     1      12.418  13.553  17.038  1.00  0.00     0.200 A 
ATOM     89  F   UNL     1      12.065  15.882  17.196  1.00  0.00    -0.200 F 
ATOM     90  F   UNL     1      13.192  13.581  18.132  1.00  0.00    -0.200 F 
ENDBRANCH  57  80
ENDBRANCH  31  32
ENDBRANCH  23  26
ENDBRANCH  21  22
ENDBRANCH  20  21
ENDBRANCH  19  20
ENDBRANCH   1  19
TORSDOF 15
