REMARK SMILES O=C(NCCCCCCNC(=O)c1ccc2c(c1)[C@@H]1C=CC[C@@H]1[C@H](c1ccncc1)N2)c1ccc(-c2c3nc(c(-c4c(F)c(F)c(F)c(F)c4F)c4ccc([nH]4)c(-c4c(F)c(F)c(F)c(F)c4F)c4nc(c(-c5c(F)c(F)c(F)c(F)c5F)c5ccc2[nH]5)C=C4)C=C3)cc1
REMARK SMILES IDX 6 1 5 2 4 3 3 4 1 5 2 6 32 8 33 9 94 10 34 11 93 12 35 13
REMARK SMILES IDX 36 14 37 15 87 16 38 17 92 18 86 19 88 20 39 21 91 22 85 23
REMARK SMILES IDX 84 24 40 26 72 27 52 28 71 29 53 30 56 31 70 32 89 33 54 34
REMARK SMILES IDX 55 35 69 37 90 38 57 39 41 40 42 41 50 42 43 43 44 44 48 45
REMARK SMILES IDX 51 46 45 47 46 48 49 49 47 50 73 51 74 52 82 53 75 54 76 55
REMARK SMILES IDX 80 56 83 57 77 58 78 59 81 60 79 61 58 62 59 63 67 64 60 65
REMARK SMILES IDX 61 66 65 67 68 68 62 69 63 70 66 71 64 72 7 73 8 74 9 75
REMARK SMILES IDX 10 76 11 77 12 79 13 80 14 81 18 82 15 83 17 84 16 85 19 86
REMARK SMILES IDX 31 87 20 88 23 89 24 90 21 92 22 93 25 94 26 95 30 96 27 97
REMARK SMILES IDX 29 98 28 99
REMARK H PARENT 3 7 88 25 56 36 10 78 31 91
REMARK Flexibility Score: inf
ROOT
ATOM      1  C   UNL     1       4.346  -2.071   3.226  1.00  0.00     0.002 C 
ENDROOT
BRANCH   1   2
ATOM      2  C   UNL     1       4.831  -0.857   2.432  1.00  0.00     0.021 C 
BRANCH   2   3
ATOM      3  C   UNL     1       4.562  -0.926   0.933  1.00  0.00     0.116 C 
BRANCH   3   4
ATOM      4  N   UNL     1       3.141  -0.985   0.633  1.00  0.00    -0.352 N 
ATOM      5  O   UNL     1       1.145  -0.222  -0.087  1.00  0.00    -0.269 OA
ATOM      6  C   UNL     1       2.369  -0.122  -0.100  1.00  0.00     0.251 C 
ATOM      7  H   UNL     1       2.664  -1.758   1.012  1.00  0.00     0.163 HD
BRANCH   6   8
ATOM      8  C   UNL     1       3.009   0.946  -0.893  1.00  0.00     0.039 A 
ATOM      9  C   UNL     1       4.119   0.676  -1.700  1.00  0.00     0.014 A 
ATOM     10  C   UNL     1       2.467   2.233  -0.848  1.00  0.00     0.014 A 
ATOM     11  C   UNL     1       4.758   1.715  -2.370  1.00  0.00     0.010 A 
ATOM     12  C   UNL     1       3.066   3.260  -1.579  1.00  0.00     0.010 A 
ATOM     13  C   UNL     1       4.230   3.013  -2.326  1.00  0.00    -0.014 A 
BRANCH  13  14
ATOM     14  C   UNL     1       4.861   4.109  -3.101  1.00  0.00     0.031 A 
ATOM     15  C   UNL     1       5.466   5.290  -2.401  1.00  0.00     0.074 A 
ATOM     16  C   UNL     1       4.842   4.056  -4.446  1.00  0.00     0.049 A 
ATOM     17  N   UNL     1       5.958   6.392  -2.908  1.00  0.00    -0.248 NA
ATOM     18  C   UNL     1       5.514   5.228  -0.933  1.00  0.00     0.031 C 
ATOM     19  C   UNL     1       4.283   2.958  -5.235  1.00  0.00     0.029 A 
ATOM     20  N   UNL     1       5.284   4.953  -5.385  1.00  0.00    -0.354 N 
ATOM     21  C   UNL     1       6.349   7.166  -1.824  1.00  0.00     0.074 A 
ATOM     22  C   UNL     1       6.013   6.418  -0.630  1.00  0.00     0.031 C 
ATOM     23  C   UNL     1       4.415   3.244  -6.538  1.00  0.00     0.029 A 
ATOM     24  C   UNL     1       5.006   4.572  -6.674  1.00  0.00     0.049 A 
ATOM     25  H   UNL     1       5.753   5.788  -5.157  1.00  0.00     0.167 HD
ATOM     26  C   UNL     1       6.937   8.387  -1.829  1.00  0.00     0.037 A 
ATOM     27  C   UNL     1       5.169   5.232  -7.835  1.00  0.00     0.037 A 
ATOM     28  C   UNL     1       7.262   9.120  -3.027  1.00  0.00     0.049 A 
ATOM     29  C   UNL     1       5.774   6.607  -7.817  1.00  0.00     0.074 A 
ATOM     30  C   UNL     1       7.893  10.347  -3.144  1.00  0.00     0.029 A 
ATOM     31  N   UNL     1       6.965   8.700  -4.317  1.00  0.00    -0.354 N 
ATOM     32  N   UNL     1       6.176   7.317  -6.791  1.00  0.00    -0.248 NA
ATOM     33  C   UNL     1       5.951   7.271  -9.114  1.00  0.00     0.031 C 
ATOM     34  C   UNL     1       7.916  10.699  -4.497  1.00  0.00     0.029 A 
ATOM     35  C   UNL     1       7.370   9.659  -5.233  1.00  0.00     0.049 A 
ATOM     36  H   UNL     1       6.530   7.847  -4.547  1.00  0.00     0.167 HD
ATOM     37  C   UNL     1       6.684   8.497  -7.318  1.00  0.00     0.074 A 
ATOM     38  C   UNL     1       6.537   8.407  -8.756  1.00  0.00     0.031 C 
ATOM     39  C   UNL     1       7.230   9.552  -6.665  1.00  0.00     0.037 A 
BRANCH  26  40
ATOM     40  C   UNL     1       7.225   9.024  -0.498  1.00  0.00     0.064 A 
ATOM     41  C   UNL     1       8.185   8.505   0.384  1.00  0.00     0.173 A 
ATOM     42  C   UNL     1       6.533  10.180  -0.102  1.00  0.00     0.173 A 
ATOM     43  F   UNL     1       8.872   7.399   0.060  1.00  0.00    -0.203 F 
ATOM     44  C   UNL     1       8.406   9.089   1.629  1.00  0.00     0.198 A 
ATOM     45  C   UNL     1       6.783  10.783   1.129  1.00  0.00     0.198 A 
ATOM     46  F   UNL     1       5.611  10.728  -0.908  1.00  0.00    -0.203 F 
ATOM     47  F   UNL     1       9.279   8.534   2.482  1.00  0.00    -0.200 F 
ATOM     48  C   UNL     1       7.709  10.229   1.999  1.00  0.00     0.200 A 
ATOM     49  F   UNL     1       6.120  11.894   1.476  1.00  0.00    -0.200 F 
ATOM     50  F   UNL     1       7.920  10.787   3.199  1.00  0.00    -0.200 F 
ENDBRANCH  26  40
BRANCH  27  51
ATOM     51  C   UNL     1       4.737   4.588  -9.100  1.00  0.00     0.064 A 
ATOM     52  C   UNL     1       5.675   4.129 -10.034  1.00  0.00     0.173 A 
ATOM     53  C   UNL     1       3.378   4.367  -9.375  1.00  0.00     0.173 A 
ATOM     54  F   UNL     1       6.984   4.330  -9.821  1.00  0.00    -0.203 F 
ATOM     55  C   UNL     1       5.271   3.477 -11.197  1.00  0.00     0.198 A 
ATOM     56  C   UNL     1       2.977   3.690 -10.524  1.00  0.00     0.198 A 
ATOM     57  F   UNL     1       2.442   4.779  -8.507  1.00  0.00    -0.203 F 
ATOM     58  F   UNL     1       6.186   3.071 -12.087  1.00  0.00    -0.200 F 
ATOM     59  C   UNL     1       3.923   3.249 -11.436  1.00  0.00     0.200 A 
ATOM     60  F   UNL     1       1.676   3.453 -10.739  1.00  0.00    -0.200 F 
ATOM     61  F   UNL     1       3.538   2.604 -12.545  1.00  0.00    -0.200 F 
ENDBRANCH  27  51
BRANCH  39  62
ATOM     62  C   UNL     1       7.771  10.680  -7.496  1.00  0.00     0.064 A 
ATOM     63  C   UNL     1       6.930  11.581  -8.164  1.00  0.00     0.173 A 
ATOM     64  C   UNL     1       9.156  10.905  -7.556  1.00  0.00     0.173 A 
ATOM     65  F   UNL     1       5.601  11.401  -8.152  1.00  0.00    -0.203 F 
ATOM     66  C   UNL     1       7.457  12.661  -8.870  1.00  0.00     0.198 A 
ATOM     67  C   UNL     1       9.676  12.002  -8.236  1.00  0.00     0.198 A 
ATOM     68  F   UNL     1      10.003  10.073  -6.931  1.00  0.00    -0.203 F 
ATOM     69  F   UNL     1       6.637  13.492  -9.529  1.00  0.00    -0.200 F 
ATOM     70  C   UNL     1       8.827  12.877  -8.895  1.00  0.00     0.200 A 
ATOM     71  F   UNL     1      10.999  12.217  -8.244  1.00  0.00    -0.200 F 
ATOM     72  F   UNL     1       9.329  13.929  -9.556  1.00  0.00    -0.200 F 
ENDBRANCH  39  62
ENDBRANCH  13  14
ENDBRANCH   6   8
ENDBRANCH   3   4
ENDBRANCH   2   3
ENDBRANCH   1   2
BRANCH   1  73
ATOM     73  C   UNL     1       4.869  -3.424   2.735  1.00  0.00     0.002 C 
BRANCH  73  74
ATOM     74  C   UNL     1       6.392  -3.536   2.630  1.00  0.00     0.021 C 
BRANCH  74  75
ATOM     75  C   UNL     1       7.145  -3.236   3.922  1.00  0.00     0.116 C 
BRANCH  75  76
ATOM     76  N   UNL     1       6.822  -4.184   4.976  1.00  0.00    -0.352 N 
ATOM     77  C   UNL     1       7.667  -4.993   5.695  1.00  0.00     0.251 C 
ATOM     78  H   UNL     1       5.868  -4.256   5.206  1.00  0.00     0.163 HD
ATOM     79  O   UNL     1       7.218  -5.876   6.420  1.00  0.00    -0.269 OA
BRANCH  77  80
ATOM     80  C   UNL     1       9.127  -4.803   5.579  1.00  0.00     0.040 A 
ATOM     81  C   UNL     1       9.937  -5.901   5.303  1.00  0.00     0.016 A 
ATOM     82  C   UNL     1       9.688  -3.532   5.713  1.00  0.00     0.020 A 
ATOM     83  C   UNL     1      11.310  -5.712   5.133  1.00  0.00     0.027 A 
ATOM     84  C   UNL     1      11.053  -3.330   5.466  1.00  0.00    -0.017 A 
ATOM     85  C   UNL     1      11.886  -4.436   5.237  1.00  0.00     0.038 A 
ATOM     86  C   UNL     1      11.600  -1.922   5.431  1.00  0.00     0.049 C 
ATOM     87  N   UNL     1      13.251  -4.287   5.026  1.00  0.00    -0.378 N 
ATOM     88  C   UNL     1      10.920  -1.063   4.389  1.00  0.00    -0.023 C 
ATOM     89  C   UNL     1      13.063  -1.829   4.965  1.00  0.00     0.031 C 
ATOM     90  C   UNL     1      13.895  -3.036   5.407  1.00  0.00     0.114 C 
ATOM     91  H   UNL     1      13.777  -5.017   4.625  1.00  0.00     0.161 HD
ATOM     92  C   UNL     1      11.685  -0.881   3.307  1.00  0.00    -0.030 C 
ATOM     93  C   UNL     1      13.001  -1.577   3.448  1.00  0.00     0.034 C 
BRANCH  90  94
ATOM     94  C   UNL     1      15.332  -2.954   4.912  1.00  0.00    -0.022 A 
ATOM     95  C   UNL     1      16.159  -1.921   5.380  1.00  0.00     0.026 A 
ATOM     96  C   UNL     1      15.885  -3.855   3.994  1.00  0.00     0.026 A 
ATOM     97  C   UNL     1      17.465  -1.837   4.922  1.00  0.00     0.111 A 
ATOM     98  C   UNL     1      17.208  -3.699   3.608  1.00  0.00     0.111 A 
ATOM     99  N   UNL     1      18.010  -2.708   4.051  1.00  0.00    -0.265 NA
ENDBRANCH  90  94
ENDBRANCH  77  80
ENDBRANCH  75  76
ENDBRANCH  74  75
ENDBRANCH  73  74
ENDBRANCH   1  73
TORSDOF 14
