REMARK SMILES O=C(CNc1nc(-c2ccccc2)c(-c2ccccc2)s1)NCCCCCCNC(=O)c1ccc(-c2c3nc(c(-c4c(F)c(F)c(F)c(F)c4F)c4ccc([nH]4)c(-c4c(F)c(F)c(F)c(F)c4F)c4nc(c(-c5c(F)c(F)c(F)c(F)c5F)c5ccc2[nH]5)C=C4)C=C3)cc1
REMARK SMILES IDX 25 1 24 2 23 3 22 4 1 5 2 6 3 8 4 9 5 11 6 12 21 13 7 14
REMARK SMILES IDX 14 15 8 16 9 17 13 18 10 19 12 20 11 21 15 22 16 23 20 24
REMARK SMILES IDX 17 25 19 26 18 27 26 28 27 29 28 30 29 31 30 32 31 34 32 35
REMARK SMILES IDX 33 36 94 37 34 38 93 39 35 40 36 41 37 42 87 43 38 44 92 45
REMARK SMILES IDX 86 46 88 47 39 48 91 49 85 50 84 51 40 53 72 54 52 55 71 56
REMARK SMILES IDX 53 57 56 58 70 59 89 60 54 61 55 62 69 64 90 65 57 66 41 67
REMARK SMILES IDX 42 68 50 69 43 70 44 71 48 72 51 73 45 74 46 75 49 76 47 77
REMARK SMILES IDX 73 78 74 79 82 80 75 81 76 82 80 83 83 84 77 85 78 86 81 87
REMARK SMILES IDX 79 88 58 89 59 90 67 91 60 92 61 93 65 94 68 95 62 96 63 97
REMARK SMILES IDX 66 98 64 99
REMARK H PARENT 22 7 4 10 29 33 88 52 56 63
REMARK Flexibility Score: inf
ROOT
ATOM      1  C   UNL     1       4.146  -3.526   0.852  1.00  0.00     0.002 C 
ENDROOT
BRANCH   1   2
ATOM      2  C   UNL     1       2.644  -3.293   0.631  1.00  0.00     0.021 C 
BRANCH   2   3
ATOM      3  C   UNL     1       2.112  -1.968   1.175  1.00  0.00     0.116 C 
BRANCH   3   4
ATOM      4  N   UNL     1       2.764  -0.833   0.561  1.00  0.00    -0.355 N 
ATOM      5  O   UNL     1       0.950  -0.028  -0.608  1.00  0.00    -0.273 OA
ATOM      6  C   UNL     1       2.128   0.064  -0.279  1.00  0.00     0.239 C 
ATOM      7  H   UNL     1       3.719  -0.689   0.752  1.00  0.00     0.163 HD
BRANCH   6   8
ATOM      8  C   UNL     1       3.061   1.173  -0.796  1.00  0.00     0.215 C 
BRANCH   8   9
ATOM      9  N   UNL     1       4.033   1.511   0.238  1.00  0.00    -0.352 N 
ATOM     10  H   UNL     1       3.725   1.616   1.167  1.00  0.00     0.163 HD
BRANCH   9  11
ATOM     11  C   UNL     1       5.337   1.682  -0.040  1.00  0.00     0.184 A 
ATOM     12  N   UNL     1       5.851   1.852  -1.234  1.00  0.00    -0.220 NA
ATOM     13  S   UNL     1       6.475   1.645   1.249  1.00  0.00    -0.096 S 
ATOM     14  C   UNL     1       7.233   1.943  -1.148  1.00  0.00     0.091 A 
ATOM     15  C   UNL     1       7.762   1.797   0.125  1.00  0.00     0.064 A 
BRANCH  14  16
ATOM     16  C   UNL     1       8.043   2.204  -2.328  1.00  0.00     0.002 A 
ATOM     17  C   UNL     1       9.039   1.308  -2.735  1.00  0.00     0.010 A 
ATOM     18  C   UNL     1       7.870   3.404  -3.029  1.00  0.00     0.010 A 
ATOM     19  C   UNL     1       9.874   1.624  -3.808  1.00  0.00     0.001 A 
ATOM     20  C   UNL     1       8.710   3.721  -4.099  1.00  0.00     0.001 A 
ATOM     21  C   UNL     1       9.715   2.834  -4.483  1.00  0.00     0.000 A 
ENDBRANCH  14  16
BRANCH  15  22
ATOM     22  C   UNL     1       9.145   1.799   0.602  1.00  0.00    -0.006 A 
ATOM     23  C   UNL     1       9.682   0.663   1.225  1.00  0.00     0.009 A 
ATOM     24  C   UNL     1       9.967   2.915   0.398  1.00  0.00     0.009 A 
ATOM     25  C   UNL     1      11.016   0.644   1.635  1.00  0.00     0.001 A 
ATOM     26  C   UNL     1      11.301   2.894   0.808  1.00  0.00     0.001 A 
ATOM     27  C   UNL     1      11.825   1.759   1.425  1.00  0.00     0.000 A 
ENDBRANCH  15  22
ENDBRANCH   9  11
ENDBRANCH   8   9
ENDBRANCH   6   8
ENDBRANCH   3   4
ENDBRANCH   2   3
ENDBRANCH   1   2
BRANCH   1  28
ATOM     28  C   UNL     1       4.618  -3.496   2.309  1.00  0.00     0.002 C 
BRANCH  28  29
ATOM     29  C   UNL     1       3.930  -4.490   3.247  1.00  0.00     0.021 C 
BRANCH  29  30
ATOM     30  C   UNL     1       4.053  -5.958   2.847  1.00  0.00     0.116 C 
BRANCH  30  31
ATOM     31  N   UNL     1       5.426  -6.438   2.879  1.00  0.00    -0.352 N 
ATOM     32  C   UNL     1       5.939  -7.582   3.436  1.00  0.00     0.251 C 
ATOM     33  H   UNL     1       6.084  -5.855   2.436  1.00  0.00     0.163 HD
ATOM     34  O   UNL     1       7.158  -7.745   3.487  1.00  0.00    -0.269 OA
BRANCH  32  35
ATOM     35  C   UNL     1       5.042  -8.616   3.998  1.00  0.00     0.039 A 
ATOM     36  C   UNL     1       5.386  -9.217   5.214  1.00  0.00     0.014 A 
ATOM     37  C   UNL     1       3.886  -9.021   3.325  1.00  0.00     0.014 A 
ATOM     38  C   UNL     1       4.547 -10.183   5.777  1.00  0.00     0.010 A 
ATOM     39  C   UNL     1       3.017  -9.935   3.919  1.00  0.00     0.010 A 
ATOM     40  C   UNL     1       3.342 -10.532   5.148  1.00  0.00    -0.014 A 
BRANCH  40  41
ATOM     41  C   UNL     1       2.424 -11.539   5.741  1.00  0.00     0.031 A 
ATOM     42  C   UNL     1       2.172 -12.839   5.028  1.00  0.00     0.074 A 
ATOM     43  C   UNL     1       1.776 -11.266   6.891  1.00  0.00     0.049 A 
ATOM     44  N   UNL     1       1.338 -13.804   5.329  1.00  0.00    -0.248 NA
ATOM     45  C   UNL     1       2.943 -13.077   3.797  1.00  0.00     0.031 C 
ATOM     46  C   UNL     1       1.905 -10.029   7.662  1.00  0.00     0.029 A 
ATOM     47  N   UNL     1       0.868 -12.008   7.605  1.00  0.00    -0.354 N 
ATOM     48  C   UNL     1       1.479 -14.753   4.324  1.00  0.00     0.074 A 
ATOM     49  C   UNL     1       2.436 -14.226   3.376  1.00  0.00     0.031 C 
ATOM     50  C   UNL     1       1.113 -10.101   8.745  1.00  0.00     0.029 A 
ATOM     51  C   UNL     1       0.396 -11.372   8.728  1.00  0.00     0.049 A 
ATOM     52  H   UNL     1       0.581 -12.912   7.337  1.00  0.00     0.167 HD
ATOM     53  C   UNL     1       0.885 -15.965   4.216  1.00  0.00     0.037 A 
ATOM     54  C   UNL     1      -0.519 -11.767   9.634  1.00  0.00     0.037 A 
ATOM     55  C   UNL     1      -0.050 -16.500   5.170  1.00  0.00     0.049 A 
ATOM     56  C   UNL     1      -1.164 -13.120   9.488  1.00  0.00     0.074 A 
ATOM     57  C   UNL     1      -0.696 -17.725   5.155  1.00  0.00     0.029 A 
ATOM     58  N   UNL     1      -0.466 -15.844   6.319  1.00  0.00    -0.354 N 
ATOM     59  N   UNL     1      -0.992 -14.024   8.554  1.00  0.00    -0.248 NA
ATOM     60  C   UNL     1      -2.122 -13.514  10.531  1.00  0.00     0.031 C 
ATOM     61  C   UNL     1      -1.522 -17.799   6.281  1.00  0.00     0.029 A 
ATOM     62  C   UNL     1      -1.358 -16.639   7.020  1.00  0.00     0.049 A 
ATOM     63  H   UNL     1      -0.171 -14.946   6.595  1.00  0.00     0.167 HD
ATOM     64  C   UNL     1      -1.786 -15.104   8.917  1.00  0.00     0.074 A 
ATOM     65  C   UNL     1      -2.433 -14.748  10.162  1.00  0.00     0.031 C 
ATOM     66  C   UNL     1      -1.967 -16.283   8.274  1.00  0.00     0.037 A 
BRANCH  53  67
ATOM     67  C   UNL     1       1.244 -16.812   3.030  1.00  0.00     0.064 A 
ATOM     68  C   UNL     1       2.506 -17.415   2.921  1.00  0.00     0.173 A 
ATOM     69  C   UNL     1       0.305 -17.068   2.020  1.00  0.00     0.173 A 
ATOM     70  F   UNL     1       3.444 -17.191   3.854  1.00  0.00    -0.203 F 
ATOM     71  C   UNL     1       2.822 -18.226   1.835  1.00  0.00     0.198 A 
ATOM     72  C   UNL     1       0.614 -17.904   0.950  1.00  0.00     0.198 A 
ATOM     73  F   UNL     1      -0.918 -16.521   2.079  1.00  0.00    -0.203 F 
ATOM     74  F   UNL     1       4.047 -18.759   1.732  1.00  0.00    -0.200 F 
ATOM     75  C   UNL     1       1.873 -18.477   0.855  1.00  0.00     0.200 A 
ATOM     76  F   UNL     1      -0.308 -18.156   0.010  1.00  0.00    -0.200 F 
ATOM     77  F   UNL     1       2.174 -19.269  -0.183  1.00  0.00    -0.200 F 
ENDBRANCH  53  67
BRANCH  54  78
ATOM     78  C   UNL     1      -0.877 -10.881  10.773  1.00  0.00     0.064 A 
ATOM     79  C   UNL     1      -0.532 -11.223  12.089  1.00  0.00     0.173 A 
ATOM     80  C   UNL     1      -1.602  -9.697  10.576  1.00  0.00     0.173 A 
ATOM     81  F   UNL     1       0.143 -12.356  12.331  1.00  0.00    -0.203 F 
ATOM     82  C   UNL     1      -0.929 -10.433  13.166  1.00  0.00     0.198 A 
ATOM     83  C   UNL     1      -1.972  -8.892  11.652  1.00  0.00     0.198 A 
ATOM     84  F   UNL     1      -1.953  -9.322   9.338  1.00  0.00    -0.203 F 
ATOM     85  F   UNL     1      -0.639 -10.816  14.417  1.00  0.00    -0.200 F 
ATOM     86  C   UNL     1      -1.646  -9.267  12.947  1.00  0.00     0.200 A 
ATOM     87  F   UNL     1      -2.653  -7.759  11.435  1.00  0.00    -0.200 F 
ATOM     88  F   UNL     1      -2.033  -8.511  13.983  1.00  0.00    -0.200 F 
ENDBRANCH  54  78
BRANCH  66  89
ATOM     89  C   UNL     1      -2.847 -17.302   8.937  1.00  0.00     0.064 A 
ATOM     90  C   UNL     1      -4.239 -17.149   8.999  1.00  0.00     0.173 A 
ATOM     91  C   UNL     1      -2.288 -18.467   9.485  1.00  0.00     0.173 A 
ATOM     92  F   UNL     1      -4.819 -16.046   8.502  1.00  0.00    -0.203 F 
ATOM     93  C   UNL     1      -5.038 -18.112   9.610  1.00  0.00     0.198 A 
ATOM     94  C   UNL     1      -3.092 -19.441  10.069  1.00  0.00     0.198 A 
ATOM     95  F   UNL     1      -0.962 -18.665   9.444  1.00  0.00    -0.203 F 
ATOM     96  F   UNL     1      -6.361 -17.922   9.701  1.00  0.00    -0.200 F 
ATOM     97  C   UNL     1      -4.465 -19.259  10.138  1.00  0.00     0.200 A 
ATOM     98  F   UNL     1      -2.538 -20.555  10.567  1.00  0.00    -0.200 F 
ATOM     99  F   UNL     1      -5.236 -20.187  10.721  1.00  0.00    -0.200 F 
ENDBRANCH  66  89
ENDBRANCH  40  41
ENDBRANCH  32  35
ENDBRANCH  30  31
ENDBRANCH  29  30
ENDBRANCH  28  29
ENDBRANCH   1  28
TORSDOF 17
