REMARK SMILES O=C(NCCCCCCNC(=O)c1ccc(-c2c3nc(c(-c4c(F)c(F)c(F)c(F)c4F)c4ccc([nH]4)c(-c4c(F)c(F)c(F)c(F)c4F)c4nc(c(-c5c(F)c(F)c(F)c(F)c5F)c5ccc2[nH]5)C=C4)C=C3)cc1)C1=Cc2cc(Cl)c(Cl)c(Cl)c2O[C@@H]1C(F)(F)F
REMARK SMILES IDX 7 1 6 2 5 3 4 4 3 5 1 6 2 7 76 9 77 10 88 11 78 12 87 13
REMARK SMILES IDX 79 14 86 15 80 16 84 17 81 18 82 19 85 20 83 21 89 22 90 23
REMARK SMILES IDX 91 24 92 25 8 26 9 27 10 28 11 29 12 31 13 32 14 33 75 34
REMARK SMILES IDX 15 35 74 36 16 37 17 38 18 39 68 40 19 41 73 42 67 43 69 44
REMARK SMILES IDX 20 45 72 46 66 47 65 48 21 50 53 51 33 52 52 53 34 54 37 55
REMARK SMILES IDX 51 56 70 57 35 58 36 59 50 61 71 62 38 63 22 64 23 65 31 66
REMARK SMILES IDX 24 67 25 68 29 69 32 70 26 71 27 72 30 73 28 74 54 75 55 76
REMARK SMILES IDX 63 77 56 78 57 79 61 80 64 81 58 82 59 83 62 84 60 85 39 86
REMARK SMILES IDX 40 87 48 88 41 89 42 90 46 91 49 92 43 93 44 94 47 95 45 96
REMARK H PARENT 3 8 10 30 69 49 37 60
REMARK Flexibility Score: inf
ROOT
ATOM      1  C   UNL     1       4.427   3.940   2.452  1.00  0.00     0.002 C 
ENDROOT
BRANCH   1   2
ATOM      2  C   UNL     1       3.809   4.267   1.087  1.00  0.00     0.002 C 
BRANCH   2   3
ATOM      3  C   UNL     1       4.223   3.391  -0.094  1.00  0.00     0.021 C 
BRANCH   3   4
ATOM      4  C   UNL     1       4.015   1.889   0.059  1.00  0.00     0.116 C 
BRANCH   4   5
ATOM      5  N   UNL     1       2.699   1.402  -0.312  1.00  0.00    -0.352 N 
ATOM      6  O   UNL     1       1.086  -0.094  -0.762  1.00  0.00    -0.270 OA
ATOM      7  C   UNL     1       2.284   0.129  -0.595  1.00  0.00     0.251 C 
ATOM      8  H   UNL     1       1.999   2.092  -0.368  1.00  0.00     0.163 HD
BRANCH   7   9
ATOM      9  C   UNL     1       3.226  -1.029  -0.619  1.00  0.00     0.067 C 
ATOM     10  C   UNL     1       4.459  -0.931  -1.143  1.00  0.00     0.025 C 
ATOM     11  C   UNL     1       2.988  -2.003   0.512  1.00  0.00     0.314 C 
ATOM     12  C   UNL     1       5.509  -0.964  -0.098  1.00  0.00     0.020 A 
ATOM     13  O   UNL     1       3.965  -1.822   1.573  1.00  0.00    -0.474 OA
ATOM     14  C   UNL     1       6.750  -0.399  -0.402  1.00  0.00     0.034 A 
ATOM     15  C   UNL     1       5.190  -1.300   1.227  1.00  0.00     0.148 A 
ATOM     16  C   UNL     1       7.638  -0.075   0.627  1.00  0.00     0.062 A 
ATOM     17  C   UNL     1       6.096  -0.998   2.259  1.00  0.00     0.103 A 
ATOM     18  Cl  UNL     1       9.076   0.774   0.175  1.00  0.00    -0.083 Cl
ATOM     19  C   UNL     1       7.312  -0.356   1.963  1.00  0.00     0.082 A 
ATOM     20  Cl  UNL     1       5.633  -1.333   3.899  1.00  0.00    -0.079 Cl
ATOM     21  Cl  UNL     1       8.373   0.160   3.240  1.00  0.00    -0.081 Cl
BRANCH  11  22
ATOM     22  C   UNL     1       2.951  -3.462   0.028  1.00  0.00     0.429 C 
ATOM     23  F   UNL     1       2.607  -4.307   1.027  1.00  0.00    -0.167 F 
ATOM     24  F   UNL     1       2.053  -3.638  -0.970  1.00  0.00    -0.167 F 
ATOM     25  F   UNL     1       4.155  -3.870  -0.445  1.00  0.00    -0.167 F 
ENDBRANCH  11  22
ENDBRANCH   7   9
ENDBRANCH   4   5
ENDBRANCH   3   4
ENDBRANCH   2   3
ENDBRANCH   1   2
BRANCH   1  26
ATOM     26  C   UNL     1       5.942   3.722   2.509  1.00  0.00     0.021 C 
BRANCH  26  27
ATOM     27  C   UNL     1       6.824   4.834   1.945  1.00  0.00     0.116 C 
BRANCH  27  28
ATOM     28  N   UNL     1       6.633   6.113   2.602  1.00  0.00    -0.352 N 
ATOM     29  C   UNL     1       7.554   7.007   3.092  1.00  0.00     0.251 C 
ATOM     30  H   UNL     1       5.693   6.384   2.714  1.00  0.00     0.163 HD
ATOM     31  O   UNL     1       7.164   7.998   3.703  1.00  0.00    -0.269 OA
BRANCH  29  32
ATOM     32  C   UNL     1       9.011   6.788   2.922  1.00  0.00     0.039 A 
ATOM     33  C   UNL     1       9.855   7.087   3.998  1.00  0.00     0.014 A 
ATOM     34  C   UNL     1       9.562   6.348   1.716  1.00  0.00     0.014 A 
ATOM     35  C   UNL     1      11.236   6.896   3.884  1.00  0.00     0.010 A 
ATOM     36  C   UNL     1      10.933   6.098   1.622  1.00  0.00     0.010 A 
ATOM     37  C   UNL     1      11.785   6.374   2.703  1.00  0.00    -0.014 A 
BRANCH  37  38
ATOM     38  C   UNL     1      13.246   6.119   2.585  1.00  0.00     0.031 A 
ATOM     39  C   UNL     1      14.081   6.908   1.614  1.00  0.00     0.074 A 
ATOM     40  C   UNL     1      13.814   5.140   3.317  1.00  0.00     0.049 A 
ATOM     41  N   UNL     1      15.355   6.792   1.330  1.00  0.00    -0.248 NA
ATOM     42  C   UNL     1      13.390   7.953   0.844  1.00  0.00     0.031 C 
ATOM     43  C   UNL     1      13.110   4.279   4.268  1.00  0.00     0.029 A 
ATOM     44  N   UNL     1      15.114   4.699   3.370  1.00  0.00    -0.354 N 
ATOM     45  C   UNL     1      15.610   7.729   0.338  1.00  0.00     0.074 A 
ATOM     46  C   UNL     1      14.353   8.382   0.041  1.00  0.00     0.031 C 
ATOM     47  C   UNL     1      13.987   3.429   4.825  1.00  0.00     0.029 A 
ATOM     48  C   UNL     1      15.308   3.659   4.246  1.00  0.00     0.049 A 
ATOM     49  H   UNL     1      15.838   5.091   2.830  1.00  0.00     0.167 HD
ATOM     50  C   UNL     1      16.789   8.031  -0.258  1.00  0.00     0.037 A 
ATOM     51  C   UNL     1      16.423   2.965   4.544  1.00  0.00     0.037 A 
ATOM     52  C   UNL     1      18.047   7.409   0.066  1.00  0.00     0.049 A 
ATOM     53  C   UNL     1      17.718   3.320   3.863  1.00  0.00     0.074 A 
ATOM     54  C   UNL     1      19.307   7.703  -0.428  1.00  0.00     0.029 A 
ATOM     55  N   UNL     1      18.204   6.366   0.966  1.00  0.00    -0.354 N 
ATOM     56  N   UNL     1      17.959   4.258   2.980  1.00  0.00    -0.248 NA
ATOM     57  C   UNL     1      18.897   2.520   4.225  1.00  0.00     0.031 C 
ATOM     58  C   UNL     1      20.219   6.807   0.139  1.00  0.00     0.029 A 
ATOM     59  C   UNL     1      19.536   5.987   1.022  1.00  0.00     0.049 A 
ATOM     60  H   UNL     1      17.477   5.956   1.488  1.00  0.00     0.167 HD
ATOM     61  C   UNL     1      19.318   4.183   2.706  1.00  0.00     0.074 A 
ATOM     62  C   UNL     1      19.852   3.115   3.525  1.00  0.00     0.031 C 
ATOM     63  C   UNL     1      20.057   4.933   1.853  1.00  0.00     0.037 A 
BRANCH  50  64
ATOM     64  C   UNL     1      16.783   9.084  -1.328  1.00  0.00     0.064 A 
ATOM     65  C   UNL     1      16.601  10.441  -1.025  1.00  0.00     0.173 A 
ATOM     66  C   UNL     1      17.020   8.736  -2.667  1.00  0.00     0.173 A 
ATOM     67  F   UNL     1      16.363  10.825   0.238  1.00  0.00    -0.203 F 
ATOM     68  C   UNL     1      16.633  11.409  -2.026  1.00  0.00     0.198 A 
ATOM     69  C   UNL     1      17.079   9.709  -3.661  1.00  0.00     0.198 A 
ATOM     70  F   UNL     1      17.208   7.453  -3.010  1.00  0.00    -0.203 F 
ATOM     71  F   UNL     1      16.417  12.696  -1.719  1.00  0.00    -0.200 F 
ATOM     72  C   UNL     1      16.880  11.044  -3.341  1.00  0.00     0.200 A 
ATOM     73  F   UNL     1      17.331   9.356  -4.929  1.00  0.00    -0.200 F 
ATOM     74  F   UNL     1      16.921  11.977  -4.301  1.00  0.00    -0.200 F 
ENDBRANCH  50  64
BRANCH  51  75
ATOM     75  C   UNL     1      16.376   1.875   5.554  1.00  0.00     0.064 A 
ATOM     76  C   UNL     1      17.017   2.019   6.793  1.00  0.00     0.173 A 
ATOM     77  C   UNL     1      15.714   0.666   5.298  1.00  0.00     0.173 A 
ATOM     78  F   UNL     1      17.684   3.148   7.074  1.00  0.00    -0.203 F 
ATOM     79  C   UNL     1      17.017   0.986   7.728  1.00  0.00     0.198 A 
ATOM     80  C   UNL     1      15.691  -0.356   6.245  1.00  0.00     0.198 A 
ATOM     81  F   UNL     1      15.087   0.478   4.128  1.00  0.00    -0.203 F 
ATOM     82  F   UNL     1      17.680   1.131   8.883  1.00  0.00    -0.200 F 
ATOM     83  C   UNL     1      16.349  -0.199   7.455  1.00  0.00     0.200 A 
ATOM     84  F   UNL     1      15.037  -1.495   5.982  1.00  0.00    -0.200 F 
ATOM     85  F   UNL     1      16.351  -1.193   8.354  1.00  0.00    -0.200 F 
ENDBRANCH  51  75
BRANCH  63  86
ATOM     86  C   UNL     1      21.531   4.655   1.790  1.00  0.00     0.064 A 
ATOM     87  C   UNL     1      22.037   3.499   1.179  1.00  0.00     0.173 A 
ATOM     88  C   UNL     1      22.449   5.577   2.315  1.00  0.00     0.173 A 
ATOM     89  F   UNL     1      21.200   2.579   0.676  1.00  0.00    -0.203 F 
ATOM     90  C   UNL     1      23.408   3.265   1.117  1.00  0.00     0.198 A 
ATOM     91  C   UNL     1      23.820   5.354   2.225  1.00  0.00     0.198 A 
ATOM     92  F   UNL     1      22.016   6.702   2.904  1.00  0.00    -0.203 F 
ATOM     93  F   UNL     1      23.868   2.131   0.569  1.00  0.00    -0.200 F 
ATOM     94  C   UNL     1      24.298   4.195   1.633  1.00  0.00     0.200 A 
ATOM     95  F   UNL     1      24.678   6.260   2.713  1.00  0.00    -0.200 F 
ATOM     96  F   UNL     1      25.617   3.971   1.566  1.00  0.00    -0.200 F 
ENDBRANCH  63  86
ENDBRANCH  37  38
ENDBRANCH  29  32
ENDBRANCH  27  28
ENDBRANCH  26  27
ENDBRANCH   1  26
TORSDOF 14
