REMARK SMILES O=C(CSc1nc(O)cc(=O)[nH]1)Nc1cccc(C(=O)NCCCCCCNC(=O)c2ccc(-c3c4nc(c(-c5c(F)c(F)c(F)c(F)c5F)c5ccc([nH]5)c(-c5c(F)c(F)c(F)c(F)c5F)c5nc(c(-c6c(F)c(F)c(F)c(F)c6F)c6ccc3[nH]6)C=C5)C=C4)cc2)c1
REMARK SMILES IDX 23 1 22 2 21 3 19 4 20 5 18 7 14 8 15 9 94 10 16 11 17 12
REMARK SMILES IDX 13 13 1 14 2 15 3 17 4 18 5 19 6 20 12 21 7 22 10 23 9 25
REMARK SMILES IDX 11 26 8 27 24 29 25 30 26 31 27 32 28 33 29 34 30 36 31 37
REMARK SMILES IDX 32 38 93 39 33 40 92 41 34 42 35 43 36 44 86 45 37 46 91 47
REMARK SMILES IDX 85 48 87 49 38 50 90 51 84 52 83 53 39 55 71 56 51 57 70 58
REMARK SMILES IDX 52 59 55 60 69 61 88 62 53 63 54 64 68 66 89 67 56 68 40 69
REMARK SMILES IDX 41 70 49 71 42 72 43 73 47 74 50 75 44 76 45 77 48 78 46 79
REMARK SMILES IDX 72 80 73 81 81 82 74 83 75 84 79 85 82 86 76 87 77 88 80 89
REMARK SMILES IDX 78 90 57 91 58 92 66 93 59 94 60 95 64 96 67 97 61 98 62 99
REMARK SMILES IDX 65 100 63 101
REMARK H PARENT 21 6 13 16 12 24 8 28 28 35 87 54 55 65
REMARK Flexibility Score: inf
ROOT
ATOM      1  C   UNL     1       0.132   4.618  -1.093  1.00  0.00     0.021 C 
ENDROOT
BRANCH   1   2
ATOM      2  C   UNL     1      -0.113   3.184  -1.545  1.00  0.00     0.116 C 
BRANCH   2   3
ATOM      3  N   UNL     1      -0.809   3.066  -2.819  1.00  0.00    -0.352 N 
ATOM      4  C   UNL     1      -0.597   2.206  -3.878  1.00  0.00     0.251 C 
ATOM      5  O   UNL     1      -1.293   2.313  -4.886  1.00  0.00    -0.269 OA
ATOM      6  H   UNL     1      -1.550   3.701  -2.945  1.00  0.00     0.163 HD
BRANCH   4   7
ATOM      7  C   UNL     1       0.499   1.201  -3.853  1.00  0.00     0.041 A 
ATOM      8  C   UNL     1       2.083  -0.121  -2.585  1.00  0.00     0.041 A 
ATOM      9  C   UNL     1       2.796  -0.377  -3.760  1.00  0.00     0.026 A 
ATOM     10  C   UNL     1       0.873   0.560  -2.673  1.00  0.00     0.040 A 
ATOM     11  C   UNL     1       2.337   0.117  -4.986  1.00  0.00     0.003 A 
ATOM     12  C   UNL     1       1.207   0.935  -5.029  1.00  0.00     0.014 A 
BRANCH   8  13
ATOM     13  N   UNL     1       2.670  -0.473  -1.352  1.00  0.00    -0.325 N 
ATOM     14  O   UNL     1       1.123   0.381   0.170  1.00  0.00    -0.274 OA
ATOM     15  C   UNL     1       2.190  -0.179  -0.083  1.00  0.00     0.234 C 
ATOM     16  H   UNL     1       3.511  -0.983  -1.396  1.00  0.00     0.169 HD
BRANCH  15  17
ATOM     17  C   UNL     1       3.158  -0.463   1.057  1.00  0.00     0.178 C 
BRANCH  17  18
ATOM     18  S   UNL     1       4.245  -1.890   0.810  1.00  0.00    -0.078 SA
BRANCH  18  19
ATOM     19  C   UNL     1       3.077  -3.170   0.710  1.00  0.00     0.172 A 
ATOM     20  N   UNL     1       1.838  -2.959   0.431  1.00  0.00    -0.189 NA
ATOM     21  N   UNL     1       3.625  -4.392   0.912  1.00  0.00    -0.301 N 
ATOM     22  C   UNL     1       1.050  -4.064   0.315  1.00  0.00     0.218 A 
ATOM     23  C   UNL     1       2.882  -5.529   0.812  1.00  0.00     0.255 A 
ATOM     24  H   UNL     1       4.582  -4.460   1.137  1.00  0.00     0.172 HD
ATOM     25  C   UNL     1       1.468  -5.321   0.475  1.00  0.00     0.139 A 
ATOM     26  O   UNL     1       3.352  -6.645   0.976  1.00  0.00    -0.269 OA
BRANCH  22  27
ATOM     27  O   UNL     1      -0.257  -3.820  -0.013  1.00  0.00    -0.493 OA
ATOM     28  H   UNL     1      -0.554  -2.938  -0.126  1.00  0.00     0.295 HD
ENDBRANCH  22  27
ENDBRANCH  18  19
ENDBRANCH  17  18
ENDBRANCH  15  17
ENDBRANCH   8  13
ENDBRANCH   4   7
ENDBRANCH   2   3
ENDBRANCH   1   2
BRANCH   1  29
ATOM     29  C   UNL     1      -1.109   5.441  -0.754  1.00  0.00     0.002 C 
BRANCH  29  30
ATOM     30  C   UNL     1      -2.055   4.838   0.289  1.00  0.00     0.002 C 
BRANCH  30  31
ATOM     31  C   UNL     1      -1.421   4.416   1.617  1.00  0.00     0.021 C 
BRANCH  31  32
ATOM     32  C   UNL     1      -0.614   5.491   2.339  1.00  0.00     0.116 C 
BRANCH  32  33
ATOM     33  N   UNL     1      -1.407   6.662   2.671  1.00  0.00    -0.352 N 
ATOM     34  C   UNL     1      -1.574   7.305   3.871  1.00  0.00     0.251 C 
ATOM     35  H   UNL     1      -1.902   7.056   1.916  1.00  0.00     0.163 HD
ATOM     36  O   UNL     1      -2.418   8.190   3.978  1.00  0.00    -0.269 OA
BRANCH  34  37
ATOM     37  C   UNL     1      -0.760   6.929   5.050  1.00  0.00     0.039 A 
ATOM     38  C   UNL     1      -1.387   6.860   6.298  1.00  0.00     0.014 A 
ATOM     39  C   UNL     1       0.612   6.684   4.946  1.00  0.00     0.014 A 
ATOM     40  C   UNL     1      -0.651   6.495   7.427  1.00  0.00     0.010 A 
ATOM     41  C   UNL     1       1.329   6.246   6.059  1.00  0.00     0.010 A 
ATOM     42  C   UNL     1       0.707   6.154   7.313  1.00  0.00    -0.014 A 
BRANCH  42  43
ATOM     43  C   UNL     1       1.478   5.699   8.499  1.00  0.00     0.031 A 
ATOM     44  C   UNL     1       2.637   6.508   9.015  1.00  0.00     0.074 A 
ATOM     45  C   UNL     1       1.157   4.532   9.091  1.00  0.00     0.049 A 
ATOM     46  N   UNL     1       3.435   6.262  10.024  1.00  0.00    -0.248 NA
ATOM     47  C   UNL     1       2.957   7.745   8.287  1.00  0.00     0.031 C 
ATOM     48  C   UNL     1       0.087   3.633   8.657  1.00  0.00     0.029 A 
ATOM     49  N   UNL     1       1.697   3.901  10.184  1.00  0.00    -0.354 N 
ATOM     50  C   UNL     1       4.350   7.307  10.048  1.00  0.00     0.074 A 
ATOM     51  C   UNL     1       4.049   8.156   8.916  1.00  0.00     0.031 C 
ATOM     52  C   UNL     1       0.028   2.584   9.492  1.00  0.00     0.029 A 
ATOM     53  C   UNL     1       1.079   2.715  10.496  1.00  0.00     0.049 A 
ATOM     54  H   UNL     1       2.456   4.264  10.696  1.00  0.00     0.167 HD
ATOM     55  C   UNL     1       5.336   7.549  10.945  1.00  0.00     0.037 A 
ATOM     56  C   UNL     1       1.332   1.830  11.479  1.00  0.00     0.037 A 
ATOM     57  C   UNL     1       5.624   6.708  12.079  1.00  0.00     0.049 A 
ATOM     58  C   UNL     1       2.442   2.117  12.455  1.00  0.00     0.074 A 
ATOM     59  C   UNL     1       6.568   6.894  13.075  1.00  0.00     0.029 A 
ATOM     60  N   UNL     1       4.974   5.516  12.364  1.00  0.00    -0.354 N 
ATOM     61  N   UNL     1       3.254   3.144  12.508  1.00  0.00    -0.248 NA
ATOM     62  C   UNL     1       2.663   1.123  13.514  1.00  0.00     0.031 C 
ATOM     63  C   UNL     1       6.527   5.787  13.930  1.00  0.00     0.029 A 
ATOM     64  C   UNL     1       5.515   4.942  13.505  1.00  0.00     0.049 A 
ATOM     65  H   UNL     1       4.237   5.134  11.835  1.00  0.00     0.167 HD
ATOM     66  C   UNL     1       4.060   2.937  13.620  1.00  0.00     0.074 A 
ATOM     67  C   UNL     1       3.624   1.695  14.223  1.00  0.00     0.031 C 
ATOM     68  C   UNL     1       5.071   3.705  14.097  1.00  0.00     0.037 A 
BRANCH  55  69
ATOM     69  C   UNL     1       6.180   8.776  10.739  1.00  0.00     0.064 A 
ATOM     70  C   UNL     1       5.654  10.068  10.899  1.00  0.00     0.173 A 
ATOM     71  C   UNL     1       7.540   8.660  10.413  1.00  0.00     0.173 A 
ATOM     72  F   UNL     1       4.358  10.238  11.201  1.00  0.00    -0.203 F 
ATOM     73  C   UNL     1       6.450  11.196  10.710  1.00  0.00     0.198 A 
ATOM     74  C   UNL     1       8.341   9.789  10.259  1.00  0.00     0.198 A 
ATOM     75  F   UNL     1       8.097   7.450  10.254  1.00  0.00    -0.203 F 
ATOM     76  F   UNL     1       5.912  12.419  10.816  1.00  0.00    -0.200 F 
ATOM     77  C   UNL     1       7.793  11.056  10.398  1.00  0.00     0.200 A 
ATOM     78  F   UNL     1       9.643   9.652   9.972  1.00  0.00    -0.200 F 
ATOM     79  F   UNL     1       8.560  12.141  10.225  1.00  0.00    -0.200 F 
ENDBRANCH  55  69
BRANCH  56  80
ATOM     80  C   UNL     1       0.504   0.601  11.607  1.00  0.00     0.064 A 
ATOM     81  C   UNL     1      -0.359   0.422  12.697  1.00  0.00     0.173 A 
ATOM     82  C   UNL     1       0.566  -0.423  10.650  1.00  0.00     0.173 A 
ATOM     83  F   UNL     1      -0.438   1.363  13.649  1.00  0.00    -0.203 F 
ATOM     84  C   UNL     1      -1.108  -0.744  12.838  1.00  0.00     0.198 A 
ATOM     85  C   UNL     1      -0.209  -1.574  10.775  1.00  0.00     0.198 A 
ATOM     86  F   UNL     1       1.372  -0.300   9.585  1.00  0.00    -0.203 F 
ATOM     87  F   UNL     1      -1.884  -0.912  13.918  1.00  0.00    -0.200 F 
ATOM     88  C   UNL     1      -1.037  -1.738  11.875  1.00  0.00     0.200 A 
ATOM     89  F   UNL     1      -0.148  -2.525   9.833  1.00  0.00    -0.200 F 
ATOM     90  F   UNL     1      -1.760  -2.858  12.010  1.00  0.00    -0.200 F 
ENDBRANCH  56  80
BRANCH  68  91
ATOM     91  C   UNL     1       5.750   3.242  15.355  1.00  0.00     0.064 A 
ATOM     92  C   UNL     1       6.566   2.101  15.378  1.00  0.00     0.173 A 
ATOM     93  C   UNL     1       5.599   3.962  16.550  1.00  0.00     0.173 A 
ATOM     94  F   UNL     1       6.734   1.368  14.266  1.00  0.00    -0.203 F 
ATOM     95  C   UNL     1       7.174   1.678  16.557  1.00  0.00     0.198 A 
ATOM     96  C   UNL     1       6.237   3.558  17.719  1.00  0.00     0.198 A 
ATOM     97  F   UNL     1       4.837   5.066  16.583  1.00  0.00    -0.203 F 
ATOM     98  F   UNL     1       7.899   0.550  16.568  1.00  0.00    -0.200 F 
ATOM     99  C   UNL     1       7.015   2.410  17.724  1.00  0.00     0.200 A 
ATOM    100  F   UNL     1       6.096   4.276  18.841  1.00  0.00    -0.200 F 
ATOM    101  F   UNL     1       7.604   2.003  18.857  1.00  0.00    -0.200 F 
ENDBRANCH  68  91
ENDBRANCH  42  43
ENDBRANCH  34  37
ENDBRANCH  32  33
ENDBRANCH  31  32
ENDBRANCH  30  31
ENDBRANCH  29  30
ENDBRANCH   1  29
TORSDOF 18
