REMARK SMILES CN(C)C(=O)c1cccc(NCc2cc(C(=O)NCCCCCCNC(=O)c3ccc(-c4c5nc(c(-c6c(F)c(F)c(F)c(F)c6F)c6ccc([nH]6)c(-c6c(F)c(F)c(F)c(F)c6F)c6nc(c(-c7c(F)c(F)c(F)c(F)c7F)c7ccc4[nH]7)C=C6)C=C5)cc3)cs2)c1
REMARK SMILES IDX 20 1 19 2 18 3 16 4 17 5 15 7 13 8 14 9 92 10 91 11 12 12
REMARK SMILES IDX 11 13 10 15 6 16 7 17 93 18 8 19 9 20 4 21 1 22 2 23 3 24
REMARK SMILES IDX 5 25 21 26 22 27 23 28 24 29 25 30 26 31 27 33 28 34 29 35
REMARK SMILES IDX 90 36 30 37 89 38 31 39 32 40 33 41 83 42 34 43 88 44 82 45
REMARK SMILES IDX 84 46 35 47 87 48 81 49 80 50 36 52 68 53 48 54 67 55 49 56
REMARK SMILES IDX 52 57 66 58 85 59 50 60 51 61 65 63 86 64 53 65 37 66 38 67
REMARK SMILES IDX 46 68 39 69 40 70 44 71 47 72 41 73 42 74 45 75 43 76 69 77
REMARK SMILES IDX 70 78 78 79 71 80 72 81 76 82 79 83 73 84 74 85 77 86 75 87
REMARK SMILES IDX 54 88 55 89 63 90 56 91 57 92 61 93 64 94 58 95 59 96 62 97
REMARK SMILES IDX 60 98
REMARK H PARENT 18 6 11 14 25 32 84 51 52 62
REMARK Flexibility Score: inf
ROOT
ATOM      1  C   UNL     1      -5.623  -6.083  10.127  1.00  0.00     0.021 C 
ENDROOT
BRANCH   1   2
ATOM      2  C   UNL     1      -6.537  -5.087   9.414  1.00  0.00     0.116 C 
BRANCH   2   3
ATOM      3  N   UNL     1      -6.424  -3.779  10.022  1.00  0.00    -0.352 N 
ATOM      4  C   UNL     1      -5.788  -2.627   9.637  1.00  0.00     0.252 C 
ATOM      5  O   UNL     1      -5.909  -1.656  10.383  1.00  0.00    -0.269 OA
ATOM      6  H   UNL     1      -6.897  -3.700  10.882  1.00  0.00     0.163 HD
BRANCH   4   7
ATOM      7  C   UNL     1      -5.060  -2.528   8.368  1.00  0.00     0.050 A 
ATOM      8  C   UNL     1      -4.080  -3.066   6.291  1.00  0.00     0.024 A 
ATOM      9  C   UNL     1      -4.499  -3.542   7.521  1.00  0.00     0.031 A 
ATOM     10  S   UNL     1      -4.103  -1.359   6.260  1.00  0.00    -0.146 S 
ATOM     11  C   UNL     1      -4.795  -1.283   7.817  1.00  0.00     0.079 A 
BRANCH   8  12
ATOM     12  C   UNL     1      -3.712  -3.892   5.088  1.00  0.00     0.159 C 
BRANCH  12  13
ATOM     13  N   UNL     1      -2.948  -3.239   4.047  1.00  0.00    -0.380 N 
ATOM     14  H   UNL     1      -3.451  -2.677   3.414  1.00  0.00     0.160 HD
BRANCH  13  15
ATOM     15  C   UNL     1      -1.587  -3.325   3.854  1.00  0.00     0.035 A 
ATOM     16  C   UNL     1       0.343  -2.645   2.518  1.00  0.00     0.042 A 
ATOM     17  C   UNL     1       1.175  -3.480   3.264  1.00  0.00     0.014 A 
ATOM     18  C   UNL     1      -1.030  -2.609   2.787  1.00  0.00     0.039 A 
ATOM     19  C   UNL     1       0.634  -4.230   4.305  1.00  0.00     0.003 A 
ATOM     20  C   UNL     1      -0.733  -4.144   4.598  1.00  0.00     0.026 A 
BRANCH  16  21
ATOM     21  C   UNL     1       0.914  -1.883   1.381  1.00  0.00     0.253 C 
ATOM     22  C   UNL     1       0.936   0.063  -0.074  1.00  0.00     0.146 C 
ATOM     23  N   UNL     1       0.529  -0.557   1.173  1.00  0.00    -0.345 N 
ATOM     24  C   UNL     1      -0.157   0.284   2.144  1.00  0.00     0.146 C 
ATOM     25  O   UNL     1       1.708  -2.466   0.643  1.00  0.00    -0.269 OA
ENDBRANCH  16  21
ENDBRANCH  13  15
ENDBRANCH  12  13
ENDBRANCH   8  12
ENDBRANCH   4   7
ENDBRANCH   2   3
ENDBRANCH   1   2
BRANCH   1  26
ATOM     26  C   UNL     1      -6.237  -6.634  11.422  1.00  0.00     0.002 C 
BRANCH  26  27
ATOM     27  C   UNL     1      -7.543  -7.417  11.231  1.00  0.00     0.002 C 
BRANCH  27  28
ATOM     28  C   UNL     1      -7.457  -8.575  10.233  1.00  0.00     0.021 C 
BRANCH  28  29
ATOM     29  C   UNL     1      -6.457  -9.657  10.628  1.00  0.00     0.116 C 
BRANCH  29  30
ATOM     30  N   UNL     1      -6.842 -10.314  11.869  1.00  0.00    -0.352 N 
ATOM     31  C   UNL     1      -7.190 -11.623  12.088  1.00  0.00     0.251 C 
ATOM     32  H   UNL     1      -6.855  -9.736  12.666  1.00  0.00     0.163 HD
ATOM     33  O   UNL     1      -7.728 -11.960  13.136  1.00  0.00    -0.269 OA
BRANCH  31  34
ATOM     34  C   UNL     1      -6.923 -12.627  11.039  1.00  0.00     0.039 A 
ATOM     35  C   UNL     1      -7.929 -13.528  10.686  1.00  0.00     0.014 A 
ATOM     36  C   UNL     1      -5.682 -12.662  10.398  1.00  0.00     0.014 A 
ATOM     37  C   UNL     1      -7.718 -14.416   9.630  1.00  0.00     0.010 A 
ATOM     38  C   UNL     1      -5.498 -13.496   9.301  1.00  0.00     0.010 A 
ATOM     39  C   UNL     1      -6.518 -14.374   8.901  1.00  0.00    -0.014 A 
BRANCH  39  40
ATOM     40  C   UNL     1      -6.315 -15.213   7.694  1.00  0.00     0.031 A 
ATOM     41  C   UNL     1      -5.240 -16.259   7.674  1.00  0.00     0.074 A 
ATOM     42  C   UNL     1      -7.046 -14.968   6.590  1.00  0.00     0.049 A 
ATOM     43  N   UNL     1      -4.839 -17.015   6.684  1.00  0.00    -0.248 NA
ATOM     44  C   UNL     1      -4.499 -16.466   8.928  1.00  0.00     0.031 C 
ATOM     45  C   UNL     1      -8.098 -13.956   6.479  1.00  0.00     0.029 A 
ATOM     46  N   UNL     1      -7.005 -15.541   5.343  1.00  0.00    -0.354 N 
ATOM     47  C   UNL     1      -3.798 -17.780   7.192  1.00  0.00     0.074 A 
ATOM     48  C   UNL     1      -3.590 -17.356   8.560  1.00  0.00     0.031 C 
ATOM     49  C   UNL     1      -8.615 -13.993   5.242  1.00  0.00     0.029 A 
ATOM     50  C   UNL     1      -7.899 -14.993   4.457  1.00  0.00     0.049 A 
ATOM     51  H   UNL     1      -6.392 -16.275   5.107  1.00  0.00     0.167 HD
ATOM     52  C   UNL     1      -3.095 -18.762   6.578  1.00  0.00     0.037 A 
ATOM     53  C   UNL     1      -8.105 -15.255   3.152  1.00  0.00     0.037 A 
ATOM     54  C   UNL     1      -3.312 -19.180   5.217  1.00  0.00     0.049 A 
ATOM     55  C   UNL     1      -7.267 -16.307   2.475  1.00  0.00     0.074 A 
ATOM     56  C   UNL     1      -2.691 -20.200   4.519  1.00  0.00     0.029 A 
ATOM     57  N   UNL     1      -4.215 -18.590   4.344  1.00  0.00    -0.354 N 
ATOM     58  N   UNL     1      -6.333 -17.073   2.983  1.00  0.00    -0.248 NA
ATOM     59  C   UNL     1      -7.509 -16.525   1.042  1.00  0.00     0.031 C 
ATOM     60  C   UNL     1      -3.174 -20.187   3.206  1.00  0.00     0.029 A 
ATOM     61  C   UNL     1      -4.138 -19.198   3.101  1.00  0.00     0.049 A 
ATOM     62  H   UNL     1      -4.821 -17.848   4.574  1.00  0.00     0.167 HD
ATOM     63  C   UNL     1      -5.892 -17.878   1.942  1.00  0.00     0.074 A 
ATOM     64  C   UNL     1      -6.673 -17.519   0.777  1.00  0.00     0.031 C 
ATOM     65  C   UNL     1      -4.924 -18.828   1.950  1.00  0.00     0.037 A 
BRANCH  52  66
ATOM     66  C   UNL     1      -2.020 -19.446   7.373  1.00  0.00     0.064 A 
ATOM     67  C   UNL     1      -2.325 -20.274   8.465  1.00  0.00     0.173 A 
ATOM     68  C   UNL     1      -0.669 -19.291   7.027  1.00  0.00     0.173 A 
ATOM     69  F   UNL     1      -3.599 -20.449   8.845  1.00  0.00    -0.203 F 
ATOM     70  C   UNL     1      -1.317 -20.890   9.202  1.00  0.00     0.198 A 
ATOM     71  C   UNL     1       0.335 -19.937   7.745  1.00  0.00     0.198 A 
ATOM     72  F   UNL     1      -0.321 -18.517   5.988  1.00  0.00    -0.203 F 
ATOM     73  F   UNL     1      -1.630 -21.628  10.276  1.00  0.00    -0.200 F 
ATOM     74  C   UNL     1       0.011 -20.726   8.838  1.00  0.00     0.200 A 
ATOM     75  F   UNL     1       1.616 -19.790   7.382  1.00  0.00    -0.200 F 
ATOM     76  F   UNL     1       0.980 -21.323   9.546  1.00  0.00    -0.200 F 
ENDBRANCH  52  66
BRANCH  53  77
ATOM     77  C   UNL     1      -9.154 -14.515   2.402  1.00  0.00     0.064 A 
ATOM     78  C   UNL     1     -10.306 -15.171   1.946  1.00  0.00     0.173 A 
ATOM     79  C   UNL     1      -9.031 -13.145   2.128  1.00  0.00     0.173 A 
ATOM     80  F   UNL     1     -10.459 -16.485   2.166  1.00  0.00    -0.203 F 
ATOM     81  C   UNL     1     -11.287 -14.489   1.230  1.00  0.00     0.198 A 
ATOM     82  C   UNL     1     -10.027 -12.457   1.438  1.00  0.00     0.198 A 
ATOM     83  F   UNL     1      -7.951 -12.469   2.546  1.00  0.00    -0.203 F 
ATOM     84  F   UNL     1     -12.357 -15.149   0.768  1.00  0.00    -0.200 F 
ATOM     85  C   UNL     1     -11.150 -13.131   0.982  1.00  0.00     0.200 A 
ATOM     86  F   UNL     1      -9.899 -11.142   1.216  1.00  0.00    -0.200 F 
ATOM     87  F   UNL     1     -12.098 -12.473   0.300  1.00  0.00    -0.200 F 
ENDBRANCH  53  77
BRANCH  65  88
ATOM     88  C   UNL     1      -4.664 -19.561   0.666  1.00  0.00     0.064 A 
ATOM     89  C   UNL     1      -4.028 -18.939  -0.419  1.00  0.00     0.173 A 
ATOM     90  C   UNL     1      -5.001 -20.918   0.540  1.00  0.00     0.173 A 
ATOM     91  F   UNL     1      -3.703 -17.639  -0.355  1.00  0.00    -0.203 F 
ATOM     92  C   UNL     1      -3.753 -19.644  -1.587  1.00  0.00     0.198 A 
ATOM     93  C   UNL     1      -4.695 -21.628  -0.618  1.00  0.00     0.198 A 
ATOM     94  F   UNL     1      -5.606 -21.561   1.549  1.00  0.00    -0.203 F 
ATOM     95  F   UNL     1      -3.181 -19.019  -2.626  1.00  0.00    -0.200 F 
ATOM     96  C   UNL     1      -4.076 -20.990  -1.682  1.00  0.00     0.200 A 
ATOM     97  F   UNL     1      -4.994 -22.931  -0.701  1.00  0.00    -0.200 F 
ATOM     98  F   UNL     1      -3.795 -21.671  -2.801  1.00  0.00    -0.200 F 
ENDBRANCH  65  88
ENDBRANCH  39  40
ENDBRANCH  31  34
ENDBRANCH  29  30
ENDBRANCH  28  29
ENDBRANCH  27  28
ENDBRANCH  26  27
ENDBRANCH   1  26
TORSDOF 17
