REMARK SMILES O=C1OC(c2ccc(Cl)cc2)=N/C1=C/Nc1ccc(O)c(C(=O)NCCCCCCNC(=O)c2ccc(-c3c4nc(c(-c5c(F)c(F)c(F)c(F)c5F)c5ccc([nH]5)c(-c5c(F)c(F)c(F)c(F)c5F)c5nc(c(-c6c(F)c(F)c(F)c(F)c6F)c6ccc3[nH]6)C=C5)C=C4)cc2)c1
REMARK SMILES IDX 27 1 26 2 25 3 24 4 22 5 23 6 21 8 16 9 17 10 97 11 18 12
REMARK SMILES IDX 19 13 15 14 14 16 1 17 2 18 3 19 13 20 4 21 12 22 5 23 6 24
REMARK SMILES IDX 11 25 7 26 10 27 8 28 9 29 20 30 28 32 29 33 30 34 31 35
REMARK SMILES IDX 32 36 33 38 34 39 35 40 96 41 36 42 95 43 37 44 38 45 39 46
REMARK SMILES IDX 89 47 40 48 94 49 88 50 90 51 41 52 93 53 87 54 86 55 42 57
REMARK SMILES IDX 74 58 54 59 73 60 55 61 58 62 72 63 91 64 56 65 57 66 71 68
REMARK SMILES IDX 92 69 59 70 43 71 44 72 52 73 45 74 46 75 50 76 53 77 47 78
REMARK SMILES IDX 48 79 51 80 49 81 75 82 76 83 84 84 77 85 78 86 82 87 85 88
REMARK SMILES IDX 79 89 80 90 83 91 81 92 60 93 61 94 69 95 62 96 63 97 67 98
REMARK SMILES IDX 70 99 64 100 65 101 68 102 66 103
REMARK H PARENT 24 7 15 15 20 31 31 37 90 56 58 67
REMARK Flexibility Score: inf
ROOT
ATOM      1  C   UNL     1      -3.838 -11.176  -0.903  1.00  0.00     0.002 C 
ENDROOT
BRANCH   1   2
ATOM      2  C   UNL     1      -2.880 -10.171  -0.255  1.00  0.00     0.021 C 
BRANCH   2   3
ATOM      3  C   UNL     1      -2.065  -9.381  -1.284  1.00  0.00     0.116 C 
BRANCH   3   4
ATOM      4  N   UNL     1      -2.836  -8.244  -1.724  1.00  0.00    -0.352 N 
ATOM      5  C   UNL     1      -2.902  -6.954  -1.275  1.00  0.00     0.255 C 
ATOM      6  O   UNL     1      -3.807  -6.264  -1.755  1.00  0.00    -0.269 OA
ATOM      7  H   UNL     1      -3.425  -8.432  -2.490  1.00  0.00     0.163 HD
BRANCH   5   8
ATOM      8  C   UNL     1      -1.911  -6.305  -0.363  1.00  0.00     0.083 A 
ATOM      9  C   UNL     1      -0.846  -4.137   0.112  1.00  0.00     0.039 A 
ATOM     10  C   UNL     1      -0.006  -4.764   1.030  1.00  0.00     0.030 A 
ATOM     11  C   UNL     1      -1.764  -4.921  -0.593  1.00  0.00     0.043 A 
ATOM     12  C   UNL     1      -0.169  -6.115   1.325  1.00  0.00     0.049 A 
ATOM     13  C   UNL     1      -1.144  -6.871   0.662  1.00  0.00     0.128 A 
BRANCH   9  14
ATOM     14  N   UNL     1      -0.763  -2.770  -0.171  1.00  0.00    -0.360 N 
ATOM     15  H   UNL     1      -1.601  -2.321  -0.429  1.00  0.00     0.166 HD
BRANCH  14  16
ATOM     16  C   UNL     1       0.361  -1.992  -0.125  1.00  0.00     0.119 C 
ATOM     17  O   UNL     1      -1.880   0.027  -0.006  1.00  0.00    -0.244 OA
ATOM     18  C   UNL     1      -0.692   0.269  -0.010  1.00  0.00     0.365 C 
ATOM     19  O   UNL     1      -0.087   1.489   0.081  1.00  0.00    -0.402 OA
ATOM     20  C   UNL     1       0.465  -0.662  -0.102  1.00  0.00     0.168 C 
ATOM     21  C   UNL     1       1.241   1.251  -0.007  1.00  0.00     0.231 C 
ATOM     22  N   UNL     1       1.644   0.029  -0.122  1.00  0.00    -0.204 NA
BRANCH  21  23
ATOM     23  C   UNL     1       2.084   2.437  -0.026  1.00  0.00     0.037 A 
ATOM     24  C   UNL     1       1.988   3.393   0.987  1.00  0.00     0.015 A 
ATOM     25  C   UNL     1       3.022   2.569  -1.054  1.00  0.00     0.015 A 
ATOM     26  C   UNL     1       2.848   4.493   0.970  1.00  0.00     0.021 A 
ATOM     27  C   UNL     1       3.865   3.680  -1.078  1.00  0.00     0.021 A 
ATOM     28  C   UNL     1       3.778   4.633  -0.063  1.00  0.00     0.041 A 
ATOM     29  Cl  UNL     1       4.834   5.991  -0.081  1.00  0.00    -0.084 Cl
ENDBRANCH  21  23
ENDBRANCH  14  16
ENDBRANCH   9  14
BRANCH  13  30
ATOM     30  O   UNL     1      -1.342  -8.142   1.117  1.00  0.00    -0.507 OA
ATOM     31  H   UNL     1      -0.805  -8.482   1.806  1.00  0.00     0.293 HD
ENDBRANCH  13  30
ENDBRANCH   5   8
ENDBRANCH   3   4
ENDBRANCH   2   3
ENDBRANCH   1   2
BRANCH   1  32
ATOM     32  C   UNL     1      -3.136 -12.305  -1.666  1.00  0.00     0.002 C 
BRANCH  32  33
ATOM     33  C   UNL     1      -2.127 -13.098  -0.834  1.00  0.00     0.021 C 
BRANCH  33  34
ATOM     34  C   UNL     1      -2.750 -13.815   0.358  1.00  0.00     0.116 C 
BRANCH  34  35
ATOM     35  N   UNL     1      -3.691 -14.838  -0.076  1.00  0.00    -0.352 N 
ATOM     36  C   UNL     1      -3.648 -16.192   0.132  1.00  0.00     0.251 C 
ATOM     37  H   UNL     1      -4.465 -14.511  -0.590  1.00  0.00     0.163 HD
ATOM     38  O   UNL     1      -4.354 -16.950  -0.524  1.00  0.00    -0.269 OA
BRANCH  36  39
ATOM     39  C   UNL     1      -2.733 -16.732   1.156  1.00  0.00     0.039 A 
ATOM     40  C   UNL     1      -1.961 -17.855   0.859  1.00  0.00     0.014 A 
ATOM     41  C   UNL     1      -2.641 -16.117   2.408  1.00  0.00     0.014 A 
ATOM     42  C   UNL     1      -1.049 -18.330   1.802  1.00  0.00     0.010 A 
ATOM     43  C   UNL     1      -1.675 -16.540   3.313  1.00  0.00     0.010 A 
ATOM     44  C   UNL     1      -0.875 -17.655   3.022  1.00  0.00    -0.014 A 
BRANCH  44  45
ATOM     45  C   UNL     1       0.133 -18.100   4.016  1.00  0.00     0.031 A 
ATOM     46  C   UNL     1      -0.311 -18.562   5.376  1.00  0.00     0.074 A 
ATOM     47  C   UNL     1       1.444 -18.019   3.719  1.00  0.00     0.049 A 
ATOM     48  N   UNL     1       0.413 -18.897   6.414  1.00  0.00    -0.248 NA
ATOM     49  C   UNL     1      -1.762 -18.628   5.611  1.00  0.00     0.031 C 
ATOM     50  C   UNL     1       1.996 -17.551   2.446  1.00  0.00     0.029 A 
ATOM     51  N   UNL     1       2.552 -18.317   4.472  1.00  0.00    -0.354 N 
ATOM     52  C   UNL     1      -0.493 -19.202   7.421  1.00  0.00     0.074 A 
ATOM     53  C   UNL     1      -1.816 -18.953   6.893  1.00  0.00     0.031 C 
ATOM     54  C   UNL     1       3.336 -17.614   2.499  1.00  0.00     0.029 A 
ATOM     55  C   UNL     1       3.739 -18.079   3.822  1.00  0.00     0.049 A 
ATOM     56  H   UNL     1       2.502 -18.668   5.390  1.00  0.00     0.167 HD
ATOM     57  C   UNL     1      -0.242 -19.673   8.666  1.00  0.00     0.037 A 
ATOM     58  C   UNL     1       5.009 -18.206   4.253  1.00  0.00     0.037 A 
ATOM     59  C   UNL     1       1.077 -19.934   9.178  1.00  0.00     0.049 A 
ATOM     60  C   UNL     1       5.258 -18.697   5.655  1.00  0.00     0.074 A 
ATOM     61  C   UNL     1       1.437 -20.455  10.409  1.00  0.00     0.029 A 
ATOM     62  N   UNL     1       2.255 -19.688   8.488  1.00  0.00    -0.354 N 
ATOM     63  N   UNL     1       4.394 -19.043   6.579  1.00  0.00    -0.248 NA
ATOM     64  C   UNL     1       6.662 -18.819   6.074  1.00  0.00     0.031 C 
ATOM     65  C   UNL     1       2.832 -20.468  10.486  1.00  0.00     0.029 A 
ATOM     66  C   UNL     1       3.343 -20.020   9.278  1.00  0.00     0.049 A 
ATOM     67  H   UNL     1       2.310 -19.329   7.572  1.00  0.00     0.167 HD
ATOM     68  C   UNL     1       5.146 -19.458   7.670  1.00  0.00     0.074 A 
ATOM     69  C   UNL     1       6.537 -19.332   7.289  1.00  0.00     0.031 C 
ATOM     70  C   UNL     1       4.723 -19.905   8.878  1.00  0.00     0.037 A 
BRANCH  57  71
ATOM     71  C   UNL     1      -1.419 -19.937   9.562  1.00  0.00     0.064 A 
ATOM     72  C   UNL     1      -2.324 -20.978   9.303  1.00  0.00     0.173 A 
ATOM     73  C   UNL     1      -1.619 -19.170  10.719  1.00  0.00     0.173 A 
ATOM     74  F   UNL     1      -2.186 -21.736   8.204  1.00  0.00    -0.203 F 
ATOM     75  C   UNL     1      -3.401 -21.221  10.151  1.00  0.00     0.198 A 
ATOM     76  C   UNL     1      -2.676 -19.438  11.585  1.00  0.00     0.198 A 
ATOM     77  F   UNL     1      -0.781 -18.166  11.020  1.00  0.00    -0.203 F 
ATOM     78  F   UNL     1      -4.281 -22.187   9.855  1.00  0.00    -0.200 F 
ATOM     79  C   UNL     1      -3.571 -20.457  11.296  1.00  0.00     0.200 A 
ATOM     80  F   UNL     1      -2.829 -18.710  12.699  1.00  0.00    -0.200 F 
ATOM     81  F   UNL     1      -4.600 -20.701  12.119  1.00  0.00    -0.200 F 
ENDBRANCH  57  71
BRANCH  58  82
ATOM     82  C   UNL     1       6.143 -17.875   3.350  1.00  0.00     0.064 A 
ATOM     83  C   UNL     1       7.020 -18.872   2.898  1.00  0.00     0.173 A 
ATOM     84  C   UNL     1       6.390 -16.557   2.937  1.00  0.00     0.173 A 
ATOM     85  F   UNL     1       6.838 -20.145   3.280  1.00  0.00    -0.203 F 
ATOM     86  C   UNL     1       8.116 -18.560   2.097  1.00  0.00     0.198 A 
ATOM     87  C   UNL     1       7.466 -16.251   2.107  1.00  0.00     0.198 A 
ATOM     88  F   UNL     1       5.579 -15.565   3.334  1.00  0.00    -0.203 F 
ATOM     89  F   UNL     1       8.972 -19.524   1.731  1.00  0.00    -0.200 F 
ATOM     90  C   UNL     1       8.336 -17.250   1.698  1.00  0.00     0.200 A 
ATOM     91  F   UNL     1       7.665 -14.987   1.710  1.00  0.00    -0.200 F 
ATOM     92  F   UNL     1       9.391 -16.950   0.929  1.00  0.00    -0.200 F 
ENDBRANCH  58  82
BRANCH  70  93
ATOM     93  C   UNL     1       5.771 -20.341   9.861  1.00  0.00     0.064 A 
ATOM     94  C   UNL     1       6.622 -19.424  10.494  1.00  0.00     0.173 A 
ATOM     95  C   UNL     1       5.886 -21.696  10.214  1.00  0.00     0.173 A 
ATOM     96  F   UNL     1       6.562 -18.121  10.182  1.00  0.00    -0.203 F 
ATOM     97  C   UNL     1       7.567 -19.849  11.424  1.00  0.00     0.198 A 
ATOM     98  C   UNL     1       6.807 -22.112  11.171  1.00  0.00     0.198 A 
ATOM     99  F   UNL     1       5.091 -22.614   9.644  1.00  0.00    -0.203 F 
ATOM    100  F   UNL     1       8.403 -18.962  11.979  1.00  0.00    -0.200 F 
ATOM    101  C   UNL     1       7.652 -21.190  11.769  1.00  0.00     0.200 A 
ATOM    102  F   UNL     1       6.875 -23.405  11.515  1.00  0.00    -0.200 F 
ATOM    103  F   UNL     1       8.553 -21.595  12.675  1.00  0.00    -0.200 F 
ENDBRANCH  70  93
ENDBRANCH  44  45
ENDBRANCH  36  39
ENDBRANCH  34  35
ENDBRANCH  33  34
ENDBRANCH  32  33
ENDBRANCH   1  32
TORSDOF 17
