REMARK SMILES O=C(NCCCCCCNC(=O)c1ccc(-c2c3nc(c(-c4c(F)c(F)c(F)c(F)c4F)c4ccc([nH]4)c(-c4c(F)c(F)c(F)c(F)c4F)c4nc(c(-c5c(F)c(F)c(F)c(F)c5F)c5ccc2[nH]5)C=C4)C=C3)cc1)C1=Cc2cc(Cl)cc(-c3ccc(O)cc3)c2O[C@@H]1C(F)(F)F
REMARK SMILES IDX 6 1 5 2 4 3 3 4 1 5 2 6 76 8 77 9 93 10 78 11 92 12 79 13
REMARK SMILES IDX 91 14 80 15 83 16 81 17 82 18 94 19 95 20 96 21 97 22 84 23
REMARK SMILES IDX 85 24 90 25 86 26 89 27 87 28 88 29 7 31 8 32 9 33 10 34
REMARK SMILES IDX 11 35 12 37 13 38 14 39 75 40 15 41 74 42 16 43 17 44 18 45
REMARK SMILES IDX 68 46 19 47 73 48 67 49 69 50 20 51 72 52 66 53 65 54 21 56
REMARK SMILES IDX 53 57 33 58 52 59 34 60 37 61 51 62 70 63 35 64 36 65 50 67
REMARK SMILES IDX 71 68 38 69 22 70 23 71 31 72 24 73 25 74 29 75 32 76 26 77
REMARK SMILES IDX 27 78 30 79 28 80 54 81 55 82 63 83 56 84 57 85 61 86 64 87
REMARK SMILES IDX 58 88 59 89 62 90 60 91 39 92 40 93 48 94 41 95 42 96 46 97
REMARK SMILES IDX 49 98 43 99 44 100 47 101 45 102
REMARK H PARENT 3 7 88 30 10 36 69 55 37 66
REMARK Flexibility Score: inf
ROOT
ATOM      1  C   UNL     1       3.779  -4.611  -1.246  1.00  0.00     0.002 C 
ENDROOT
BRANCH   1   2
ATOM      2  C   UNL     1       4.213  -3.746  -0.062  1.00  0.00     0.021 C 
BRANCH   2   3
ATOM      3  C   UNL     1       3.918  -2.249  -0.132  1.00  0.00     0.116 C 
BRANCH   3   4
ATOM      4  N   UNL     1       2.624  -1.820   0.369  1.00  0.00    -0.352 N 
ATOM      5  O   UNL     1       1.013  -0.370   0.966  1.00  0.00    -0.270 OA
ATOM      6  C   UNL     1       2.206  -0.567   0.742  1.00  0.00     0.251 C 
ATOM      7  H   UNL     1       1.948  -2.531   0.453  1.00  0.00     0.163 HD
BRANCH   6   8
ATOM      8  C   UNL     1       3.136   0.602   0.805  1.00  0.00     0.067 C 
ATOM      9  C   UNL     1       4.385   0.480   1.285  1.00  0.00     0.025 C 
ATOM     10  C   UNL     1       2.888   1.617  -0.286  1.00  0.00     0.314 C 
ATOM     11  C   UNL     1       5.419   0.612   0.232  1.00  0.00     0.019 A 
ATOM     12  O   UNL     1       3.786   1.393  -1.404  1.00  0.00    -0.475 OA
ATOM     13  C   UNL     1       6.694   0.108   0.512  1.00  0.00     0.032 A 
ATOM     14  C   UNL     1       5.041   0.915  -1.094  1.00  0.00     0.135 A 
ATOM     15  C   UNL     1       7.561  -0.165  -0.538  1.00  0.00     0.042 A 
ATOM     16  C   UNL     1       5.901   0.596  -2.159  1.00  0.00     0.026 A 
ATOM     17  Cl  UNL     1       9.060  -0.949  -0.221  1.00  0.00    -0.084 Cl
ATOM     18  C   UNL     1       7.171   0.066  -1.856  1.00  0.00     0.033 A 
BRANCH  10  19
ATOM     19  C   UNL     1       2.962   3.062   0.249  1.00  0.00     0.429 C 
ATOM     20  F   UNL     1       2.607   3.963  -0.696  1.00  0.00    -0.167 F 
ATOM     21  F   UNL     1       2.126   3.245   1.301  1.00  0.00    -0.167 F 
ATOM     22  F   UNL     1       4.204   3.399   0.674  1.00  0.00    -0.167 F 
ENDBRANCH  10  19
BRANCH  16  23
ATOM     23  C   UNL     1       5.462   0.562  -3.564  1.00  0.00    -0.014 A 
ATOM     24  C   UNL     1       4.646  -0.495  -4.002  1.00  0.00     0.012 A 
ATOM     25  C   UNL     1       5.948   1.462  -4.520  1.00  0.00     0.012 A 
ATOM     26  C   UNL     1       4.386  -0.702  -5.356  1.00  0.00     0.047 A 
ATOM     27  C   UNL     1       5.671   1.273  -5.880  1.00  0.00     0.047 A 
ATOM     28  C   UNL     1       4.915   0.176  -6.287  1.00  0.00     0.115 A 
BRANCH  28  29
ATOM     29  O   UNL     1       4.678  -0.085  -7.602  1.00  0.00    -0.508 OA
ATOM     30  H   UNL     1       4.166  -0.830  -7.847  1.00  0.00     0.293 HD
ENDBRANCH  28  29
ENDBRANCH  16  23
ENDBRANCH   6   8
ENDBRANCH   3   4
ENDBRANCH   2   3
ENDBRANCH   1   2
BRANCH   1  31
ATOM     31  C   UNL     1       4.207  -4.166  -2.650  1.00  0.00     0.002 C 
BRANCH  31  32
ATOM     32  C   UNL     1       5.669  -3.750  -2.847  1.00  0.00     0.021 C 
BRANCH  32  33
ATOM     33  C   UNL     1       6.722  -4.829  -2.612  1.00  0.00     0.116 C 
BRANCH  33  34
ATOM     34  N   UNL     1       6.625  -5.921  -3.566  1.00  0.00    -0.352 N 
ATOM     35  C   UNL     1       7.588  -6.520  -4.336  1.00  0.00     0.251 C 
ATOM     36  H   UNL     1       5.720  -6.291  -3.678  1.00  0.00     0.163 HD
ATOM     37  O   UNL     1       7.244  -7.332  -5.199  1.00  0.00    -0.269 OA
BRANCH  35  38
ATOM     38  C   UNL     1       9.031  -6.221  -4.167  1.00  0.00     0.039 A 
ATOM     39  C   UNL     1       9.850  -6.221  -5.304  1.00  0.00     0.014 A 
ATOM     40  C   UNL     1       9.606  -6.026  -2.908  1.00  0.00     0.014 A 
ATOM     41  C   UNL     1      11.226  -6.000  -5.184  1.00  0.00     0.010 A 
ATOM     42  C   UNL     1      10.968  -5.741  -2.795  1.00  0.00     0.010 A 
ATOM     43  C   UNL     1      11.796  -5.745  -3.928  1.00  0.00    -0.014 A 
BRANCH  43  44
ATOM     44  C   UNL     1      13.258  -5.522  -3.774  1.00  0.00     0.031 A 
ATOM     45  C   UNL     1      14.095  -6.514  -3.011  1.00  0.00     0.074 A 
ATOM     46  C   UNL     1      13.824  -4.405  -4.269  1.00  0.00     0.049 A 
ATOM     47  N   UNL     1      15.366  -6.463  -2.698  1.00  0.00    -0.248 NA
ATOM     48  C   UNL     1      13.403  -7.711  -2.509  1.00  0.00     0.031 C 
ATOM     49  C   UNL     1      13.118  -3.353  -4.999  1.00  0.00     0.029 A 
ATOM     50  N   UNL     1      15.123  -3.964  -4.222  1.00  0.00    -0.354 N 
ATOM     51  C   UNL     1      15.616  -7.600  -1.941  1.00  0.00     0.074 A 
ATOM     52  C   UNL     1      14.359  -8.304  -1.808  1.00  0.00     0.031 C 
ATOM     53  C   UNL     1      13.995  -2.399  -5.351  1.00  0.00     0.029 A 
ATOM     54  C   UNL     1      15.316  -2.753  -4.841  1.00  0.00     0.049 A 
ATOM     55  H   UNL     1      15.848  -4.468  -3.787  1.00  0.00     0.167 HD
ATOM     56  C   UNL     1      16.791  -8.028  -1.419  1.00  0.00     0.037 A 
ATOM     57  C   UNL     1      16.432  -2.012  -4.977  1.00  0.00     0.037 A 
ATOM     58  C   UNL     1      18.049  -7.350  -1.591  1.00  0.00     0.049 A 
ATOM     59  C   UNL     1      17.726  -2.514  -4.394  1.00  0.00     0.074 A 
ATOM     60  C   UNL     1      19.308  -7.744  -1.173  1.00  0.00     0.029 A 
ATOM     61  N   UNL     1      18.206  -6.133  -2.238  1.00  0.00    -0.354 N 
ATOM     62  N   UNL     1      17.963  -3.623  -3.737  1.00  0.00    -0.248 NA
ATOM     63  C   UNL     1      18.909  -1.660  -4.577  1.00  0.00     0.031 C 
ATOM     64  C   UNL     1      20.220  -6.745  -1.529  1.00  0.00     0.029 A 
ATOM     65  C   UNL     1      19.537  -5.750  -2.209  1.00  0.00     0.049 A 
ATOM     66  H   UNL     1      17.478  -5.617  -2.655  1.00  0.00     0.167 HD
ATOM     67  C   UNL     1      19.322  -3.616  -3.455  1.00  0.00     0.074 A 
ATOM     68  C   UNL     1      19.860  -2.396  -4.021  1.00  0.00     0.031 C 
ATOM     69  C   UNL     1      20.058  -4.538  -2.787  1.00  0.00     0.037 A 
BRANCH  56  70
ATOM     70  C   UNL     1      16.773  -9.290  -0.605  1.00  0.00     0.064 A 
ATOM     71  C   UNL     1      16.565 -10.547  -1.194  1.00  0.00     0.173 A 
ATOM     72  C   UNL     1      16.998  -9.245   0.779  1.00  0.00     0.173 A 
ATOM     73  F   UNL     1      16.335 -10.645  -2.512  1.00  0.00    -0.203 F 
ATOM     74  C   UNL     1      16.551 -11.707  -0.423  1.00  0.00     0.198 A 
ATOM     75  C   UNL     1      17.013 -10.410   1.543  1.00  0.00     0.198 A 
ATOM     76  F   UNL     1      17.210  -8.071   1.393  1.00  0.00    -0.203 F 
ATOM     77  F   UNL     1      16.299 -12.890  -1.000  1.00  0.00    -0.200 F 
ATOM     78  C   UNL     1      16.781 -11.638   0.943  1.00  0.00     0.200 A 
ATOM     79  F   UNL     1      17.248 -10.343   2.861  1.00  0.00    -0.200 F 
ATOM     80  F   UNL     1      16.771 -12.756   1.682  1.00  0.00    -0.200 F 
ENDBRANCH  56  70
BRANCH  57  81
ATOM     81  C   UNL     1      16.384  -0.730  -5.727  1.00  0.00     0.064 A 
ATOM     82  C   UNL     1      16.996  -0.614  -6.983  1.00  0.00     0.173 A 
ATOM     83  C   UNL     1      15.729   0.397  -5.213  1.00  0.00     0.173 A 
ATOM     84  F   UNL     1      17.653  -1.659  -7.506  1.00  0.00    -0.203 F 
ATOM     85  C   UNL     1      16.968   0.586  -7.689  1.00  0.00     0.198 A 
ATOM     86  C   UNL     1      15.679   1.590  -5.932  1.00  0.00     0.198 A 
ATOM     87  F   UNL     1      15.125   0.337  -4.017  1.00  0.00    -0.203 F 
ATOM     88  F   UNL     1      17.595   0.681  -8.870  1.00  0.00    -0.200 F 
ATOM     89  C   UNL     1      16.304   1.685  -7.166  1.00  0.00     0.200 A 
ATOM     90  F   UNL     1      15.026   2.647  -5.429  1.00  0.00    -0.200 F 
ATOM     91  F   UNL     1      16.272   2.838  -7.848  1.00  0.00    -0.200 F 
ENDBRANCH  57  81
BRANCH  69  92
ATOM     92  C   UNL     1      21.532  -4.283  -2.664  1.00  0.00     0.064 A 
ATOM     93  C   UNL     1      22.038  -3.299  -1.802  1.00  0.00     0.173 A 
ATOM     94  C   UNL     1      22.448  -5.060  -3.388  1.00  0.00     0.173 A 
ATOM     95  F   UNL     1      21.201  -2.520  -1.101  1.00  0.00    -0.203 F 
ATOM     96  C   UNL     1      23.410  -3.088  -1.688  1.00  0.00     0.198 A 
ATOM     97  C   UNL     1      23.819  -4.864  -3.250  1.00  0.00     0.198 A 
ATOM     98  F   UNL     1      22.014  -6.017  -4.221  1.00  0.00    -0.203 F 
ATOM     99  F   UNL     1      23.871  -2.113  -0.892  1.00  0.00    -0.200 F 
ATOM    100  C   UNL     1      24.299  -3.874  -2.405  1.00  0.00     0.200 A 
ATOM    101  F   UNL     1      24.677  -5.633  -3.934  1.00  0.00    -0.200 F 
ATOM    102  F   UNL     1      25.618  -3.674  -2.288  1.00  0.00    -0.200 F 
ENDBRANCH  69  92
ENDBRANCH  43  44
ENDBRANCH  35  38
ENDBRANCH  33  34
ENDBRANCH  32  33
ENDBRANCH  31  32
ENDBRANCH   1  31
TORSDOF 16
