REMARK SMILES Cc1ccc(S(=O)(=O)Nc2ccc(N3CCCCCC3)cc2C(=O)NCCCCCCNC(=O)c2ccc(-c3c4nc(c(-c5c(F)c(F)c(F)c(F)c5F)c5ccc([nH]5)c(-c5c(F)c(F)c(F)c(F)c5F)c5nc(c(-c6c(F)c(F)c(F)c(F)c6F)c6ccc3[nH]6)C=C5)C=C4)cc2)cc1
REMARK SMILES IDX 27 1 26 2 25 3 23 4 24 5 22 7 10 8 11 9 12 10 21 11 13 12
REMARK SMILES IDX 9 13 6 15 7 16 8 17 5 18 1 19 2 20 3 21 99 22 4 23 98 24
REMARK SMILES IDX 14 25 15 26 16 27 17 28 18 29 20 31 19 32 28 34 29 35 30 36
REMARK SMILES IDX 31 37 32 38 33 39 34 41 35 42 36 43 97 44 37 45 96 46 38 47
REMARK SMILES IDX 39 48 40 49 90 50 41 51 95 52 89 53 91 54 42 55 94 56 88 57
REMARK SMILES IDX 87 58 43 60 75 61 55 62 74 63 56 64 59 65 73 66 92 67 57 68
REMARK SMILES IDX 58 69 72 71 93 72 60 73 44 74 45 75 53 76 46 77 47 78 51 79
REMARK SMILES IDX 54 80 48 81 49 82 52 83 50 84 76 85 77 86 85 87 78 88 79 89
REMARK SMILES IDX 83 90 86 91 80 92 81 93 84 94 82 95 61 96 62 97 70 98 63 99
REMARK SMILES IDX 64 100 68 101 71 102 65 103 66 104 69 105 67 106
REMARK H PARENT 25 6 9 14 32 40 91 59 59 70
REMARK Flexibility Score: 90.00
ROOT
ATOM      1  C   UNL     1       1.702   1.758  -2.659  1.00  0.00     0.021 C 
ENDROOT
BRANCH   1   2
ATOM      2  C   UNL     1       0.413   2.567  -2.577  1.00  0.00     0.116 C 
BRANCH   2   3
ATOM      3  N   UNL     1      -0.814   1.855  -2.882  1.00  0.00    -0.352 N 
ATOM      4  C   UNL     1      -2.106   2.088  -2.447  1.00  0.00     0.253 C 
ATOM      5  O   UNL     1      -3.022   1.462  -2.973  1.00  0.00    -0.269 OA
ATOM      6  H   UNL     1      -0.710   1.089  -3.491  1.00  0.00     0.163 HD
BRANCH   4   7
ATOM      7  C   UNL     1      -2.381   3.055  -1.348  1.00  0.00     0.066 A 
ATOM      8  C   UNL     1      -3.225   2.725  -0.279  1.00  0.00     0.062 A 
ATOM      9  C   UNL     1      -3.343   3.613   0.794  1.00  0.00     0.030 A 
ATOM     10  C   UNL     1      -2.572   4.785   0.827  1.00  0.00     0.028 A 
ATOM     11  C   UNL     1      -1.750   4.306  -1.362  1.00  0.00     0.042 A 
ATOM     12  C   UNL     1      -1.744   5.148  -0.244  1.00  0.00     0.038 A 
BRANCH   8  13
ATOM     13  N   UNL     1      -3.946   1.488  -0.269  1.00  0.00    -0.279 N 
ATOM     14  H   UNL     1      -4.707   1.355  -0.879  1.00  0.00     0.180 HD
BRANCH  13  15
ATOM     15  S   UNL     1      -3.488   0.259   0.794  1.00  0.00     0.261 S 
ATOM     16  O   UNL     1      -4.141  -0.944   0.348  1.00  0.00    -0.201 OA
ATOM     17  O   UNL     1      -3.707   0.750   2.148  1.00  0.00    -0.201 OA
BRANCH  15  18
ATOM     18  C   UNL     1      -1.735   0.071   0.575  1.00  0.00     0.087 A 
ATOM     19  C   UNL     1       2.523  -0.499   0.397  1.00  0.00     0.044 C 
ATOM     20  C   UNL     1       1.036  -0.290   0.433  1.00  0.00    -0.051 A 
ATOM     21  C   UNL     1       0.168  -1.215  -0.166  1.00  0.00     0.005 A 
ATOM     22  C   UNL     1       0.503   0.808   1.117  1.00  0.00     0.005 A 
ATOM     23  C   UNL     1      -1.218  -1.034  -0.105  1.00  0.00     0.022 A 
ATOM     24  C   UNL     1      -0.876   0.979   1.202  1.00  0.00     0.022 A 
ENDBRANCH  15  18
ENDBRANCH  13  15
ENDBRANCH   8  13
BRANCH  12  25
ATOM     25  N   UNL     1      -0.902   6.263  -0.173  1.00  0.00    -0.372 N 
BRANCH  25  26
ATOM     26  C   UNL     1       0.044   6.296   0.950  1.00  0.00     0.116 C 
BRANCH  26  27
ATOM     27  C   UNL     1      -0.188   7.521   1.829  1.00  0.00     0.021 C 
BRANCH  27  28
ATOM     28  C   UNL     1       0.286   8.839   1.221  1.00  0.00     0.002 C 
BRANCH  28  29
ATOM     29  C   UNL     1      -0.323   9.169  -0.140  1.00  0.00     0.002 CG0
ATOM     30  G   UNL     1       0.207   8.263  -1.246  1.00  0.00     0.000 G0
ENDBRANCH  28  29
ENDBRANCH  27  28
ENDBRANCH  26  27
ENDBRANCH  25  26
BRANCH  25  31
ATOM     31  C   UNL     1      -0.549   6.949  -1.420  1.00  0.00     0.116 C 
BRANCH  31  32
ATOM     32  C   UNL     1       0.207   8.263  -1.246  1.00  0.00     0.021 CG0
ATOM     33  G   UNL     1      -0.323   9.169  -0.140  1.00  0.00     0.000 G0
ENDBRANCH  31  32
ENDBRANCH  25  31
ENDBRANCH  12  25
ENDBRANCH   4   7
ENDBRANCH   2   3
ENDBRANCH   1   2
BRANCH   1  34
ATOM     34  C   UNL     1       1.930   0.862  -3.875  1.00  0.00     0.002 C 
BRANCH  34  35
ATOM     35  C   UNL     1       1.768   1.485  -5.265  1.00  0.00     0.002 C 
BRANCH  35  36
ATOM     36  C   UNL     1       2.428   2.842  -5.500  1.00  0.00     0.021 C 
BRANCH  36  37
ATOM     37  C   UNL     1       3.941   2.875  -5.331  1.00  0.00     0.116 C 
BRANCH  37  38
ATOM     38  N   UNL     1       4.690   2.700  -6.568  1.00  0.00    -0.352 N 
ATOM     39  C   UNL     1       6.059   2.685  -6.767  1.00  0.00     0.251 C 
ATOM     40  H   UNL     1       4.145   2.574  -7.378  1.00  0.00     0.163 HD
ATOM     41  O   UNL     1       6.519   2.572  -7.898  1.00  0.00    -0.269 OA
BRANCH  39  42
ATOM     42  C   UNL     1       6.968   2.661  -5.596  1.00  0.00     0.039 A 
ATOM     43  C   UNL     1       7.976   1.689  -5.573  1.00  0.00     0.014 A 
ATOM     44  C   UNL     1       6.708   3.426  -4.461  1.00  0.00     0.014 A 
ATOM     45  C   UNL     1       8.528   1.307  -4.354  1.00  0.00     0.010 A 
ATOM     46  C   UNL     1       7.180   2.987  -3.241  1.00  0.00     0.010 A 
ATOM     47  C   UNL     1       8.025   1.875  -3.185  1.00  0.00    -0.014 A 
BRANCH  47  48
ATOM     48  C   UNL     1       8.217   1.285  -1.869  1.00  0.00     0.031 A 
ATOM     49  C   UNL     1       9.160   1.883  -0.904  1.00  0.00     0.074 A 
ATOM     50  C   UNL     1       7.459   0.223  -1.510  1.00  0.00     0.049 A 
ATOM     51  N   UNL     1       9.632   1.244   0.112  1.00  0.00    -0.248 NA
ATOM     52  C   UNL     1       9.718   3.224  -1.044  1.00  0.00     0.031 C 
ATOM     53  C   UNL     1       7.271  -0.323  -0.168  1.00  0.00     0.029 A 
ATOM     54  N   UNL     1       6.857  -0.724  -2.357  1.00  0.00    -0.354 N 
ATOM     55  C   UNL     1      10.278   2.154   0.911  1.00  0.00     0.074 A 
ATOM     56  C   UNL     1      10.442   3.318   0.079  1.00  0.00     0.031 C 
ATOM     57  C   UNL     1       6.887  -1.605  -0.271  1.00  0.00     0.029 A 
ATOM     58  C   UNL     1       6.962  -1.959  -1.676  1.00  0.00     0.049 A 
ATOM     59  H   UNL     1       6.450  -0.562  -3.239  1.00  0.00     0.167 HD
ATOM     60  C   UNL     1      10.453   1.847   2.227  1.00  0.00     0.037 A 
ATOM     61  C   UNL     1       7.687  -2.999  -2.179  1.00  0.00     0.037 A 
ATOM     62  C   UNL     1      10.184   0.429   2.473  1.00  0.00     0.049 A 
ATOM     63  C   UNL     1       8.783  -3.493  -1.265  1.00  0.00     0.074 A 
ATOM     64  C   UNL     1       9.171  -0.257   3.119  1.00  0.00     0.029 A 
ATOM     65  N   UNL     1      10.940  -0.528   1.798  1.00  0.00    -0.354 N 
ATOM     66  N   UNL     1       9.270  -2.798  -0.275  1.00  0.00    -0.248 NA
ATOM     67  C   UNL     1       9.441  -4.786  -1.415  1.00  0.00     0.031 C 
ATOM     68  C   UNL     1       9.287  -1.631   2.777  1.00  0.00     0.029 A 
ATOM     69  C   UNL     1      10.394  -1.784   1.958  1.00  0.00     0.049 A 
ATOM     70  H   UNL     1      11.753  -0.333   1.278  1.00  0.00     0.167 HD
ATOM     71  C   UNL     1      10.295  -3.493   0.316  1.00  0.00     0.074 A 
ATOM     72  C   UNL     1      10.342  -4.744  -0.417  1.00  0.00     0.031 C 
ATOM     73  C   UNL     1      11.018  -2.950   1.343  1.00  0.00     0.037 A 
BRANCH  60  74
ATOM     74  C   UNL     1      10.667   2.844   3.353  1.00  0.00     0.064 A 
ATOM     75  C   UNL     1      10.821   2.384   4.683  1.00  0.00     0.173 A 
ATOM     76  C   UNL     1      10.591   4.248   3.231  1.00  0.00     0.173 A 
ATOM     77  F   UNL     1      10.915   1.075   4.960  1.00  0.00    -0.203 F 
ATOM     78  C   UNL     1      10.859   3.249   5.783  1.00  0.00     0.198 A 
ATOM     79  C   UNL     1      10.682   5.113   4.327  1.00  0.00     0.198 A 
ATOM     80  F   UNL     1      10.364   4.856   2.065  1.00  0.00    -0.203 F 
ATOM     81  F   UNL     1      10.934   2.746   7.024  1.00  0.00    -0.200 F 
ATOM     82  C   UNL     1      10.797   4.615   5.605  1.00  0.00     0.200 A 
ATOM     83  F   UNL     1      10.619   6.438   4.128  1.00  0.00    -0.200 F 
ATOM     84  F   UNL     1      10.826   5.446   6.655  1.00  0.00    -0.200 F 
ENDBRANCH  60  74
BRANCH  61  85
ATOM     85  C   UNL     1       7.745  -3.007  -3.664  1.00  0.00     0.064 A 
ATOM     86  C   UNL     1       6.540  -3.168  -4.377  1.00  0.00     0.173 A 
ATOM     87  C   UNL     1       8.842  -2.483  -4.356  1.00  0.00     0.173 A 
ATOM     88  F   UNL     1       5.457  -3.661  -3.756  1.00  0.00    -0.203 F 
ATOM     89  C   UNL     1       6.406  -2.709  -5.685  1.00  0.00     0.198 A 
ATOM     90  C   UNL     1       8.708  -2.039  -5.673  1.00  0.00     0.198 A 
ATOM     91  F   UNL     1      10.010  -2.287  -3.727  1.00  0.00    -0.203 F 
ATOM     92  F   UNL     1       5.213  -2.766  -6.293  1.00  0.00    -0.200 F 
ATOM     93  C   UNL     1       7.483  -2.119  -6.322  1.00  0.00     0.200 A 
ATOM     94  F   UNL     1       9.741  -1.438  -6.282  1.00  0.00    -0.200 F 
ATOM     95  F   UNL     1       7.332  -1.586  -7.543  1.00  0.00    -0.200 F 
ENDBRANCH  61  85
BRANCH  73  96
ATOM     96  C   UNL     1      12.324  -3.465   1.925  1.00  0.00     0.064 A 
ATOM     97  C   UNL     1      13.204  -4.347   1.274  1.00  0.00     0.173 A 
ATOM     98  C   UNL     1      12.808  -2.947   3.156  1.00  0.00     0.173 A 
ATOM     99  F   UNL     1      12.947  -4.818   0.048  1.00  0.00    -0.203 F 
ATOM    100  C   UNL     1      14.430  -4.729   1.833  1.00  0.00     0.198 A 
ATOM    101  C   UNL     1      14.058  -3.281   3.680  1.00  0.00     0.198 A 
ATOM    102  F   UNL     1      12.097  -2.072   3.882  1.00  0.00    -0.203 F 
ATOM    103  F   UNL     1      15.208  -5.607   1.185  1.00  0.00    -0.200 F 
ATOM    104  C   UNL     1      14.862  -4.186   3.027  1.00  0.00     0.200 A 
ATOM    105  F   UNL     1      14.482  -2.699   4.811  1.00  0.00    -0.200 F 
ATOM    106  F   UNL     1      16.059  -4.516   3.532  1.00  0.00    -0.200 F 
ENDBRANCH  73  96
ENDBRANCH  47  48
ENDBRANCH  39  42
ENDBRANCH  37  38
ENDBRANCH  36  37
ENDBRANCH  35  36
ENDBRANCH  34  35
ENDBRANCH   1  34
TORSDOF 17
