REMARK SMILES Cc1cnn(C2(C(=O)NCCCCCCNC(=O)c3ccc(-c4c5nc(c(-c6c(F)c(F)c(F)c(F)c6F)c6ccc([nH]6)c(-c6c(F)c(F)c(F)c(F)c6F)c6nc(c(-c7c(F)c(F)c(F)c(F)c7F)c7ccc4[nH]7)C=C6)C=C5)cc3)CCN(C(=O)c3cscn3)CC2)c1
REMARK SMILES IDX 13 1 12 2 11 3 10 4 9 5 7 6 8 7 6 9 82 10 93 11 83 12 92 13
REMARK SMILES IDX 84 14 85 15 86 16 5 17 1 18 2 19 3 20 94 21 4 22 87 23 88 24
REMARK SMILES IDX 91 25 89 26 90 27 14 28 15 29 16 30 17 31 18 33 19 34 20 35
REMARK SMILES IDX 81 36 21 37 80 38 22 39 23 40 24 41 74 42 25 43 79 44 73 45
REMARK SMILES IDX 75 46 26 47 78 48 72 49 71 50 27 52 59 53 39 54 58 55 40 56
REMARK SMILES IDX 43 57 57 58 76 59 41 60 42 61 56 63 77 64 44 65 28 66 29 67
REMARK SMILES IDX 37 68 30 69 31 70 35 71 38 72 32 73 33 74 36 75 34 76 60 77
REMARK SMILES IDX 61 78 69 79 62 80 63 81 67 82 70 83 64 84 65 85 68 86 66 87
REMARK SMILES IDX 45 88 46 89 54 90 47 91 48 92 52 93 55 94 49 95 50 96 53 97
REMARK SMILES IDX 51 98
REMARK H PARENT 9 8 16 32 75 51 43 62
REMARK Flexibility Score: inf
ROOT
ATOM      1  C   UNL     1       0.439  10.835  -1.302  1.00  0.00     0.002 C 
ENDROOT
BRANCH   1   2
ATOM      2  C   UNL     1       1.172   9.815  -2.185  1.00  0.00     0.002 C 
BRANCH   2   3
ATOM      3  C   UNL     1       1.869   8.657  -1.467  1.00  0.00     0.021 C 
BRANCH   3   4
ATOM      4  C   UNL     1       1.002   7.820  -0.522  1.00  0.00     0.116 C 
BRANCH   4   5
ATOM      5  N   UNL     1       0.038   6.958  -1.193  1.00  0.00    -0.354 N 
ATOM      6  C   UNL     1      -0.112   5.589  -1.245  1.00  0.00     0.248 C 
ATOM      7  O   UNL     1      -1.254   5.236  -1.554  1.00  0.00    -0.272 OA
ATOM      8  H   UNL     1      -0.639   7.451  -1.711  1.00  0.00     0.163 HD
BRANCH   6   9
ATOM      9  C   UNL     1       1.031   4.591  -0.816  1.00  0.00     0.144 C 
ATOM     10  C   UNL     1       2.363   5.024  -1.467  1.00  0.00     0.062 C 
ATOM     11  C   UNL     1       1.015   4.622   0.732  1.00  0.00     0.062 C 
ATOM     12  C   UNL     1       3.621   5.012  -0.606  1.00  0.00     0.123 C 
ATOM     13  C   UNL     1       2.333   4.270   1.385  1.00  0.00     0.123 C 
ATOM     14  N   UNL     1       3.434   5.031   0.834  1.00  0.00    -0.337 N 
ATOM     15  C   UNL     1       4.553   5.360   1.624  1.00  0.00     0.273 C 
ATOM     16  O   UNL     1       5.424   6.139   1.248  1.00  0.00    -0.267 OA
BRANCH   9  17
ATOM     17  N   UNL     1       0.747   3.183  -1.254  1.00  0.00    -0.257 N 
ATOM     18  C   UNL     1       0.486  -0.417  -0.727  1.00  0.00     0.048 C 
ATOM     19  C   UNL     1       0.466   0.987  -1.191  1.00  0.00    -0.013 A 
ATOM     20  C   UNL     1      -0.298   1.601  -2.201  1.00  0.00     0.138 A 
ATOM     21  C   UNL     1       1.234   2.020  -0.705  1.00  0.00     0.113 A 
ATOM     22  N   UNL     1      -0.026   2.904  -2.324  1.00  0.00    -0.180 NA
ENDBRANCH   9  17
BRANCH  15  23
ATOM     23  C   UNL     1       4.693   4.581   2.861  1.00  0.00     0.139 A 
ATOM     24  C   UNL     1       5.128   3.264   2.858  1.00  0.00     0.100 A 
ATOM     25  N   UNL     1       4.284   5.054   4.105  1.00  0.00    -0.240 NA
ATOM     26  S   UNL     1       5.019   2.598   4.431  1.00  0.00    -0.130 S 
ATOM     27  C   UNL     1       4.428   4.103   5.003  1.00  0.00     0.176 A 
ENDBRANCH  15  23
ENDBRANCH   6   9
ENDBRANCH   4   5
ENDBRANCH   3   4
ENDBRANCH   2   3
ENDBRANCH   1   2
BRANCH   1  28
ATOM     28  C   UNL     1       1.216  11.409  -0.108  1.00  0.00     0.021 C 
BRANCH  28  29
ATOM     29  C   UNL     1       2.405  12.265  -0.505  1.00  0.00     0.116 C 
BRANCH  29  30
ATOM     30  N   UNL     1       2.019  13.525  -1.153  1.00  0.00    -0.352 N 
ATOM     31  C   UNL     1       2.836  14.572  -1.565  1.00  0.00     0.251 C 
ATOM     32  H   UNL     1       1.056  13.645  -1.317  1.00  0.00     0.163 HD
ATOM     33  O   UNL     1       2.393  15.686  -1.774  1.00  0.00    -0.269 OA
BRANCH  31  34
ATOM     34  C   UNL     1       4.266  14.284  -1.772  1.00  0.00     0.039 A 
ATOM     35  C   UNL     1       5.290  15.186  -1.463  1.00  0.00     0.014 A 
ATOM     36  C   UNL     1       4.561  13.025  -2.272  1.00  0.00     0.014 A 
ATOM     37  C   UNL     1       6.611  14.773  -1.638  1.00  0.00     0.010 A 
ATOM     38  C   UNL     1       5.817  12.531  -2.137  1.00  0.00     0.010 A 
ATOM     39  C   UNL     1       6.851  13.437  -1.983  1.00  0.00    -0.014 A 
BRANCH  39  40
ATOM     40  C   UNL     1       8.174  12.879  -2.195  1.00  0.00     0.031 A 
ATOM     41  C   UNL     1       9.027  12.850  -0.984  1.00  0.00     0.074 A 
ATOM     42  C   UNL     1       8.444  12.179  -3.321  1.00  0.00     0.049 A 
ATOM     43  N   UNL     1      10.132  13.485  -0.790  1.00  0.00    -0.248 NA
ATOM     44  C   UNL     1       8.524  12.152   0.211  1.00  0.00     0.031 C 
ATOM     45  C   UNL     1       7.551  11.857  -4.447  1.00  0.00     0.029 A 
ATOM     46  N   UNL     1       9.569  11.489  -3.642  1.00  0.00    -0.354 N 
ATOM     47  C   UNL     1      10.568  13.120   0.481  1.00  0.00     0.074 A 
ATOM     48  C   UNL     1       9.454  12.468   1.114  1.00  0.00     0.031 C 
ATOM     49  C   UNL     1       8.085  10.861  -5.188  1.00  0.00     0.029 A 
ATOM     50  C   UNL     1       9.421  10.591  -4.697  1.00  0.00     0.049 A 
ATOM     51  H   UNL     1      10.421  11.613  -3.166  1.00  0.00     0.167 HD
ATOM     52  C   UNL     1      11.890  13.178   0.806  1.00  0.00     0.037 A 
ATOM     53  C   UNL     1      10.336   9.668  -5.086  1.00  0.00     0.037 A 
ATOM     54  C   UNL     1      12.622  13.936  -0.180  1.00  0.00     0.049 A 
ATOM     55  C   UNL     1      11.644  10.101  -4.522  1.00  0.00     0.074 A 
ATOM     56  C   UNL     1      12.578  15.245  -0.617  1.00  0.00     0.029 A 
ATOM     57  N   UNL     1      13.281  13.232  -1.161  1.00  0.00    -0.354 N 
ATOM     58  N   UNL     1      12.260  11.190  -4.900  1.00  0.00    -0.248 NA
ATOM     59  C   UNL     1      11.989   9.618  -3.191  1.00  0.00     0.031 C 
ATOM     60  C   UNL     1      12.757  15.163  -2.030  1.00  0.00     0.029 A 
ATOM     61  C   UNL     1      12.990  13.827  -2.361  1.00  0.00     0.049 A 
ATOM     62  H   UNL     1      13.857  12.445  -1.025  1.00  0.00     0.167 HD
ATOM     63  C   UNL     1      12.734  11.757  -3.724  1.00  0.00     0.074 A 
ATOM     64  C   UNL     1      12.587  10.713  -2.710  1.00  0.00     0.031 C 
ATOM     65  C   UNL     1      12.908  13.107  -3.611  1.00  0.00     0.037 A 
BRANCH  52  66
ATOM     66  C   UNL     1      12.596  12.261   1.775  1.00  0.00     0.064 A 
ATOM     67  C   UNL     1      13.953  12.511   2.070  1.00  0.00     0.173 A 
ATOM     68  C   UNL     1      12.111  10.998   2.174  1.00  0.00     0.173 A 
ATOM     69  F   UNL     1      14.521  13.682   1.745  1.00  0.00    -0.203 F 
ATOM     70  C   UNL     1      14.784  11.529   2.614  1.00  0.00     0.198 A 
ATOM     71  C   UNL     1      12.932  10.040   2.768  1.00  0.00     0.198 A 
ATOM     72  F   UNL     1      10.866  10.591   1.912  1.00  0.00    -0.203 F 
ATOM     73  F   UNL     1      16.096  11.766   2.743  1.00  0.00    -0.200 F 
ATOM     74  C   UNL     1      14.275  10.290   2.951  1.00  0.00     0.200 A 
ATOM     75  F   UNL     1      12.422   8.840   3.079  1.00  0.00    -0.200 F 
ATOM     76  F   UNL     1      15.082   9.322   3.405  1.00  0.00    -0.200 F 
ENDBRANCH  52  66
BRANCH  53  77
ATOM     77  C   UNL     1      10.090   8.300  -5.606  1.00  0.00     0.064 A 
ATOM     78  C   UNL     1      11.089   7.578  -6.280  1.00  0.00     0.173 A 
ATOM     79  C   UNL     1       8.949   7.570  -5.218  1.00  0.00     0.173 A 
ATOM     80  F   UNL     1      12.228   8.184  -6.643  1.00  0.00    -0.203 F 
ATOM     81  C   UNL     1      10.959   6.207  -6.535  1.00  0.00     0.198 A 
ATOM     82  C   UNL     1       8.820   6.203  -5.474  1.00  0.00     0.198 A 
ATOM     83  F   UNL     1       7.976   8.148  -4.499  1.00  0.00    -0.203 F 
ATOM     84  F   UNL     1      11.956   5.539  -7.134  1.00  0.00    -0.200 F 
ATOM     85  C   UNL     1       9.829   5.519  -6.123  1.00  0.00     0.200 A 
ATOM     86  F   UNL     1       7.738   5.543  -5.034  1.00  0.00    -0.200 F 
ATOM     87  F   UNL     1       9.731   4.195  -6.314  1.00  0.00    -0.200 F 
ENDBRANCH  53  77
BRANCH  65  88
ATOM     88  C   UNL     1      12.776  13.948  -4.851  1.00  0.00     0.064 A 
ATOM     89  C   UNL     1      11.575  14.118  -5.562  1.00  0.00     0.173 A 
ATOM     90  C   UNL     1      13.854  14.765  -5.211  1.00  0.00     0.173 A 
ATOM     91  F   UNL     1      10.470  13.448  -5.219  1.00  0.00    -0.203 F 
ATOM     92  C   UNL     1      11.469  15.042  -6.601  1.00  0.00     0.198 A 
ATOM     93  C   UNL     1      13.737  15.712  -6.225  1.00  0.00     0.198 A 
ATOM     94  F   UNL     1      15.008  14.690  -4.530  1.00  0.00    -0.203 F 
ATOM     95  F   UNL     1      10.308  15.187  -7.258  1.00  0.00    -0.200 F 
ATOM     96  C   UNL     1      12.548  15.847  -6.923  1.00  0.00     0.200 A 
ATOM     97  F   UNL     1      14.768  16.524  -6.497  1.00  0.00    -0.200 F 
ATOM     98  F   UNL     1      12.434  16.773  -7.886  1.00  0.00    -0.200 F 
ENDBRANCH  65  88
ENDBRANCH  39  40
ENDBRANCH  31  34
ENDBRANCH  29  30
ENDBRANCH  28  29
ENDBRANCH   1  28
TORSDOF 15
