REMARK SMILES Cc1cc(C)n([C@H](C)[C@H](C)C(=O)NCCCCCCNC(=O)c2ccc(-c3c4nc(c(-c5c(F)c(F)c(F)c(F)c5F)c5ccc([nH]5)c(-c5c(F)c(F)c(F)c(F)c5F)c5nc(c(-c6c(F)c(F)c(F)c(F)c6F)c6ccc3[nH]6)C=C5)C=C4)cc2)n1
REMARK SMILES IDX 16 1 15 2 14 3 13 4 11 5 12 6 9 8 10 9 7 10 8 11 6 12 1 13
REMARK SMILES IDX 2 14 3 15 86 16 4 17 5 18 17 19 18 20 19 21 20 22 21 23
REMARK SMILES IDX 22 25 23 26 24 27 85 28 25 29 84 30 26 31 27 32 28 33 78 34
REMARK SMILES IDX 29 35 83 36 77 37 79 38 30 39 82 40 76 41 75 42 31 44 63 45
REMARK SMILES IDX 43 46 62 47 44 48 47 49 61 50 80 51 45 52 46 53 60 55 81 56
REMARK SMILES IDX 48 57 32 58 33 59 41 60 34 61 35 62 39 63 42 64 36 65 37 66
REMARK SMILES IDX 40 67 38 68 64 69 65 70 73 71 66 72 67 73 71 74 74 75 68 76
REMARK SMILES IDX 69 77 72 78 70 79 49 80 50 81 58 82 51 83 52 84 56 85 59 86
REMARK SMILES IDX 53 87 54 88 57 89 55 90
REMARK H PARENT 13 7 20 24 79 43 47 54
REMARK Flexibility Score: inf
ROOT
ATOM      1  C   UNL     1      -0.327   7.269   5.217  1.00  0.00     0.002 C 
ENDROOT
BRANCH   1   2
ATOM      2  C   UNL     1      -0.544   6.135   4.208  1.00  0.00     0.021 C 
BRANCH   2   3
ATOM      3  C   UNL     1       0.138   4.822   4.564  1.00  0.00     0.116 C 
BRANCH   3   4
ATOM      4  N   UNL     1      -0.477   4.159   5.690  1.00  0.00    -0.356 N 
ATOM      5  C   UNL     1      -0.290   2.911   6.187  1.00  0.00     0.224 C 
ATOM      6  O   UNL     1      -0.902   2.625   7.221  1.00  0.00    -0.275 OA
ATOM      7  H   UNL     1      -1.139   4.701   6.177  1.00  0.00     0.163 HD
BRANCH   5   8
ATOM      8  C   UNL     1       0.554   1.859   5.496  1.00  0.00     0.100 C 
ATOM      9  C   UNL     1      -0.147   1.450   4.188  1.00  0.00     0.020 C 
BRANCH   8  10
ATOM     10  C   UNL     1       2.095   2.025   5.394  1.00  0.00     0.116 C 
ATOM     11  C   UNL     1       2.684   2.696   4.144  1.00  0.00     0.034 C 
BRANCH  10  12
ATOM     12  N   UNL     1       2.893   2.347   6.590  1.00  0.00    -0.266 N 
ATOM     13  C   UNL     1       6.025   1.632   8.144  1.00  0.00     0.069 C 
ATOM     14  C   UNL     1       4.696   2.139   7.740  1.00  0.00     0.060 A 
ATOM     15  C   UNL     1       3.984   3.195   8.313  1.00  0.00     0.048 A 
ATOM     16  N   UNL     1       4.039   1.616   6.706  1.00  0.00    -0.178 NA
ATOM     17  C   UNL     1       2.846   3.345   7.546  1.00  0.00     0.036 A 
ATOM     18  C   UNL     1       1.837   4.400   7.764  1.00  0.00     0.066 C 
ENDBRANCH  10  12
ENDBRANCH   8  10
ENDBRANCH   5   8
ENDBRANCH   3   4
ENDBRANCH   2   3
ENDBRANCH   1   2
BRANCH   1  19
ATOM     19  C   UNL     1       1.113   7.751   5.459  1.00  0.00     0.002 C 
BRANCH  19  20
ATOM     20  C   UNL     1       1.994   8.048   4.241  1.00  0.00     0.021 C 
BRANCH  20  21
ATOM     21  C   UNL     1       1.403   9.008   3.221  1.00  0.00     0.116 C 
BRANCH  21  22
ATOM     22  N   UNL     1       1.129  10.340   3.750  1.00  0.00    -0.352 N 
ATOM     23  C   UNL     1       0.459  11.377   3.119  1.00  0.00     0.251 C 
ATOM     24  H   UNL     1       1.458  10.524   4.659  1.00  0.00     0.163 HD
ATOM     25  O   UNL     1       0.617  12.535   3.460  1.00  0.00    -0.269 OA
BRANCH  23  26
ATOM     26  C   UNL     1      -0.456  11.043   2.009  1.00  0.00     0.039 A 
ATOM     27  C   UNL     1      -0.484  11.801   0.838  1.00  0.00     0.014 A 
ATOM     28  C   UNL     1      -1.256   9.912   2.138  1.00  0.00     0.014 A 
ATOM     29  C   UNL     1      -1.252  11.346  -0.232  1.00  0.00     0.010 A 
ATOM     30  C   UNL     1      -1.869   9.375   1.033  1.00  0.00     0.010 A 
ATOM     31  C   UNL     1      -1.916  10.107  -0.144  1.00  0.00    -0.014 A 
BRANCH  31  32
ATOM     32  C   UNL     1      -2.565   9.529  -1.321  1.00  0.00     0.031 A 
ATOM     33  C   UNL     1      -1.740   9.575  -2.557  1.00  0.00     0.074 A 
ATOM     34  C   UNL     1      -3.750   8.879  -1.305  1.00  0.00     0.049 A 
ATOM     35  N   UNL     1      -1.937  10.326  -3.588  1.00  0.00    -0.248 NA
ATOM     36  C   UNL     1      -0.479   8.818  -2.605  1.00  0.00     0.031 C 
ATOM     37  C   UNL     1      -4.574   8.495  -0.153  1.00  0.00     0.029 A 
ATOM     38  N   UNL     1      -4.448   8.352  -2.353  1.00  0.00    -0.354 N 
ATOM     39  C   UNL     1      -0.936  10.011  -4.500  1.00  0.00     0.074 A 
ATOM     40  C   UNL     1       0.016   9.200  -3.786  1.00  0.00     0.031 C 
ATOM     41  C   UNL     1      -5.525   7.616  -0.539  1.00  0.00     0.029 A 
ATOM     42  C   UNL     1      -5.502   7.523  -1.985  1.00  0.00     0.049 A 
ATOM     43  H   UNL     1      -4.224   8.544  -3.292  1.00  0.00     0.167 HD
ATOM     44  C   UNL     1      -1.115  10.258  -5.827  1.00  0.00     0.037 A 
ATOM     45  C   UNL     1      -6.316   6.819  -2.809  1.00  0.00     0.037 A 
ATOM     46  C   UNL     1      -2.215  11.170  -6.031  1.00  0.00     0.049 A 
ATOM     47  C   UNL     1      -6.263   7.477  -4.133  1.00  0.00     0.074 A 
ATOM     48  C   UNL     1      -2.483  12.481  -5.694  1.00  0.00     0.029 A 
ATOM     49  N   UNL     1      -3.422  10.607  -6.356  1.00  0.00    -0.354 N 
ATOM     50  N   UNL     1      -6.747   8.663  -4.372  1.00  0.00    -0.248 NA
ATOM     51  C   UNL     1      -5.302   6.985  -5.105  1.00  0.00     0.031 C 
ATOM     52  C   UNL     1      -3.884  12.516  -5.414  1.00  0.00     0.029 A 
ATOM     53  C   UNL     1      -4.409  11.245  -5.655  1.00  0.00     0.049 A 
ATOM     54  H   UNL     1      -3.557   9.865  -6.989  1.00  0.00     0.167 HD
ATOM     55  C   UNL     1      -5.832   9.241  -5.236  1.00  0.00     0.074 A 
ATOM     56  C   UNL     1      -5.048   8.123  -5.755  1.00  0.00     0.031 C 
ATOM     57  C   UNL     1      -5.621  10.590  -5.219  1.00  0.00     0.037 A 
BRANCH  44  58
ATOM     58  C   UNL     1      -0.616   9.367  -6.944  1.00  0.00     0.064 A 
ATOM     59  C   UNL     1      -0.834   9.769  -8.280  1.00  0.00     0.173 A 
ATOM     60  C   UNL     1      -0.254   8.015  -6.770  1.00  0.00     0.173 A 
ATOM     61  F   UNL     1      -1.191  11.030  -8.565  1.00  0.00    -0.203 F 
ATOM     62  C   UNL     1      -0.796   8.860  -9.341  1.00  0.00     0.198 A 
ATOM     63  C   UNL     1      -0.168   7.123  -7.839  1.00  0.00     0.198 A 
ATOM     64  F   UNL     1      -0.084   7.469  -5.562  1.00  0.00    -0.203 F 
ATOM     65  F   UNL     1      -1.151   9.258 -10.571  1.00  0.00    -0.200 F 
ATOM     66  C   UNL     1      -0.475   7.535  -9.118  1.00  0.00     0.200 A 
ATOM     67  F   UNL     1       0.126   5.837  -7.599  1.00  0.00    -0.200 F 
ATOM     68  F   UNL     1      -0.510   6.646 -10.119  1.00  0.00    -0.200 F 
ENDBRANCH  44  58
BRANCH  45  69
ATOM     69  C   UNL     1      -6.910   5.476  -2.618  1.00  0.00     0.064 A 
ATOM     70  C   UNL     1      -7.939   5.014  -3.456  1.00  0.00     0.173 A 
ATOM     71  C   UNL     1      -6.270   4.509  -1.820  1.00  0.00     0.173 A 
ATOM     72  F   UNL     1      -8.574   5.864  -4.277  1.00  0.00    -0.203 F 
ATOM     73  C   UNL     1      -8.276   3.658  -3.527  1.00  0.00     0.198 A 
ATOM     74  C   UNL     1      -6.609   3.156  -1.889  1.00  0.00     0.198 A 
ATOM     75  F   UNL     1      -5.233   4.842  -1.038  1.00  0.00    -0.203 F 
ATOM     76  F   UNL     1      -9.210   3.245  -4.395  1.00  0.00    -0.200 F 
ATOM     77  C   UNL     1      -7.600   2.729  -2.755  1.00  0.00     0.200 A 
ATOM     78  F   UNL     1      -5.921   2.261  -1.166  1.00  0.00    -0.200 F 
ATOM     79  F   UNL     1      -7.869   1.421  -2.877  1.00  0.00    -0.200 F 
ENDBRANCH  45  69
BRANCH  57  80
ATOM     80  C   UNL     1      -6.646  11.440  -4.517  1.00  0.00     0.064 A 
ATOM     81  C   UNL     1      -6.933  11.377  -3.142  1.00  0.00     0.173 A 
ATOM     82  C   UNL     1      -7.292  12.435  -5.263  1.00  0.00     0.173 A 
ATOM     83  F   UNL     1      -6.293  10.518  -2.340  1.00  0.00    -0.203 F 
ATOM     84  C   UNL     1      -7.862  12.238  -2.557  1.00  0.00     0.198 A 
ATOM     85  C   UNL     1      -8.189  13.318  -4.670  1.00  0.00     0.198 A 
ATOM     86  F   UNL     1      -7.023  12.575  -6.571  1.00  0.00    -0.203 F 
ATOM     87  F   UNL     1      -8.136  12.142  -1.248  1.00  0.00    -0.200 F 
ATOM     88  C   UNL     1      -8.483  13.212  -3.321  1.00  0.00     0.200 A 
ATOM     89  F   UNL     1      -8.752  14.287  -5.404  1.00  0.00    -0.200 F 
ATOM     90  F   UNL     1      -9.350  14.062  -2.753  1.00  0.00    -0.200 F 
ENDBRANCH  57  80
ENDBRANCH  31  32
ENDBRANCH  23  26
ENDBRANCH  21  22
ENDBRANCH  20  21
ENDBRANCH  19  20
ENDBRANCH   1  19
TORSDOF 15
