REMARK SMILES COc1ccc([C@@H]2[C@@H](C(=O)c3cccc4c3CCCC4)[C@H](C(=O)NCCCCCCNC(=O)c3ccc(-c4c5nc(c(-c6c(F)c(F)c(F)c(F)c6F)c6ccc([nH]6)c(-c6c(F)c(F)c(F)c(F)c6F)c6nc(c(-c7c(F)c(F)c(F)c(F)c7F)c7ccc4[nH]7)C=C6)C=C5)cc3)SC3=NC(=O)S[C@H]32)cc1
REMARK SMILES IDX 27 1 26 2 25 3 24 4 22 5 23 6 21 8 7 9 8 10 103 11 98 12
REMARK SMILES IDX 102 13 97 14 99 15 100 16 101 17 6 18 3 19 4 20 105 21 5 22
REMARK SMILES IDX 104 23 2 24 1 25 9 26 10 27 11 28 12 29 16 30 13 31 15 32
REMARK SMILES IDX 17 33 14 34 20 35 18 36 19 37 28 38 29 39 30 40 31 41 32 42
REMARK SMILES IDX 33 44 34 45 35 46 96 47 36 48 95 49 37 50 38 51 39 52 89 53
REMARK SMILES IDX 40 54 94 55 88 56 90 57 41 58 93 59 87 60 86 61 42 63 74 64
REMARK SMILES IDX 54 65 73 66 55 67 58 68 72 69 91 70 56 71 57 72 71 74 92 75
REMARK SMILES IDX 59 76 43 77 44 78 52 79 45 80 46 81 50 82 53 83 47 84 48 85
REMARK SMILES IDX 51 86 49 87 75 88 76 89 84 90 77 91 78 92 82 93 85 94 79 95
REMARK SMILES IDX 80 96 83 97 81 98 60 99 61 100 69 101 62 102 63 103 67 104
REMARK SMILES IDX 70 105 64 106 65 107 68 108 66 109
REMARK H PARENT 24 7 31 43 90 62 58 73
REMARK Flexibility Score: inf
ROOT
ATOM      1  C   UNL     1       7.725   3.444  -5.258  1.00  0.00     0.002 C 
ENDROOT
BRANCH   1   2
ATOM      2  C   UNL     1       6.462   3.794  -4.462  1.00  0.00     0.021 C 
BRANCH   2   3
ATOM      3  C   UNL     1       6.144   5.289  -4.423  1.00  0.00     0.116 C 
BRANCH   3   4
ATOM      4  N   UNL     1       5.805   5.789  -5.746  1.00  0.00    -0.355 N 
ATOM      5  C   UNL     1       4.657   6.326  -6.255  1.00  0.00     0.234 C 
ATOM      6  O   UNL     1       4.668   6.687  -7.434  1.00  0.00    -0.274 OA
ATOM      7  H   UNL     1       6.541   5.730  -6.396  1.00  0.00     0.163 HD
BRANCH   5   8
ATOM      8  C   UNL     1       3.401   6.536  -5.392  1.00  0.00     0.153 C 
ATOM      9  C   UNL     1       1.829   5.343  -3.664  1.00  0.00     0.052 C 
ATOM     10  C   UNL     1       2.796   5.205  -4.887  1.00  0.00     0.093 C 
ATOM     11  C   UNL     1       2.410   6.206  -2.518  1.00  0.00     0.121 C 
ATOM     12  C   UNL     1       2.711   7.612  -2.934  1.00  0.00     0.093 C 
ATOM     13  S   UNL     1       1.247   6.480  -1.126  1.00  0.00    -0.052 SA
ATOM     14  S   UNL     1       3.840   7.867  -4.207  1.00  0.00    -0.095 SA
ATOM     15  N   UNL     1       2.245   8.620  -2.283  1.00  0.00    -0.200 NA
ATOM     16  C   UNL     1       1.459   8.224  -1.231  1.00  0.00     0.306 C 
ATOM     17  O   UNL     1       0.951   8.968  -0.420  1.00  0.00    -0.259 OA
BRANCH   9  18
ATOM     18  C   UNL     1       1.470   3.975  -3.068  1.00  0.00    -0.042 A 
ATOM     19  C   UNL     1       0.752   1.546  -1.831  1.00  0.00     0.118 A 
ATOM     20  C   UNL     1      -0.227   2.375  -2.366  1.00  0.00     0.047 A 
ATOM     21  C   UNL     1       2.092   1.916  -1.917  1.00  0.00     0.047 A 
ATOM     22  C   UNL     1       0.125   3.598  -2.938  1.00  0.00     0.008 A 
ATOM     23  C   UNL     1       2.449   3.117  -2.539  1.00  0.00     0.008 A 
BRANCH  19  24
ATOM     24  O   UNL     1       0.317   0.366  -1.295  1.00  0.00    -0.497 OA
ATOM     25  C   UNL     1       0.894   0.062  -0.029  1.00  0.00     0.278 C 
ENDBRANCH  19  24
ENDBRANCH   9  18
BRANCH  10  26
ATOM     26  C   UNL     1       2.252   4.404  -6.124  1.00  0.00     0.168 C 
ATOM     27  O   UNL     1       2.939   3.529  -6.651  1.00  0.00    -0.294 OA
BRANCH  26  28
ATOM     28  C   UNL     1       0.943   4.739  -6.763  1.00  0.00     0.021 A 
ATOM     29  C   UNL     1      -0.212   4.470  -6.054  1.00  0.00     0.012 A 
ATOM     30  C   UNL     1       0.890   5.744  -7.728  1.00  0.00    -0.034 A 
ATOM     31  C   UNL     1      -1.204   5.449  -5.993  1.00  0.00     0.001 A 
ATOM     32  C   UNL     1       0.086   6.860  -7.470  1.00  0.00    -0.044 A 
ATOM     33  C   UNL     1       0.676   5.285  -9.194  1.00  0.00     0.036 C 
ATOM     34  C   UNL     1      -0.990   6.695  -6.598  1.00  0.00     0.004 A 
ATOM     35  C   UNL     1       0.283   8.089  -8.318  1.00  0.00     0.036 C 
ATOM     36  C   UNL     1       0.665   6.438 -10.210  1.00  0.00     0.005 C 
ATOM     37  C   UNL     1       1.076   7.775  -9.597  1.00  0.00     0.005 C 
ENDBRANCH  26  28
ENDBRANCH  10  26
ENDBRANCH   5   8
ENDBRANCH   3   4
ENDBRANCH   2   3
ENDBRANCH   1   2
BRANCH   1  38
ATOM     38  C   UNL     1       9.019   4.079  -4.737  1.00  0.00     0.002 C 
BRANCH  38  39
ATOM     39  C   UNL     1       9.364   3.749  -3.283  1.00  0.00     0.021 C 
BRANCH  39  40
ATOM     40  C   UNL     1       9.505   2.260  -2.983  1.00  0.00     0.116 C 
BRANCH  40  41
ATOM     41  N   UNL     1      10.590   1.645  -3.731  1.00  0.00    -0.352 N 
ATOM     42  C   UNL     1      11.650   0.899  -3.281  1.00  0.00     0.251 C 
ATOM     43  H   UNL     1      10.559   1.785  -4.705  1.00  0.00     0.163 HD
ATOM     44  O   UNL     1      12.572   0.616  -4.039  1.00  0.00    -0.269 OA
BRANCH  42  45
ATOM     45  C   UNL     1      11.695   0.450  -1.873  1.00  0.00     0.039 A 
ATOM     46  C   UNL     1      12.899   0.553  -1.171  1.00  0.00     0.014 A 
ATOM     47  C   UNL     1      10.563  -0.081  -1.248  1.00  0.00     0.014 A 
ATOM     48  C   UNL     1      12.951   0.181   0.174  1.00  0.00     0.010 A 
ATOM     49  C   UNL     1      10.597  -0.379   0.112  1.00  0.00     0.010 A 
ATOM     50  C   UNL     1      11.792  -0.254   0.837  1.00  0.00    -0.014 A 
BRANCH  50  51
ATOM     51  C   UNL     1      11.814  -0.576   2.287  1.00  0.00     0.031 A 
ATOM     52  C   UNL     1      11.520  -1.974   2.759  1.00  0.00     0.074 A 
ATOM     53  C   UNL     1      12.039   0.405   3.183  1.00  0.00     0.049 A 
ATOM     54  N   UNL     1      11.437  -2.434   3.982  1.00  0.00    -0.248 NA
ATOM     55  C   UNL     1      11.258  -2.983   1.721  1.00  0.00     0.031 C 
ATOM     56  C   UNL     1      12.288   1.809   2.853  1.00  0.00     0.029 A 
ATOM     57  N   UNL     1      12.085   0.375   4.555  1.00  0.00    -0.354 N 
ATOM     58  C   UNL     1      11.100  -3.776   3.860  1.00  0.00     0.074 A 
ATOM     59  C   UNL     1      10.942  -4.045   2.448  1.00  0.00     0.031 C 
ATOM     60  C   UNL     1      12.482   2.501   3.987  1.00  0.00     0.029 A 
ATOM     61  C   UNL     1      12.330   1.600   5.126  1.00  0.00     0.049 A 
ATOM     62  H   UNL     1      11.955  -0.448   5.080  1.00  0.00     0.167 HD
ATOM     63  C   UNL     1      10.956  -4.703   4.837  1.00  0.00     0.037 A 
ATOM     64  C   UNL     1      12.411   1.960   6.421  1.00  0.00     0.037 A 
ATOM     65  C   UNL     1      11.142  -4.436   6.240  1.00  0.00     0.049 A 
ATOM     66  C   UNL     1      12.239   0.909   7.486  1.00  0.00     0.074 A 
ATOM     67  C   UNL     1      11.092  -5.325   7.300  1.00  0.00     0.029 A 
ATOM     68  N   UNL     1      11.406  -3.186   6.779  1.00  0.00    -0.354 N 
ATOM     69  N   UNL     1      12.004  -0.374   7.354  1.00  0.00    -0.248 NA
ATOM     70  C   UNL     1      12.353   1.355   8.882  1.00  0.00     0.031 C 
ATOM     71  C   UNL     1      11.263  -4.602   8.485  1.00  0.00     0.029 A 
ATOM     72  C   UNL     1      11.488  -3.274   8.160  1.00  0.00     0.049 A 
ATOM     73  H   UNL     1      11.519  -2.358   6.258  1.00  0.00     0.167 HD
ATOM     74  C   UNL     1      11.976  -0.892   8.642  1.00  0.00     0.074 A 
ATOM     75  C   UNL     1      12.234   0.212   9.541  1.00  0.00     0.031 C 
ATOM     76  C   UNL     1      11.757  -2.168   9.043  1.00  0.00     0.037 A 
BRANCH  63  77
ATOM     77  C   UNL     1      10.574  -6.098   4.429  1.00  0.00     0.064 A 
ATOM     78  C   UNL     1      11.458  -6.934   3.730  1.00  0.00     0.173 A 
ATOM     79  C   UNL     1       9.324  -6.625   4.792  1.00  0.00     0.173 A 
ATOM     80  F   UNL     1      12.661  -6.478   3.350  1.00  0.00    -0.203 F 
ATOM     81  C   UNL     1      11.095  -8.233   3.385  1.00  0.00     0.198 A 
ATOM     82  C   UNL     1       8.978  -7.935   4.475  1.00  0.00     0.198 A 
ATOM     83  F   UNL     1       8.443  -5.872   5.467  1.00  0.00    -0.203 F 
ATOM     84  F   UNL     1      11.937  -8.996   2.675  1.00  0.00    -0.200 F 
ATOM     85  C   UNL     1       9.860  -8.736   3.765  1.00  0.00     0.200 A 
ATOM     86  F   UNL     1       7.790  -8.424   4.858  1.00  0.00    -0.200 F 
ATOM     87  F   UNL     1       9.517  -9.991   3.444  1.00  0.00    -0.200 F 
ENDBRANCH  63  77
BRANCH  64  88
ATOM     88  C   UNL     1      12.676   3.377   6.789  1.00  0.00     0.064 A 
ATOM     89  C   UNL     1      13.876   3.750   7.412  1.00  0.00     0.173 A 
ATOM     90  C   UNL     1      11.728   4.383   6.548  1.00  0.00     0.173 A 
ATOM     91  F   UNL     1      14.806   2.822   7.682  1.00  0.00    -0.203 F 
ATOM     92  C   UNL     1      14.104   5.067   7.808  1.00  0.00     0.198 A 
ATOM     93  C   UNL     1      11.972   5.705   6.913  1.00  0.00     0.198 A 
ATOM     94  F   UNL     1      10.566   4.082   5.949  1.00  0.00    -0.203 F 
ATOM     95  F   UNL     1      15.233   5.383   8.455  1.00  0.00    -0.200 F 
ATOM     96  C   UNL     1      13.154   6.044   7.553  1.00  0.00     0.200 A 
ATOM     97  F   UNL     1      11.058   6.649   6.649  1.00  0.00    -0.200 F 
ATOM     98  F   UNL     1      13.373   7.310   7.934  1.00  0.00    -0.200 F 
ENDBRANCH  64  88
BRANCH  76  99
ATOM     99  C   UNL     1      11.832  -2.452  10.517  1.00  0.00     0.064 A 
ATOM    100  C   UNL     1      10.855  -1.990  11.411  1.00  0.00     0.173 A 
ATOM    101  C   UNL     1      12.877  -3.233  11.034  1.00  0.00     0.173 A 
ATOM    102  F   UNL     1       9.843  -1.227  10.970  1.00  0.00    -0.203 F 
ATOM    103  C   UNL     1      10.939  -2.273  12.772  1.00  0.00     0.198 A 
ATOM    104  C   UNL     1      12.938  -3.544  12.390  1.00  0.00     0.198 A 
ATOM    105  F   UNL     1      13.833  -3.708  10.222  1.00  0.00    -0.203 F 
ATOM    106  F   UNL     1      10.024  -1.774  13.615  1.00  0.00    -0.200 F 
ATOM    107  C   UNL     1      11.974  -3.056  13.259  1.00  0.00     0.200 A 
ATOM    108  F   UNL     1      13.930  -4.316  12.854  1.00  0.00    -0.200 F 
ATOM    109  F   UNL     1      12.047  -3.336  14.567  1.00  0.00    -0.200 F 
ENDBRANCH  76  99
ENDBRANCH  50  51
ENDBRANCH  42  45
ENDBRANCH  40  41
ENDBRANCH  39  40
ENDBRANCH  38  39
ENDBRANCH   1  38
TORSDOF 17
