REMARK SMILES CCN(CC)c1ncc(NC(=O)c2ccc(C)cc2)cc1C(=O)NCCCCCCNC(=O)c1ccc(-c2c3nc(c(-c4c(F)c(F)c(F)c(F)c4F)c4ccc([nH]4)c(-c4c(F)c(F)c(F)c(F)c4F)c4nc(c(-c5c(F)c(F)c(F)c(F)c5F)c5ccc2[nH]5)C=C4)C=C3)cc1
REMARK SMILES IDX 27 1 26 2 25 3 24 4 22 5 23 6 21 8 6 9 7 10 8 11 20 12 9 13
REMARK SMILES IDX 3 14 2 15 1 16 4 17 5 18 10 19 11 20 12 22 13 23 14 24 19 25
REMARK SMILES IDX 15 26 18 27 16 28 17 29 28 30 29 31 30 32 31 33 32 34 33 36
REMARK SMILES IDX 34 37 35 38 96 39 36 40 95 41 37 42 38 43 39 44 89 45 40 46
REMARK SMILES IDX 94 47 88 48 90 49 41 50 93 51 87 52 86 53 42 55 74 56 54 57
REMARK SMILES IDX 73 58 55 59 58 60 72 61 91 62 56 63 57 64 71 66 92 67 59 68
REMARK SMILES IDX 43 69 44 70 52 71 45 72 46 73 50 74 53 75 47 76 48 77 51 78
REMARK SMILES IDX 49 79 75 80 76 81 84 82 77 83 78 84 82 85 85 86 79 87 80 88
REMARK SMILES IDX 83 89 81 90 60 91 61 92 69 93 62 94 63 95 67 96 70 97 64 98
REMARK SMILES IDX 65 99 68 100 66 101
REMARK H PARENT 24 7 10 21 31 35 90 54 58 65
REMARK Flexibility Score: inf
ROOT
ATOM      1  C   UNL     1       4.879   1.224   3.380  1.00  0.00     0.002 C 
ENDROOT
BRANCH   1   2
ATOM      2  C   UNL     1       5.294   0.866   1.950  1.00  0.00     0.021 C 
BRANCH   2   3
ATOM      3  C   UNL     1       4.928  -0.495   1.361  1.00  0.00     0.116 C 
BRANCH   3   4
ATOM      4  N   UNL     1       3.530  -0.867   1.398  1.00  0.00    -0.352 N 
ATOM      5  C   UNL     1       2.780  -1.656   0.539  1.00  0.00     0.255 C 
ATOM      6  O   UNL     1       1.738  -2.131   0.987  1.00  0.00    -0.269 OA
ATOM      7  H   UNL     1       3.027  -0.498   2.160  1.00  0.00     0.163 HD
BRANCH   5   8
ATOM      8  C   UNL     1       3.184  -1.921  -0.873  1.00  0.00     0.084 A 
ATOM      9  C   UNL     1       2.248  -1.863  -1.922  1.00  0.00     0.141 A 
ATOM     10  N   UNL     1       2.619  -2.154  -3.194  1.00  0.00    -0.236 NA
ATOM     11  C   UNL     1       3.904  -2.468  -3.460  1.00  0.00     0.139 A 
ATOM     12  C   UNL     1       4.500  -2.312  -1.182  1.00  0.00     0.045 A 
ATOM     13  C   UNL     1       4.901  -2.495  -2.507  1.00  0.00     0.060 A 
BRANCH   9  14
ATOM     14  N   UNL     1       0.915  -1.527  -1.758  1.00  0.00    -0.357 N 
BRANCH  14  15
ATOM     15  C   UNL     1       0.550  -0.115  -1.826  1.00  0.00     0.114 C 
ATOM     16  C   UNL     1       0.487   0.515  -0.445  1.00  0.00     0.027 C 
ENDBRANCH  14  15
BRANCH  14  17
ATOM     17  C   UNL     1      -0.071  -2.519  -2.198  1.00  0.00     0.114 C 
ATOM     18  C   UNL     1      -0.292  -2.547  -3.708  1.00  0.00     0.027 C 
ENDBRANCH  14  17
ENDBRANCH   9  14
BRANCH  13  19
ATOM     19  N   UNL     1       6.269  -2.697  -2.763  1.00  0.00    -0.321 N 
ATOM     20  C   UNL     1       7.026  -2.631  -3.914  1.00  0.00     0.255 C 
ATOM     21  H   UNL     1       6.789  -2.934  -1.961  1.00  0.00     0.170 HD
ATOM     22  O   UNL     1       8.185  -3.046  -3.877  1.00  0.00    -0.269 OA
BRANCH  20  23
ATOM     23  C   UNL     1       6.536  -2.031  -5.178  1.00  0.00     0.040 A 
ATOM     24  C   UNL     1       6.850  -2.678  -6.379  1.00  0.00     0.014 A 
ATOM     25  C   UNL     1       5.833  -0.822  -5.210  1.00  0.00     0.014 A 
ATOM     26  C   UNL     1       6.385  -2.168  -7.593  1.00  0.00     0.004 A 
ATOM     27  C   UNL     1       5.347  -0.328  -6.425  1.00  0.00     0.004 A 
ATOM     28  C   UNL     1       5.597  -1.011  -7.622  1.00  0.00    -0.051 A 
ATOM     29  C   UNL     1       5.076  -0.487  -8.928  1.00  0.00     0.044 C 
ENDBRANCH  20  23
ENDBRANCH  13  19
ENDBRANCH   5   8
ENDBRANCH   3   4
ENDBRANCH   2   3
ENDBRANCH   1   2
BRANCH   1  30
ATOM     30  C   UNL     1       5.097   0.210   4.510  1.00  0.00     0.002 C 
BRANCH  30  31
ATOM     31  C   UNL     1       6.441  -0.514   4.582  1.00  0.00     0.021 C 
BRANCH  31  32
ATOM     32  C   UNL     1       7.654   0.371   4.838  1.00  0.00     0.116 C 
BRANCH  32  33
ATOM     33  N   UNL     1       8.157   0.332   6.207  1.00  0.00    -0.352 N 
ATOM     34  C   UNL     1       9.214   1.040   6.770  1.00  0.00     0.251 C 
ATOM     35  H   UNL     1       7.684  -0.280   6.816  1.00  0.00     0.163 HD
ATOM     36  O   UNL     1       9.527   0.887   7.927  1.00  0.00    -0.269 OA
BRANCH  34  37
ATOM     37  C   UNL     1       9.872   2.086   5.945  1.00  0.00     0.039 A 
ATOM     38  C   UNL     1       9.946   3.381   6.468  1.00  0.00     0.014 A 
ATOM     39  C   UNL     1      10.197   1.840   4.614  1.00  0.00     0.014 A 
ATOM     40  C   UNL     1      10.100   4.456   5.595  1.00  0.00     0.010 A 
ATOM     41  C   UNL     1      10.251   2.904   3.736  1.00  0.00     0.010 A 
ATOM     42  C   UNL     1      10.135   4.210   4.221  1.00  0.00    -0.014 A 
BRANCH  42  43
ATOM     43  C   UNL     1       9.938   5.256   3.227  1.00  0.00     0.031 A 
ATOM     44  C   UNL     1      11.080   5.792   2.462  1.00  0.00     0.074 A 
ATOM     45  C   UNL     1       8.693   5.723   2.980  1.00  0.00     0.049 A 
ATOM     46  N   UNL     1      11.139   7.008   2.028  1.00  0.00    -0.248 NA
ATOM     47  C   UNL     1      12.269   5.005   2.149  1.00  0.00     0.031 C 
ATOM     48  C   UNL     1       8.285   6.604   1.888  1.00  0.00     0.029 A 
ATOM     49  N   UNL     1       7.558   5.639   3.804  1.00  0.00    -0.354 N 
ATOM     50  C   UNL     1      12.219   7.090   1.185  1.00  0.00     0.074 A 
ATOM     51  C   UNL     1      12.931   5.841   1.342  1.00  0.00     0.031 C 
ATOM     52  C   UNL     1       7.142   7.217   2.231  1.00  0.00     0.029 A 
ATOM     53  C   UNL     1       6.846   6.844   3.603  1.00  0.00     0.049 A 
ATOM     54  H   UNL     1       7.309   4.895   4.399  1.00  0.00     0.167 HD
ATOM     55  C   UNL     1      12.341   8.142   0.331  1.00  0.00     0.037 A 
ATOM     56  C   UNL     1       6.611   7.720   4.621  1.00  0.00     0.037 A 
ATOM     57  C   UNL     1      11.232   9.075   0.448  1.00  0.00     0.049 A 
ATOM     58  C   UNL     1       7.179   9.100   4.391  1.00  0.00     0.074 A 
ATOM     59  C   UNL     1      10.045   9.198  -0.255  1.00  0.00     0.029 A 
ATOM     60  N   UNL     1      11.085   9.831   1.605  1.00  0.00    -0.354 N 
ATOM     61  N   UNL     1       8.093   9.362   3.499  1.00  0.00    -0.248 NA
ATOM     62  C   UNL     1       6.803  10.279   5.166  1.00  0.00     0.031 C 
ATOM     63  C   UNL     1       9.159   9.993   0.509  1.00  0.00     0.029 A 
ATOM     64  C   UNL     1       9.818  10.377   1.663  1.00  0.00     0.049 A 
ATOM     65  H   UNL     1      11.785   9.960   2.285  1.00  0.00     0.167 HD
ATOM     66  C   UNL     1       8.443  10.684   3.578  1.00  0.00     0.074 A 
ATOM     67  C   UNL     1       7.596  11.222   4.626  1.00  0.00     0.031 C 
ATOM     68  C   UNL     1       9.412  11.216   2.776  1.00  0.00     0.037 A 
BRANCH  55  69
ATOM     69  C   UNL     1      13.327   8.117  -0.800  1.00  0.00     0.064 A 
ATOM     70  C   UNL     1      12.956   8.485  -2.108  1.00  0.00     0.173 A 
ATOM     71  C   UNL     1      14.651   7.672  -0.643  1.00  0.00     0.173 A 
ATOM     72  F   UNL     1      11.739   8.972  -2.380  1.00  0.00    -0.203 F 
ATOM     73  C   UNL     1      13.819   8.329  -3.195  1.00  0.00     0.198 A 
ATOM     74  C   UNL     1      15.498   7.473  -1.737  1.00  0.00     0.198 A 
ATOM     75  F   UNL     1      15.144   7.409   0.577  1.00  0.00    -0.203 F 
ATOM     76  F   UNL     1      13.409   8.676  -4.423  1.00  0.00    -0.200 F 
ATOM     77  C   UNL     1      15.078   7.793  -3.014  1.00  0.00     0.200 A 
ATOM     78  F   UNL     1      16.717   6.947  -1.548  1.00  0.00    -0.200 F 
ATOM     79  F   UNL     1      15.883   7.588  -4.066  1.00  0.00    -0.200 F 
ENDBRANCH  55  69
BRANCH  56  80
ATOM     80  C   UNL     1       6.470   7.054   5.940  1.00  0.00     0.064 A 
ATOM     81  C   UNL     1       5.372   6.192   6.130  1.00  0.00     0.173 A 
ATOM     82  C   UNL     1       7.551   6.931   6.820  1.00  0.00     0.173 A 
ATOM     83  F   UNL     1       4.312   6.270   5.310  1.00  0.00    -0.203 F 
ATOM     84  C   UNL     1       5.409   5.171   7.075  1.00  0.00     0.198 A 
ATOM     85  C   UNL     1       7.577   5.915   7.777  1.00  0.00     0.198 A 
ATOM     86  F   UNL     1       8.631   7.712   6.679  1.00  0.00    -0.203 F 
ATOM     87  F   UNL     1       4.398   4.293   7.149  1.00  0.00    -0.200 F 
ATOM     88  C   UNL     1       6.525   5.014   7.878  1.00  0.00     0.200 A 
ATOM     89  F   UNL     1       8.665   5.751   8.544  1.00  0.00    -0.200 F 
ATOM     90  F   UNL     1       6.604   3.974   8.720  1.00  0.00    -0.200 F 
ENDBRANCH  56  80
BRANCH  68  91
ATOM     91  C   UNL     1      10.014  12.592   2.890  1.00  0.00     0.064 A 
ATOM     92  C   UNL     1      10.190  13.270   4.106  1.00  0.00     0.173 A 
ATOM     93  C   UNL     1      10.593  13.207   1.753  1.00  0.00     0.173 A 
ATOM     94  F   UNL     1       9.767  12.742   5.262  1.00  0.00    -0.203 F 
ATOM     95  C   UNL     1      10.864  14.492   4.174  1.00  0.00     0.198 A 
ATOM     96  C   UNL     1      11.312  14.398   1.834  1.00  0.00     0.198 A 
ATOM     97  F   UNL     1      10.501  12.655   0.534  1.00  0.00    -0.203 F 
ATOM     98  F   UNL     1      10.984  15.118   5.353  1.00  0.00    -0.200 F 
ATOM     99  C   UNL     1      11.438  15.047   3.044  1.00  0.00     0.200 A 
ATOM    100  F   UNL     1      11.898  14.898   0.737  1.00  0.00    -0.200 F 
ATOM    101  F   UNL     1      12.127  16.193   3.125  1.00  0.00    -0.200 F 
ENDBRANCH  68  91
ENDBRANCH  42  43
ENDBRANCH  34  37
ENDBRANCH  32  33
ENDBRANCH  31  32
ENDBRANCH  30  31
ENDBRANCH   1  30
TORSDOF 18
