REMARK SMILES CC1(C)[C@H](C(=O)NCCCCCCNC(=O)c2ccc(-c3c4nc(c(-c5c(F)c(F)c(F)c(F)c5F)c5ccc([nH]5)c(-c5c(F)c(F)c(F)c(F)c5F)c5nc(c(-c6c(F)c(F)c(F)c(F)c6F)c6ccc3[nH]6)C=C5)C=C4)cc2)[C@@H]1C(=O)N1CC[NH+](Cc2ccccc2)CC1
REMARK SMILES IDX 10 1 9 2 8 3 7 4 5 5 6 6 4 8 1 9 2 10 3 11 80 12 81 13 82 14
REMARK SMILES IDX 83 15 84 16 95 17 85 18 94 19 86 20 87 22 88 23 89 24 93 25
REMARK SMILES IDX 90 26 92 27 91 28 11 29 12 30 13 31 14 32 15 33 16 35 17 36
REMARK SMILES IDX 18 37 79 38 19 39 78 40 20 41 21 42 22 43 72 44 23 45 77 46
REMARK SMILES IDX 71 47 73 48 24 49 76 50 70 51 69 52 25 54 57 55 37 56 56 57
REMARK SMILES IDX 38 58 41 59 55 60 74 61 39 62 40 63 54 65 75 66 42 67 26 68
REMARK SMILES IDX 27 69 35 70 28 71 29 72 33 73 36 74 30 75 31 76 34 77 32 78
REMARK SMILES IDX 58 79 59 80 67 81 60 82 61 83 65 84 68 85 62 86 63 87 66 88
REMARK SMILES IDX 64 89 43 90 44 91 52 92 45 93 46 94 50 95 53 96 47 97 48 98
REMARK SMILES IDX 51 99 49 100
REMARK H PARENT 7 7 86 21 14 34 73 53 41 64
REMARK Flexibility Score: inf
ROOT
ATOM      1  C   UNL     1      -0.097   5.274  -2.277  1.00  0.00     0.002 C 
ENDROOT
BRANCH   1   2
ATOM      2  C   UNL     1       0.619   4.120  -1.557  1.00  0.00     0.021 C 
BRANCH   2   3
ATOM      3  C   UNL     1      -0.317   3.057  -1.005  1.00  0.00     0.116 C 
BRANCH   3   4
ATOM      4  N   UNL     1      -0.820   2.126  -1.982  1.00  0.00    -0.356 N 
ATOM      5  C   UNL     1      -1.322   0.861  -1.836  1.00  0.00     0.224 C 
ATOM      6  O   UNL     1      -2.231   0.555  -2.610  1.00  0.00    -0.275 OA
ATOM      7  H   UNL     1      -0.799   2.454  -2.910  1.00  0.00     0.163 HD
BRANCH   5   8
ATOM      8  C   UNL     1      -0.846  -0.215  -0.926  1.00  0.00     0.098 C 
ATOM      9  C   UNL     1       0.935  -1.786   0.028  1.00  0.00     0.013 C 
ATOM     10  C   UNL     1       0.327  -0.394   0.016  1.00  0.00    -0.011 C 
ATOM     11  C   UNL     1       1.402   0.650   0.195  1.00  0.00     0.013 C 
ATOM     12  C   UNL     1      -1.124  -0.237   0.556  1.00  0.00     0.098 C 
BRANCH  12  13
ATOM     13  C   UNL     1      -1.556   0.965   1.308  1.00  0.00     0.227 C 
ATOM     14  O   UNL     1      -0.835   1.401   2.203  1.00  0.00    -0.275 OA
ATOM     15  N   UNL     1      -2.725   1.596   0.921  1.00  0.00    -0.331 N 
ATOM     16  C   UNL     1      -2.846   2.998   1.246  1.00  0.00     0.181 C 
ATOM     17  C   UNL     1      -4.016   0.927   0.721  1.00  0.00     0.181 C 
ATOM     18  C   UNL     1      -3.657   3.720   0.157  1.00  0.00     0.284 C 
ATOM     19  C   UNL     1      -5.070   1.767  -0.074  1.00  0.00     0.284 C 
ATOM     20  N   UNL     1      -5.024   3.238   0.010  1.00  0.00    -0.328 N 
ATOM     21  H   UNL     1      -5.379   3.515  -0.906  1.00  0.00     0.348 HD
BRANCH  20  22
ATOM     22  C   UNL     1      -6.010   3.947   0.829  1.00  0.00     0.299 C 
BRANCH  22  23
ATOM     23  C   UNL     1      -5.751   3.958   2.317  1.00  0.00     0.006 A 
ATOM     24  C   UNL     1      -6.325   2.978   3.132  1.00  0.00     0.009 A 
ATOM     25  C   UNL     1      -4.848   4.875   2.890  1.00  0.00     0.009 A 
ATOM     26  C   UNL     1      -5.932   2.853   4.464  1.00  0.00     0.001 A 
ATOM     27  C   UNL     1      -4.420   4.718   4.209  1.00  0.00     0.001 A 
ATOM     28  C   UNL     1      -4.953   3.696   4.990  1.00  0.00     0.000 A 
ENDBRANCH  22  23
ENDBRANCH  20  22
ENDBRANCH  12  13
ENDBRANCH   5   8
ENDBRANCH   3   4
ENDBRANCH   2   3
ENDBRANCH   1   2
BRANCH   1  29
ATOM     29  C   UNL     1      -1.230   5.973  -1.509  1.00  0.00     0.002 C 
BRANCH  29  30
ATOM     30  C   UNL     1      -0.908   6.418  -0.080  1.00  0.00     0.021 C 
BRANCH  30  31
ATOM     31  C   UNL     1       0.208   7.448   0.017  1.00  0.00     0.116 C 
BRANCH  31  32
ATOM     32  N   UNL     1      -0.108   8.664  -0.713  1.00  0.00    -0.352 N 
ATOM     33  C   UNL     1       0.037   9.976  -0.341  1.00  0.00     0.251 C 
ATOM     34  H   UNL     1      -0.485   8.525  -1.611  1.00  0.00     0.163 HD
ATOM     35  O   UNL     1      -0.458  10.864  -1.020  1.00  0.00    -0.269 OA
BRANCH  33  36
ATOM     36  C   UNL     1       0.782  10.316   0.890  1.00  0.00     0.039 A 
ATOM     37  C   UNL     1       0.301  11.347   1.701  1.00  0.00     0.014 A 
ATOM     38  C   UNL     1       1.960   9.646   1.230  1.00  0.00     0.014 A 
ATOM     39  C   UNL     1       0.979  11.677   2.874  1.00  0.00     0.010 A 
ATOM     40  C   UNL     1       2.586   9.916   2.442  1.00  0.00     0.010 A 
ATOM     41  C   UNL     1       2.112  10.946   3.267  1.00  0.00    -0.014 A 
BRANCH  41  42
ATOM     42  C   UNL     1       2.829  11.261   4.526  1.00  0.00     0.031 A 
ATOM     43  C   UNL     1       4.254  11.737   4.481  1.00  0.00     0.074 A 
ATOM     44  C   UNL     1       2.212  11.064   5.707  1.00  0.00     0.049 A 
ATOM     45  N   UNL     1       5.068  12.010   5.470  1.00  0.00    -0.248 NA
ATOM     46  C   UNL     1       4.857  11.899   3.148  1.00  0.00     0.031 C 
ATOM     47  C   UNL     1       0.850  10.556   5.874  1.00  0.00     0.029 A 
ATOM     48  N   UNL     1       2.653  11.261   6.991  1.00  0.00    -0.354 N 
ATOM     49  C   UNL     1       6.276  12.358   4.879  1.00  0.00     0.074 A 
ATOM     50  C   UNL     1       6.110  12.203   3.451  1.00  0.00     0.031 C 
ATOM     51  C   UNL     1       0.556  10.506   7.183  1.00  0.00     0.029 A 
ATOM     52  C   UNL     1       1.721  10.941   7.947  1.00  0.00     0.049 A 
ATOM     53  H   UNL     1       3.552  11.600   7.206  1.00  0.00     0.167 HD
ATOM     54  C   UNL     1       7.412  12.794   5.473  1.00  0.00     0.037 A 
ATOM     55  C   UNL     1       1.802  10.988   9.290  1.00  0.00     0.037 A 
ATOM     56  C   UNL     1       7.559  12.970   6.894  1.00  0.00     0.049 A 
ATOM     57  C   UNL     1       3.076  11.479   9.925  1.00  0.00     0.074 A 
ATOM     58  C   UNL     1       8.645  13.461   7.596  1.00  0.00     0.029 A 
ATOM     59  N   UNL     1       6.584  12.657   7.832  1.00  0.00    -0.354 N 
ATOM     60  N   UNL     1       4.188  11.875   9.354  1.00  0.00    -0.248 NA
ATOM     61  C   UNL     1       3.102  11.539  11.392  1.00  0.00     0.031 C 
ATOM     62  C   UNL     1       8.349  13.395   8.961  1.00  0.00     0.029 A 
ATOM     63  C   UNL     1       7.054  12.924   9.108  1.00  0.00     0.049 A 
ATOM     64  H   UNL     1       5.692  12.299   7.622  1.00  0.00     0.167 HD
ATOM     65  C   UNL     1       5.031  12.262  10.386  1.00  0.00     0.074 A 
ATOM     66  C   UNL     1       4.295  12.069  11.618  1.00  0.00     0.031 C 
ATOM     67  C   UNL     1       6.301  12.734  10.322  1.00  0.00     0.037 A 
BRANCH  54  68
ATOM     68  C   UNL     1       8.584  13.113   4.589  1.00  0.00     0.064 A 
ATOM     69  C   UNL     1       8.570  14.209   3.712  1.00  0.00     0.173 A 
ATOM     70  C   UNL     1       9.751  12.336   4.646  1.00  0.00     0.173 A 
ATOM     71  F   UNL     1       7.476  14.978   3.609  1.00  0.00    -0.203 F 
ATOM     72  C   UNL     1       9.667  14.496   2.903  1.00  0.00     0.198 A 
ATOM     73  C   UNL     1      10.859  12.647   3.861  1.00  0.00     0.198 A 
ATOM     74  F   UNL     1       9.822  11.280   5.470  1.00  0.00    -0.203 F 
ATOM     75  F   UNL     1       9.609  15.515   2.035  1.00  0.00    -0.200 F 
ATOM     76  C   UNL     1      10.813  13.720   2.985  1.00  0.00     0.200 A 
ATOM     77  F   UNL     1      11.972  11.905   3.951  1.00  0.00    -0.200 F 
ATOM     78  F   UNL     1      11.872  14.003   2.213  1.00  0.00    -0.200 F 
ENDBRANCH  54  68
BRANCH  55  79
ATOM     79  C   UNL     1       0.638  10.586  10.123  1.00  0.00     0.064 A 
ATOM     80  C   UNL     1      -0.065  11.531  10.884  1.00  0.00     0.173 A 
ATOM     81  C   UNL     1       0.210   9.252  10.184  1.00  0.00     0.173 A 
ATOM     82  F   UNL     1       0.316  12.817  10.873  1.00  0.00    -0.203 F 
ATOM     83  C   UNL     1      -1.132  11.152  11.697  1.00  0.00     0.198 A 
ATOM     84  C   UNL     1      -0.878   8.880  10.972  1.00  0.00     0.198 A 
ATOM     85  F   UNL     1       0.841   8.309   9.469  1.00  0.00    -0.203 F 
ATOM     86  F   UNL     1      -1.750  12.068  12.455  1.00  0.00    -0.200 F 
ATOM     87  C   UNL     1      -1.541   9.828  11.736  1.00  0.00     0.200 A 
ATOM     88  F   UNL     1      -1.281   7.602  10.993  1.00  0.00    -0.200 F 
ATOM     89  F   UNL     1      -2.568   9.465  12.516  1.00  0.00    -0.200 F 
ENDBRANCH  55  79
BRANCH  67  90
ATOM     90  C   UNL     1       6.957  13.119  11.617  1.00  0.00     0.064 A 
ATOM     91  C   UNL     1       7.342  12.159  12.566  1.00  0.00     0.173 A 
ATOM     92  C   UNL     1       7.230  14.466  11.898  1.00  0.00     0.173 A 
ATOM     93  F   UNL     1       7.090  10.859  12.351  1.00  0.00    -0.203 F 
ATOM     94  C   UNL     1       7.945  12.538  13.762  1.00  0.00     0.198 A 
ATOM     95  C   UNL     1       7.866  14.838  13.079  1.00  0.00     0.198 A 
ATOM     96  F   UNL     1       6.891  15.423  11.021  1.00  0.00    -0.203 F 
ATOM     97  F   UNL     1       8.250  11.610  14.679  1.00  0.00    -0.200 F 
ATOM     98  C   UNL     1       8.213  13.876  14.014  1.00  0.00     0.200 A 
ATOM     99  F   UNL     1       8.140  16.129  13.313  1.00  0.00    -0.200 F 
ATOM    100  F   UNL     1       8.799  14.237  15.164  1.00  0.00    -0.200 F 
ENDBRANCH  67  90
ENDBRANCH  41  42
ENDBRANCH  33  36
ENDBRANCH  31  32
ENDBRANCH  30  31
ENDBRANCH  29  30
ENDBRANCH   1  29
TORSDOF 16
