REMARK SMILES Cc1ccc(C)c(N2C(=O)S[C@H](CC(=O)Nc3ccc(C(=O)NCCCCCCNC(=O)c4ccc(-c5c6nc(c(-c7c(F)c(F)c(F)c(F)c7F)c7ccc([nH]7)c(-c7c(F)c(F)c(F)c(F)c7F)c7nc(c(-c8c(F)c(F)c(F)c(F)c8F)c8ccc5[nH]8)C=C7)C=C6)cc4)c(O)c3)C2=O)c1
REMARK SMILES IDX 25 1 24 2 23 3 21 4 22 5 20 7 17 8 18 9 98 10 19 11 96 12
REMARK SMILES IDX 16 13 14 14 15 15 13 17 12 18 8 19 9 20 99 21 10 22 11 23
REMARK SMILES IDX 100 24 7 25 1 26 2 27 3 28 101 29 4 30 5 31 6 32 97 33 26 35
REMARK SMILES IDX 27 36 28 37 29 38 30 39 31 40 32 42 33 43 34 44 95 45 35 46
REMARK SMILES IDX 94 47 36 48 37 49 38 50 88 51 39 52 93 53 87 54 89 55 40 56
REMARK SMILES IDX 92 57 86 58 85 59 41 61 73 62 53 63 72 64 54 65 57 66 71 67
REMARK SMILES IDX 90 68 55 69 56 70 70 72 91 73 58 74 42 75 43 76 51 77 44 78
REMARK SMILES IDX 45 79 49 80 52 81 46 82 47 83 50 84 48 85 74 86 75 87 83 88
REMARK SMILES IDX 76 89 77 90 81 91 84 92 78 93 79 94 82 95 80 96 59 97 60 98
REMARK SMILES IDX 68 99 61 100 62 101 66 102 69 103 63 104 64 105 67 106
REMARK SMILES IDX 65 107
REMARK H PARENT 23 6 16 16 97 34 30 41 89 60 57 71
REMARK Flexibility Score: inf
ROOT
ATOM      1  C   UNL     1       4.273   7.248  -2.996  1.00  0.00     0.021 C 
ENDROOT
BRANCH   1   2
ATOM      2  C   UNL     1       2.760   7.372  -2.935  1.00  0.00     0.116 C 
BRANCH   2   3
ATOM      3  N   UNL     1       2.028   6.346  -3.631  1.00  0.00    -0.352 N 
ATOM      4  C   UNL     1       0.691   6.041  -3.629  1.00  0.00     0.255 C 
ATOM      5  O   UNL     1       0.317   5.196  -4.443  1.00  0.00    -0.269 OA
ATOM      6  H   UNL     1       2.579   5.766  -4.204  1.00  0.00     0.163 HD
BRANCH   4   7
ATOM      7  C   UNL     1      -0.294   6.585  -2.642  1.00  0.00     0.081 A 
ATOM      8  C   UNL     1      -2.050   7.091  -0.489  1.00  0.00     0.044 A 
ATOM      9  C   UNL     1      -2.276   6.042  -1.368  1.00  0.00     0.027 A 
ATOM     10  C   UNL     1      -1.100   8.038  -0.838  1.00  0.00     0.073 A 
ATOM     11  C   UNL     1      -1.381   5.746  -2.389  1.00  0.00     0.020 A 
ATOM     12  C   UNL     1      -0.267   7.802  -1.946  1.00  0.00     0.130 A 
BRANCH   8  13
ATOM     13  N   UNL     1      -2.825   7.212   0.674  1.00  0.00    -0.326 N 
ATOM     14  C   UNL     1      -3.304   6.178   1.456  1.00  0.00     0.226 C 
ATOM     15  O   UNL     1      -4.272   6.354   2.194  1.00  0.00    -0.275 OA
ATOM     16  H   UNL     1      -3.050   8.126   0.963  1.00  0.00     0.169 HD
BRANCH  14  17
ATOM     17  C   UNL     1      -2.468   4.903   1.549  1.00  0.00     0.125 C 
BRANCH  17  18
ATOM     18  C   UNL     1      -3.227   3.585   1.421  1.00  0.00     0.156 C 
ATOM     19  N   UNL     1      -1.756   1.967   0.435  1.00  0.00    -0.240 N 
ATOM     20  C   UNL     1      -2.389   2.401  -0.690  1.00  0.00     0.293 C 
ATOM     21  C   UNL     1      -2.243   2.442   1.644  1.00  0.00     0.248 C 
ATOM     22  O   UNL     1      -2.057   2.251  -1.870  1.00  0.00    -0.261 OA
ATOM     23  S   UNL     1      -3.858   3.249  -0.249  1.00  0.00    -0.050 SA
ATOM     24  O   UNL     1      -1.929   2.049   2.761  1.00  0.00    -0.273 OA
BRANCH  19  25
ATOM     25  C   UNL     1      -0.894   0.848   0.366  1.00  0.00     0.056 A 
ATOM     26  C   UNL     1       2.847   0.095   0.100  1.00  0.00     0.044 C 
ATOM     27  C   UNL     1       1.357  -0.066   0.179  1.00  0.00    -0.049 A 
ATOM     28  C   UNL     1       0.810  -1.350   0.087  1.00  0.00     0.004 A 
ATOM     29  C   UNL     1       0.497   1.034   0.333  1.00  0.00     0.030 A 
ATOM     30  C   UNL     1      -0.571  -1.537   0.123  1.00  0.00     0.006 A 
ATOM     31  C   UNL     1      -1.440  -0.446   0.249  1.00  0.00    -0.027 A 
ATOM     32  C   UNL     1      -2.917  -0.732   0.252  1.00  0.00     0.046 C 
ENDBRANCH  19  25
ENDBRANCH  17  18
ENDBRANCH  14  17
ENDBRANCH   8  13
BRANCH  12  33
ATOM     33  O   UNL     1       0.472   8.880  -2.343  1.00  0.00    -0.507 OA
ATOM     34  H   UNL     1       1.053   8.807  -3.074  1.00  0.00     0.293 HD
ENDBRANCH  12  33
ENDBRANCH   4   7
ENDBRANCH   2   3
ENDBRANCH   1   2
BRANCH   1  35
ATOM     35  C   UNL     1       4.935   7.066  -4.367  1.00  0.00     0.002 C 
BRANCH  35  36
ATOM     36  C   UNL     1       4.407   7.799  -5.608  1.00  0.00     0.002 C 
BRANCH  36  37
ATOM     37  C   UNL     1       4.176   9.315  -5.627  1.00  0.00     0.021 C 
BRANCH  37  38
ATOM     38  C   UNL     1       5.282  10.242  -5.139  1.00  0.00     0.116 C 
BRANCH  38  39
ATOM     39  N   UNL     1       6.598  10.001  -5.745  1.00  0.00    -0.352 N 
ATOM     40  C   UNL     1       7.896  10.076  -5.261  1.00  0.00     0.251 C 
ATOM     41  H   UNL     1       6.548   9.731  -6.691  1.00  0.00     0.163 HD
ATOM     42  O   UNL     1       8.836  10.101  -6.052  1.00  0.00    -0.269 OA
BRANCH  40  43
ATOM     43  C   UNL     1       8.185  10.107  -3.811  1.00  0.00     0.039 A 
ATOM     44  C   UNL     1       9.461  10.196  -3.251  1.00  0.00     0.014 A 
ATOM     45  C   UNL     1       7.136   9.891  -2.955  1.00  0.00     0.014 A 
ATOM     46  C   UNL     1       9.614   9.924  -1.881  1.00  0.00     0.010 A 
ATOM     47  C   UNL     1       7.260  10.104  -1.627  1.00  0.00     0.010 A 
ATOM     48  C   UNL     1       8.475   9.799  -1.085  1.00  0.00    -0.014 A 
BRANCH  48  49
ATOM     49  C   UNL     1       8.436   9.438   0.317  1.00  0.00     0.031 A 
ATOM     50  C   UNL     1       8.754  10.540   1.236  1.00  0.00     0.074 A 
ATOM     51  C   UNL     1       7.800   8.336   0.779  1.00  0.00     0.049 A 
ATOM     52  N   UNL     1       9.835  10.702   1.917  1.00  0.00    -0.248 NA
ATOM     53  C   UNL     1       7.824  11.678   1.292  1.00  0.00     0.031 C 
ATOM     54  C   UNL     1       6.999   7.350   0.041  1.00  0.00     0.029 A 
ATOM     55  N   UNL     1       7.663   7.926   2.071  1.00  0.00    -0.354 N 
ATOM     56  C   UNL     1       9.637  11.872   2.638  1.00  0.00     0.074 A 
ATOM     57  C   UNL     1       8.529  12.544   2.018  1.00  0.00     0.031 C 
ATOM     58  C   UNL     1       6.327   6.566   0.917  1.00  0.00     0.029 A 
ATOM     59  C   UNL     1       6.748   6.901   2.268  1.00  0.00     0.049 A 
ATOM     60  H   UNL     1       8.175   8.327   2.810  1.00  0.00     0.167 HD
ATOM     61  C   UNL     1      10.207  12.047   3.860  1.00  0.00     0.037 A 
ATOM     62  C   UNL     1       6.348   6.406   3.466  1.00  0.00     0.037 A 
ATOM     63  C   UNL     1      11.227  11.051   4.099  1.00  0.00     0.049 A 
ATOM     64  C   UNL     1       7.356   6.823   4.476  1.00  0.00     0.074 A 
ATOM     65  C   UNL     1      12.378  10.658   3.440  1.00  0.00     0.029 A 
ATOM     66  N   UNL     1      10.926  10.019   4.956  1.00  0.00    -0.354 N 
ATOM     67  N   UNL     1       8.579   6.374   4.524  1.00  0.00    -0.248 NA
ATOM     68  C   UNL     1       7.122   8.062   5.204  1.00  0.00     0.031 C 
ATOM     69  C   UNL     1      12.427   9.239   3.586  1.00  0.00     0.029 A 
ATOM     70  C   UNL     1      11.336   8.852   4.364  1.00  0.00     0.049 A 
ATOM     71  H   UNL     1      10.494  10.103   5.837  1.00  0.00     0.167 HD
ATOM     72  C   UNL     1       9.343   7.466   4.909  1.00  0.00     0.074 A 
ATOM     73  C   UNL     1       8.384   8.435   5.428  1.00  0.00     0.031 C 
ATOM     74  C   UNL     1      10.640   7.593   4.501  1.00  0.00     0.037 A 
BRANCH  61  75
ATOM     75  C   UNL     1       9.597  12.856   4.982  1.00  0.00     0.064 A 
ATOM     76  C   UNL     1      10.361  13.063   6.147  1.00  0.00     0.173 A 
ATOM     77  C   UNL     1       8.229  13.195   5.091  1.00  0.00     0.173 A 
ATOM     78  F   UNL     1      11.670  12.771   6.166  1.00  0.00    -0.203 F 
ATOM     79  C   UNL     1       9.782  13.479   7.348  1.00  0.00     0.198 A 
ATOM     80  C   UNL     1       7.668  13.672   6.274  1.00  0.00     0.198 A 
ATOM     81  F   UNL     1       7.348  12.979   4.109  1.00  0.00    -0.203 F 
ATOM     82  F   UNL     1      10.525  13.521   8.462  1.00  0.00    -0.200 F 
ATOM     83  C   UNL     1       8.434  13.776   7.412  1.00  0.00     0.200 A 
ATOM     84  F   UNL     1       6.355  13.944   6.315  1.00  0.00    -0.200 F 
ATOM     85  F   UNL     1       7.864  14.111   8.576  1.00  0.00    -0.200 F 
ENDBRANCH  61  75
BRANCH  62  86
ATOM     86  C   UNL     1       5.054   5.796   3.856  1.00  0.00     0.064 A 
ATOM     87  C   UNL     1       4.933   5.052   5.043  1.00  0.00     0.173 A 
ATOM     88  C   UNL     1       3.850   6.158   3.222  1.00  0.00     0.173 A 
ATOM     89  F   UNL     1       6.027   4.695   5.730  1.00  0.00    -0.203 F 
ATOM     90  C   UNL     1       3.684   4.725   5.582  1.00  0.00     0.198 A 
ATOM     91  C   UNL     1       2.604   5.821   3.754  1.00  0.00     0.198 A 
ATOM     92  F   UNL     1       3.856   6.927   2.123  1.00  0.00    -0.203 F 
ATOM     93  F   UNL     1       3.611   4.077   6.753  1.00  0.00    -0.200 F 
ATOM     94  C   UNL     1       2.521   5.121   4.944  1.00  0.00     0.200 A 
ATOM     95  F   UNL     1       1.485   6.234   3.141  1.00  0.00    -0.200 F 
ATOM     96  F   UNL     1       1.325   4.867   5.492  1.00  0.00    -0.200 F 
ENDBRANCH  62  86
BRANCH  74  97
ATOM     97  C   UNL     1      11.307   6.378   3.920  1.00  0.00     0.064 A 
ATOM     98  C   UNL     1      10.889   5.737   2.741  1.00  0.00     0.173 A 
ATOM     99  C   UNL     1      12.488   5.918   4.518  1.00  0.00     0.173 A 
ATOM    100  F   UNL     1       9.830   6.179   2.052  1.00  0.00    -0.203 F 
ATOM    101  C   UNL     1      11.593   4.653   2.218  1.00  0.00     0.198 A 
ATOM    102  C   UNL     1      13.211   4.861   3.972  1.00  0.00     0.198 A 
ATOM    103  F   UNL     1      12.966   6.527   5.615  1.00  0.00    -0.203 F 
ATOM    104  F   UNL     1      11.160   4.046   1.103  1.00  0.00    -0.200 F 
ATOM    105  C   UNL     1      12.757   4.221   2.831  1.00  0.00     0.200 A 
ATOM    106  F   UNL     1      14.362   4.478   4.541  1.00  0.00    -0.200 F 
ATOM    107  F   UNL     1      13.454   3.202   2.308  1.00  0.00    -0.200 F 
ENDBRANCH  74  97
ENDBRANCH  48  49
ENDBRANCH  40  43
ENDBRANCH  38  39
ENDBRANCH  37  38
ENDBRANCH  36  37
ENDBRANCH  35  36
ENDBRANCH   1  35
TORSDOF 18
