REMARK SMILES Cn1ncc(SCC(=O)NCCCCCCNC(=O)c2ccc(-c3c4nc(c(-c5c(F)c(F)c(F)c(F)c5F)c5ccc([nH]5)c(-c5c(F)c(F)c(F)c(F)c5F)c5nc(c(-c6c(F)c(F)c(F)c(F)c6F)c6ccc3[nH]6)C=C5)C=C4)cc2)c(Cl)c1=O
REMARK SMILES IDX 13 1 12 2 11 3 10 4 8 5 9 6 7 8 6 9 5 10 1 11 2 12 3 13
REMARK SMILES IDX 85 14 4 15 83 16 86 17 84 18 14 19 15 20 16 21 17 22 18 23
REMARK SMILES IDX 19 25 20 26 21 27 82 28 22 29 81 30 23 31 24 32 25 33 75 34
REMARK SMILES IDX 26 35 80 36 74 37 76 38 27 39 79 40 73 41 72 42 28 44 60 45
REMARK SMILES IDX 40 46 59 47 41 48 44 49 58 50 77 51 42 52 43 53 57 55 78 56
REMARK SMILES IDX 45 57 29 58 30 59 38 60 31 61 32 62 36 63 39 64 33 65 34 66
REMARK SMILES IDX 37 67 35 68 61 69 62 70 70 71 63 72 64 73 68 74 71 75 65 76
REMARK SMILES IDX 66 77 69 78 67 79 46 80 47 81 55 82 48 83 49 84 53 85 56 86
REMARK SMILES IDX 50 87 51 88 54 89 52 90
REMARK H PARENT 10 7 17 24 76 43 44 54
REMARK Flexibility Score: inf
ROOT
ATOM      1  C   UNL     1      -0.229   5.716   4.997  1.00  0.00     0.002 C 
ENDROOT
BRANCH   1   2
ATOM      2  C   UNL     1      -1.061   5.889   3.716  1.00  0.00     0.021 C 
BRANCH   2   3
ATOM      3  C   UNL     1      -0.617   7.048   2.822  1.00  0.00     0.116 C 
BRANCH   3   4
ATOM      4  N   UNL     1       0.748   6.852   2.380  1.00  0.00    -0.355 N 
ATOM      5  C   UNL     1       1.247   6.643   1.133  1.00  0.00     0.230 C 
ATOM      6  O   UNL     1       2.444   6.367   1.039  1.00  0.00    -0.274 OA
ATOM      7  H   UNL     1       1.423   6.875   3.097  1.00  0.00     0.163 HD
BRANCH   5   8
ATOM      8  C   UNL     1       0.378   6.817  -0.092  1.00  0.00     0.175 C 
BRANCH   8   9
ATOM      9  S   UNL     1      -0.808   5.494  -0.400  1.00  0.00    -0.113 SA
BRANCH   9  10
ATOM     10  C   UNL     1       0.013   3.986  -0.212  1.00  0.00     0.052 A 
ATOM     11  C   UNL     1       1.007  -0.122   0.234  1.00  0.00     0.178 C 
ATOM     12  N   UNL     1       0.723   1.299   0.127  1.00  0.00    -0.232 N 
ATOM     13  N   UNL     1      -0.505   1.694   0.586  1.00  0.00    -0.177 NA
ATOM     14  C   UNL     1       1.642   2.151  -0.478  1.00  0.00     0.286 A 
ATOM     15  C   UNL     1      -0.810   2.939   0.436  1.00  0.00     0.150 A 
ATOM     16  C   UNL     1       1.190   3.566  -0.691  1.00  0.00     0.123 A 
ATOM     17  O   UNL     1       2.751   1.774  -0.855  1.00  0.00    -0.266 OA
ATOM     18  Cl  UNL     1       2.239   4.533  -1.670  1.00  0.00    -0.077 Cl
ENDBRANCH   9  10
ENDBRANCH   8   9
ENDBRANCH   5   8
ENDBRANCH   3   4
ENDBRANCH   2   3
ENDBRANCH   1   2
BRANCH   1  19
ATOM     19  C   UNL     1      -0.159   6.945   5.909  1.00  0.00     0.002 C 
BRANCH  19  20
ATOM     20  C   UNL     1      -1.513   7.521   6.325  1.00  0.00     0.021 C 
BRANCH  20  21
ATOM     21  C   UNL     1      -2.430   6.535   7.040  1.00  0.00     0.116 C 
BRANCH  21  22
ATOM     22  N   UNL     1      -1.922   6.164   8.350  1.00  0.00    -0.352 N 
ATOM     23  C   UNL     1      -2.545   6.269   9.568  1.00  0.00     0.251 C 
ATOM     24  H   UNL     1      -1.012   5.788   8.365  1.00  0.00     0.163 HD
ATOM     25  O   UNL     1      -1.929   6.072  10.611  1.00  0.00    -0.269 OA
BRANCH  23  26
ATOM     26  C   UNL     1      -3.972   6.643   9.615  1.00  0.00     0.039 A 
ATOM     27  C   UNL     1      -4.365   7.716  10.417  1.00  0.00     0.014 A 
ATOM     28  C   UNL     1      -4.912   5.938   8.856  1.00  0.00     0.014 A 
ATOM     29  C   UNL     1      -5.702   8.117  10.421  1.00  0.00     0.010 A 
ATOM     30  C   UNL     1      -6.235   6.367   8.826  1.00  0.00     0.010 A 
ATOM     31  C   UNL     1      -6.641   7.457   9.612  1.00  0.00    -0.014 A 
BRANCH  31  32
ATOM     32  C   UNL     1      -8.066   7.862   9.613  1.00  0.00     0.031 A 
ATOM     33  C   UNL     1      -9.087   6.972  10.261  1.00  0.00     0.074 A 
ATOM     34  C   UNL     1      -8.441   9.008   9.013  1.00  0.00     0.049 A 
ATOM     35  N   UNL     1     -10.386   7.116  10.327  1.00  0.00    -0.248 NA
ATOM     36  C   UNL     1      -8.583   5.751  10.910  1.00  0.00     0.031 C 
ATOM     37  C   UNL     1      -7.540   9.949   8.347  1.00  0.00     0.029 A 
ATOM     38  N   UNL     1      -9.683   9.574   8.867  1.00  0.00    -0.354 N 
ATOM     39  C   UNL     1     -10.850   6.015  11.032  1.00  0.00     0.074 A 
ATOM     40  C   UNL     1      -9.705   5.181  11.325  1.00  0.00     0.031 C 
ATOM     41  C   UNL     1      -8.257  10.986   7.881  1.00  0.00     0.029 A 
ATOM     42  C   UNL     1      -9.668  10.768   8.188  1.00  0.00     0.049 A 
ATOM     43  H   UNL     1     -10.507   9.163   9.215  1.00  0.00     0.167 HD
ATOM     44  C   UNL     1     -12.114   5.740  11.427  1.00  0.00     0.037 A 
ATOM     45  C   UNL     1     -10.682  11.590   7.854  1.00  0.00     0.037 A 
ATOM     46  C   UNL     1     -13.251   6.574  11.146  1.00  0.00     0.049 A 
ATOM     47  C   UNL     1     -12.087  11.224   8.253  1.00  0.00     0.074 A 
ATOM     48  C   UNL     1     -14.572   6.381  11.510  1.00  0.00     0.029 A 
ATOM     49  N   UNL     1     -13.198   7.764  10.437  1.00  0.00    -0.354 N 
ATOM     50  N   UNL     1     -12.510  10.194   8.944  1.00  0.00    -0.248 NA
ATOM     51  C   UNL     1     -13.157  12.138   7.824  1.00  0.00     0.031 C 
ATOM     52  C   UNL     1     -15.325   7.441  10.997  1.00  0.00     0.029 A 
ATOM     53  C   UNL     1     -14.467   8.311  10.344  1.00  0.00     0.049 A 
ATOM     54  H   UNL     1     -12.382   8.160  10.056  1.00  0.00     0.167 HD
ATOM     55  C   UNL     1     -13.884  10.351   9.061  1.00  0.00     0.074 A 
ATOM     56  C   UNL     1     -14.226  11.580   8.377  1.00  0.00     0.031 C 
ATOM     57  C   UNL     1     -14.783   9.548   9.679  1.00  0.00     0.037 A 
BRANCH  44  58
ATOM     58  C   UNL     1     -12.338   4.496  12.232  1.00  0.00     0.064 A 
ATOM     59  C   UNL     1     -11.949   4.428  13.578  1.00  0.00     0.173 A 
ATOM     60  C   UNL     1     -13.010   3.396  11.682  1.00  0.00     0.173 A 
ATOM     61  F   UNL     1     -11.291   5.452  14.143  1.00  0.00    -0.203 F 
ATOM     62  C   UNL     1     -12.221   3.299  14.344  1.00  0.00     0.198 A 
ATOM     63  C   UNL     1     -13.300   2.277  12.458  1.00  0.00     0.198 A 
ATOM     64  F   UNL     1     -13.404   3.415  10.400  1.00  0.00    -0.203 F 
ATOM     65  F   UNL     1     -11.821   3.246  15.622  1.00  0.00    -0.200 F 
ATOM     66  C   UNL     1     -12.905   2.229  13.787  1.00  0.00     0.200 A 
ATOM     67  F   UNL     1     -13.970   1.247  11.922  1.00  0.00    -0.200 F 
ATOM     68  F   UNL     1     -13.183   1.149  14.531  1.00  0.00    -0.200 F 
ENDBRANCH  44  58
BRANCH  45  69
ATOM     69  C   UNL     1     -10.411  12.857   7.127  1.00  0.00     0.064 A 
ATOM     70  C   UNL     1     -10.580  14.095   7.762  1.00  0.00     0.173 A 
ATOM     71  C   UNL     1     -10.008  12.861   5.784  1.00  0.00     0.173 A 
ATOM     72  F   UNL     1     -10.988  14.142   9.039  1.00  0.00    -0.203 F 
ATOM     73  C   UNL     1     -10.376  15.290   7.076  1.00  0.00     0.198 A 
ATOM     74  C   UNL     1      -9.780  14.057   5.106  1.00  0.00     0.198 A 
ATOM     75  F   UNL     1      -9.832  11.703   5.131  1.00  0.00    -0.203 F 
ATOM     76  F   UNL     1     -10.589  16.460   7.694  1.00  0.00    -0.200 F 
ATOM     77  C   UNL     1      -9.972  15.270   5.750  1.00  0.00     0.200 A 
ATOM     78  F   UNL     1      -9.381  14.034   3.827  1.00  0.00    -0.200 F 
ATOM     79  F   UNL     1      -9.778  16.420   5.089  1.00  0.00    -0.200 F 
ENDBRANCH  45  69
BRANCH  57  80
ATOM     80  C   UNL     1     -16.218   9.982   9.680  1.00  0.00     0.064 A 
ATOM     81  C   UNL     1     -17.014   9.878   8.531  1.00  0.00     0.173 A 
ATOM     82  C   UNL     1     -16.821  10.432  10.864  1.00  0.00     0.173 A 
ATOM     83  F   UNL     1     -16.477   9.464   7.374  1.00  0.00    -0.203 F 
ATOM     84  C   UNL     1     -18.363  10.220   8.565  1.00  0.00     0.198 A 
ATOM     85  C   UNL     1     -18.175  10.749  10.900  1.00  0.00     0.198 A 
ATOM     86  F   UNL     1     -16.101  10.541  11.991  1.00  0.00    -0.203 F 
ATOM     87  F   UNL     1     -19.100  10.140   7.449  1.00  0.00    -0.200 F 
ATOM     88  C   UNL     1     -18.944  10.645   9.751  1.00  0.00     0.200 A 
ATOM     89  F   UNL     1     -18.739  11.147  12.049  1.00  0.00    -0.200 F 
ATOM     90  F   UNL     1     -20.247  10.958   9.784  1.00  0.00    -0.200 F 
ENDBRANCH  57  80
ENDBRANCH  31  32
ENDBRANCH  23  26
ENDBRANCH  21  22
ENDBRANCH  20  21
ENDBRANCH  19  20
ENDBRANCH   1  19
TORSDOF 15
