REMARK SMILES O=C(C[C@H](C(=O)NCCCCCCNC(=O)c1ccc(-c2c3nc(c(-c4c(F)c(F)c(F)c(F)c4F)c4ccc([nH]4)c(-c4c(F)c(F)c(F)c(F)c4F)c4nc(c(-c5c(F)c(F)c(F)c(F)c5F)c5ccc2[nH]5)C=C4)C=C3)cc1)c1ccccc1)Nc1ccc(Cl)cc1Cl
REMARK SMILES IDX 10 1 9 2 8 3 7 4 5 5 6 6 4 8 3 9 2 10 1 11 86 12 87 14 88 15
REMARK SMILES IDX 93 16 89 17 92 18 94 19 90 20 91 21 80 22 81 23 85 24 82 25
REMARK SMILES IDX 84 26 83 27 11 28 12 29 13 30 14 31 15 32 16 34 17 35 18 36
REMARK SMILES IDX 79 37 19 38 78 39 20 40 21 41 22 42 72 43 23 44 77 45 71 46
REMARK SMILES IDX 73 47 24 48 76 49 70 50 69 51 25 53 57 54 37 55 56 56 38 57
REMARK SMILES IDX 41 58 55 59 74 60 39 61 40 62 54 64 75 65 42 66 26 67 27 68
REMARK SMILES IDX 35 69 28 70 29 71 33 72 36 73 30 74 31 75 34 76 32 77 58 78
REMARK SMILES IDX 59 79 67 80 60 81 61 82 65 83 68 84 62 85 63 86 66 87 64 88
REMARK SMILES IDX 43 89 44 90 52 91 45 92 46 93 50 94 53 95 47 96 48 97 51 98
REMARK SMILES IDX 49 99
REMARK H PARENT 7 7 86 13 14 33 73 52 41 63
REMARK Flexibility Score: inf
ROOT
ATOM      1  C   UNL     1       0.521   2.047  -4.119  1.00  0.00     0.002 C 
ENDROOT
BRANCH   1   2
ATOM      2  C   UNL     1       1.597   2.826  -3.350  1.00  0.00     0.021 C 
BRANCH   2   3
ATOM      3  C   UNL     1       1.556   2.592  -1.840  1.00  0.00     0.116 C 
BRANCH   3   4
ATOM      4  N   UNL     1       1.986   1.246  -1.522  1.00  0.00    -0.356 N 
ATOM      5  C   UNL     1       3.189   0.829  -1.027  1.00  0.00     0.228 C 
ATOM      6  O   UNL     1       3.471  -0.363  -1.127  1.00  0.00    -0.274 OA
ATOM      7  H   UNL     1       1.323   0.537  -1.683  1.00  0.00     0.163 HD
BRANCH   5   8
ATOM      8  C   UNL     1       4.116   1.855  -0.366  1.00  0.00     0.118 C 
BRANCH   8   9
ATOM      9  C   UNL     1       5.036   1.185   0.664  1.00  0.00     0.118 C 
BRANCH   9  10
ATOM     10  C   UNL     1       4.272   0.466   1.767  1.00  0.00     0.225 C 
ATOM     11  O   UNL     1       4.291  -0.756   1.862  1.00  0.00    -0.275 OA
ATOM     12  N   UNL     1       3.555   1.308   2.603  1.00  0.00    -0.325 N 
ATOM     13  H   UNL     1       3.494   2.258   2.355  1.00  0.00     0.169 HD
BRANCH  12  14
ATOM     14  C   UNL     1       2.905   0.894   3.792  1.00  0.00     0.060 A 
ATOM     15  C   UNL     1       1.661   1.490   4.053  1.00  0.00     0.029 A 
ATOM     16  C   UNL     1       3.425  -0.022   4.727  1.00  0.00     0.066 A 
ATOM     17  C   UNL     1       0.915   1.123   5.178  1.00  0.00     0.023 A 
ATOM     18  C   UNL     1       2.673  -0.389   5.851  1.00  0.00     0.043 A 
ATOM     19  Cl  UNL     1       5.067  -0.576   4.704  1.00  0.00    -0.082 Cl
ATOM     20  C   UNL     1       1.420   0.176   6.064  1.00  0.00     0.042 A 
ATOM     21  Cl  UNL     1       0.506  -0.266   7.452  1.00  0.00    -0.084 Cl
ENDBRANCH  12  14
ENDBRANCH   9  10
ENDBRANCH   8   9
BRANCH   8  22
ATOM     22  C   UNL     1       4.918   2.634  -1.403  1.00  0.00    -0.035 A 
ATOM     23  C   UNL     1       5.718   1.975  -2.349  1.00  0.00     0.004 A 
ATOM     24  C   UNL     1       4.838   4.036  -1.452  1.00  0.00     0.004 A 
ATOM     25  C   UNL     1       6.393   2.697  -3.334  1.00  0.00     0.000 A 
ATOM     26  C   UNL     1       5.503   4.755  -2.447  1.00  0.00     0.000 A 
ATOM     27  C   UNL     1       6.278   4.084  -3.390  1.00  0.00     0.000 A 
ENDBRANCH   8  22
ENDBRANCH   5   8
ENDBRANCH   3   4
ENDBRANCH   2   3
ENDBRANCH   1   2
BRANCH   1  28
ATOM     28  C   UNL     1      -0.919   2.329  -3.673  1.00  0.00     0.002 C 
BRANCH  28  29
ATOM     29  C   UNL     1      -1.318   3.806  -3.684  1.00  0.00     0.021 C 
BRANCH  29  30
ATOM     30  C   UNL     1      -1.215   4.473  -5.051  1.00  0.00     0.116 C 
BRANCH  30  31
ATOM     31  N   UNL     1      -2.137   3.887  -6.011  1.00  0.00    -0.352 N 
ATOM     32  C   UNL     1      -3.085   4.500  -6.787  1.00  0.00     0.251 C 
ATOM     33  H   UNL     1      -2.071   2.911  -6.119  1.00  0.00     0.163 HD
ATOM     34  O   UNL     1      -3.922   3.828  -7.391  1.00  0.00    -0.269 OA
BRANCH  32  35
ATOM     35  C   UNL     1      -3.116   5.972  -6.888  1.00  0.00     0.039 A 
ATOM     36  C   UNL     1      -4.345   6.631  -6.802  1.00  0.00     0.014 A 
ATOM     37  C   UNL     1      -1.938   6.700  -7.079  1.00  0.00     0.014 A 
ATOM     38  C   UNL     1      -4.386   8.025  -6.851  1.00  0.00     0.010 A 
ATOM     39  C   UNL     1      -1.973   8.091  -7.056  1.00  0.00     0.010 A 
ATOM     40  C   UNL     1      -3.197   8.768  -6.947  1.00  0.00    -0.014 A 
BRANCH  40  41
ATOM     41  C   UNL     1      -3.216  10.252  -6.939  1.00  0.00     0.031 A 
ATOM     42  C   UNL     1      -2.759  11.019  -8.148  1.00  0.00     0.074 A 
ATOM     43  C   UNL     1      -3.584  10.906  -5.821  1.00  0.00     0.049 A 
ATOM     44  N   UNL     1      -2.638  12.313  -8.310  1.00  0.00    -0.248 NA
ATOM     45  C   UNL     1      -2.358  10.227  -9.322  1.00  0.00     0.031 C 
ATOM     46  C   UNL     1      -4.006  10.272  -4.571  1.00  0.00     0.029 A 
ATOM     47  N   UNL     1      -3.654  12.250  -5.551  1.00  0.00    -0.354 N 
ATOM     48  C   UNL     1      -2.135  12.487  -9.593  1.00  0.00     0.074 A 
ATOM     49  C   UNL     1      -1.923  11.167 -10.148  1.00  0.00     0.031 C 
ATOM     50  C   UNL     1      -4.313  11.225  -3.676  1.00  0.00     0.029 A 
ATOM     51  C   UNL     1      -4.073  12.534  -4.274  1.00  0.00     0.049 A 
ATOM     52  H   UNL     1      -3.425  12.944  -6.211  1.00  0.00     0.167 HD
ATOM     53  C   UNL     1      -1.892  13.643 -10.255  1.00  0.00     0.037 A 
ATOM     54  C   UNL     1      -4.237  13.719  -3.655  1.00  0.00     0.037 A 
ATOM     55  C   UNL     1      -2.131  14.953  -9.709  1.00  0.00     0.049 A 
ATOM     56  C   UNL     1      -3.952  14.988  -4.412  1.00  0.00     0.074 A 
ATOM     57  C   UNL     1      -1.981  16.184 -10.323  1.00  0.00     0.029 A 
ATOM     58  N   UNL     1      -2.568  15.202  -8.416  1.00  0.00    -0.354 N 
ATOM     59  N   UNL     1      -3.545  15.141  -5.648  1.00  0.00    -0.248 NA
ATOM     60  C   UNL     1      -4.156  16.250  -3.687  1.00  0.00     0.031 C 
ATOM     61  C   UNL     1      -2.278  17.180  -9.386  1.00  0.00     0.029 A 
ATOM     62  C   UNL     1      -2.667  16.568  -8.205  1.00  0.00     0.049 A 
ATOM     63  H   UNL     1      -2.776  14.510  -7.747  1.00  0.00     0.167 HD
ATOM     64  C   UNL     1      -3.474  16.511  -5.860  1.00  0.00     0.074 A 
ATOM     65  C   UNL     1      -3.894  17.146  -4.628  1.00  0.00     0.031 C 
ATOM     66  C   UNL     1      -3.096  17.184  -6.975  1.00  0.00     0.037 A 
BRANCH  53  67
ATOM     67  C   UNL     1      -1.339  13.545 -11.648  1.00  0.00     0.064 A 
ATOM     68  C   UNL     1      -2.112  13.067 -12.717  1.00  0.00     0.173 A 
ATOM     69  C   UNL     1      -0.032  13.974 -11.926  1.00  0.00     0.173 A 
ATOM     70  F   UNL     1      -3.364  12.634 -12.504  1.00  0.00    -0.203 F 
ATOM     71  C   UNL     1      -1.588  12.994 -14.005  1.00  0.00     0.198 A 
ATOM     72  C   UNL     1       0.478  13.929 -13.221  1.00  0.00     0.198 A 
ATOM     73  F   UNL     1       0.749  14.445 -10.942  1.00  0.00    -0.203 F 
ATOM     74  F   UNL     1      -2.329  12.487 -15.000  1.00  0.00    -0.200 F 
ATOM     75  C   UNL     1      -0.297  13.432 -14.257  1.00  0.00     0.200 A 
ATOM     76  F   UNL     1       1.721  14.366 -13.465  1.00  0.00    -0.200 F 
ATOM     77  F   UNL     1       0.203  13.370 -15.499  1.00  0.00    -0.200 F 
ENDBRANCH  53  67
BRANCH  54  78
ATOM     78  C   UNL     1      -4.717  13.763  -2.249  1.00  0.00     0.064 A 
ATOM     79  C   UNL     1      -5.991  14.260  -1.941  1.00  0.00     0.173 A 
ATOM     80  C   UNL     1      -3.915  13.321  -1.187  1.00  0.00     0.173 A 
ATOM     81  F   UNL     1      -6.788  14.713  -2.921  1.00  0.00    -0.203 F 
ATOM     82  C   UNL     1      -6.436  14.335  -0.623  1.00  0.00     0.198 A 
ATOM     83  C   UNL     1      -4.372  13.369   0.128  1.00  0.00     0.198 A 
ATOM     84  F   UNL     1      -2.690  12.831  -1.428  1.00  0.00    -0.203 F 
ATOM     85  F   UNL     1      -7.639  14.860  -0.353  1.00  0.00    -0.200 F 
ATOM     86  C   UNL     1      -5.628  13.885   0.410  1.00  0.00     0.200 A 
ATOM     87  F   UNL     1      -3.595  12.918   1.122  1.00  0.00    -0.200 F 
ATOM     88  F   UNL     1      -6.057  13.954   1.678  1.00  0.00    -0.200 F 
ENDBRANCH  54  78
BRANCH  66  89
ATOM     89  C   UNL     1      -3.156  18.683  -6.928  1.00  0.00     0.064 A 
ATOM     90  C   UNL     1      -2.245  19.435  -6.173  1.00  0.00     0.173 A 
ATOM     91  C   UNL     1      -4.115  19.377  -7.682  1.00  0.00     0.173 A 
ATOM     92  F   UNL     1      -1.319  18.818  -5.423  1.00  0.00    -0.203 F 
ATOM     93  C   UNL     1      -2.308  20.826  -6.153  1.00  0.00     0.198 A 
ATOM     94  C   UNL     1      -4.155  20.768  -7.685  1.00  0.00     0.198 A 
ATOM     95  F   UNL     1      -5.006  18.706  -8.427  1.00  0.00    -0.203 F 
ATOM     96  F   UNL     1      -1.459  21.522  -5.385  1.00  0.00    -0.200 F 
ATOM     97  C   UNL     1      -3.257  21.491  -6.914  1.00  0.00     0.200 A 
ATOM     98  F   UNL     1      -5.064  21.410  -8.433  1.00  0.00    -0.200 F 
ATOM     99  F   UNL     1      -3.311  22.830  -6.900  1.00  0.00    -0.200 F 
ENDBRANCH  66  89
ENDBRANCH  40  41
ENDBRANCH  32  35
ENDBRANCH  30  31
ENDBRANCH  29  30
ENDBRANCH  28  29
ENDBRANCH   1  28
TORSDOF 17
