REMARK SMILES [NH3+][C@]1(C(=O)NCCCCCCNC(=O)c2ccc(-c3c4nc(c(-c5c(F)c(F)c(F)c(F)c5F)c5ccc([nH]5)c(-c5c(F)c(F)c(F)c(F)c5F)c5nc(c(-c6c(F)c(F)c(F)c(F)c6F)c6ccc3[nH]6)C=C5)C=C4)cc2)CCC[C@@H](OC2CCC2)C1
REMARK SMILES IDX 8 1 7 2 6 3 5 4 3 5 4 6 2 8 78 9 87 10 79 11 81 12 80 13
REMARK SMILES IDX 1 14 82 18 83 19 84 20 86 21 85 22 9 23 10 24 11 25 12 26
REMARK SMILES IDX 13 27 14 29 15 30 16 31 77 32 17 33 76 34 18 35 19 36 20 37
REMARK SMILES IDX 70 38 21 39 75 40 69 41 71 42 22 43 74 44 68 45 67 46 23 48
REMARK SMILES IDX 55 49 35 50 54 51 36 52 39 53 53 54 72 55 37 56 38 57 52 59
REMARK SMILES IDX 73 60 40 61 24 62 25 63 33 64 26 65 27 66 31 67 34 68 28 69
REMARK SMILES IDX 29 70 32 71 30 72 56 73 57 74 65 75 58 76 59 77 63 78 66 79
REMARK SMILES IDX 60 80 61 81 64 82 62 83 41 84 42 85 50 86 43 87 44 88 48 89
REMARK SMILES IDX 51 90 45 91 46 92 49 93 47 94
REMARK H PARENT 5 7 1 15 1 16 1 17 12 28 71 47 39 58
REMARK Flexibility Score: inf
ROOT
ATOM      1  C   UNL     1      -1.901   3.254  -3.807  1.00  0.00     0.002 C 
ENDROOT
BRANCH   1   2
ATOM      2  C   UNL     1      -1.760   3.263  -2.280  1.00  0.00     0.021 C 
BRANCH   2   3
ATOM      3  C   UNL     1      -2.731   2.382  -1.487  1.00  0.00     0.116 C 
BRANCH   3   4
ATOM      4  N   UNL     1      -2.594   0.972  -1.759  1.00  0.00    -0.351 N 
ATOM      5  C   UNL     1      -2.055  -0.071  -1.071  1.00  0.00     0.281 C 
ATOM      6  O   UNL     1      -2.346  -1.180  -1.542  1.00  0.00    -0.268 OA
ATOM      7  H   UNL     1      -2.972   0.707  -2.628  1.00  0.00     0.163 HD
BRANCH   5   8
ATOM      8  C   UNL     1      -1.256   0.067   0.290  1.00  0.00     0.176 C 
ATOM      9  C   UNL     1      -0.576  -1.300   0.602  1.00  0.00     0.079 C 
ATOM     10  C   UNL     1      -0.253   1.229   0.391  1.00  0.00     0.111 C 
ATOM     11  C   UNL     1       0.872  -1.309   1.096  1.00  0.00     0.010 C 
ATOM     12  C   UNL     1       1.155   0.946  -0.131  1.00  0.00     0.125 C 
ATOM     13  C   UNL     1       1.812  -0.214   0.594  1.00  0.00     0.032 C 
BRANCH   8  14
ATOM     14  N   UNL     1      -2.304   0.288   1.331  1.00  0.00    -0.345 N 
ATOM     15  H   UNL     1      -2.987  -0.468   1.291  1.00  0.00     0.345 HD
ATOM     16  H   UNL     1      -2.771   1.178   1.159  1.00  0.00     0.345 HD
ATOM     17  H   UNL     1      -1.869   0.305   2.253  1.00  0.00     0.345 HD
ENDBRANCH   8  14
BRANCH  12  18
ATOM     18  O   UNL     1       1.141   1.051  -1.540  1.00  0.00    -0.375 OA
BRANCH  18  19
ATOM     19  C   UNL     1       1.525   0.106  -2.552  1.00  0.00     0.118 C 
ATOM     20  C   UNL     1       1.579  -1.417  -2.383  1.00  0.00     0.032 C 
ATOM     21  C   UNL     1       0.387  -0.083  -3.582  1.00  0.00     0.032 C 
ATOM     22  C   UNL     1       0.391  -1.586  -3.329  1.00  0.00     0.005 C 
ENDBRANCH  18  19
ENDBRANCH  12  18
ENDBRANCH   5   8
ENDBRANCH   3   4
ENDBRANCH   2   3
ENDBRANCH   1   2
BRANCH   1  23
ATOM     23  C   UNL     1      -3.303   3.482  -4.371  1.00  0.00     0.002 C 
BRANCH  23  24
ATOM     24  C   UNL     1      -4.058   4.692  -3.820  1.00  0.00     0.021 C 
BRANCH  24  25
ATOM     25  C   UNL     1      -3.362   6.036  -3.999  1.00  0.00     0.116 C 
BRANCH  25  26
ATOM     26  N   UNL     1      -3.270   6.434  -5.394  1.00  0.00    -0.352 N 
ATOM     27  C   UNL     1      -3.741   7.555  -6.021  1.00  0.00     0.251 C 
ATOM     28  H   UNL     1      -2.795   5.798  -5.977  1.00  0.00     0.163 HD
ATOM     29  O   UNL     1      -3.720   7.613  -7.257  1.00  0.00    -0.269 OA
BRANCH  27  30
ATOM     30  C   UNL     1      -4.299   8.692  -5.255  1.00  0.00     0.039 A 
ATOM     31  C   UNL     1      -5.418   9.355  -5.767  1.00  0.00     0.014 A 
ATOM     32  C   UNL     1      -3.716   9.140  -4.065  1.00  0.00     0.014 A 
ATOM     33  C   UNL     1      -5.979  10.423  -5.064  1.00  0.00     0.010 A 
ATOM     34  C   UNL     1      -4.327  10.152  -3.322  1.00  0.00     0.010 A 
ATOM     35  C   UNL     1      -5.461  10.811  -3.817  1.00  0.00    -0.014 A 
BRANCH  35  36
ATOM     36  C   UNL     1      -6.122  11.890  -3.034  1.00  0.00     0.031 A 
ATOM     37  C   UNL     1      -5.411  13.181  -2.736  1.00  0.00     0.074 A 
ATOM     38  C   UNL     1      -7.377  11.696  -2.580  1.00  0.00     0.049 A 
ATOM     39  N   UNL     1      -5.859  14.250  -2.123  1.00  0.00    -0.248 NA
ATOM     40  C   UNL     1      -4.006  13.282  -3.158  1.00  0.00     0.031 C 
ATOM     41  C   UNL     1      -8.150  10.464  -2.743  1.00  0.00     0.029 A 
ATOM     42  N   UNL     1      -8.226  12.533  -1.899  1.00  0.00    -0.354 N 
ATOM     43  C   UNL     1      -4.797  15.144  -2.089  1.00  0.00     0.074 A 
ATOM     44  C   UNL     1      -3.663  14.470  -2.683  1.00  0.00     0.031 C 
ATOM     45  C   UNL     1      -9.374  10.641  -2.223  1.00  0.00     0.029 A 
ATOM     46  C   UNL     1      -9.462  11.984  -1.658  1.00  0.00     0.049 A 
ATOM     47  H   UNL     1      -7.973  13.440  -1.611  1.00  0.00     0.167 HD
ATOM     48  C   UNL     1      -4.776  16.419  -1.630  1.00  0.00     0.037 A 
ATOM     49  C   UNL     1     -10.548  12.506  -1.058  1.00  0.00     0.037 A 
ATOM     50  C   UNL     1      -5.910  17.091  -1.048  1.00  0.00     0.049 A 
ATOM     51  C   UNL     1     -10.499  13.925  -0.560  1.00  0.00     0.074 A 
ATOM     52  C   UNL     1      -6.007  18.400  -0.607  1.00  0.00     0.029 A 
ATOM     53  N   UNL     1      -7.145  16.501  -0.816  1.00  0.00    -0.354 N 
ATOM     54  N   UNL     1      -9.516  14.790  -0.617  1.00  0.00    -0.248 NA
ATOM     55  C   UNL     1     -11.718  14.443   0.074  1.00  0.00     0.031 C 
ATOM     56  C   UNL     1      -7.280  18.585  -0.057  1.00  0.00     0.029 A 
ATOM     57  C   UNL     1      -8.000  17.411  -0.210  1.00  0.00     0.049 A 
ATOM     58  H   UNL     1      -7.380  15.574  -1.047  1.00  0.00     0.167 HD
ATOM     59  C   UNL     1     -10.002  15.959  -0.046  1.00  0.00     0.074 A 
ATOM     60  C   UNL     1     -11.379  15.700   0.320  1.00  0.00     0.031 C 
ATOM     61  C   UNL     1      -9.365  17.138   0.161  1.00  0.00     0.037 A 
BRANCH  48  62
ATOM     62  C   UNL     1      -3.483  17.178  -1.741  1.00  0.00     0.064 A 
ATOM     63  C   UNL     1      -2.963  17.571  -2.985  1.00  0.00     0.173 A 
ATOM     64  C   UNL     1      -2.775  17.556  -0.590  1.00  0.00     0.173 A 
ATOM     65  F   UNL     1      -3.593  17.230  -4.119  1.00  0.00    -0.203 F 
ATOM     66  C   UNL     1      -1.770  18.285  -3.072  1.00  0.00     0.198 A 
ATOM     67  C   UNL     1      -1.601  18.299  -0.679  1.00  0.00     0.198 A 
ATOM     68  F   UNL     1      -3.228  17.215   0.626  1.00  0.00    -0.203 F 
ATOM     69  F   UNL     1      -1.268  18.604  -4.274  1.00  0.00    -0.200 F 
ATOM     70  C   UNL     1      -1.095  18.656  -1.920  1.00  0.00     0.200 A 
ATOM     71  F   UNL     1      -0.957  18.670   0.437  1.00  0.00    -0.200 F 
ATOM     72  F   UNL     1       0.048  19.351  -2.005  1.00  0.00    -0.200 F 
ENDBRANCH  48  62
BRANCH  49  73
ATOM     73  C   UNL     1     -11.787  11.694  -0.924  1.00  0.00     0.064 A 
ATOM     74  C   UNL     1     -12.950  12.026  -1.633  1.00  0.00     0.173 A 
ATOM     75  C   UNL     1     -11.836  10.575  -0.080  1.00  0.00     0.173 A 
ATOM     76  F   UNL     1     -12.960  13.099  -2.438  1.00  0.00    -0.203 F 
ATOM     77  C   UNL     1     -14.121  11.286  -1.484  1.00  0.00     0.198 A 
ATOM     78  C   UNL     1     -12.998   9.816   0.043  1.00  0.00     0.198 A 
ATOM     79  F   UNL     1     -10.750  10.210   0.616  1.00  0.00    -0.203 F 
ATOM     80  F   UNL     1     -15.233  11.658  -2.133  1.00  0.00    -0.200 F 
ATOM     81  C   UNL     1     -14.143  10.178  -0.651  1.00  0.00     0.200 A 
ATOM     82  F   UNL     1     -13.009   8.736   0.835  1.00  0.00    -0.200 F 
ATOM     83  F   UNL     1     -15.268   9.464  -0.511  1.00  0.00    -0.200 F 
ENDBRANCH  49  73
BRANCH  61  84
ATOM     84  C   UNL     1     -10.162  18.240   0.801  1.00  0.00     0.064 A 
ATOM     85  C   UNL     1     -10.577  18.167   2.140  1.00  0.00     0.173 A 
ATOM     86  C   UNL     1     -10.516  19.383   0.068  1.00  0.00     0.173 A 
ATOM     87  F   UNL     1     -10.278  17.090   2.882  1.00  0.00    -0.203 F 
ATOM     88  C   UNL     1     -11.354  19.176   2.706  1.00  0.00     0.198 A 
ATOM     89  C   UNL     1     -11.260  20.407   0.648  1.00  0.00     0.198 A 
ATOM     90  F   UNL     1     -10.138  19.509  -1.213  1.00  0.00    -0.203 F 
ATOM     91  F   UNL     1     -11.797  19.050   3.964  1.00  0.00    -0.200 F 
ATOM     92  C   UNL     1     -11.690  20.296   1.962  1.00  0.00     0.200 A 
ATOM     93  F   UNL     1     -11.570  21.496  -0.068  1.00  0.00    -0.200 F 
ATOM     94  F   UNL     1     -12.440  21.264   2.507  1.00  0.00    -0.200 F 
ENDBRANCH  61  84
ENDBRANCH  35  36
ENDBRANCH  27  30
ENDBRANCH  25  26
ENDBRANCH  24  25
ENDBRANCH  23  24
ENDBRANCH   1  23
TORSDOF 16
