REMARK SMILES O=C(NCCCCCCNC(=O)[C@@H]1CC[C@@H](CNC(=O)c2ccc(O)nn2)O1)c1ccc(-c2c3nc(c(-c4c(F)c(F)c(F)c(F)c4F)c4ccc([nH]4)c(-c4c(F)c(F)c(F)c(F)c4F)c4nc(c(-c5c(F)c(F)c(F)c(F)c5F)c5ccc2[nH]5)C=C4)C=C3)cc1
REMARK SMILES IDX 7 1 6 2 5 3 4 4 3 5 1 6 2 7 29 9 30 10 91 11 31 12 90 13
REMARK SMILES IDX 32 14 33 15 34 16 84 17 35 18 89 19 83 20 85 21 36 22 88 23
REMARK SMILES IDX 82 24 81 25 37 27 69 28 49 29 68 30 50 31 53 32 67 33 86 34
REMARK SMILES IDX 51 35 52 36 66 38 87 39 54 40 38 41 39 42 47 43 40 44 41 45
REMARK SMILES IDX 45 46 48 47 42 48 43 49 46 50 44 51 70 52 71 53 79 54 72 55
REMARK SMILES IDX 73 56 77 57 80 58 74 59 75 60 78 61 76 62 55 63 56 64 64 65
REMARK SMILES IDX 57 66 58 67 62 68 65 69 59 70 60 71 63 72 61 73 8 74 9 75
REMARK SMILES IDX 10 76 11 77 12 79 13 80 14 81 28 82 15 83 16 84 17 85 18 86
REMARK SMILES IDX 19 87 20 89 21 90 22 91 27 92 23 93 26 94 24 95 25 96
REMARK H PARENT 3 8 85 26 53 37 10 78 18 88 25 97
REMARK Flexibility Score: inf
ROOT
ATOM      1  C   UNL     1       4.952  -4.005  -1.337  1.00  0.00     0.002 C 
ENDROOT
BRANCH   1   2
ATOM      2  C   UNL     1       4.232  -3.697  -0.019  1.00  0.00     0.002 C 
BRANCH   2   3
ATOM      3  C   UNL     1       4.663  -2.397   0.667  1.00  0.00     0.021 C 
BRANCH   3   4
ATOM      4  C   UNL     1       4.416  -1.135  -0.155  1.00  0.00     0.116 C 
BRANCH   4   5
ATOM      5  N   UNL     1       2.996  -0.890  -0.350  1.00  0.00    -0.352 N 
ATOM      6  O   UNL     1       1.035   0.196  -0.067  1.00  0.00    -0.269 OA
ATOM      7  C   UNL     1       2.264   0.227  -0.040  1.00  0.00     0.251 C 
ATOM      8  H   UNL     1       2.490  -1.628  -0.761  1.00  0.00     0.163 HD
BRANCH   7   9
ATOM      9  C   UNL     1       2.958   1.473   0.337  1.00  0.00     0.039 A 
ATOM     10  C   UNL     1       3.983   1.982  -0.466  1.00  0.00     0.014 A 
ATOM     11  C   UNL     1       2.558   2.153   1.491  1.00  0.00     0.014 A 
ATOM     12  C   UNL     1       4.670   3.125  -0.066  1.00  0.00     0.010 A 
ATOM     13  C   UNL     1       3.223   3.320   1.871  1.00  0.00     0.010 A 
ATOM     14  C   UNL     1       4.299   3.799   1.108  1.00  0.00    -0.014 A 
BRANCH  14  15
ATOM     15  C   UNL     1       5.038   5.017   1.516  1.00  0.00     0.031 A 
ATOM     16  C   UNL     1       5.991   4.977   2.675  1.00  0.00     0.074 A 
ATOM     17  C   UNL     1       4.864   6.155   0.818  1.00  0.00     0.049 A 
ATOM     18  N   UNL     1       6.757   5.929   3.146  1.00  0.00    -0.248 NA
ATOM     19  C   UNL     1       6.103   3.703   3.402  1.00  0.00     0.031 C 
ATOM     20  C   UNL     1       3.958   6.312  -0.321  1.00  0.00     0.029 A 
ATOM     21  N   UNL     1       5.442   7.391   0.958  1.00  0.00    -0.354 N 
ATOM     22  C   UNL     1       7.443   5.370   4.214  1.00  0.00     0.074 A 
ATOM     23  C   UNL     1       6.981   4.006   4.349  1.00  0.00     0.031 C 
ATOM     24  C   UNL     1       4.051   7.568  -0.784  1.00  0.00     0.029 A 
ATOM     25  C   UNL     1       4.999   8.311   0.041  1.00  0.00     0.049 A 
ATOM     26  H   UNL     1       6.111   7.597   1.651  1.00  0.00     0.167 HD
ATOM     27  C   UNL     1       8.386   5.944   4.998  1.00  0.00     0.037 A 
ATOM     28  C   UNL     1       5.316   9.611  -0.109  1.00  0.00     0.037 A 
ATOM     29  C   UNL     1       8.850   7.298   4.854  1.00  0.00     0.049 A 
ATOM     30  C   UNL     1       6.330  10.233   0.811  1.00  0.00     0.074 A 
ATOM     31  C   UNL     1       9.842   7.949   5.568  1.00  0.00     0.029 A 
ATOM     32  N   UNL     1       8.348   8.213   3.942  1.00  0.00    -0.354 N 
ATOM     33  N   UNL     1       7.021   9.676   1.775  1.00  0.00    -0.248 NA
ATOM     34  C   UNL     1       6.609  11.664   0.622  1.00  0.00     0.031 C 
ATOM     35  C   UNL     1       9.908   9.271   5.120  1.00  0.00     0.029 A 
ATOM     36  C   UNL     1       8.987   9.432   4.097  1.00  0.00     0.049 A 
ATOM     37  H   UNL     1       7.642   8.025   3.282  1.00  0.00     0.167 HD
ATOM     38  C   UNL     1       7.822  10.680   2.299  1.00  0.00     0.074 A 
ATOM     39  C   UNL     1       7.550  11.877   1.532  1.00  0.00     0.031 C 
ATOM     40  C   UNL     1       8.701  10.615   3.328  1.00  0.00     0.037 A 
BRANCH  27  41
ATOM     41  C   UNL     1       9.003   5.114   6.083  1.00  0.00     0.064 A 
ATOM     42  C   UNL     1       9.959   4.131   5.792  1.00  0.00     0.173 A 
ATOM     43  C   UNL     1       8.716   5.377   7.431  1.00  0.00     0.173 A 
ATOM     44  F   UNL     1      10.260   3.837   4.518  1.00  0.00    -0.203 F 
ATOM     45  C   UNL     1      10.607   3.440   6.812  1.00  0.00     0.198 A 
ATOM     46  C   UNL     1       9.380   4.698   8.449  1.00  0.00     0.198 A 
ATOM     47  F   UNL     1       7.812   6.312   7.759  1.00  0.00    -0.203 F 
ATOM     48  F   UNL     1      11.508   2.494   6.512  1.00  0.00    -0.200 F 
ATOM     49  C   UNL     1      10.325   3.731   8.139  1.00  0.00     0.200 A 
ATOM     50  F   UNL     1       9.115   4.988   9.730  1.00  0.00    -0.200 F 
ATOM     51  F   UNL     1      10.966   3.080   9.120  1.00  0.00    -0.200 F 
ENDBRANCH  27  41
BRANCH  28  52
ATOM     52  C   UNL     1       4.663  10.412  -1.176  1.00  0.00     0.064 A 
ATOM     53  C   UNL     1       5.387  10.859  -2.289  1.00  0.00     0.173 A 
ATOM     54  C   UNL     1       3.303  10.747  -1.101  1.00  0.00     0.173 A 
ATOM     55  F   UNL     1       6.695  10.581  -2.392  1.00  0.00    -0.203 F 
ATOM     56  C   UNL     1       4.779  11.625  -3.280  1.00  0.00     0.198 A 
ATOM     57  C   UNL     1       2.690  11.491  -2.107  1.00  0.00     0.198 A 
ATOM     58  F   UNL     1       2.567  10.342  -0.056  1.00  0.00    -0.203 F 
ATOM     59  F   UNL     1       5.503  12.075  -4.314  1.00  0.00    -0.200 F 
ATOM     60  C   UNL     1       3.430  11.936  -3.192  1.00  0.00     0.200 A 
ATOM     61  F   UNL     1       1.384  11.780  -2.022  1.00  0.00    -0.200 F 
ATOM     62  F   UNL     1       2.845  12.670  -4.148  1.00  0.00    -0.200 F 
ENDBRANCH  28  52
BRANCH  40  63
ATOM     63  C   UNL     1       9.435  11.871   3.691  1.00  0.00     0.064 A 
ATOM     64  C   UNL     1       8.794  12.917   4.370  1.00  0.00     0.173 A 
ATOM     65  C   UNL     1      10.806  12.000   3.424  1.00  0.00     0.173 A 
ATOM     66  F   UNL     1       7.481  12.845   4.634  1.00  0.00    -0.203 F 
ATOM     67  C   UNL     1       9.498  14.053   4.760  1.00  0.00     0.198 A 
ATOM     68  C   UNL     1      11.512  13.126   3.839  1.00  0.00     0.198 A 
ATOM     69  F   UNL     1      11.466  11.023   2.784  1.00  0.00    -0.203 F 
ATOM     70  F   UNL     1       8.859  15.053   5.382  1.00  0.00    -0.200 F 
ATOM     71  C   UNL     1      10.857  14.152   4.504  1.00  0.00     0.200 A 
ATOM     72  F   UNL     1      12.829  13.214   3.603  1.00  0.00    -0.200 F 
ATOM     73  F   UNL     1      11.537  15.238   4.895  1.00  0.00    -0.200 F 
ENDBRANCH  40  63
ENDBRANCH  14  15
ENDBRANCH   7   9
ENDBRANCH   4   5
ENDBRANCH   3   4
ENDBRANCH   2   3
ENDBRANCH   1   2
BRANCH   1  74
ATOM     74  C   UNL     1       6.482  -4.057  -1.246  1.00  0.00     0.021 C 
BRANCH  74  75
ATOM     75  C   UNL     1       7.011  -5.117  -0.279  1.00  0.00     0.116 C 
BRANCH  75  76
ATOM     76  N   UNL     1       6.769  -6.452  -0.788  1.00  0.00    -0.354 N 
ATOM     77  C   UNL     1       7.647  -7.334  -1.357  1.00  0.00     0.249 C 
ATOM     78  H   UNL     1       5.840  -6.770  -0.713  1.00  0.00     0.163 HD
ATOM     79  O   UNL     1       7.200  -8.392  -1.800  1.00  0.00    -0.272 OA
BRANCH  77  80
ATOM     80  C   UNL     1       9.143  -6.973  -1.394  1.00  0.00     0.207 C 
ATOM     81  C   UNL     1       9.446  -5.876  -2.406  1.00  0.00     0.045 C 
ATOM     82  O   UNL     1       9.990  -8.082  -1.738  1.00  0.00    -0.363 OA
ATOM     83  C   UNL     1      10.879  -6.172  -2.767  1.00  0.00     0.037 C 
ATOM     84  C   UNL     1      10.872  -7.691  -2.808  1.00  0.00     0.138 C 
BRANCH  84  85
ATOM     85  C   UNL     1      12.233  -8.395  -2.649  1.00  0.00     0.148 C 
BRANCH  85  86
ATOM     86  N   UNL     1      13.377  -7.514  -2.849  1.00  0.00    -0.348 N 
ATOM     87  C   UNL     1      14.127  -6.869  -1.891  1.00  0.00     0.271 C 
ATOM     88  H   UNL     1      13.647  -7.362  -3.784  1.00  0.00     0.163 HD
ATOM     89  O   UNL     1      14.834  -5.917  -2.214  1.00  0.00    -0.267 OA
BRANCH  87  90
ATOM     90  C   UNL     1      14.048  -7.276  -0.466  1.00  0.00     0.151 A 
ATOM     91  C   UNL     1      13.940  -6.313   0.527  1.00  0.00     0.042 A 
ATOM     92  N   UNL     1      14.138  -8.601  -0.192  1.00  0.00    -0.142 NA
ATOM     93  C   UNL     1      13.889  -6.742   1.847  1.00  0.00     0.072 A 
ATOM     94  N   UNL     1      14.094  -9.018   1.105  1.00  0.00    -0.112 NA
ATOM     95  C   UNL     1      13.971  -8.097   2.078  1.00  0.00     0.230 A 
BRANCH  95  96
ATOM     96  O   UNL     1      13.933  -8.584   3.345  1.00  0.00    -0.492 OA
ATOM     97  H   UNL     1      13.848  -7.997   4.071  1.00  0.00     0.295 HD
ENDBRANCH  95  96
ENDBRANCH  87  90
ENDBRANCH  85  86
ENDBRANCH  84  85
ENDBRANCH  77  80
ENDBRANCH  75  76
ENDBRANCH  74  75
ENDBRANCH   1  74
TORSDOF 17
