REMARK SMILES Cc1c(/C=C/C(=O)NCCCCCCNC(=O)c2ccc(-c3c4nc(c(-c5c(F)c(F)c(F)c(F)c5F)c5ccc([nH]5)c(-c5c(F)c(F)c(F)c(F)c5F)c5nc(c(-c6c(F)c(F)c(F)c(F)c6F)c6ccc3[nH]6)C=C5)C=C4)cc2)cccc1C(=O)N1C[C@@H](C)[C@@H](C)C1
REMARK SMILES IDX 11 1 10 2 9 3 8 4 6 5 7 6 5 8 4 9 3 10 1 11 2 12 84 13 81 14
REMARK SMILES IDX 83 15 82 16 85 17 86 18 87 19 88 20 93 21 89 22 91 23 90 24
REMARK SMILES IDX 92 25 12 26 13 27 14 28 15 29 16 30 17 32 18 33 19 34 80 35
REMARK SMILES IDX 20 36 79 37 21 38 22 39 23 40 73 41 24 42 78 43 72 44 74 45
REMARK SMILES IDX 25 46 77 47 71 48 70 49 26 51 58 52 38 53 57 54 39 55 42 56
REMARK SMILES IDX 56 57 75 58 40 59 41 60 55 62 76 63 43 64 27 65 28 66 36 67
REMARK SMILES IDX 29 68 30 69 34 70 37 71 31 72 32 73 35 74 33 75 59 76 60 77
REMARK SMILES IDX 68 78 61 79 62 80 66 81 69 82 63 83 64 84 67 85 65 86 44 87
REMARK SMILES IDX 45 88 53 89 46 90 47 91 51 92 54 93 48 94 49 95 52 96 50 97
REMARK H PARENT 8 7 15 31 74 50 42 61
REMARK Flexibility Score: inf
ROOT
ATOM      1  C   UNL     1       5.125  -5.221   1.050  1.00  0.00     0.002 C 
ENDROOT
BRANCH   1   2
ATOM      2  C   UNL     1       4.090  -4.098   0.900  1.00  0.00     0.021 C 
BRANCH   2   3
ATOM      3  C   UNL     1       3.151  -4.246  -0.297  1.00  0.00     0.116 C 
BRANCH   3   4
ATOM      4  N   UNL     1       2.071  -5.177  -0.025  1.00  0.00    -0.353 N 
ATOM      5  C   UNL     1       0.723  -4.973  -0.074  1.00  0.00     0.243 C 
ATOM      6  O   UNL     1      -0.058  -5.912   0.032  1.00  0.00    -0.270 OA
ATOM      7  H   UNL     1       2.351  -6.085   0.232  1.00  0.00     0.163 HD
BRANCH   5   8
ATOM      8  C   UNL     1       0.217  -3.612  -0.344  1.00  0.00     0.072 C 
ATOM      9  C   UNL     1       0.507  -2.588   0.473  1.00  0.00     0.014 C 
BRANCH   9  10
ATOM     10  C   UNL     1       0.092  -1.198   0.212  1.00  0.00    -0.022 A 
ATOM     11  C   UNL     1       2.425  -0.364   0.761  1.00  0.00     0.046 C 
ATOM     12  C   UNL     1       0.995  -0.108   0.356  1.00  0.00    -0.031 A 
ATOM     13  C   UNL     1       0.517   1.204   0.108  1.00  0.00     0.043 A 
ATOM     14  C   UNL     1      -1.254  -0.954  -0.112  1.00  0.00     0.008 A 
ATOM     15  C   UNL     1      -0.831   1.411  -0.235  1.00  0.00     0.014 A 
ATOM     16  C   UNL     1      -1.712   0.339  -0.343  1.00  0.00     0.001 A 
BRANCH  13  17
ATOM     17  C   UNL     1       1.265   2.430   0.500  1.00  0.00     0.254 C 
ATOM     18  O   UNL     1       0.701   3.195   1.284  1.00  0.00    -0.269 OA
BRANCH  17  19
ATOM     19  N   UNL     1       2.565   2.651   0.086  1.00  0.00    -0.338 N 
ATOM     20  C   UNL     1       3.422   3.491   0.897  1.00  0.00     0.123 C 
ATOM     21  C   UNL     1       3.186   2.313  -1.186  1.00  0.00     0.123 C 
ATOM     22  C   UNL     1       4.584   3.888  -0.004  1.00  0.00     0.010 C 
ATOM     23  C   UNL     1       4.657   2.746  -1.041  1.00  0.00     0.010 C 
ATOM     24  C   UNL     1       5.845   4.169   0.803  1.00  0.00     0.010 C 
ATOM     25  C   UNL     1       5.557   1.576  -0.648  1.00  0.00     0.010 C 
ENDBRANCH  17  19
ENDBRANCH  13  17
ENDBRANCH   9  10
ENDBRANCH   5   8
ENDBRANCH   3   4
ENDBRANCH   2   3
ENDBRANCH   1   2
BRANCH   1  26
ATOM     26  C   UNL     1       6.002  -5.514  -0.181  1.00  0.00     0.002 C 
BRANCH  26  27
ATOM     27  C   UNL     1       6.621  -4.296  -0.873  1.00  0.00     0.021 C 
BRANCH  27  28
ATOM     28  C   UNL     1       7.759  -3.646  -0.091  1.00  0.00     0.116 C 
BRANCH  28  29
ATOM     29  N   UNL     1       9.073  -3.961  -0.621  1.00  0.00    -0.352 N 
ATOM     30  C   UNL     1      10.335  -3.590  -0.154  1.00  0.00     0.251 C 
ATOM     31  H   UNL     1       9.075  -4.520  -1.431  1.00  0.00     0.163 HD
ATOM     32  O   UNL     1      11.339  -3.921  -0.756  1.00  0.00    -0.269 OA
BRANCH  30  33
ATOM     33  C   UNL     1      10.436  -2.917   1.165  1.00  0.00     0.039 A 
ATOM     34  C   UNL     1      11.307  -3.484   2.100  1.00  0.00     0.014 A 
ATOM     35  C   UNL     1       9.533  -1.935   1.536  1.00  0.00     0.014 A 
ATOM     36  C   UNL     1      11.076  -3.262   3.457  1.00  0.00     0.010 A 
ATOM     37  C   UNL     1       9.239  -1.787   2.875  1.00  0.00     0.010 A 
ATOM     38  C   UNL     1       9.954  -2.522   3.827  1.00  0.00    -0.014 A 
BRANCH  38  39
ATOM     39  C   UNL     1       9.365  -2.593   5.157  1.00  0.00     0.031 A 
ATOM     40  C   UNL     1       9.475  -1.457   6.090  1.00  0.00     0.074 A 
ATOM     41  C   UNL     1       8.614  -3.672   5.473  1.00  0.00     0.049 A 
ATOM     42  N   UNL     1       9.270  -1.533   7.362  1.00  0.00    -0.248 NA
ATOM     43  C   UNL     1       9.901  -0.134   5.658  1.00  0.00     0.031 C 
ATOM     44  C   UNL     1       7.682  -3.810   6.588  1.00  0.00     0.029 A 
ATOM     45  N   UNL     1       8.704  -4.967   4.930  1.00  0.00    -0.354 N 
ATOM     46  C   UNL     1       9.253  -0.252   7.867  1.00  0.00     0.074 A 
ATOM     47  C   UNL     1       9.757   0.563   6.789  1.00  0.00     0.031 C 
ATOM     48  C   UNL     1       7.507  -5.115   6.846  1.00  0.00     0.029 A 
ATOM     49  C   UNL     1       8.443  -5.844   6.008  1.00  0.00     0.049 A 
ATOM     50  H   UNL     1       8.905  -5.210   3.998  1.00  0.00     0.167 HD
ATOM     51  C   UNL     1       8.677  -0.040   9.089  1.00  0.00     0.037 A 
ATOM     52  C   UNL     1       9.396  -6.701   6.476  1.00  0.00     0.037 A 
ATOM     53  C   UNL     1       8.389  -1.318   9.750  1.00  0.00     0.049 A 
ATOM     54  C   UNL     1       9.745  -6.500   7.931  1.00  0.00     0.074 A 
ATOM     55  C   UNL     1       7.229  -2.057   9.918  1.00  0.00     0.029 A 
ATOM     56  N   UNL     1       9.443  -2.160  10.097  1.00  0.00    -0.354 N 
ATOM     57  N   UNL     1       9.493  -5.405   8.593  1.00  0.00    -0.248 NA
ATOM     58  C   UNL     1      10.434  -7.499   8.743  1.00  0.00     0.031 C 
ATOM     59  C   UNL     1       7.597  -3.372  10.304  1.00  0.00     0.029 A 
ATOM     60  C   UNL     1       8.977  -3.426  10.397  1.00  0.00     0.049 A 
ATOM     61  H   UNL     1      10.390  -1.891  10.124  1.00  0.00     0.167 HD
ATOM     62  C   UNL     1       9.982  -5.520   9.868  1.00  0.00     0.074 A 
ATOM     63  C   UNL     1      10.543  -6.857   9.920  1.00  0.00     0.031 C 
ATOM     64  C   UNL     1       9.894  -4.495  10.766  1.00  0.00     0.037 A 
BRANCH  51  65
ATOM     65  C   UNL     1       8.100   1.288   9.567  1.00  0.00     0.064 A 
ATOM     66  C   UNL     1       7.118   1.316  10.587  1.00  0.00     0.173 A 
ATOM     67  C   UNL     1       8.377   2.553   9.013  1.00  0.00     0.173 A 
ATOM     68  F   UNL     1       6.814   0.222  11.297  1.00  0.00    -0.203 F 
ATOM     69  C   UNL     1       6.403   2.473  10.924  1.00  0.00     0.198 A 
ATOM     70  C   UNL     1       7.643   3.703   9.326  1.00  0.00     0.198 A 
ATOM     71  F   UNL     1       9.404   2.757   8.188  1.00  0.00    -0.203 F 
ATOM     72  F   UNL     1       5.466   2.421  11.881  1.00  0.00    -0.200 F 
ATOM     73  C   UNL     1       6.643   3.661  10.269  1.00  0.00     0.200 A 
ATOM     74  F   UNL     1       7.922   4.855   8.698  1.00  0.00    -0.200 F 
ATOM     75  F   UNL     1       5.938   4.761  10.563  1.00  0.00    -0.200 F 
ENDBRANCH  51  65
BRANCH  52  76
ATOM     76  C   UNL     1      10.344  -7.158   5.427  1.00  0.00     0.064 A 
ATOM     77  C   UNL     1       9.842  -7.933   4.365  1.00  0.00     0.173 A 
ATOM     78  C   UNL     1      11.593  -6.552   5.252  1.00  0.00     0.173 A 
ATOM     79  F   UNL     1       8.646  -8.532   4.481  1.00  0.00    -0.203 F 
ATOM     80  C   UNL     1      10.505  -8.004   3.142  1.00  0.00     0.198 A 
ATOM     81  C   UNL     1      12.261  -6.635   4.027  1.00  0.00     0.198 A 
ATOM     82  F   UNL     1      12.115  -5.782   6.217  1.00  0.00    -0.203 F 
ATOM     83  F   UNL     1       9.945  -8.661   2.115  1.00  0.00    -0.200 F 
ATOM     84  C   UNL     1      11.701  -7.332   2.966  1.00  0.00     0.200 A 
ATOM     85  F   UNL     1      13.404  -5.957   3.845  1.00  0.00    -0.200 F 
ATOM     86  F   UNL     1      12.294  -7.318   1.764  1.00  0.00    -0.200 F 
ENDBRANCH  52  76
BRANCH  64  87
ATOM     87  C   UNL     1      10.588  -4.429  12.105  1.00  0.00     0.064 A 
ATOM     88  C   UNL     1      11.819  -5.046  12.381  1.00  0.00     0.173 A 
ATOM     89  C   UNL     1      10.086  -3.588  13.128  1.00  0.00     0.173 A 
ATOM     90  F   UNL     1      12.458  -5.773  11.455  1.00  0.00    -0.203 F 
ATOM     91  C   UNL     1      12.469  -4.884  13.609  1.00  0.00     0.198 A 
ATOM     92  C   UNL     1      10.765  -3.382  14.328  1.00  0.00     0.198 A 
ATOM     93  F   UNL     1       8.932  -2.919  12.980  1.00  0.00    -0.203 F 
ATOM     94  F   UNL     1      13.623  -5.526  13.838  1.00  0.00    -0.200 F 
ATOM     95  C   UNL     1      11.950  -4.042  14.575  1.00  0.00     0.200 A 
ATOM     96  F   UNL     1      10.274  -2.522  15.232  1.00  0.00    -0.200 F 
ATOM     97  F   UNL     1      12.601  -3.852  15.730  1.00  0.00    -0.200 F 
ENDBRANCH  64  87
ENDBRANCH  38  39
ENDBRANCH  30  33
ENDBRANCH  28  29
ENDBRANCH  27  28
ENDBRANCH  26  27
ENDBRANCH   1  26
TORSDOF 16
