REMARK SMILES C/C(=N/OCc1ccccc1Nc1c(Cl)cccc1Cl)C(=O)NCCCCCCNC(=O)c1ccc(-c2c3nc(c(-c4c(F)c(F)c(F)c(F)c4F)c4ccc([nH]4)c(-c4c(F)c(F)c(F)c(F)c4F)c4nc(c(-c5c(F)c(F)c(F)c(F)c5F)c5ccc2[nH]5)C=C4)C=C3)cc1
REMARK SMILES IDX 25 1 24 2 23 3 21 4 22 5 2 7 1 8 3 9 4 10 5 11 6 12 7 13
REMARK SMILES IDX 11 14 8 15 10 16 9 17 12 18 13 20 14 21 19 22 15 23 16 24
REMARK SMILES IDX 18 25 20 26 17 27 26 28 27 29 28 30 29 31 30 32 31 33 32 35
REMARK SMILES IDX 33 36 34 37 95 38 35 39 94 40 36 41 37 42 38 43 88 44 39 45
REMARK SMILES IDX 93 46 87 47 89 48 40 49 92 50 86 51 85 52 41 54 73 55 53 56
REMARK SMILES IDX 72 57 54 58 57 59 71 60 90 61 55 62 56 63 70 65 91 66 58 67
REMARK SMILES IDX 42 68 43 69 51 70 44 71 45 72 49 73 52 74 46 75 47 76 50 77
REMARK SMILES IDX 48 78 74 79 75 80 83 81 76 82 77 83 81 84 84 85 78 86 79 87
REMARK SMILES IDX 82 88 80 89 59 90 60 91 68 92 61 93 62 94 66 95 69 96 63 97
REMARK SMILES IDX 64 98 67 99 65 100
REMARK H PARENT 23 6 12 19 30 34 89 53 57 64
REMARK Flexibility Score: inf
ROOT
ATOM      1  C   UNL     1      -1.417   4.130   2.865  1.00  0.00     0.021 C 
ENDROOT
BRANCH   1   2
ATOM      2  C   UNL     1       0.016   3.805   2.428  1.00  0.00     0.116 C 
BRANCH   2   3
ATOM      3  N   UNL     1       0.322   2.425   2.693  1.00  0.00    -0.351 N 
ATOM      4  C   UNL     1       0.322   1.313   1.894  1.00  0.00     0.268 C 
ATOM      5  O   UNL     1       0.522   0.232   2.453  1.00  0.00    -0.268 OA
ATOM      6  H   UNL     1       0.579   2.246   3.626  1.00  0.00     0.163 HD
BRANCH   4   7
ATOM      7  C   UNL     1       0.212   1.284   0.372  1.00  0.00     0.141 C 
ATOM      8  C   UNL     1       1.037   0.179  -0.261  1.00  0.00     0.077 C 
ATOM      9  N   UNL     1      -0.499   1.998  -0.454  1.00  0.00    -0.086 NA
BRANCH   9  10
ATOM     10  O   UNL     1      -1.260   2.999   0.126  1.00  0.00    -0.390 OA
BRANCH  10  11
ATOM     11  C   UNL     1      -1.721   3.943  -0.858  1.00  0.00     0.302 C 
BRANCH  11  12
ATOM     12  C   UNL     1      -0.803   4.288  -2.025  1.00  0.00     0.016 A 
ATOM     13  C   UNL     1      -1.268   3.930  -3.310  1.00  0.00     0.009 A 
ATOM     14  C   UNL     1       0.440   4.955  -1.909  1.00  0.00     0.045 A 
ATOM     15  C   UNL     1      -0.518   4.187  -4.455  1.00  0.00     0.001 A 
ATOM     16  C   UNL     1       1.212   5.125  -3.075  1.00  0.00     0.026 A 
ATOM     17  C   UNL     1       0.733   4.768  -4.335  1.00  0.00     0.002 A 
BRANCH  14  18
ATOM     18  N   UNL     1       0.948   5.395  -0.666  1.00  0.00    -0.353 N 
ATOM     19  H   UNL     1       0.404   5.167   0.122  1.00  0.00     0.167 HD
BRANCH  18  20
ATOM     20  C   UNL     1       2.138   6.121  -0.403  1.00  0.00     0.076 A 
ATOM     21  C   UNL     1       3.179   5.546   0.357  1.00  0.00     0.066 A 
ATOM     22  C   UNL     1       2.283   7.476  -0.768  1.00  0.00     0.066 A 
ATOM     23  Cl  UNL     1       3.114   3.902   0.891  1.00  0.00    -0.082 Cl
ATOM     24  C   UNL     1       4.332   6.272   0.685  1.00  0.00     0.023 A 
ATOM     25  C   UNL     1       3.451   8.190  -0.467  1.00  0.00     0.023 A 
ATOM     26  Cl  UNL     1       1.022   8.342  -1.582  1.00  0.00    -0.082 Cl
ATOM     27  C   UNL     1       4.476   7.588   0.259  1.00  0.00     0.003 A 
ENDBRANCH  18  20
ENDBRANCH  14  18
ENDBRANCH  11  12
ENDBRANCH  10  11
ENDBRANCH   9  10
ENDBRANCH   4   7
ENDBRANCH   2   3
ENDBRANCH   1   2
BRANCH   1  28
ATOM     28  C   UNL     1      -1.457   4.922   4.173  1.00  0.00     0.002 C 
BRANCH  28  29
ATOM     29  C   UNL     1      -0.903   6.347   4.050  1.00  0.00     0.002 C 
BRANCH  29  30
ATOM     30  C   UNL     1      -1.653   7.250   3.066  1.00  0.00     0.021 C 
BRANCH  30  31
ATOM     31  C   UNL     1      -3.134   7.435   3.387  1.00  0.00     0.116 C 
BRANCH  31  32
ATOM     32  N   UNL     1      -3.326   8.028   4.704  1.00  0.00    -0.352 N 
ATOM     33  C   UNL     1      -3.896   9.228   5.045  1.00  0.00     0.251 C 
ATOM     34  H   UNL     1      -3.000   7.487   5.459  1.00  0.00     0.163 HD
ATOM     35  O   UNL     1      -3.745   9.692   6.169  1.00  0.00    -0.269 OA
BRANCH  33  36
ATOM     36  C   UNL     1      -4.687   9.966   4.042  1.00  0.00     0.039 A 
ATOM     37  C   UNL     1      -4.482  11.339   3.888  1.00  0.00     0.014 A 
ATOM     38  C   UNL     1      -5.628   9.297   3.254  1.00  0.00     0.014 A 
ATOM     39  C   UNL     1      -5.168  12.029   2.887  1.00  0.00     0.010 A 
ATOM     40  C   UNL     1      -6.258   9.970   2.213  1.00  0.00     0.010 A 
ATOM     41  C   UNL     1      -6.027  11.340   2.015  1.00  0.00    -0.014 A 
BRANCH  41  42
ATOM     42  C   UNL     1      -6.666  12.021   0.863  1.00  0.00     0.031 A 
ATOM     43  C   UNL     1      -8.161  12.140   0.789  1.00  0.00     0.074 A 
ATOM     44  C   UNL     1      -5.898  12.448  -0.158  1.00  0.00     0.049 A 
ATOM     45  N   UNL     1      -8.907  12.602  -0.182  1.00  0.00    -0.248 NA
ATOM     46  C   UNL     1      -8.920  11.652   1.950  1.00  0.00     0.031 C 
ATOM     47  C   UNL     1      -4.439  12.345  -0.217  1.00  0.00     0.029 A 
ATOM     48  N   UNL     1      -6.238  13.035  -1.351  1.00  0.00    -0.354 N 
ATOM     49  C   UNL     1     -10.219  12.450   0.245  1.00  0.00     0.074 A 
ATOM     50  C   UNL     1     -10.171  11.808   1.541  1.00  0.00     0.031 C 
ATOM     51  C   UNL     1      -4.008  12.864  -1.377  1.00  0.00     0.029 A 
ATOM     52  C   UNL     1      -5.161  13.291  -2.164  1.00  0.00     0.049 A 
ATOM     53  H   UNL     1      -7.166  13.252  -1.601  1.00  0.00     0.167 HD
ATOM     54  C   UNL     1     -11.358  12.831  -0.381  1.00  0.00     0.037 A 
ATOM     55  C   UNL     1      -5.110  13.795  -3.412  1.00  0.00     0.037 A 
ATOM     56  C   UNL     1     -11.394  13.483  -1.665  1.00  0.00     0.049 A 
ATOM     57  C   UNL     1      -6.393  14.176  -4.099  1.00  0.00     0.074 A 
ATOM     58  C   UNL     1     -12.491  13.969  -2.354  1.00  0.00     0.029 A 
ATOM     59  N   UNL     1     -10.282  13.729  -2.457  1.00  0.00    -0.354 N 
ATOM     60  N   UNL     1      -7.624  14.099  -3.655  1.00  0.00    -0.248 NA
ATOM     61  C   UNL     1      -6.280  14.713  -5.462  1.00  0.00     0.031 C 
ATOM     62  C   UNL     1     -12.051  14.455  -3.589  1.00  0.00     0.029 A 
ATOM     63  C   UNL     1     -10.672  14.327  -3.646  1.00  0.00     0.049 A 
ATOM     64  H   UNL     1      -9.354  13.512  -2.212  1.00  0.00     0.167 HD
ATOM     65  C   UNL     1      -8.429  14.596  -4.670  1.00  0.00     0.074 A 
ATOM     66  C   UNL     1      -7.545  14.990  -5.748  1.00  0.00     0.031 C 
ATOM     67  C   UNL     1      -9.779  14.713  -4.708  1.00  0.00     0.037 A 
BRANCH  54  68
ATOM     68  C   UNL     1     -12.661  12.551   0.310  1.00  0.00     0.064 A 
ATOM     69  C   UNL     1     -13.038  13.232   1.478  1.00  0.00     0.173 A 
ATOM     70  C   UNL     1     -13.565  11.621  -0.226  1.00  0.00     0.173 A 
ATOM     71  F   UNL     1     -12.207  14.125   2.037  1.00  0.00    -0.203 F 
ATOM     72  C   UNL     1     -14.258  12.972   2.098  1.00  0.00     0.198 A 
ATOM     73  C   UNL     1     -14.797  11.387   0.379  1.00  0.00     0.198 A 
ATOM     74  F   UNL     1     -13.259  10.946  -1.344  1.00  0.00    -0.203 F 
ATOM     75  F   UNL     1     -14.574  13.600   3.239  1.00  0.00    -0.200 F 
ATOM     76  C   UNL     1     -15.139  12.056   1.544  1.00  0.00     0.200 A 
ATOM     77  F   UNL     1     -15.655  10.513  -0.166  1.00  0.00    -0.200 F 
ATOM     78  F   UNL     1     -16.317  11.815   2.137  1.00  0.00    -0.200 F 
ENDBRANCH  54  68
BRANCH  55  79
ATOM     79  C   UNL     1      -3.798  13.969  -4.089  1.00  0.00     0.064 A 
ATOM     80  C   UNL     1      -3.291  15.248  -4.355  1.00  0.00     0.173 A 
ATOM     81  C   UNL     1      -3.026  12.867  -4.483  1.00  0.00     0.173 A 
ATOM     82  F   UNL     1      -4.002  16.334  -4.016  1.00  0.00    -0.203 F 
ATOM     83  C   UNL     1      -2.071  15.418  -5.008  1.00  0.00     0.198 A 
ATOM     84  C   UNL     1      -1.792  13.037  -5.108  1.00  0.00     0.198 A 
ATOM     85  F   UNL     1      -3.464  11.621  -4.248  1.00  0.00    -0.203 F 
ATOM     86  F   UNL     1      -1.633  16.652  -5.291  1.00  0.00    -0.200 F 
ATOM     87  C   UNL     1      -1.320  14.313  -5.377  1.00  0.00     0.200 A 
ATOM     88  F   UNL     1      -1.062  11.967  -5.449  1.00  0.00    -0.200 F 
ATOM     89  F   UNL     1      -0.145  14.477  -5.999  1.00  0.00    -0.200 F 
ENDBRANCH  55  79
BRANCH  67  90
ATOM     90  C   UNL     1     -10.385  15.310  -5.945  1.00  0.00     0.064 A 
ATOM     91  C   UNL     1     -10.424  14.605  -7.157  1.00  0.00     0.173 A 
ATOM     92  C   UNL     1     -10.985  16.578  -5.902  1.00  0.00     0.173 A 
ATOM     93  F   UNL     1      -9.850  13.397  -7.254  1.00  0.00    -0.203 F 
ATOM     94  C   UNL     1     -11.025  15.156  -8.286  1.00  0.00     0.198 A 
ATOM     95  C   UNL     1     -11.612  17.112  -7.024  1.00  0.00     0.198 A 
ATOM     96  F   UNL     1     -10.980  17.291  -4.766  1.00  0.00    -0.203 F 
ATOM     97  F   UNL     1     -11.013  14.483  -9.445  1.00  0.00    -0.200 F 
ATOM     98  C   UNL     1     -11.627  16.404  -8.216  1.00  0.00     0.200 A 
ATOM     99  F   UNL     1     -12.207  18.311  -6.950  1.00  0.00    -0.200 F 
ATOM    100  F   UNL     1     -12.218  16.926  -9.300  1.00  0.00    -0.200 F 
ENDBRANCH  67  90
ENDBRANCH  41  42
ENDBRANCH  33  36
ENDBRANCH  31  32
ENDBRANCH  30  31
ENDBRANCH  29  30
ENDBRANCH  28  29
ENDBRANCH   1  28
TORSDOF 18
