REMARK SMILES O=C(C[N@@H+](C1CCCC1)[C@@H]1CCOC2(CCC2)C1)NCCCCCCNC(=O)c1ccc(-c2c3nc(c(-c4c(F)c(F)c(F)c(F)c4F)c4ccc([nH]4)c(-c4c(F)c(F)c(F)c(F)c4F)c4nc(c(-c5c(F)c(F)c(F)c(F)c5F)c5ccc2[nH]5)C=C4)C=C3)cc1
REMARK SMILES IDX 22 1 21 2 20 3 19 4 1 5 2 6 3 8 4 9 5 11 6 12 9 13 7 14 8 15
REMARK SMILES IDX 10 16 11 17 18 18 12 19 14 20 13 21 15 22 17 23 16 24 23 25
REMARK SMILES IDX 24 26 25 27 26 28 27 29 28 31 29 32 30 33 91 34 31 35 90 36
REMARK SMILES IDX 32 37 33 38 34 39 84 40 35 41 89 42 83 43 85 44 36 45 88 46
REMARK SMILES IDX 82 47 81 48 37 50 69 51 49 52 68 53 50 54 53 55 67 56 86 57
REMARK SMILES IDX 51 58 52 59 66 61 87 62 54 63 38 64 39 65 47 66 40 67 41 68
REMARK SMILES IDX 45 69 48 70 42 71 43 72 46 73 44 74 70 75 71 76 79 77 72 78
REMARK SMILES IDX 73 79 77 80 80 81 74 82 75 83 78 84 76 85 55 86 56 87 64 88
REMARK SMILES IDX 57 89 58 90 62 91 65 92 59 93 60 94 63 95 61 96
REMARK H PARENT 19 7 4 10 26 30 85 49 53 60
REMARK Flexibility Score: inf
ROOT
ATOM      1  C   UNL     1       4.413   2.392   3.063  1.00  0.00     0.002 C 
ENDROOT
BRANCH   1   2
ATOM      2  C   UNL     1       2.923   2.083   2.905  1.00  0.00     0.021 C 
BRANCH   2   3
ATOM      3  C   UNL     1       2.462   2.049   1.450  1.00  0.00     0.116 C 
BRANCH   3   4
ATOM      4  N   UNL     1       3.204   1.102   0.646  1.00  0.00    -0.351 N 
ATOM      5  O   UNL     1       2.231  -0.716   1.615  1.00  0.00    -0.269 OA
ATOM      6  C   UNL     1       2.945  -0.240   0.731  1.00  0.00     0.275 C 
ATOM      7  H   UNL     1       3.903   1.425   0.032  1.00  0.00     0.163 HD
BRANCH   6   8
ATOM      8  C   UNL     1       3.633  -1.142  -0.276  1.00  0.00     0.363 C 
BRANCH   8   9
ATOM      9  N   UNL     1       3.846  -0.647  -1.660  1.00  0.00    -0.322 N 
ATOM     10  H   UNL     1       4.147   0.319  -1.534  1.00  0.00     0.349 HD
BRANCH   9  11
ATOM     11  C   UNL     1       4.936  -1.454  -2.312  1.00  0.00     0.184 C 
ATOM     12  C   UNL     1       4.998  -2.960  -1.950  1.00  0.00     0.065 C 
ATOM     13  C   UNL     1       5.202  -1.405  -3.835  1.00  0.00     0.065 C 
ATOM     14  C   UNL     1       5.405  -3.737  -3.189  1.00  0.00     0.006 C 
ATOM     15  C   UNL     1       5.106  -2.833  -4.365  1.00  0.00     0.006 C 
ENDBRANCH   9  11
BRANCH   9  16
ATOM     16  C   UNL     1       2.690  -0.277  -2.524  1.00  0.00     0.189 C 
ATOM     17  C   UNL     1       1.641   0.734  -2.009  1.00  0.00     0.093 C 
ATOM     18  C   UNL     1       1.945  -1.378  -3.305  1.00  0.00     0.100 C 
ATOM     19  C   UNL     1       0.474   0.093  -1.277  1.00  0.00     0.167 C 
ATOM     20  C   UNL     1       0.744  -1.959  -2.566  1.00  0.00     0.074 C 
ATOM     21  O   UNL     1      -0.124  -0.898  -2.099  1.00  0.00    -0.375 OA
ATOM     22  C   UNL     1      -0.022  -3.014  -3.423  1.00  0.00     0.036 C 
ATOM     23  C   UNL     1       1.053  -3.122  -1.586  1.00  0.00     0.036 C 
ATOM     24  C   UNL     1      -0.147  -3.880  -2.159  1.00  0.00     0.006 C 
ENDBRANCH   9  16
ENDBRANCH   8   9
ENDBRANCH   6   8
ENDBRANCH   3   4
ENDBRANCH   2   3
ENDBRANCH   1   2
BRANCH   1  25
ATOM     25  C   UNL     1       4.857   3.709   2.424  1.00  0.00     0.002 C 
BRANCH  25  26
ATOM     26  C   UNL     1       4.124   4.949   2.940  1.00  0.00     0.021 C 
BRANCH  26  27
ATOM     27  C   UNL     1       4.194   5.144   4.451  1.00  0.00     0.116 C 
BRANCH  27  28
ATOM     28  N   UNL     1       5.564   5.263   4.925  1.00  0.00    -0.352 N 
ATOM     29  C   UNL     1       6.126   6.218   5.728  1.00  0.00     0.251 C 
ATOM     30  H   UNL     1       6.176   4.553   4.625  1.00  0.00     0.163 HD
ATOM     31  O   UNL     1       7.350   6.265   5.870  1.00  0.00    -0.269 OA
BRANCH  29  32
ATOM     32  C   UNL     1       5.272   7.211   6.408  1.00  0.00     0.039 A 
ATOM     33  C   UNL     1       5.672   8.549   6.415  1.00  0.00     0.014 A 
ATOM     34  C   UNL     1       4.085   6.827   7.040  1.00  0.00     0.014 A 
ATOM     35  C   UNL     1       4.852   9.510   7.006  1.00  0.00     0.010 A 
ATOM     36  C   UNL     1       3.232   7.797   7.561  1.00  0.00     0.010 A 
ATOM     37  C   UNL     1       3.609   9.148   7.551  1.00  0.00    -0.014 A 
BRANCH  37  38
ATOM     38  C   UNL     1       2.691  10.182   8.089  1.00  0.00     0.031 A 
ATOM     39  C   UNL     1       2.333  10.207   9.548  1.00  0.00     0.074 A 
ATOM     40  C   UNL     1       2.144  11.077   7.244  1.00  0.00     0.049 A 
ATOM     41  N   UNL     1       1.562  11.044  10.196  1.00  0.00    -0.248 NA
ATOM     42  C   UNL     1       2.893   9.137  10.386  1.00  0.00     0.031 C 
ATOM     43  C   UNL     1       2.367  11.116   5.798  1.00  0.00     0.029 A 
ATOM     44  N   UNL     1       1.294  12.127   7.478  1.00  0.00    -0.354 N 
ATOM     45  C   UNL     1       1.538  10.598  11.510  1.00  0.00     0.074 A 
ATOM     46  C   UNL     1       2.324   9.383  11.557  1.00  0.00     0.031 C 
ATOM     47  C   UNL     1       1.706  12.162   5.280  1.00  0.00     0.029 A 
ATOM     48  C   UNL     1       0.985  12.845   6.349  1.00  0.00     0.049 A 
ATOM     49  H   UNL     1       0.938  12.346   8.370  1.00  0.00     0.167 HD
ATOM     50  C   UNL     1       0.935  11.163  12.584  1.00  0.00     0.037 A 
ATOM     51  C   UNL     1       0.211  13.936   6.194  1.00  0.00     0.037 A 
ATOM     52  C   UNL     1       0.166  12.380  12.532  1.00  0.00     0.049 A 
ATOM     53  C   UNL     1      -0.451  14.540   7.402  1.00  0.00     0.074 A 
ATOM     54  C   UNL     1      -0.421  13.076  13.575  1.00  0.00     0.029 A 
ATOM     55  N   UNL     1      -0.135  13.076  11.370  1.00  0.00    -0.354 N 
ATOM     56  N   UNL     1      -0.389  14.165   8.656  1.00  0.00    -0.248 NA
ATOM     57  C   UNL     1      -1.285  15.727   7.169  1.00  0.00     0.031 C 
ATOM     58  C   UNL     1      -1.127  14.158  13.036  1.00  0.00     0.029 A 
ATOM     59  C   UNL     1      -0.929  14.173  11.665  1.00  0.00     0.049 A 
ATOM     60  H   UNL     1       0.172  12.827  10.468  1.00  0.00     0.167 HD
ATOM     61  C   UNL     1      -1.156  15.079   9.366  1.00  0.00     0.074 A 
ATOM     62  C   UNL     1      -1.653  16.041   8.403  1.00  0.00     0.031 C 
ATOM     63  C   UNL     1      -1.427  15.117  10.694  1.00  0.00     0.037 A 
BRANCH  50  64
ATOM     64  C   UNL     1       1.077  10.462  13.906  1.00  0.00     0.064 A 
ATOM     65  C   UNL     1       2.309  10.383  14.574  1.00  0.00     0.173 A 
ATOM     66  C   UNL     1      -0.040   9.880  14.526  1.00  0.00     0.173 A 
ATOM     67  F   UNL     1       3.411  10.914  14.023  1.00  0.00    -0.203 F 
ATOM     68  C   UNL     1       2.426   9.714  15.790  1.00  0.00     0.198 A 
ATOM     69  C   UNL     1       0.074   9.242  15.759  1.00  0.00     0.198 A 
ATOM     70  F   UNL     1      -1.244   9.931  13.938  1.00  0.00    -0.203 F 
ATOM     71  F   UNL     1       3.625   9.600  16.377  1.00  0.00    -0.200 F 
ATOM     72  C   UNL     1       1.308   9.150  16.384  1.00  0.00     0.200 A 
ATOM     73  F   UNL     1      -1.011   8.710  16.339  1.00  0.00    -0.200 F 
ATOM     74  F   UNL     1       1.421   8.509  17.556  1.00  0.00    -0.200 F 
ENDBRANCH  50  64
BRANCH  51  75
ATOM     75  C   UNL     1       0.058  14.549   4.850  1.00  0.00     0.064 A 
ATOM     76  C   UNL     1       0.628  15.797   4.562  1.00  0.00     0.173 A 
ATOM     77  C   UNL     1      -0.647  13.902   3.825  1.00  0.00     0.173 A 
ATOM     78  F   UNL     1       1.296  16.464   5.515  1.00  0.00    -0.203 F 
ATOM     79  C   UNL     1       0.483  16.383   3.306  1.00  0.00     0.198 A 
ATOM     80  C   UNL     1      -0.766  14.475   2.561  1.00  0.00     0.198 A 
ATOM     81  F   UNL     1      -1.206  12.703   4.048  1.00  0.00    -0.203 F 
ATOM     82  F   UNL     1       1.003  17.595   3.071  1.00  0.00    -0.200 F 
ATOM     83  C   UNL     1      -0.207  15.717   2.304  1.00  0.00     0.200 A 
ATOM     84  F   UNL     1      -1.420  13.821   1.591  1.00  0.00    -0.200 F 
ATOM     85  F   UNL     1      -0.339  16.276   1.094  1.00  0.00    -0.200 F 
ENDBRANCH  51  75
BRANCH  63  86
ATOM     86  C   UNL     1      -2.286  16.248  11.183  1.00  0.00     0.064 A 
ATOM     87  C   UNL     1      -3.651  16.326  10.868  1.00  0.00     0.173 A 
ATOM     88  C   UNL     1      -1.741  17.261  11.988  1.00  0.00     0.173 A 
ATOM     89  F   UNL     1      -4.219  15.392  10.089  1.00  0.00    -0.203 F 
ATOM     90  C   UNL     1      -4.429  17.395  11.307  1.00  0.00     0.198 A 
ATOM     91  C   UNL     1      -2.530  18.309  12.455  1.00  0.00     0.198 A 
ATOM     92  F   UNL     1      -0.443  17.232  12.326  1.00  0.00    -0.203 F 
ATOM     93  F   UNL     1      -5.715  17.480  10.940  1.00  0.00    -0.200 F 
ATOM     94  C   UNL     1      -3.869  18.381  12.105  1.00  0.00     0.200 A 
ATOM     95  F   UNL     1      -1.991  19.253  13.238  1.00  0.00    -0.200 F 
ATOM     96  F   UNL     1      -4.619  19.408  12.528  1.00  0.00    -0.200 F 
ENDBRANCH  63  86
ENDBRANCH  37  38
ENDBRANCH  29  32
ENDBRANCH  27  28
ENDBRANCH  26  27
ENDBRANCH  25  26
ENDBRANCH   1  25
TORSDOF 16
