REMARK SMILES [NH3+][C@](CCC[P@TB4](=O)([O-])[O-])(Cc1ccccc1)C(=O)NCCCCCCNC(=O)c1ccc(-c2c3nc(c(-c4c(F)c(F)c(F)c(F)c4F)c4ccc([nH]4)c(-c4c(F)c(F)c(F)c(F)c4F)c4nc(c(-c5c(F)c(F)c(F)c(F)c5F)c5ccc2[nH]5)C=C4)C=C3)cc1
REMARK SMILES IDX 21 1 20 2 19 3 17 4 18 5 2 7 1 8 10 12 11 13 12 14 16 15
REMARK SMILES IDX 13 16 15 17 14 18 3 19 4 20 5 21 6 22 7 23 8 24 9 25 22 26
REMARK SMILES IDX 23 27 24 28 25 29 26 30 27 31 28 33 29 34 30 35 91 36 31 37
REMARK SMILES IDX 90 38 32 39 33 40 34 41 84 42 35 43 89 44 83 45 85 46 36 47
REMARK SMILES IDX 88 48 82 49 81 50 37 52 69 53 49 54 68 55 50 56 53 57 67 58
REMARK SMILES IDX 86 59 51 60 52 61 66 63 87 64 54 65 38 66 39 67 47 68 40 69
REMARK SMILES IDX 41 70 45 71 48 72 42 73 43 74 46 75 44 76 70 77 71 78 79 79
REMARK SMILES IDX 72 80 73 81 77 82 80 83 74 84 75 85 78 86 76 87 55 88 56 89
REMARK SMILES IDX 64 90 57 91 58 92 62 93 65 94 59 95 60 96 63 97 61 98
REMARK H PARENT 19 6 1 9 1 10 1 11 26 32 85 51 53 62
REMARK Flexibility Score: inf
ROOT
ATOM      1  C   UNL     1      -1.675  -4.889   1.482  1.00  0.00       nan C 
ENDROOT
BRANCH   1   2
ATOM      2  C   UNL     1      -0.567  -4.027   2.077  1.00  0.00       nan C 
BRANCH   2   3
ATOM      3  N   UNL     1       0.326  -3.624   1.019  1.00  0.00       nan N 
ATOM      4  C   UNL     1       0.160  -2.530   0.231  1.00  0.00       nan C 
ATOM      5  O   UNL     1       0.413  -2.672  -0.969  1.00  0.00       nan OA
ATOM      6  H   UNL     1       1.117  -4.186   0.855  1.00  0.00       nan HD
BRANCH   4   7
ATOM      7  C   UNL     1      -0.195  -1.151   0.850  1.00  0.00       nan C 
BRANCH   7   8
ATOM      8  N   UNL     1       0.095  -1.123   2.315  1.00  0.00       nan N 
ATOM      9  H   UNL     1      -0.484  -1.816   2.789  1.00  0.00       nan HD
ATOM     10  H   UNL     1      -0.112  -0.196   2.686  1.00  0.00       nan HD
ATOM     11  H   UNL     1       1.080  -1.340   2.471  1.00  0.00       nan HD
ENDBRANCH   7   8
BRANCH   7  12
ATOM     12  C   UNL     1      -1.704  -0.861   0.640  1.00  0.00       nan C 
BRANCH  12  13
ATOM     13  C   UNL     1      -2.176  -0.835  -0.800  1.00  0.00       nan A 
ATOM     14  C   UNL     1      -2.282   0.375  -1.496  1.00  0.00       nan A 
ATOM     15  C   UNL     1      -2.468  -2.027  -1.480  1.00  0.00       nan A 
ATOM     16  C   UNL     1      -2.646   0.385  -2.845  1.00  0.00       nan A 
ATOM     17  C   UNL     1      -2.814  -2.018  -2.830  1.00  0.00       nan A 
ATOM     18  C   UNL     1      -2.903  -0.811  -3.513  1.00  0.00       nan A 
ENDBRANCH  12  13
ENDBRANCH   7  12
BRANCH   7  19
ATOM     19  C   UNL     1       0.714  -0.080   0.193  1.00  0.00       nan C 
BRANCH  19  20
ATOM     20  C   UNL     1       2.223  -0.302   0.390  1.00  0.00       nan C 
BRANCH  20  21
ATOM     21  C   UNL     1       2.812  -1.493  -0.380  1.00  0.00       nan C 
BRANCH  21  22
ATOM     22  P   UNL     1       2.520  -1.440  -2.185  1.00  0.00       nan P 
ATOM     23  O   UNL     1       3.137  -0.041  -2.298  1.00  0.00       nan OA
ATOM     24  O   UNL     1       3.801  -2.427  -2.455  1.00  0.00       nan OA
ATOM     25  O   UNL     1       2.243  -1.391  -3.892  1.00  0.00       nan OA
ENDBRANCH  21  22
ENDBRANCH  20  21
ENDBRANCH  19  20
ENDBRANCH   7  19
ENDBRANCH   4   7
ENDBRANCH   2   3
ENDBRANCH   1   2
BRANCH   1  26
ATOM     26  C   UNL     1      -1.160  -6.153   0.778  1.00  0.00       nan C 
BRANCH  26  27
ATOM     27  C   UNL     1      -0.285  -7.049   1.659  1.00  0.00       nan C 
BRANCH  27  28
ATOM     28  C   UNL     1      -0.899  -7.370   3.022  1.00  0.00       nan C 
BRANCH  28  29
ATOM     29  C   UNL     1      -2.305  -7.942   2.939  1.00  0.00       inf C 
BRANCH  29  30
ATOM     30  N   UNL     1      -2.317  -9.242   2.296  1.00  0.00    -0.352 N 
ATOM     31  C   UNL     1      -2.878 -10.402   2.757  1.00  0.00     0.251 C 
ATOM     32  H   UNL     1      -1.867  -9.296   1.421  1.00  0.00     0.163 HD
ATOM     33  O   UNL     1      -2.627 -11.480   2.224  1.00  0.00    -0.269 OA
BRANCH  31  34
ATOM     34  C   UNL     1      -3.773 -10.341   3.928  1.00  0.00     0.039 A 
ATOM     35  C   UNL     1      -3.573 -11.237   4.977  1.00  0.00     0.014 A 
ATOM     36  C   UNL     1      -4.781  -9.373   3.999  1.00  0.00     0.014 A 
ATOM     37  C   UNL     1      -4.363 -11.137   6.122  1.00  0.00     0.010 A 
ATOM     38  C   UNL     1      -5.509  -9.221   5.173  1.00  0.00     0.010 A 
ATOM     39  C   UNL     1      -5.316 -10.111   6.241  1.00  0.00    -0.014 A 
BRANCH  39  40
ATOM     40  C   UNL     1      -6.132  -9.967   7.471  1.00  0.00     0.031 A 
ATOM     41  C   UNL     1      -7.624 -10.139   7.409  1.00  0.00     0.074 A 
ATOM     42  C   UNL     1      -5.534  -9.637   8.632  1.00  0.00     0.049 A 
ATOM     43  N   UNL     1      -8.512 -10.012   8.362  1.00  0.00    -0.248 NA
ATOM     44  C   UNL     1      -8.199 -10.470   6.095  1.00  0.00     0.031 C 
ATOM     45  C   UNL     1      -4.100  -9.399   8.806  1.00  0.00     0.029 A 
ATOM     46  N   UNL     1      -6.058  -9.439   9.885  1.00  0.00    -0.354 N 
ATOM     47  C   UNL     1      -9.744 -10.239   7.762  1.00  0.00     0.074 A 
ATOM     48  C   UNL     1      -9.497 -10.449   6.353  1.00  0.00     0.031 C 
ATOM     49  C   UNL     1      -3.855  -9.115  10.095  1.00  0.00     0.029 A 
ATOM     50  C   UNL     1      -5.117  -9.108  10.829  1.00  0.00     0.049 A 
ATOM     51  H   UNL     1      -7.017  -9.526  10.088  1.00  0.00     0.167 HD
ATOM     52  C   UNL     1     -10.967 -10.293   8.341  1.00  0.00     0.037 A 
ATOM     53  C   UNL     1      -5.259  -8.822  12.137  1.00  0.00     0.037 A 
ATOM     54  C   UNL     1     -11.203 -10.101   9.748  1.00  0.00     0.049 A 
ATOM     55  C   UNL     1      -6.633  -8.871  12.750  1.00  0.00     0.074 A 
ATOM     56  C   UNL     1     -12.396 -10.191  10.442  1.00  0.00     0.029 A 
ATOM     57  N   UNL     1     -10.224  -9.774  10.675  1.00  0.00    -0.354 N 
ATOM     58  N   UNL     1      -7.782  -9.159  12.188  1.00  0.00    -0.248 NA
ATOM     59  C   UNL     1      -6.728  -8.561  14.183  1.00  0.00     0.031 C 
ATOM     60  C   UNL     1     -12.150  -9.860  11.778  1.00  0.00     0.029 A 
ATOM     61  C   UNL     1     -10.792  -9.629  11.931  1.00  0.00     0.049 A 
ATOM     62  H   UNL     1      -9.267  -9.661  10.471  1.00  0.00     0.167 HD
ATOM     63  C   UNL     1      -8.729  -9.098  13.202  1.00  0.00     0.074 A 
ATOM     64  C   UNL     1      -8.017  -8.761  14.417  1.00  0.00     0.031 C 
ATOM     65  C   UNL     1     -10.068  -9.301  13.133  1.00  0.00     0.037 A 
BRANCH  52  66
ATOM     66  C   UNL     1     -12.147 -10.569   7.452  1.00  0.00     0.064 A 
ATOM     67  C   UNL     1     -12.334 -11.818   6.840  1.00  0.00     0.173 A 
ATOM     68  C   UNL     1     -13.125  -9.585   7.243  1.00  0.00     0.173 A 
ATOM     69  F   UNL     1     -11.423 -12.791   6.998  1.00  0.00    -0.203 F 
ATOM     70  C   UNL     1     -13.439 -12.062   6.029  1.00  0.00     0.198 A 
ATOM     71  C   UNL     1     -14.247  -9.844   6.459  1.00  0.00     0.198 A 
ATOM     72  F   UNL     1     -13.000  -8.375   7.807  1.00  0.00    -0.203 F 
ATOM     73  F   UNL     1     -13.568 -13.245   5.413  1.00  0.00    -0.200 F 
ATOM     74  C   UNL     1     -14.399 -11.078   5.846  1.00  0.00     0.200 A 
ATOM     75  F   UNL     1     -15.181  -8.897   6.296  1.00  0.00    -0.200 F 
ATOM     76  F   UNL     1     -15.467 -11.317   5.074  1.00  0.00    -0.200 F 
ENDBRANCH  52  66
BRANCH  53  77
ATOM     77  C   UNL     1      -4.068  -8.480  12.959  1.00  0.00     0.064 A 
ATOM     78  C   UNL     1      -3.625  -9.335  13.979  1.00  0.00     0.173 A 
ATOM     79  C   UNL     1      -3.357  -7.289  12.754  1.00  0.00     0.173 A 
ATOM     80  F   UNL     1      -4.282 -10.478  14.227  1.00  0.00    -0.203 F 
ATOM     81  C   UNL     1      -2.535  -8.998  14.779  1.00  0.00     0.198 A 
ATOM     82  C   UNL     1      -2.247  -6.969  13.533  1.00  0.00     0.198 A 
ATOM     83  F   UNL     1      -3.734  -6.439  11.788  1.00  0.00    -0.203 F 
ATOM     84  F   UNL     1      -2.168  -9.807  15.782  1.00  0.00    -0.200 F 
ATOM     85  C   UNL     1      -1.843  -7.818  14.552  1.00  0.00     0.200 A 
ATOM     86  F   UNL     1      -1.571  -5.836  13.298  1.00  0.00    -0.200 F 
ATOM     87  F   UNL     1      -0.794  -7.495  15.321  1.00  0.00    -0.200 F 
ENDBRANCH  53  77
BRANCH  65  88
ATOM     88  C   UNL     1     -10.847  -9.207  14.414  1.00  0.00     0.064 A 
ATOM     89  C   UNL     1     -11.050  -7.984  15.069  1.00  0.00     0.173 A 
ATOM     90  C   UNL     1     -11.431 -10.355  14.972  1.00  0.00     0.173 A 
ATOM     91  F   UNL     1     -10.502  -6.859  14.584  1.00  0.00    -0.203 F 
ATOM     92  C   UNL     1     -11.783  -7.918  16.251  1.00  0.00     0.198 A 
ATOM     93  C   UNL     1     -12.194 -10.280  16.134  1.00  0.00     0.198 A 
ATOM     94  F   UNL     1     -11.275 -11.550  14.382  1.00  0.00    -0.203 F 
ATOM     95  F   UNL     1     -11.918  -6.747  16.889  1.00  0.00    -0.200 F 
ATOM     96  C   UNL     1     -12.361  -9.063  16.777  1.00  0.00     0.200 A 
ATOM     97  F   UNL     1     -12.766 -11.385  16.631  1.00  0.00    -0.200 F 
ATOM     98  F   UNL     1     -13.074  -8.996  17.910  1.00  0.00    -0.200 F 
ENDBRANCH  65  88
ENDBRANCH  39  40
ENDBRANCH  31  34
ENDBRANCH  29  30
ENDBRANCH  28  29
ENDBRANCH  27  28
ENDBRANCH  26  27
ENDBRANCH   1  26
TORSDOF 20
