REMARK SMILES CC[C@@](C)(NC(=O)Nc1cccc(C[NH2+]C)c1)C(=O)NCCCCCCNC(=O)c1ccc(-c2c3nc(c(-c4c(F)c(F)c(F)c(F)c4F)c4ccc([nH]4)c(-c4c(F)c(F)c(F)c(F)c4F)c4nc(c(-c5c(F)c(F)c(F)c(F)c5F)c5ccc2[nH]5)C=C4)C=C3)cc1
REMARK SMILES IDX 22 1 21 2 20 3 18 4 19 5 3 7 4 8 2 9 1 10 5 11 6 12 7 14
REMARK SMILES IDX 8 15 9 17 10 18 17 19 11 20 13 21 12 22 14 23 15 24 16 25
REMARK SMILES IDX 23 28 24 29 25 30 26 31 27 32 28 33 29 35 30 36 31 37 92 38
REMARK SMILES IDX 32 39 91 40 33 41 34 42 35 43 85 44 36 45 90 46 84 47 86 48
REMARK SMILES IDX 37 49 89 50 83 51 82 52 38 54 70 55 50 56 69 57 51 58 54 59
REMARK SMILES IDX 68 60 87 61 52 62 53 63 67 65 88 66 55 67 39 68 40 69 48 70
REMARK SMILES IDX 41 71 42 72 46 73 49 74 43 75 44 76 47 77 45 78 71 79 72 80
REMARK SMILES IDX 80 81 73 82 74 83 78 84 81 85 75 86 76 87 79 88 77 89 56 90
REMARK SMILES IDX 57 91 65 92 58 93 59 94 63 95 66 96 60 97 61 98 64 99 62 100
REMARK H PARENT 20 6 5 13 8 16 15 26 15 27 27 34 86 53 54 64
REMARK Flexibility Score: inf
ROOT
ATOM      1  C   UNL     1       2.344   5.422   3.421  1.00  0.00     0.021 C 
ENDROOT
BRANCH   1   2
ATOM      2  C   UNL     1       1.571   5.145   2.112  1.00  0.00     0.116 C 
BRANCH   2   3
ATOM      3  N   UNL     1       1.975   3.867   1.581  1.00  0.00    -0.354 N 
ATOM      4  C   UNL     1       1.246   2.949   0.847  1.00  0.00     0.245 C 
ATOM      5  O   UNL     1       1.073   3.029  -0.362  1.00  0.00    -0.272 OA
ATOM      6  H   UNL     1       2.907   3.610   1.769  1.00  0.00     0.163 HD
BRANCH   4   7
ATOM      7  C   UNL     1       0.517   1.944   1.775  1.00  0.00     0.117 C 
ATOM      8  C   UNL     1      -0.923   2.545   1.646  1.00  0.00     0.045 C 
BRANCH   7   9
ATOM      9  C   UNL     1       0.383   0.434   1.501  1.00  0.00     0.035 C 
ATOM     10  C   UNL     1       0.551  -0.067   0.084  1.00  0.00     0.007 C 
ENDBRANCH   7   9
BRANCH   7  11
ATOM     11  N   UNL     1       1.050   2.111   3.165  1.00  0.00    -0.324 N 
ATOM     12  C   UNL     1       2.175   1.821   3.836  1.00  0.00     0.320 C 
ATOM     13  H   UNL     1       0.393   2.556   3.747  1.00  0.00     0.166 HD
ATOM     14  O   UNL     1       2.087   1.929   5.066  1.00  0.00    -0.248 OA
ATOM     15  N   UNL     1       3.367   1.415   3.359  1.00  0.00    -0.308 N 
ATOM     16  H   UNL     1       3.927   1.129   4.116  1.00  0.00     0.171 HD
BRANCH  15  17
ATOM     17  C   UNL     1       4.105   1.248   2.163  1.00  0.00     0.043 A 
ATOM     18  C   UNL     1       4.946   0.137   2.097  1.00  0.00     0.026 A 
ATOM     19  C   UNL     1       4.173   2.110   1.075  1.00  0.00     0.035 A 
ATOM     20  C   UNL     1       5.639  -0.180   0.917  1.00  0.00     0.003 A 
ATOM     21  C   UNL     1       4.689   1.733  -0.177  1.00  0.00     0.008 A 
ATOM     22  C   UNL     1       5.462   0.583  -0.241  1.00  0.00     0.010 A 
BRANCH  21  23
ATOM     23  C   UNL     1       4.112   2.422  -1.399  1.00  0.00     0.297 C 
BRANCH  23  24
ATOM     24  N   UNL     1       4.971   3.289  -2.203  1.00  0.00    -0.345 N 
ATOM     25  C   UNL     1       4.100   3.919  -3.215  1.00  0.00     0.331 C 
ATOM     26  H   UNL     1       5.699   2.739  -2.658  1.00  0.00     0.346 HD
ATOM     27  H   UNL     1       5.433   3.991  -1.625  1.00  0.00     0.346 HD
ENDBRANCH  23  24
ENDBRANCH  21  23
ENDBRANCH  15  17
ENDBRANCH   7  11
ENDBRANCH   4   7
ENDBRANCH   2   3
ENDBRANCH   1   2
BRANCH   1  28
ATOM     28  C   UNL     1       3.881   5.307   3.364  1.00  0.00     0.002 C 
BRANCH  28  29
ATOM     29  C   UNL     1       4.572   6.160   2.301  1.00  0.00     0.002 C 
BRANCH  29  30
ATOM     30  C   UNL     1       4.177   7.632   2.325  1.00  0.00     0.021 C 
BRANCH  30  31
ATOM     31  C   UNL     1       4.370   8.318   3.671  1.00  0.00     0.116 C 
BRANCH  31  32
ATOM     32  N   UNL     1       5.767   8.546   3.995  1.00  0.00    -0.352 N 
ATOM     33  C   UNL     1       6.358   9.710   4.441  1.00  0.00     0.251 C 
ATOM     34  H   UNL     1       6.367   7.774   3.882  1.00  0.00     0.163 HD
ATOM     35  O   UNL     1       7.566   9.804   4.539  1.00  0.00    -0.269 OA
BRANCH  33  36
ATOM     36  C   UNL     1       5.490  10.867   4.763  1.00  0.00     0.039 A 
ATOM     37  C   UNL     1       5.796  12.111   4.209  1.00  0.00     0.014 A 
ATOM     38  C   UNL     1       4.354  10.709   5.561  1.00  0.00     0.014 A 
ATOM     39  C   UNL     1       4.922  13.183   4.400  1.00  0.00     0.010 A 
ATOM     40  C   UNL     1       3.442  11.754   5.679  1.00  0.00     0.010 A 
ATOM     41  C   UNL     1       3.717  13.004   5.101  1.00  0.00    -0.014 A 
BRANCH  41  42
ATOM     42  C   UNL     1       2.735  14.111   5.236  1.00  0.00     0.031 A 
ATOM     43  C   UNL     1       2.392  14.656   6.595  1.00  0.00     0.074 A 
ATOM     44  C   UNL     1       2.111  14.588   4.141  1.00  0.00     0.049 A 
ATOM     45  N   UNL     1       1.529  15.586   6.921  1.00  0.00    -0.248 NA
ATOM     46  C   UNL     1       3.091  14.059   7.743  1.00  0.00     0.031 C 
ATOM     47  C   UNL     1       2.319  14.110   2.773  1.00  0.00     0.029 A 
ATOM     48  N   UNL     1       1.169  15.579   4.006  1.00  0.00    -0.354 N 
ATOM     49  C   UNL     1       1.577  15.677   8.306  1.00  0.00     0.074 A 
ATOM     50  C   UNL     1       2.506  14.667   8.764  1.00  0.00     0.031 C 
ATOM     51  C   UNL     1       1.552  14.825   1.935  1.00  0.00     0.029 A 
ATOM     52  C   UNL     1       0.765  15.782   2.708  1.00  0.00     0.049 A 
ATOM     53  H   UNL     1       0.816  16.094   4.767  1.00  0.00     0.167 HD
ATOM     54  C   UNL     1       0.927  16.543   9.120  1.00  0.00     0.037 A 
ATOM     55  C   UNL     1      -0.142  16.639   2.200  1.00  0.00     0.037 A 
ATOM     56  C   UNL     1       0.016  17.558   8.658  1.00  0.00     0.049 A 
ATOM     57  C   UNL     1      -0.867  17.576   3.129  1.00  0.00     0.074 A 
ATOM     58  C   UNL     1      -0.649  18.520   9.397  1.00  0.00     0.029 A 
ATOM     59  N   UNL     1      -0.363  17.737   7.335  1.00  0.00    -0.354 N 
ATOM     60  N   UNL     1      -0.756  17.704   4.429  1.00  0.00    -0.248 NA
ATOM     61  C   UNL     1      -1.838  18.494   2.518  1.00  0.00     0.031 C 
ATOM     62  C   UNL     1      -1.476  19.242   8.532  1.00  0.00     0.029 A 
ATOM     63  C   UNL     1      -1.277  18.775   7.242  1.00  0.00     0.049 A 
ATOM     64  H   UNL     1      -0.032  17.206   6.576  1.00  0.00     0.167 HD
ATOM     65  C   UNL     1      -1.617  18.734   4.786  1.00  0.00     0.074 A 
ATOM     66  C   UNL     1      -2.230  19.207   3.563  1.00  0.00     0.031 C 
ATOM     67  C   UNL     1      -1.875  19.241   6.017  1.00  0.00     0.037 A 
BRANCH  54  68
ATOM     68  C   UNL     1       1.177  16.430  10.597  1.00  0.00     0.064 A 
ATOM     69  C   UNL     1       2.419  16.758  11.163  1.00  0.00     0.173 A 
ATOM     70  C   UNL     1       0.150  16.024  11.464  1.00  0.00     0.173 A 
ATOM     71  F   UNL     1       3.438  17.141  10.379  1.00  0.00    -0.203 F 
ATOM     72  C   UNL     1       2.633  16.653  12.535  1.00  0.00     0.198 A 
ATOM     73  C   UNL     1       0.357  15.955  12.839  1.00  0.00     0.198 A 
ATOM     74  F   UNL     1      -1.059  15.705  10.978  1.00  0.00    -0.203 F 
ATOM     75  F   UNL     1       3.843  16.920  13.045  1.00  0.00    -0.200 F 
ATOM     76  C   UNL     1       1.600  16.260  13.372  1.00  0.00     0.200 A 
ATOM     77  F   UNL     1      -0.646  15.590  13.648  1.00  0.00    -0.200 F 
ATOM     78  F   UNL     1       1.805  16.169  14.694  1.00  0.00    -0.200 F 
ENDBRANCH  54  68
BRANCH  55  79
ATOM     79  C   UNL     1      -0.404  16.664   0.736  1.00  0.00     0.064 A 
ATOM     80  C   UNL     1      -0.044  17.773  -0.043  1.00  0.00     0.173 A 
ATOM     81  C   UNL     1      -1.030  15.590   0.087  1.00  0.00     0.173 A 
ATOM     82  F   UNL     1       0.537  18.835   0.533  1.00  0.00    -0.203 F 
ATOM     83  C   UNL     1      -0.323  17.817  -1.408  1.00  0.00     0.198 A 
ATOM     84  C   UNL     1      -1.279  15.621  -1.284  1.00  0.00     0.198 A 
ATOM     85  F   UNL     1      -1.391  14.502   0.784  1.00  0.00    -0.203 F 
ATOM     86  F   UNL     1      -0.017  18.913  -2.117  1.00  0.00    -0.200 F 
ATOM     87  C   UNL     1      -0.934  16.739  -2.028  1.00  0.00     0.200 A 
ATOM     88  F   UNL     1      -1.855  14.569  -1.882  1.00  0.00    -0.200 F 
ATOM     89  F   UNL     1      -1.200  16.780  -3.341  1.00  0.00    -0.200 F 
ENDBRANCH  55  79
BRANCH  67  90
ATOM     90  C   UNL     1      -2.834  20.395   6.101  1.00  0.00     0.064 A 
ATOM     91  C   UNL     1      -4.207  20.236   5.862  1.00  0.00     0.173 A 
ATOM     92  C   UNL     1      -2.376  21.672   6.464  1.00  0.00     0.173 A 
ATOM     93  F   UNL     1      -4.695  19.040   5.498  1.00  0.00    -0.203 F 
ATOM     94  C   UNL     1      -5.080  21.316   5.955  1.00  0.00     0.198 A 
ATOM     95  C   UNL     1      -3.257  22.741   6.591  1.00  0.00     0.198 A 
ATOM     96  F   UNL     1      -1.073  21.878   6.711  1.00  0.00    -0.203 F 
ATOM     97  F   UNL     1      -6.380  21.151   5.670  1.00  0.00    -0.200 F 
ATOM     98  C   UNL     1      -4.606  22.565   6.328  1.00  0.00     0.200 A 
ATOM     99  F   UNL     1      -2.799  23.943   6.968  1.00  0.00    -0.200 F 
ATOM    100  F   UNL     1      -5.450  23.602   6.426  1.00  0.00    -0.200 F 
ENDBRANCH  67  90
ENDBRANCH  41  42
ENDBRANCH  33  36
ENDBRANCH  31  32
ENDBRANCH  30  31
ENDBRANCH  29  30
ENDBRANCH  28  29
ENDBRANCH   1  28
TORSDOF 18
