REMARK SMILES COc1ccc([C@@H]2[NH2+][C@H](C(=O)NCCCCCCNC(=O)c3ccc(-c4c5nc(c(-c6c(F)c(F)c(F)c(F)c6F)c6ccc([nH]6)c(-c6c(F)c(F)c(F)c(F)c6F)c6nc(c(-c7c(F)c(F)c(F)c(F)c7F)c7ccc4[nH]7)C=C6)C=C5)cc3)CS2)cc1Cn1nc(C)c(Br)c1C
REMARK SMILES IDX 15 1 14 2 13 3 12 4 10 5 11 6 9 8 7 9 8 10 86 11 85 14 6 15
REMARK SMILES IDX 3 16 4 17 88 18 5 19 87 20 2 21 1 22 89 23 90 24 91 25 96 26
REMARK SMILES IDX 92 27 94 28 97 29 93 30 95 31 16 32 17 33 18 34 19 35 20 36
REMARK SMILES IDX 21 38 22 39 23 40 84 41 24 42 83 43 25 44 26 45 27 46 77 47
REMARK SMILES IDX 28 48 82 49 76 50 78 51 29 52 81 53 75 54 74 55 30 57 62 58
REMARK SMILES IDX 42 59 61 60 43 61 46 62 60 63 79 64 44 65 45 66 59 68 80 69
REMARK SMILES IDX 47 70 31 71 32 72 40 73 33 74 34 75 38 76 41 77 35 78 36 79
REMARK SMILES IDX 39 80 37 81 63 82 64 83 72 84 65 85 66 86 70 87 73 88 67 89
REMARK SMILES IDX 68 90 71 91 69 92 48 93 49 94 57 95 50 96 51 97 55 98 58 99
REMARK SMILES IDX 52 100 53 101 56 102 54 103
REMARK H PARENT 12 7 8 12 8 13 19 37 78 56 46 67
REMARK Flexibility Score: inf
ROOT
ATOM      1  C   UNL     1       2.961   2.901   0.983  1.00  0.00     0.002 C 
ENDROOT
BRANCH   1   2
ATOM      2  C   UNL     1       2.813   3.471   2.502  1.00  0.00     0.021 C 
BRANCH   2   3
ATOM      3  C   UNL     1       3.217   2.739   3.818  1.00  0.00     0.116 C 
BRANCH   3   4
ATOM      4  N   UNL     1       4.179   3.291   4.749  1.00  0.00    -0.351 N 
ATOM      5  C   UNL     1       4.529   2.784   5.983  1.00  0.00     0.279 C 
ATOM      6  O   UNL     1       5.638   3.136   6.415  1.00  0.00    -0.268 OA
ATOM      7  H   UNL     1       4.633   4.119   4.470  1.00  0.00     0.163 HD
BRANCH   5   8
ATOM      8  C   UNL     1       3.704   1.769   6.850  1.00  0.00     0.283 C 
ATOM      9  C   UNL     1       1.603   0.539   6.644  1.00  0.00     0.274 C 
ATOM     10  N   UNL     1       2.226   1.880   6.743  1.00  0.00    -0.321 N 
ATOM     11  S   UNL     1       2.778  -0.669   7.250  1.00  0.00    -0.088 SA
ATOM     12  H   UNL     1       1.866   2.356   7.570  1.00  0.00     0.348 HD
ATOM     13  H   UNL     1       1.998   2.409   5.901  1.00  0.00     0.348 HD
ATOM     14  C   UNL     1       4.165   0.330   6.683  1.00  0.00     0.151 C 
BRANCH   9  15
ATOM     15  C   UNL     1       1.145   0.373   5.201  1.00  0.00     0.021 A 
ATOM     16  C   UNL     1       0.860   1.295   2.551  1.00  0.00     0.123 A 
ATOM     17  C   UNL     1      -0.136   1.486   3.533  1.00  0.00     0.047 A 
ATOM     18  C   UNL     1       1.983   0.364   2.837  1.00  0.00     0.016 A 
ATOM     19  C   UNL     1       0.004   1.069   4.838  1.00  0.00     0.015 A 
ATOM     20  C   UNL     1       1.994  -0.110   4.184  1.00  0.00     0.020 A 
BRANCH  16  21
ATOM     21  O   UNL     1       0.337   1.895   1.438  1.00  0.00    -0.496 OA
ATOM     22  C   UNL     1       0.252   3.122   0.654  1.00  0.00     0.278 C 
ENDBRANCH  16  21
BRANCH  18  23
ATOM     23  C   UNL     1       3.325  -0.263   2.120  1.00  0.00     0.184 C 
BRANCH  23  24
ATOM     24  N   UNL     1       4.692   0.416   2.066  1.00  0.00    -0.264 N 
ATOM     25  N   UNL     1       5.143   0.894   0.869  1.00  0.00    -0.177 NA
ATOM     26  C   UNL     1       5.800   0.411   2.919  1.00  0.00     0.050 A 
ATOM     27  C   UNL     1       6.122   1.756   1.183  1.00  0.00     0.074 A 
ATOM     28  C   UNL     1       6.581   1.462   2.468  1.00  0.00     0.061 A 
ATOM     29  C   UNL     1       6.114  -0.527   4.011  1.00  0.00     0.067 C 
ATOM     30  C   UNL     1       6.552   2.804   0.211  1.00  0.00     0.070 C 
ATOM     31  Br  UNL     1       8.060   2.256   3.298  1.00  0.00    -0.047 Br
ENDBRANCH  23  24
ENDBRANCH  18  23
ENDBRANCH   9  15
ENDBRANCH   5   8
ENDBRANCH   3   4
ENDBRANCH   2   3
ENDBRANCH   1   2
BRANCH   1  32
ATOM     32  C   UNL     1       2.491   1.672  -0.095  1.00  0.00     0.002 C 
BRANCH  32  33
ATOM     33  C   UNL     1       1.440   0.470  -0.435  1.00  0.00     0.021 C 
BRANCH  33  34
ATOM     34  C   UNL     1      -0.059   0.129  -0.240  1.00  0.00     0.116 C 
BRANCH  34  35
ATOM     35  N   UNL     1      -1.107   1.090  -0.459  1.00  0.00    -0.352 N 
ATOM     36  C   UNL     1      -1.732   1.277  -1.657  1.00  0.00     0.251 C 
ATOM     37  H   UNL     1      -1.390   1.647   0.302  1.00  0.00     0.163 HD
ATOM     38  O   UNL     1      -1.163   1.466  -2.726  1.00  0.00    -0.269 OA
BRANCH  36  39
ATOM     39  C   UNL     1      -3.177   0.957  -1.574  1.00  0.00     0.039 A 
ATOM     40  C   UNL     1      -3.670   0.091  -2.555  1.00  0.00     0.014 A 
ATOM     41  C   UNL     1      -3.887   1.184  -0.388  1.00  0.00     0.014 A 
ATOM     42  C   UNL     1      -4.828  -0.634  -2.305  1.00  0.00     0.010 A 
ATOM     43  C   UNL     1      -4.987   0.395  -0.105  1.00  0.00     0.010 A 
ATOM     44  C   UNL     1      -5.454  -0.524  -1.057  1.00  0.00    -0.014 A 
BRANCH  44  45
ATOM     45  C   UNL     1      -6.620  -1.355  -0.711  1.00  0.00     0.031 A 
ATOM     46  C   UNL     1      -7.930  -0.674  -0.471  1.00  0.00     0.074 A 
ATOM     47  C   UNL     1      -6.450  -2.676  -0.519  1.00  0.00     0.049 A 
ATOM     48  N   UNL     1      -9.059  -1.174  -0.051  1.00  0.00    -0.248 NA
ATOM     49  C   UNL     1      -7.957   0.786  -0.677  1.00  0.00     0.031 C 
ATOM     50  C   UNL     1      -5.180  -3.395  -0.654  1.00  0.00     0.029 A 
ATOM     51  N   UNL     1      -7.343  -3.648  -0.157  1.00  0.00    -0.354 N 
ATOM     52  C   UNL     1      -9.917  -0.091   0.077  1.00  0.00     0.074 A 
ATOM     53  C   UNL     1      -9.160   1.100  -0.225  1.00  0.00     0.031 C 
ATOM     54  C   UNL     1      -5.382  -4.699  -0.408  1.00  0.00     0.029 A 
ATOM     55  C   UNL     1      -6.785  -4.901  -0.067  1.00  0.00     0.049 A 
ATOM     56  H   UNL     1      -8.293  -3.467   0.022  1.00  0.00     0.167 HD
ATOM     57  C   UNL     1     -11.233  -0.105   0.386  1.00  0.00     0.037 A 
ATOM     58  C   UNL     1      -7.362  -6.073   0.254  1.00  0.00     0.037 A 
ATOM     59  C   UNL     1     -11.958  -1.318   0.645  1.00  0.00     0.049 A 
ATOM     60  C   UNL     1      -8.837  -6.068   0.553  1.00  0.00     0.074 A 
ATOM     61  C   UNL     1     -13.304  -1.486   0.901  1.00  0.00     0.029 A 
ATOM     62  N   UNL     1     -11.379  -2.582   0.672  1.00  0.00    -0.354 N 
ATOM     63  N   UNL     1      -9.668  -5.052   0.594  1.00  0.00    -0.248 NA
ATOM     64  C   UNL     1      -9.460  -7.365   0.837  1.00  0.00     0.031 C 
ATOM     65  C   UNL     1     -13.532  -2.847   1.129  1.00  0.00     0.029 A 
ATOM     66  C   UNL     1     -12.339  -3.535   0.957  1.00  0.00     0.049 A 
ATOM     67  H   UNL     1     -10.425  -2.770   0.512  1.00  0.00     0.167 HD
ATOM     68  C   UNL     1     -10.915  -5.586   0.877  1.00  0.00     0.074 A 
ATOM     69  C   UNL     1     -10.732  -7.022   0.981  1.00  0.00     0.031 C 
ATOM     70  C   UNL     1     -12.106  -4.956   1.040  1.00  0.00     0.037 A 
BRANCH  57  71
ATOM     71  C   UNL     1     -11.947   1.215   0.445  1.00  0.00     0.064 A 
ATOM     72  C   UNL     1     -12.131   2.008  -0.700  1.00  0.00     0.173 A 
ATOM     73  C   UNL     1     -12.448   1.700   1.661  1.00  0.00     0.173 A 
ATOM     74  F   UNL     1     -11.653   1.603  -1.887  1.00  0.00    -0.203 F 
ATOM     75  C   UNL     1     -12.754   3.251  -0.622  1.00  0.00     0.198 A 
ATOM     76  C   UNL     1     -13.104   2.928   1.729  1.00  0.00     0.198 A 
ATOM     77  F   UNL     1     -12.296   0.989   2.789  1.00  0.00    -0.203 F 
ATOM     78  F   UNL     1     -12.854   4.018  -1.716  1.00  0.00    -0.200 F 
ATOM     79  C   UNL     1     -13.247   3.706   0.591  1.00  0.00     0.200 A 
ATOM     80  F   UNL     1     -13.587   3.363   2.901  1.00  0.00    -0.200 F 
ATOM     81  F   UNL     1     -13.849   4.901   0.664  1.00  0.00    -0.200 F 
ENDBRANCH  57  71
BRANCH  58  82
ATOM     82  C   UNL     1      -6.564  -7.328   0.254  1.00  0.00     0.064 A 
ATOM     83  C   UNL     1      -6.784  -8.322  -0.712  1.00  0.00     0.173 A 
ATOM     84  C   UNL     1      -5.554  -7.558   1.200  1.00  0.00     0.173 A 
ATOM     85  F   UNL     1      -7.743  -8.156  -1.635  1.00  0.00    -0.203 F 
ATOM     86  C   UNL     1      -6.044  -9.504  -0.716  1.00  0.00     0.198 A 
ATOM     87  C   UNL     1      -4.795  -8.728   1.178  1.00  0.00     0.198 A 
ATOM     88  F   UNL     1      -5.290  -6.636   2.138  1.00  0.00    -0.203 F 
ATOM     89  F   UNL     1      -6.307 -10.453  -1.625  1.00  0.00    -0.200 F 
ATOM     90  C   UNL     1      -5.047  -9.704   0.226  1.00  0.00     0.200 A 
ATOM     91  F   UNL     1      -3.818  -8.908   2.077  1.00  0.00    -0.200 F 
ATOM     92  F   UNL     1      -4.332 -10.837   0.218  1.00  0.00    -0.200 F 
ENDBRANCH  58  82
BRANCH  70  93
ATOM     93  C   UNL     1     -13.297  -5.824   1.310  1.00  0.00     0.064 A 
ATOM     94  C   UNL     1     -13.470  -6.474   2.540  1.00  0.00     0.173 A 
ATOM     95  C   UNL     1     -14.303  -5.961   0.341  1.00  0.00     0.173 A 
ATOM     96  F   UNL     1     -12.528  -6.382   3.491  1.00  0.00    -0.203 F 
ATOM     97  C   UNL     1     -14.595  -7.256   2.779  1.00  0.00     0.198 A 
ATOM     98  C   UNL     1     -15.443  -6.712   0.598  1.00  0.00     0.198 A 
ATOM     99  F   UNL     1     -14.187  -5.347  -0.847  1.00  0.00    -0.203 F 
ATOM    100  F   UNL     1     -14.716  -7.913   3.941  1.00  0.00    -0.200 F 
ATOM    101  C   UNL     1     -15.584  -7.367   1.813  1.00  0.00     0.200 A 
ATOM    102  F   UNL     1     -16.407  -6.802  -0.328  1.00  0.00    -0.200 F 
ATOM    103  F   UNL     1     -16.673  -8.110   2.051  1.00  0.00    -0.200 F 
ENDBRANCH  70  93
ENDBRANCH  44  45
ENDBRANCH  36  39
ENDBRANCH  34  35
ENDBRANCH  33  34
ENDBRANCH  32  33
ENDBRANCH   1  32
TORSDOF 17
