REMARK SMILES O=C(COc1ccc(Br)cc1/C=C1\C(=O)Nc2ccc(Br)cc21)NCCCCCCNC(=O)c1ccc(-c2c3nc(c(-c4c(F)c(F)c(F)c(F)c4F)c4ccc([nH]4)c(-c4c(F)c(F)c(F)c(F)c4F)c4nc(c(-c5c(F)c(F)c(F)c(F)c5F)c5ccc2[nH]5)C=C4)C=C3)cc1
REMARK SMILES IDX 27 1 26 2 25 3 24 4 1 5 2 6 3 8 4 9 5 10 6 11 11 12 7 13
REMARK SMILES IDX 10 14 8 15 9 16 12 17 13 18 14 19 23 20 15 21 16 22 17 23
REMARK SMILES IDX 22 24 18 26 20 27 19 28 21 29 28 30 29 31 30 32 31 33 32 34
REMARK SMILES IDX 33 36 34 37 35 38 96 39 36 40 95 41 37 42 38 43 39 44 89 45
REMARK SMILES IDX 40 46 94 47 88 48 90 49 41 50 93 51 87 52 86 53 42 55 74 56
REMARK SMILES IDX 54 57 73 58 55 59 58 60 72 61 91 62 56 63 57 64 71 66 92 67
REMARK SMILES IDX 59 68 43 69 44 70 52 71 45 72 46 73 50 74 53 75 47 76 48 77
REMARK SMILES IDX 51 78 49 79 75 80 76 81 84 82 77 83 78 84 82 85 85 86 79 87
REMARK SMILES IDX 80 88 83 89 81 90 60 91 61 92 69 93 62 94 63 95 67 96 70 97
REMARK SMILES IDX 64 98 65 99 68 100 66 101
REMARK H PARENT 24 7 16 25 31 35 90 54 58 65
REMARK Flexibility Score: inf
ROOT
ATOM      1  C   UNL     1       4.400   1.829   3.170  1.00  0.00     0.002 C 
ENDROOT
BRANCH   1   2
ATOM      2  C   UNL     1       2.936   1.456   2.918  1.00  0.00     0.021 C 
BRANCH   2   3
ATOM      3  C   UNL     1       2.485   1.556   1.464  1.00  0.00     0.116 C 
BRANCH   3   4
ATOM      4  N   UNL     1       3.265   0.741   0.543  1.00  0.00    -0.353 N 
ATOM      5  O   UNL     1       1.567  -0.710   0.014  1.00  0.00    -0.271 OA
ATOM      6  C   UNL     1       2.693  -0.270  -0.208  1.00  0.00     0.257 C 
ATOM      7  H   UNL     1       4.229   0.915   0.453  1.00  0.00     0.163 HD
BRANCH   6   8
ATOM      8  C   UNL     1       3.557  -0.792  -1.385  1.00  0.00     0.329 C 
BRANCH   8   9
ATOM      9  O   UNL     1       4.292   0.106  -2.229  1.00  0.00    -0.483 OA
BRANCH   9  10
ATOM     10  C   UNL     1       3.517   0.854  -3.092  1.00  0.00     0.127 A 
ATOM     11  C   UNL     1       2.487   1.654  -2.553  1.00  0.00     0.048 A 
ATOM     12  C   UNL     1       3.805   0.912  -4.483  1.00  0.00     0.018 A 
ATOM     13  C   UNL     1       1.655   2.427  -3.351  1.00  0.00     0.019 A 
ATOM     14  C   UNL     1       2.980   1.767  -5.237  1.00  0.00     0.027 A 
ATOM     15  C   UNL     1       1.900   2.470  -4.701  1.00  0.00     0.018 A 
ATOM     16  Br  UNL     1       0.782   3.493  -5.830  1.00  0.00    -0.051 Br
BRANCH  12  17
ATOM     17  C   UNL     1       4.889   0.100  -5.152  1.00  0.00     0.026 C 
ATOM     18  C   UNL     1       5.038  -0.237  -6.460  1.00  0.00     0.050 C 
ATOM     19  C   UNL     1       4.106   0.087  -7.606  1.00  0.00     0.256 C 
ATOM     20  C   UNL     1       5.787  -1.416  -6.955  1.00  0.00     0.012 A 
ATOM     21  O   UNL     1       3.769   1.164  -8.048  1.00  0.00    -0.269 OA
ATOM     22  N   UNL     1       3.900  -1.126  -8.232  1.00  0.00    -0.321 N 
ATOM     23  C   UNL     1       4.925  -2.003  -7.902  1.00  0.00     0.049 A 
ATOM     24  C   UNL     1       7.078  -1.897  -6.841  1.00  0.00     0.026 A 
ATOM     25  H   UNL     1       3.142  -1.337  -8.824  1.00  0.00     0.170 HD
ATOM     26  C   UNL     1       5.202  -3.167  -8.583  1.00  0.00     0.028 A 
ATOM     27  C   UNL     1       7.421  -3.022  -7.616  1.00  0.00     0.018 A 
ATOM     28  C   UNL     1       6.480  -3.688  -8.428  1.00  0.00     0.018 A 
ATOM     29  Br  UNL     1       9.222  -3.608  -7.677  1.00  0.00    -0.051 Br
ENDBRANCH  12  17
ENDBRANCH   9  10
ENDBRANCH   8   9
ENDBRANCH   6   8
ENDBRANCH   3   4
ENDBRANCH   2   3
ENDBRANCH   1   2
BRANCH   1  30
ATOM     30  C   UNL     1       4.808   3.248   2.759  1.00  0.00     0.002 C 
BRANCH  30  31
ATOM     31  C   UNL     1       4.069   4.384   3.466  1.00  0.00     0.021 C 
BRANCH  31  32
ATOM     32  C   UNL     1       4.173   4.389   4.988  1.00  0.00     0.116 C 
BRANCH  32  33
ATOM     33  N   UNL     1       5.536   4.565   5.472  1.00  0.00    -0.352 N 
ATOM     34  C   UNL     1       6.036   5.454   6.396  1.00  0.00     0.251 C 
ATOM     35  H   UNL     1       6.201   3.955   5.078  1.00  0.00     0.163 HD
ATOM     36  O   UNL     1       7.247   5.532   6.584  1.00  0.00    -0.269 OA
BRANCH  34  37
ATOM     37  C   UNL     1       5.120   6.349   7.138  1.00  0.00     0.039 A 
ATOM     38  C   UNL     1       3.921   5.870   7.667  1.00  0.00     0.014 A 
ATOM     39  C   UNL     1       5.462   7.697   7.296  1.00  0.00     0.014 A 
ATOM     40  C   UNL     1       2.988   6.764   8.181  1.00  0.00     0.010 A 
ATOM     41  C   UNL     1       4.560   8.579   7.899  1.00  0.00     0.010 A 
ATOM     42  C   UNL     1       3.292   8.131   8.299  1.00  0.00    -0.014 A 
BRANCH  42  43
ATOM     43  C   UNL     1       2.264   9.063   8.835  1.00  0.00     0.031 A 
ATOM     44  C   UNL     1       1.683  10.152   7.973  1.00  0.00     0.074 A 
ATOM     45  C   UNL     1       1.805   8.884  10.089  1.00  0.00     0.049 A 
ATOM     46  N   UNL     1       0.751  11.027   8.263  1.00  0.00    -0.248 NA
ATOM     47  C   UNL     1       2.217  10.283   6.608  1.00  0.00     0.031 C 
ATOM     48  C   UNL     1       2.281   7.859  11.018  1.00  0.00     0.029 A 
ATOM     49  N   UNL     1       0.819   9.535  10.788  1.00  0.00    -0.354 N 
ATOM     50  C   UNL     1       0.597  11.812   7.128  1.00  0.00     0.074 A 
ATOM     51  C   UNL     1       1.556  11.339   6.154  1.00  0.00     0.031 C 
ATOM     52  C   UNL     1       1.550   7.909  12.140  1.00  0.00     0.029 A 
ATOM     53  C   UNL     1       0.598   9.011  12.039  1.00  0.00     0.049 A 
ATOM     54  H   UNL     1       0.319  10.303  10.429  1.00  0.00     0.167 HD
ATOM     55  C   UNL     1      -0.278  12.825   6.913  1.00  0.00     0.037 A 
ATOM     56  C   UNL     1      -0.268   9.380  13.002  1.00  0.00     0.037 A 
ATOM     57  C   UNL     1      -1.246  13.281   7.877  1.00  0.00     0.049 A 
ATOM     58  C   UNL     1      -1.191  10.539  12.756  1.00  0.00     0.074 A 
ATOM     59  C   UNL     1      -2.190  14.285   7.741  1.00  0.00     0.029 A 
ATOM     60  N   UNL     1      -1.396  12.763   9.156  1.00  0.00    -0.354 N 
ATOM     61  N   UNL     1      -1.337  11.261  11.672  1.00  0.00    -0.248 NA
ATOM     62  C   UNL     1      -2.063  10.940  13.868  1.00  0.00     0.031 C 
ATOM     63  C   UNL     1      -2.876  14.409   8.952  1.00  0.00     0.029 A 
ATOM     64  C   UNL     1      -2.400  13.445   9.826  1.00  0.00     0.049 A 
ATOM     65  H   UNL     1      -0.868  12.022   9.531  1.00  0.00     0.167 HD
ATOM     66  C   UNL     1      -2.326  12.190  11.963  1.00  0.00     0.074 A 
ATOM     67  C   UNL     1      -2.759  11.928  13.321  1.00  0.00     0.031 C 
ATOM     68  C   UNL     1      -2.826  13.172  11.175  1.00  0.00     0.037 A 
BRANCH  55  69
ATOM     69  C   UNL     1      -0.238  13.520   5.582  1.00  0.00     0.064 A 
ATOM     70  C   UNL     1      -0.698  12.897   4.413  1.00  0.00     0.173 A 
ATOM     71  C   UNL     1       0.193  14.853   5.488  1.00  0.00     0.173 A 
ATOM     72  F   UNL     1      -1.112  11.621   4.446  1.00  0.00    -0.203 F 
ATOM     73  C   UNL     1      -0.714  13.576   3.197  1.00  0.00     0.198 A 
ATOM     74  C   UNL     1       0.148  15.538   4.277  1.00  0.00     0.198 A 
ATOM     75  F   UNL     1       0.634  15.500   6.577  1.00  0.00    -0.203 F 
ATOM     76  F   UNL     1      -1.127  12.949   2.087  1.00  0.00    -0.200 F 
ATOM     77  C   UNL     1      -0.302  14.899   3.132  1.00  0.00     0.200 A 
ATOM     78  F   UNL     1       0.531  16.821   4.219  1.00  0.00    -0.200 F 
ATOM     79  F   UNL     1      -0.336  15.556   1.964  1.00  0.00    -0.200 F 
ENDBRANCH  55  69
BRANCH  56  80
ATOM     80  C   UNL     1      -0.301   8.626  14.282  1.00  0.00     0.064 A 
ATOM     81  C   UNL     1      -1.400   7.823  14.616  1.00  0.00     0.173 A 
ATOM     82  C   UNL     1       0.778   8.660  15.178  1.00  0.00     0.173 A 
ATOM     83  F   UNL     1      -2.465   7.773  13.802  1.00  0.00    -0.203 F 
ATOM     84  C   UNL     1      -1.419   7.086  15.798  1.00  0.00     0.198 A 
ATOM     85  C   UNL     1       0.771   7.899  16.344  1.00  0.00     0.198 A 
ATOM     86  F   UNL     1       1.856   9.410  14.902  1.00  0.00    -0.203 F 
ATOM     87  F   UNL     1      -2.494   6.348  16.108  1.00  0.00    -0.200 F 
ATOM     88  C   UNL     1      -0.329   7.116  16.655  1.00  0.00     0.200 A 
ATOM     89  F   UNL     1       1.835   7.917  17.159  1.00  0.00    -0.200 F 
ATOM     90  F   UNL     1      -0.340   6.391  17.782  1.00  0.00    -0.200 F 
ENDBRANCH  56  80
BRANCH  68  91
ATOM     91  C   UNL     1      -3.915  14.034  11.744  1.00  0.00     0.064 A 
ATOM     92  C   UNL     1      -3.646  15.005  12.719  1.00  0.00     0.173 A 
ATOM     93  C   UNL     1      -5.224  13.945  11.248  1.00  0.00     0.173 A 
ATOM     94  F   UNL     1      -2.413  15.120  13.235  1.00  0.00    -0.203 F 
ATOM     95  C   UNL     1      -4.651  15.848  13.185  1.00  0.00     0.198 A 
ATOM     96  C   UNL     1      -6.220  14.808  11.694  1.00  0.00     0.198 A 
ATOM     97  F   UNL     1      -5.531  13.037  10.308  1.00  0.00    -0.203 F 
ATOM     98  F   UNL     1      -4.379  16.748  14.140  1.00  0.00    -0.200 F 
ATOM     99  C   UNL     1      -5.934  15.757  12.665  1.00  0.00     0.200 A 
ATOM    100  F   UNL     1      -7.455  14.729  11.179  1.00  0.00    -0.200 F 
ATOM    101  F   UNL     1      -6.895  16.583  13.100  1.00  0.00    -0.200 F 
ENDBRANCH  68  91
ENDBRANCH  42  43
ENDBRANCH  34  37
ENDBRANCH  32  33
ENDBRANCH  31  32
ENDBRANCH  30  31
ENDBRANCH   1  30
TORSDOF 16
