REMARK SMILES O=C(NCCCCCCNC(=O)c1ccc(COc2cccc(C(F)(F)F)c2)nc1)c1ccc(-c2c3nc(c(-c4c(F)c(F)c(F)c(F)c4F)c4ccc([nH]4)c(-c4c(F)c(F)c(F)c(F)c4F)c4nc(c(-c5c(F)c(F)c(F)c(F)c5F)c5ccc2[nH]5)C=C4)C=C3)cc1
REMARK SMILES IDX 7 1 6 2 5 3 4 4 3 5 1 6 2 7 31 9 32 10 93 11 33 12 92 13
REMARK SMILES IDX 34 14 35 15 36 16 86 17 37 18 91 19 85 20 87 21 38 22 90 23
REMARK SMILES IDX 84 24 83 25 39 27 71 28 51 29 70 30 52 31 55 32 69 33 88 34
REMARK SMILES IDX 53 35 54 36 68 38 89 39 56 40 40 41 41 42 49 43 42 44 43 45
REMARK SMILES IDX 47 46 50 47 44 48 45 49 48 50 46 51 72 52 73 53 81 54 74 55
REMARK SMILES IDX 75 56 79 57 82 58 76 59 77 60 80 61 78 62 57 63 58 64 66 65
REMARK SMILES IDX 59 66 60 67 64 68 67 69 61 70 62 71 65 72 63 73 8 74 9 75
REMARK SMILES IDX 10 76 11 77 12 79 13 80 14 81 30 82 15 83 29 84 16 85 17 86
REMARK SMILES IDX 18 87 19 88 20 89 28 90 21 91 23 92 22 93 24 94 25 95 26 96
REMARK SMILES IDX 27 97
REMARK H PARENT 3 8 87 26 55 37 10 78
REMARK Flexibility Score: inf
ROOT
ATOM      1  C   UNL     1       4.740  -3.154   2.899  1.00  0.00     0.002 C 
ENDROOT
BRANCH   1   2
ATOM      2  C   UNL     1       4.215  -1.763   3.269  1.00  0.00     0.002 C 
BRANCH   2   3
ATOM      3  C   UNL     1       4.717  -0.623   2.381  1.00  0.00     0.021 C 
BRANCH   3   4
ATOM      4  C   UNL     1       4.472  -0.828   0.891  1.00  0.00     0.116 C 
BRANCH   4   5
ATOM      5  N   UNL     1       3.057  -0.924   0.583  1.00  0.00    -0.352 N 
ATOM      6  O   UNL     1       1.066  -0.225  -0.211  1.00  0.00    -0.269 OA
ATOM      7  C   UNL     1       2.289  -0.128  -0.226  1.00  0.00     0.251 C 
ATOM      8  H   UNL     1       2.581  -1.668   1.017  1.00  0.00     0.163 HD
BRANCH   7   9
ATOM      9  C   UNL     1       2.938   0.862  -1.108  1.00  0.00     0.039 A 
ATOM     10  C   UNL     1       4.049   0.515  -1.883  1.00  0.00     0.014 A 
ATOM     11  C   UNL     1       2.402   2.150  -1.179  1.00  0.00     0.014 A 
ATOM     12  C   UNL     1       4.691   1.485  -2.647  1.00  0.00     0.010 A 
ATOM     13  C   UNL     1       3.003   3.102  -2.002  1.00  0.00     0.010 A 
ATOM     14  C   UNL     1       4.164   2.782  -2.726  1.00  0.00    -0.014 A 
BRANCH  14  15
ATOM     15  C   UNL     1       4.789   3.795  -3.610  1.00  0.00     0.031 A 
ATOM     16  C   UNL     1       5.401   5.037  -3.034  1.00  0.00     0.074 A 
ATOM     17  C   UNL     1       4.750   3.611  -4.942  1.00  0.00     0.049 A 
ATOM     18  N   UNL     1       5.884   6.085  -3.651  1.00  0.00    -0.248 NA
ATOM     19  C   UNL     1       5.468   5.116  -1.567  1.00  0.00     0.031 C 
ATOM     20  C   UNL     1       4.178   2.444  -5.613  1.00  0.00     0.029 A 
ATOM     21  N   UNL     1       5.177   4.413  -5.970  1.00  0.00    -0.354 N 
ATOM     22  C   UNL     1       6.287   6.960  -2.652  1.00  0.00     0.074 A 
ATOM     23  C   UNL     1       5.970   6.330  -1.387  1.00  0.00     0.031 C 
ATOM     24  C   UNL     1       4.287   2.604  -6.939  1.00  0.00     0.029 A 
ATOM     25  C   UNL     1       4.875   3.912  -7.211  1.00  0.00     0.049 A 
ATOM     26  H   UNL     1       5.652   5.264  -5.831  1.00  0.00     0.167 HD
ATOM     27  C   UNL     1       6.871   8.176  -2.784  1.00  0.00     0.037 A 
ATOM     28  C   UNL     1       5.014   4.460  -8.432  1.00  0.00     0.037 A 
ATOM     29  C   UNL     1       7.178   8.790  -4.051  1.00  0.00     0.049 A 
ATOM     30  C   UNL     1       5.618   5.829  -8.555  1.00  0.00     0.074 A 
ATOM     31  C   UNL     1       7.806   9.998  -4.295  1.00  0.00     0.029 A 
ATOM     32  N   UNL     1       6.860   8.248  -5.290  1.00  0.00    -0.354 N 
ATOM     33  N   UNL     1       6.036   6.633  -7.609  1.00  0.00    -0.248 NA
ATOM     34  C   UNL     1       5.772   6.367  -9.913  1.00  0.00     0.031 C 
ATOM     35  C   UNL     1       7.810  10.218  -5.676  1.00  0.00     0.029 A 
ATOM     36  C   UNL     1       7.250   9.113  -6.300  1.00  0.00     0.049 A 
ATOM     37  H   UNL     1       6.422   7.378  -5.430  1.00  0.00     0.167 HD
ATOM     38  C   UNL     1       6.530   7.758  -8.253  1.00  0.00     0.074 A 
ATOM     39  C   UNL     1       6.359   7.533  -9.674  1.00  0.00     0.031 C 
ATOM     40  C   UNL     1       7.084   8.871  -7.712  1.00  0.00     0.037 A 
BRANCH  27  41
ATOM     41  C   UNL     1       7.174   8.939  -1.524  1.00  0.00     0.064 A 
ATOM     42  C   UNL     1       8.150   8.512  -0.612  1.00  0.00     0.173 A 
ATOM     43  C   UNL     1       6.479  10.123  -1.230  1.00  0.00     0.173 A 
ATOM     44  F   UNL     1       8.840   7.384  -0.838  1.00  0.00    -0.203 F 
ATOM     45  C   UNL     1       8.386   9.214   0.569  1.00  0.00     0.198 A 
ATOM     46  C   UNL     1       6.742  10.842  -0.067  1.00  0.00     0.198 A 
ATOM     47  F   UNL     1       5.542  10.586  -2.071  1.00  0.00    -0.203 F 
ATOM     48  F   UNL     1       9.275   8.748   1.457  1.00  0.00    -0.200 F 
ATOM     49  C   UNL     1       7.685  10.380   0.838  1.00  0.00     0.200 A 
ATOM     50  F   UNL     1       6.075  11.977   0.183  1.00  0.00    -0.200 F 
ATOM     51  F   UNL     1       7.910  11.051   1.976  1.00  0.00    -0.200 F 
ENDBRANCH  27  41
BRANCH  28  52
ATOM     52  C   UNL     1       4.554   3.699  -9.621  1.00  0.00     0.064 A 
ATOM     53  C   UNL     1       5.472   3.141 -10.520  1.00  0.00     0.173 A 
ATOM     54  C   UNL     1       3.189   3.460  -9.846  1.00  0.00     0.173 A 
ATOM     55  F   UNL     1       6.785   3.354 -10.354  1.00  0.00    -0.203 F 
ATOM     56  C   UNL     1       5.042   2.376 -11.602  1.00  0.00     0.198 A 
ATOM     57  C   UNL     1       2.763   2.671 -10.910  1.00  0.00     0.198 A 
ATOM     58  F   UNL     1       2.273   3.964  -9.006  1.00  0.00    -0.203 F 
ATOM     59  F   UNL     1       5.938   1.873 -12.461  1.00  0.00    -0.200 F 
ATOM     60  C   UNL     1       3.689   2.132 -11.790  1.00  0.00     0.200 A 
ATOM     61  F   UNL     1       1.456   2.421 -11.075  1.00  0.00    -0.200 F 
ATOM     62  F   UNL     1       3.279   1.378 -12.818  1.00  0.00    -0.200 F 
ENDBRANCH  28  52
BRANCH  40  63
ATOM     63  C   UNL     1       7.602   9.919  -8.655  1.00  0.00     0.064 A 
ATOM     64  C   UNL     1       6.742  10.757  -9.378  1.00  0.00     0.173 A 
ATOM     65  C   UNL     1       8.984  10.137  -8.770  1.00  0.00     0.173 A 
ATOM     66  F   UNL     1       5.414  10.579  -9.316  1.00  0.00    -0.203 F 
ATOM     67  C   UNL     1       7.248  11.772 -10.187  1.00  0.00     0.198 A 
ATOM     68  C   UNL     1       9.485  11.170  -9.556  1.00  0.00     0.198 A 
ATOM     69  F   UNL     1       9.849   9.363  -8.096  1.00  0.00    -0.203 F 
ATOM     70  F   UNL     1       6.410  12.543 -10.894  1.00  0.00    -0.200 F 
ATOM     71  C   UNL     1       8.617  11.985 -10.266  1.00  0.00     0.200 A 
ATOM     72  F   UNL     1      10.806  11.384  -9.617  1.00  0.00    -0.200 F 
ATOM     73  F   UNL     1       9.100  12.977 -11.027  1.00  0.00    -0.200 F 
ENDBRANCH  40  63
ENDBRANCH  14  15
ENDBRANCH   7   9
ENDBRANCH   4   5
ENDBRANCH   3   4
ENDBRANCH   2   3
ENDBRANCH   1   2
BRANCH   1  74
ATOM     74  C   UNL     1       6.262  -3.259   2.777  1.00  0.00     0.021 C 
BRANCH  74  75
ATOM     75  C   UNL     1       7.021  -2.791   4.012  1.00  0.00     0.116 C 
BRANCH  75  76
ATOM     76  N   UNL     1       6.771  -3.660   5.147  1.00  0.00    -0.352 N 
ATOM     77  C   UNL     1       7.667  -4.449   5.812  1.00  0.00     0.252 C 
ATOM     78  H   UNL     1       5.844  -3.683   5.478  1.00  0.00     0.163 HD
ATOM     79  O   UNL     1       7.282  -5.323   6.588  1.00  0.00    -0.269 OA
BRANCH  77  80
ATOM     80  C   UNL     1       9.103  -4.247   5.593  1.00  0.00     0.058 A 
ATOM     81  C   UNL     1       9.689  -2.982   5.683  1.00  0.00     0.017 A 
ATOM     82  C   UNL     1       9.912  -5.340   5.341  1.00  0.00     0.125 A 
ATOM     83  C   UNL     1      11.062  -2.856   5.510  1.00  0.00     0.028 A 
ATOM     84  N   UNL     1      11.253  -5.244   5.177  1.00  0.00    -0.257 NA
ATOM     85  C   UNL     1      11.818  -4.013   5.308  1.00  0.00     0.078 A 
BRANCH  85  86
ATOM     86  C   UNL     1      13.324  -3.952   5.470  1.00  0.00     0.285 C 
BRANCH  86  87
ATOM     87  O   UNL     1      13.835  -4.763   6.550  1.00  0.00    -0.487 OA
BRANCH  87  88
ATOM     88  C   UNL     1      13.573  -4.314   7.816  1.00  0.00     0.120 A 
ATOM     89  C   UNL     1      14.657  -4.130   8.669  1.00  0.00     0.046 A 
ATOM     90  C   UNL     1      12.281  -4.182   8.327  1.00  0.00     0.059 A 
ATOM     91  C   UNL     1      14.447  -3.765  10.002  1.00  0.00     0.004 A 
ATOM     92  C   UNL     1      12.051  -3.756   9.643  1.00  0.00     0.059 A 
ATOM     93  C   UNL     1      13.151  -3.564  10.484  1.00  0.00     0.013 A 
BRANCH  92  94
ATOM     94  C   UNL     1      10.641  -3.546  10.137  1.00  0.00     0.416 C 
ATOM     95  F   UNL     1      10.215  -4.542  10.960  1.00  0.00    -0.166 F 
ATOM     96  F   UNL     1      10.506  -2.389  10.846  1.00  0.00    -0.166 F 
ATOM     97  F   UNL     1       9.722  -3.462   9.133  1.00  0.00    -0.166 F 
ENDBRANCH  92  94
ENDBRANCH  87  88
ENDBRANCH  86  87
ENDBRANCH  85  86
ENDBRANCH  77  80
ENDBRANCH  75  76
ENDBRANCH  74  75
ENDBRANCH   1  74
TORSDOF 17
