REMARK SMILES C[C@@]([NH3+])(Cc1ccccc1Br)C(=O)NCCCCCCNC(=O)c1ccc(-c2c3nc(c(-c4c(F)c(F)c(F)c(F)c4F)c4ccc([nH]4)c(-c4c(F)c(F)c(F)c(F)c4F)c4nc(c(-c5c(F)c(F)c(F)c(F)c5F)c5ccc2[nH]5)C=C4)C=C3)cc1
REMARK SMILES IDX 17 1 16 2 15 3 14 4 12 5 13 6 2 8 1 9 3 10 4 14 5 15 6 16
REMARK SMILES IDX 10 17 7 18 9 19 11 20 8 21 18 22 19 23 20 24 21 25 22 26
REMARK SMILES IDX 23 28 24 29 25 30 86 31 26 32 85 33 27 34 28 35 29 36 79 37
REMARK SMILES IDX 30 38 84 39 78 40 80 41 31 42 83 43 77 44 76 45 32 47 64 48
REMARK SMILES IDX 44 49 63 50 45 51 48 52 62 53 81 54 46 55 47 56 61 58 82 59
REMARK SMILES IDX 49 60 33 61 34 62 42 63 35 64 36 65 40 66 43 67 37 68 38 69
REMARK SMILES IDX 41 70 39 71 65 72 66 73 74 74 67 75 68 76 72 77 75 78 69 79
REMARK SMILES IDX 70 80 73 81 71 82 50 83 51 84 59 85 52 86 53 87 57 88 60 89
REMARK SMILES IDX 54 90 55 91 58 92 56 93
REMARK H PARENT 14 7 3 11 3 12 3 13 21 27 80 46 48 57
REMARK Flexibility Score: inf
ROOT
ATOM      1  C   UNL     1      -0.841  -4.071   4.672  1.00  0.00     0.002 C 
ENDROOT
BRANCH   1   2
ATOM      2  C   UNL     1      -1.246  -2.683   4.163  1.00  0.00     0.021 C 
BRANCH   2   3
ATOM      3  C   UNL     1      -0.095  -1.688   4.005  1.00  0.00     0.116 C 
BRANCH   3   4
ATOM      4  N   UNL     1       0.869  -2.113   3.006  1.00  0.00    -0.351 N 
ATOM      5  C   UNL     1       1.211  -1.633   1.774  1.00  0.00     0.281 C 
ATOM      6  O   UNL     1       2.105  -2.254   1.189  1.00  0.00    -0.268 OA
ATOM      7  H   UNL     1       1.381  -2.910   3.271  1.00  0.00     0.163 HD
BRANCH   5   8
ATOM      8  C   UNL     1       0.556  -0.356   1.157  1.00  0.00     0.175 C 
ATOM      9  C   UNL     1       1.212  -0.052  -0.207  1.00  0.00     0.090 C 
BRANCH   8  10
ATOM     10  N   UNL     1       0.909   0.811   2.022  1.00  0.00    -0.345 N 
ATOM     11  H   UNL     1       0.491   1.658   1.638  1.00  0.00     0.345 HD
ATOM     12  H   UNL     1       1.923   0.916   2.054  1.00  0.00     0.345 HD
ATOM     13  H   UNL     1       0.554   0.654   2.966  1.00  0.00     0.345 HD
ENDBRANCH   8  10
BRANCH   8  14
ATOM     14  C   UNL     1      -0.987  -0.468   0.996  1.00  0.00     0.115 C 
BRANCH  14  15
ATOM     15  C   UNL     1      -1.492  -1.419  -0.078  1.00  0.00    -0.027 A 
ATOM     16  C   UNL     1      -1.334  -2.805   0.115  1.00  0.00     0.005 A 
ATOM     17  C   UNL     1      -2.123  -0.993  -1.261  1.00  0.00     0.021 A 
ATOM     18  C   UNL     1      -1.769  -3.729  -0.837  1.00  0.00     0.000 A 
ATOM     19  C   UNL     1      -2.564  -1.924  -2.212  1.00  0.00     0.016 A 
ATOM     20  Br  UNL     1      -2.430   0.838  -1.674  1.00  0.00    -0.051 Br
ATOM     21  C   UNL     1      -2.385  -3.289  -2.002  1.00  0.00     0.001 A 
ENDBRANCH  14  15
ENDBRANCH   8  14
ENDBRANCH   5   8
ENDBRANCH   3   4
ENDBRANCH   2   3
ENDBRANCH   1   2
BRANCH   1  22
ATOM     22  C   UNL     1      -0.101  -4.095   6.012  1.00  0.00     0.002 C 
BRANCH  22  23
ATOM     23  C   UNL     1      -0.789  -3.357   7.164  1.00  0.00     0.021 C 
BRANCH  23  24
ATOM     24  C   UNL     1      -2.209  -3.816   7.484  1.00  0.00     0.116 C 
BRANCH  24  25
ATOM     25  N   UNL     1      -2.262  -5.198   7.928  1.00  0.00    -0.352 N 
ATOM     26  C   UNL     1      -2.866  -5.744   9.031  1.00  0.00     0.251 C 
ATOM     27  H   UNL     1      -1.793  -5.840   7.347  1.00  0.00     0.163 HD
ATOM     28  O   UNL     1      -2.665  -6.924   9.313  1.00  0.00    -0.269 OA
BRANCH  26  29
ATOM     29  C   UNL     1      -3.739  -4.927   9.904  1.00  0.00     0.039 A 
ATOM     30  C   UNL     1      -3.622  -5.078  11.289  1.00  0.00     0.014 A 
ATOM     31  C   UNL     1      -4.694  -4.051   9.377  1.00  0.00     0.014 A 
ATOM     32  C   UNL     1      -4.421  -4.316  12.144  1.00  0.00     0.010 A 
ATOM     33  C   UNL     1      -5.451  -3.248  10.232  1.00  0.00     0.010 A 
ATOM     34  C   UNL     1      -5.324  -3.375  11.623  1.00  0.00    -0.014 A 
BRANCH  34  35
ATOM     35  C   UNL     1      -6.123  -2.515  12.532  1.00  0.00     0.031 A 
ATOM     36  C   UNL     1      -7.615  -2.670  12.622  1.00  0.00     0.074 A 
ATOM     37  C   UNL     1      -5.503  -1.563  13.255  1.00  0.00     0.049 A 
ATOM     38  N   UNL     1      -8.472  -2.012  13.363  1.00  0.00    -0.248 NA
ATOM     39  C   UNL     1      -8.230  -3.679  11.747  1.00  0.00     0.031 C 
ATOM     40  C   UNL     1      -4.069  -1.271  13.212  1.00  0.00     0.029 A 
ATOM     41  N   UNL     1      -5.998  -0.663  14.165  1.00  0.00    -0.354 N 
ATOM     42  C   UNL     1      -9.723  -2.520  13.039  1.00  0.00     0.074 A 
ATOM     43  C   UNL     1      -9.520  -3.509  12.001  1.00  0.00     0.031 C 
ATOM     44  C   UNL     1      -3.797  -0.279  14.074  1.00  0.00     0.029 A 
ATOM     45  C   UNL     1      -5.037   0.149  14.714  1.00  0.00     0.049 A 
ATOM     46  H   UNL     1      -6.952  -0.605  14.401  1.00  0.00     0.167 HD
ATOM     47  C   UNL     1     -10.928  -2.206  13.573  1.00  0.00     0.037 A 
ATOM     48  C   UNL     1      -5.143   1.125  15.636  1.00  0.00     0.037 A 
ATOM     49  C   UNL     1     -11.127  -1.243  14.625  1.00  0.00     0.049 A 
ATOM     50  C   UNL     1      -6.487   1.429  16.237  1.00  0.00     0.074 A 
ATOM     51  C   UNL     1     -12.300  -0.907  15.279  1.00  0.00     0.029 A 
ATOM     52  N   UNL     1     -10.125  -0.459  15.177  1.00  0.00    -0.354 N 
ATOM     53  N   UNL     1      -7.651   0.885  15.979  1.00  0.00    -0.248 NA
ATOM     54  C   UNL     1      -6.528   2.474  17.269  1.00  0.00     0.031 C 
ATOM     55  C   UNL     1     -12.014   0.105  16.202  1.00  0.00     0.029 A 
ATOM     56  C   UNL     1     -10.656   0.372  16.151  1.00  0.00     0.049 A 
ATOM     57  H   UNL     1      -9.176  -0.489  14.915  1.00  0.00     0.167 HD
ATOM     58  C   UNL     1      -8.558   1.507  16.825  1.00  0.00     0.074 A 
ATOM     59  C   UNL     1      -7.805   2.454  17.622  1.00  0.00     0.031 C 
ATOM     60  C   UNL     1      -9.895   1.313  16.931  1.00  0.00     0.037 A 
BRANCH  47  61
ATOM     61  C   UNL     1     -12.132  -2.920  13.033  1.00  0.00     0.064 A 
ATOM     62  C   UNL     1     -12.371  -4.273  13.316  1.00  0.00     0.173 A 
ATOM     63  C   UNL     1     -13.080  -2.234  12.259  1.00  0.00     0.173 A 
ATOM     64  F   UNL     1     -11.489  -4.976  14.043  1.00  0.00    -0.203 F 
ATOM     65  C   UNL     1     -13.502  -4.919  12.825  1.00  0.00     0.198 A 
ATOM     66  C   UNL     1     -14.223  -2.877  11.790  1.00  0.00     0.198 A 
ATOM     67  F   UNL     1     -12.902  -0.937  11.964  1.00  0.00    -0.203 F 
ATOM     68  F   UNL     1     -13.688  -6.223  13.074  1.00  0.00    -0.200 F 
ATOM     69  C   UNL     1     -14.430  -4.220  12.068  1.00  0.00     0.200 A 
ATOM     70  F   UNL     1     -15.125  -2.197  11.068  1.00  0.00    -0.200 F 
ATOM     71  F   UNL     1     -15.522  -4.841  11.601  1.00  0.00    -0.200 F 
ENDBRANCH  47  61
BRANCH  48  72
ATOM     72  C   UNL     1      -3.930   1.859  16.076  1.00  0.00     0.064 A 
ATOM     73  C   UNL     1      -3.386   1.649  17.351  1.00  0.00     0.173 A 
ATOM     74  C   UNL     1      -3.290   2.780  15.235  1.00  0.00     0.173 A 
ATOM     75  F   UNL     1      -3.977   0.792  18.197  1.00  0.00    -0.203 F 
ATOM     76  C   UNL     1      -2.258   2.347  17.775  1.00  0.00     0.198 A 
ATOM     77  C   UNL     1      -2.148   3.459  15.651  1.00  0.00     0.198 A 
ATOM     78  F   UNL     1      -3.770   3.010  14.004  1.00  0.00    -0.203 F 
ATOM     79  F   UNL     1      -1.782   2.158  19.013  1.00  0.00    -0.200 F 
ATOM     80  C   UNL     1      -1.637   3.248  16.923  1.00  0.00     0.200 A 
ATOM     81  F   UNL     1      -1.543   4.319  14.821  1.00  0.00    -0.200 F 
ATOM     82  F   UNL     1      -0.549   3.917  17.330  1.00  0.00    -0.200 F 
ENDBRANCH  48  72
BRANCH  60  83
ATOM     83  C   UNL     1     -10.623   2.132  17.956  1.00  0.00     0.064 A 
ATOM     84  C   UNL     1     -10.852   3.503  17.768  1.00  0.00     0.173 A 
ATOM     85  C   UNL     1     -11.107   1.538  19.130  1.00  0.00     0.173 A 
ATOM     86  F   UNL     1     -10.392   4.120  16.668  1.00  0.00    -0.203 F 
ATOM     87  C   UNL     1     -11.514   4.256  18.733  1.00  0.00     0.198 A 
ATOM     88  C   UNL     1     -11.793   2.289  20.081  1.00  0.00     0.198 A 
ATOM     89  F   UNL     1     -10.918   0.230  19.354  1.00  0.00    -0.203 F 
ATOM     90  F   UNL     1     -11.677   5.575  18.557  1.00  0.00    -0.200 F 
ATOM     91  C   UNL     1     -11.988   3.648  19.886  1.00  0.00     0.200 A 
ATOM     92  F   UNL     1     -12.258   1.699  21.191  1.00  0.00    -0.200 F 
ATOM     93  F   UNL     1     -12.623   4.375  20.816  1.00  0.00    -0.200 F 
ENDBRANCH  60  83
ENDBRANCH  34  35
ENDBRANCH  26  29
ENDBRANCH  24  25
ENDBRANCH  23  24
ENDBRANCH  22  23
ENDBRANCH   1  22
TORSDOF 16
