REMARK SMILES CC[NH+]1CC[NH+]([C@@H]2CC(=O)N(c3ccc(C(=O)NCCCCCCNC(=O)c4ccc(-c5c6nc(c(-c7c(F)c(F)c(F)c(F)c7F)c7ccc([nH]7)c(-c7c(F)c(F)c(F)c(F)c7F)c7nc(c(-c8c(F)c(F)c(F)c(F)c8F)c8ccc5[nH]8)C=C7)C=C6)cc4)cc3)C2=O)CC1
REMARK SMILES IDX 21 1 20 2 19 3 18 4 16 5 17 6 15 8 12 9 13 10 92 11 14 12
REMARK SMILES IDX 91 13 11 14 7 15 8 16 93 17 9 18 94 19 10 20 6 21 3 22 4 23
REMARK SMILES IDX 96 24 5 26 95 27 2 29 1 30 22 31 23 32 24 33 25 34 26 35
REMARK SMILES IDX 27 37 28 38 29 39 90 40 30 41 89 42 31 43 32 44 33 45 83 46
REMARK SMILES IDX 34 47 88 48 82 49 84 50 35 51 87 52 81 53 80 54 36 56 68 57
REMARK SMILES IDX 48 58 67 59 49 60 52 61 66 62 85 63 50 64 51 65 65 67 86 68
REMARK SMILES IDX 53 69 37 70 38 71 46 72 39 73 40 74 44 75 47 76 41 77 42 78
REMARK SMILES IDX 45 79 43 80 69 81 70 82 78 83 71 84 72 85 76 86 79 87 73 88
REMARK SMILES IDX 74 89 77 90 75 91 54 92 55 93 63 94 56 95 57 96 61 97 64 98
REMARK SMILES IDX 58 99 59 100 62 101 60 102
REMARK H PARENT 18 7 3 25 6 28 25 36 84 55 52 66
REMARK Flexibility Score: inf
ROOT
ATOM      1  C   UNL     1       2.481 -10.182  -9.175  1.00  0.00     0.002 C 
ENDROOT
BRANCH   1   2
ATOM      2  C   UNL     1       2.636  -8.825  -8.482  1.00  0.00     0.021 C 
BRANCH   2   3
ATOM      3  C   UNL     1       1.307  -8.284  -7.945  1.00  0.00     0.116 C 
BRANCH   3   4
ATOM      4  N   UNL     1       1.005  -8.910  -6.673  1.00  0.00    -0.352 N 
ATOM      5  C   UNL     1       1.225  -8.505  -5.382  1.00  0.00     0.251 C 
ATOM      6  O   UNL     1       0.882  -9.262  -4.474  1.00  0.00    -0.269 OA
ATOM      7  H   UNL     1       0.560  -9.785  -6.751  1.00  0.00     0.163 HD
BRANCH   5   8
ATOM      8  C   UNL     1       1.792  -7.170  -5.045  1.00  0.00     0.039 A 
ATOM      9  C   UNL     1       2.611  -4.578  -4.370  1.00  0.00     0.052 A 
ATOM     10  C   UNL     1       1.881  -5.337  -3.451  1.00  0.00     0.027 A 
ATOM     11  C   UNL     1       2.987  -5.133  -5.588  1.00  0.00     0.027 A 
ATOM     12  C   UNL     1       1.442  -6.616  -3.806  1.00  0.00     0.016 A 
ATOM     13  C   UNL     1       2.641  -6.446  -5.884  1.00  0.00     0.016 A 
BRANCH   9  14
ATOM     14  N   UNL     1       2.996  -3.266  -4.075  1.00  0.00    -0.245 N 
ATOM     15  C   UNL     1       3.859  -1.423  -2.928  1.00  0.00     0.285 C 
ATOM     16  C   UNL     1       3.359  -0.976  -4.298  1.00  0.00     0.176 C 
ATOM     17  C   UNL     1       3.767  -2.941  -2.987  1.00  0.00     0.292 C 
ATOM     18  C   UNL     1       2.740  -2.199  -4.894  1.00  0.00     0.240 C 
ATOM     19  O   UNL     1       4.293  -3.711  -2.195  1.00  0.00    -0.267 OA
ATOM     20  O   UNL     1       2.123  -2.191  -5.951  1.00  0.00    -0.274 OA
BRANCH  15  21
ATOM     21  N   UNL     1       3.197  -0.931  -1.710  1.00  0.00    -0.315 N 
ATOM     22  N   UNL     1       0.818   0.897  -1.844  1.00  0.00    -0.326 N 
ATOM     23  C   UNL     1       2.188   1.399  -2.007  1.00  0.00     0.324 C 
ATOM     24  C   UNL     1       0.709  -0.546  -2.077  1.00  0.00     0.324 C 
ATOM     25  H   UNL     1       0.283   1.329  -2.598  1.00  0.00     0.348 HD
ATOM     26  C   UNL     1       3.330   0.509  -1.467  1.00  0.00     0.325 C 
ATOM     27  C   UNL     1       1.830  -1.397  -1.448  1.00  0.00     0.325 C 
ATOM     28  H   UNL     1       3.764  -1.409  -1.010  1.00  0.00     0.349 HD
BRANCH  22  29
ATOM     29  C   UNL     1       0.131   1.378  -0.643  1.00  0.00     0.259 C 
ATOM     30  C   UNL     1       0.422   0.676   0.678  1.00  0.00     0.071 C 
ENDBRANCH  22  29
ENDBRANCH  15  21
ENDBRANCH   9  14
ENDBRANCH   5   8
ENDBRANCH   3   4
ENDBRANCH   2   3
ENDBRANCH   1   2
BRANCH   1  31
ATOM     31  C   UNL     1       1.586 -10.149 -10.419  1.00  0.00     0.002 C 
BRANCH  31  32
ATOM     32  C   UNL     1       2.016  -9.134 -11.479  1.00  0.00     0.021 C 
BRANCH  32  33
ATOM     33  C   UNL     1       3.395  -9.415 -12.060  1.00  0.00     0.116 C 
BRANCH  33  34
ATOM     34  N   UNL     1       3.408 -10.662 -12.809  1.00  0.00    -0.352 N 
ATOM     35  C   UNL     1       3.750 -10.868 -14.123  1.00  0.00     0.251 C 
ATOM     36  H   UNL     1       3.136 -11.465 -12.307  1.00  0.00     0.163 HD
ATOM     37  O   UNL     1       3.478 -11.914 -14.691  1.00  0.00    -0.269 OA
BRANCH  35  38
ATOM     38  C   UNL     1       4.453  -9.788 -14.842  1.00  0.00     0.039 A 
ATOM     39  C   UNL     1       4.008  -9.402 -16.107  1.00  0.00     0.014 A 
ATOM     40  C   UNL     1       5.539  -9.148 -14.239  1.00  0.00     0.014 A 
ATOM     41  C   UNL     1       4.626  -8.329 -16.752  1.00  0.00     0.010 A 
ATOM     42  C   UNL     1       6.098  -8.033 -14.846  1.00  0.00     0.010 A 
ATOM     43  C   UNL     1       5.656  -7.620 -16.113  1.00  0.00    -0.014 A 
BRANCH  43  44
ATOM     44  C   UNL     1       6.328  -6.464 -16.753  1.00  0.00     0.031 A 
ATOM     45  C   UNL     1       7.797  -6.548 -17.062  1.00  0.00     0.074 A 
ATOM     46  C   UNL     1       5.651  -5.320 -16.964  1.00  0.00     0.049 A 
ATOM     47  N   UNL     1       8.617  -5.611 -17.462  1.00  0.00    -0.248 NA
ATOM     48  C   UNL     1       8.437  -7.858 -16.855  1.00  0.00     0.031 C 
ATOM     49  C   UNL     1       4.232  -5.110 -16.677  1.00  0.00     0.029 A 
ATOM     50  N   UNL     1       6.077  -4.108 -17.447  1.00  0.00    -0.354 N 
ATOM     51  C   UNL     1       9.868  -6.211 -17.527  1.00  0.00     0.074 A 
ATOM     52  C   UNL     1       9.711  -7.574 -17.073  1.00  0.00     0.031 C 
ATOM     53  C   UNL     1       3.901  -3.849 -16.999  1.00  0.00     0.029 A 
ATOM     54  C   UNL     1       5.094  -3.149 -17.468  1.00  0.00     0.049 A 
ATOM     55  H   UNL     1       6.999  -3.942 -17.749  1.00  0.00     0.167 HD
ATOM     56  C   UNL     1      11.037  -5.675 -17.948  1.00  0.00     0.037 A 
ATOM     57  C   UNL     1       5.157  -1.847 -17.807  1.00  0.00     0.037 A 
ATOM     58  C   UNL     1      11.177  -4.326 -18.426  1.00  0.00     0.049 A 
ATOM     59  C   UNL     1       6.474  -1.270 -18.257  1.00  0.00     0.074 A 
ATOM     60  C   UNL     1      12.305  -3.700 -18.925  1.00  0.00     0.029 A 
ATOM     61  N   UNL     1      10.150  -3.393 -18.464  1.00  0.00    -0.354 N 
ATOM     62  N   UNL     1       7.642  -1.857 -18.364  1.00  0.00    -0.248 NA
ATOM     63  C   UNL     1       6.481   0.149 -18.639  1.00  0.00     0.031 C 
ATOM     64  C   UNL     1      11.974  -2.373 -19.216  1.00  0.00     0.029 A 
ATOM     65  C   UNL     1      10.624  -2.190 -18.960  1.00  0.00     0.049 A 
ATOM     66  H   UNL     1       9.223  -3.561 -18.180  1.00  0.00     0.167 HD
ATOM     67  C   UNL     1       8.509  -0.895 -18.864  1.00  0.00     0.074 A 
ATOM     68  C   UNL     1       7.733   0.314 -19.042  1.00  0.00     0.031 C 
ATOM     69  C   UNL     1       9.829  -1.004 -19.155  1.00  0.00     0.037 A 
BRANCH  56  70
ATOM     70  C   UNL     1      12.258  -6.550 -17.907  1.00  0.00     0.064 A 
ATOM     71  C   UNL     1      12.403  -7.657 -18.757  1.00  0.00     0.173 A 
ATOM     72  C   UNL     1      13.310  -6.260 -17.025  1.00  0.00     0.173 A 
ATOM     73  F   UNL     1      11.421  -7.986 -19.611  1.00  0.00    -0.203 F 
ATOM     74  C   UNL     1      13.539  -8.461 -18.701  1.00  0.00     0.198 A 
ATOM     75  C   UNL     1      14.460  -7.044 -16.998  1.00  0.00     0.198 A 
ATOM     76  F   UNL     1      13.227  -5.210 -16.194  1.00  0.00    -0.203 F 
ATOM     77  F   UNL     1      13.628  -9.546 -19.483  1.00  0.00    -0.200 F 
ATOM     78  C   UNL     1      14.569  -8.149 -17.828  1.00  0.00     0.200 A 
ATOM     79  F   UNL     1      15.462  -6.732 -16.163  1.00  0.00    -0.200 F 
ATOM     80  F   UNL     1      15.665  -8.918 -17.781  1.00  0.00    -0.200 F 
ENDBRANCH  56  70
BRANCH  57  81
ATOM     81  C   UNL     1       3.935  -1.002 -17.749  1.00  0.00     0.064 A 
ATOM     82  C   UNL     1       3.346  -0.510 -18.923  1.00  0.00     0.173 A 
ATOM     83  C   UNL     1       3.337  -0.659 -16.528  1.00  0.00     0.173 A 
ATOM     84  F   UNL     1       3.891  -0.794 -20.115  1.00  0.00    -0.203 F 
ATOM     85  C   UNL     1       2.222   0.313 -18.875  1.00  0.00     0.198 A 
ATOM     86  C   UNL     1       2.195   0.138 -16.483  1.00  0.00     0.198 A 
ATOM     87  F   UNL     1       3.857  -1.108 -15.376  1.00  0.00    -0.203 F 
ATOM     88  F   UNL     1       1.712   0.811 -20.009  1.00  0.00    -0.200 F 
ATOM     89  C   UNL     1       1.645   0.632 -17.656  1.00  0.00     0.200 A 
ATOM     90  F   UNL     1       1.631   0.431 -15.303  1.00  0.00    -0.200 F 
ATOM     91  F   UNL     1       0.564   1.422 -17.610  1.00  0.00    -0.200 F 
ENDBRANCH  57  81
BRANCH  69  92
ATOM     92  C   UNL     1      10.509   0.189 -19.760  1.00  0.00     0.064 A 
ATOM     93  C   UNL     1      10.797   1.339 -19.012  1.00  0.00     0.173 A 
ATOM     94  C   UNL     1      10.941   0.149 -21.096  1.00  0.00     0.173 A 
ATOM     95  F   UNL     1      10.395   1.432 -17.735  1.00  0.00    -0.203 F 
ATOM     96  C   UNL     1      11.475   2.413 -19.584  1.00  0.00     0.198 A 
ATOM     97  C   UNL     1      11.646   1.210 -21.654  1.00  0.00     0.198 A 
ATOM     98  F   UNL     1      10.697  -0.932 -21.853  1.00  0.00    -0.203 F 
ATOM     99  F   UNL     1      11.704   3.519 -18.862  1.00  0.00    -0.200 F 
ATOM    100  C   UNL     1      11.908   2.343 -20.900  1.00  0.00     0.200 A 
ATOM    101  F   UNL     1      12.079   1.132 -22.920  1.00  0.00    -0.200 F 
ATOM    102  F   UNL     1      12.575   3.370 -21.442  1.00  0.00    -0.200 F 
ENDBRANCH  69  92
ENDBRANCH  43  44
ENDBRANCH  35  38
ENDBRANCH  33  34
ENDBRANCH  32  33
ENDBRANCH  31  32
ENDBRANCH   1  31
TORSDOF 16
