REMARK SMILES CO[C@@H]1C[C@@H](C(=O)NCCCCCCNC(=O)c2ccc(-c3c4nc(c(-c5c(F)c(F)c(F)c(F)c5F)c5ccc([nH]5)c(-c5c(F)c(F)c(F)c(F)c5F)c5nc(c(-c6c(F)c(F)c(F)c(F)c6F)c6ccc3[nH]6)C=C5)C=C4)cc2)N(S(=O)(=O)/C=C/c2ccccc2)C1
REMARK SMILES IDX 11 1 10 2 9 3 8 4 6 5 7 6 5 8 3 9 4 10 93 11 81 12 2 13 1 14
REMARK SMILES IDX 82 15 83 16 84 17 85 18 86 19 87 20 88 21 92 22 89 23 91 24
REMARK SMILES IDX 90 25 12 26 13 27 14 28 15 29 16 30 17 32 18 33 19 34 80 35
REMARK SMILES IDX 20 36 79 37 21 38 22 39 23 40 73 41 24 42 78 43 72 44 74 45
REMARK SMILES IDX 25 46 77 47 71 48 70 49 26 51 58 52 38 53 57 54 39 55 42 56
REMARK SMILES IDX 56 57 75 58 40 59 41 60 55 62 76 63 43 64 27 65 28 66 36 67
REMARK SMILES IDX 29 68 30 69 34 70 37 71 31 72 32 73 35 74 33 75 59 76 60 77
REMARK SMILES IDX 68 78 61 79 62 80 66 81 69 82 63 83 64 84 67 85 65 86 44 87
REMARK SMILES IDX 45 88 53 89 46 90 47 91 51 92 54 93 48 94 49 95 52 96 50 97
REMARK H PARENT 8 7 15 31 74 50 42 61
REMARK Flexibility Score: inf
ROOT
ATOM      1  C   UNL     1       6.982   0.213   2.535  1.00  0.00     0.002 C 
ENDROOT
BRANCH   1   2
ATOM      2  C   UNL     1       5.472   0.368   2.764  1.00  0.00     0.021 C 
BRANCH   2   3
ATOM      3  C   UNL     1       4.705   0.795   1.521  1.00  0.00     0.116 C 
BRANCH   3   4
ATOM      4  N   UNL     1       4.838  -0.183   0.475  1.00  0.00    -0.355 N 
ATOM      5  C   UNL     1       4.016  -1.104  -0.055  1.00  0.00     0.238 C 
ATOM      6  O   UNL     1       4.474  -1.635  -1.070  1.00  0.00    -0.273 OA
ATOM      7  H   UNL     1       5.729  -0.175   0.054  1.00  0.00     0.163 HD
BRANCH   5   8
ATOM      8  C   UNL     1       2.586  -1.382   0.365  1.00  0.00     0.165 C 
ATOM      9  C   UNL     1       0.640  -1.516   1.741  1.00  0.00     0.135 C 
ATOM     10  C   UNL     1       2.054  -0.954   1.726  1.00  0.00     0.064 C 
ATOM     11  C   UNL     1       0.693  -2.771   0.859  1.00  0.00     0.135 C 
ATOM     12  N   UNL     1       2.053  -2.784   0.190  1.00  0.00    -0.183 NA
BRANCH   9  13
ATOM     13  O   UNL     1      -0.366  -0.562   1.373  1.00  0.00    -0.380 OA
ATOM     14  C   UNL     1      -0.224   0.131   0.142  1.00  0.00     0.195 C 
ENDBRANCH   9  13
BRANCH  12  15
ATOM     15  S   UNL     1       3.025  -4.101   0.731  1.00  0.00     0.237 S 
ATOM     16  O   UNL     1       3.519  -3.704   2.035  1.00  0.00    -0.207 OA
ATOM     17  O   UNL     1       2.183  -5.279   0.628  1.00  0.00    -0.207 OA
BRANCH  15  18
ATOM     18  C   UNL     1       4.383  -4.364  -0.299  1.00  0.00     0.123 C 
ATOM     19  C   UNL     1       4.262  -4.384  -1.635  1.00  0.00     0.021 C 
BRANCH  19  20
ATOM     20  C   UNL     1       5.458  -4.513  -2.475  1.00  0.00    -0.025 A 
ATOM     21  C   UNL     1       5.991  -3.382  -3.108  1.00  0.00     0.008 A 
ATOM     22  C   UNL     1       6.114  -5.738  -2.614  1.00  0.00     0.008 A 
ATOM     23  C   UNL     1       7.174  -3.465  -3.844  1.00  0.00     0.001 A 
ATOM     24  C   UNL     1       7.290  -5.825  -3.366  1.00  0.00     0.001 A 
ATOM     25  C   UNL     1       7.823  -4.688  -3.973  1.00  0.00     0.000 A 
ENDBRANCH  19  20
ENDBRANCH  15  18
ENDBRANCH  12  15
ENDBRANCH   5   8
ENDBRANCH   3   4
ENDBRANCH   2   3
ENDBRANCH   1   2
BRANCH   1  26
ATOM     26  C   UNL     1       7.667   1.393   1.834  1.00  0.00     0.002 C 
BRANCH  26  27
ATOM     27  C   UNL     1       7.374   2.769   2.435  1.00  0.00     0.021 C 
BRANCH  27  28
ATOM     28  C   UNL     1       7.706   2.889   3.912  1.00  0.00     0.116 C 
BRANCH  28  29
ATOM     29  N   UNL     1       9.131   2.779   4.154  1.00  0.00    -0.352 N 
ATOM     30  C   UNL     1       9.930   3.598   4.909  1.00  0.00     0.251 C 
ATOM     31  H   UNL     1       9.583   2.020   3.720  1.00  0.00     0.163 HD
ATOM     32  O   UNL     1      11.151   3.501   4.853  1.00  0.00    -0.269 OA
BRANCH  30  33
ATOM     33  C   UNL     1       9.306   4.614   5.781  1.00  0.00     0.039 A 
ATOM     34  C   UNL     1       9.848   5.900   5.809  1.00  0.00     0.014 A 
ATOM     35  C   UNL     1       8.200   4.295   6.576  1.00  0.00     0.014 A 
ATOM     36  C   UNL     1       9.267   6.874   6.620  1.00  0.00     0.010 A 
ATOM     37  C   UNL     1       7.573   5.287   7.320  1.00  0.00     0.010 A 
ATOM     38  C   UNL     1       8.118   6.578   7.372  1.00  0.00    -0.014 A 
BRANCH  38  39
ATOM     39  C   UNL     1       7.510   7.596   8.261  1.00  0.00     0.031 A 
ATOM     40  C   UNL     1       7.508   7.387   9.749  1.00  0.00     0.074 A 
ATOM     41  C   UNL     1       6.925   8.684   7.727  1.00  0.00     0.049 A 
ATOM     42  N   UNL     1       7.011   8.146  10.693  1.00  0.00    -0.248 NA
ATOM     43  C   UNL     1       8.118   6.141  10.241  1.00  0.00     0.031 C 
ATOM     44  C   UNL     1       6.807   8.963   6.296  1.00  0.00     0.029 A 
ATOM     45  N   UNL     1       6.312   9.754   8.328  1.00  0.00    -0.354 N 
ATOM     46  C   UNL     1       7.239   7.465  11.882  1.00  0.00     0.074 A 
ATOM     47  C   UNL     1       7.853   6.202  11.536  1.00  0.00     0.031 C 
ATOM     48  C   UNL     1       6.178  10.137   6.129  1.00  0.00     0.029 A 
ATOM     49  C   UNL     1       5.826  10.679   7.438  1.00  0.00     0.049 A 
ATOM     50  H   UNL     1       6.228   9.849   9.305  1.00  0.00     0.167 HD
ATOM     51  C   UNL     1       6.988   7.869  13.150  1.00  0.00     0.037 A 
ATOM     52  C   UNL     1       5.171  11.834   7.657  1.00  0.00     0.037 A 
ATOM     53  C   UNL     1       6.395   9.136  13.487  1.00  0.00     0.049 A 
ATOM     54  C   UNL     1       4.925  12.278   9.073  1.00  0.00     0.074 A 
ATOM     55  C   UNL     1       6.149   9.671  14.738  1.00  0.00     0.029 A 
ATOM     56  N   UNL     1       5.950  10.068  12.559  1.00  0.00    -0.354 N 
ATOM     57  N   UNL     1       5.216  11.664  10.194  1.00  0.00    -0.248 NA
ATOM     58  C   UNL     1       4.276  13.583   9.254  1.00  0.00     0.031 C 
ATOM     59  C   UNL     1       5.514  10.907  14.568  1.00  0.00     0.029 A 
ATOM     60  C   UNL     1       5.413  11.167  13.210  1.00  0.00     0.049 A 
ATOM     61  H   UNL     1       6.008   9.963  11.582  1.00  0.00     0.167 HD
ATOM     62  C   UNL     1       4.807  12.514  11.213  1.00  0.00     0.074 A 
ATOM     63  C   UNL     1       4.264  13.696  10.575  1.00  0.00     0.031 C 
ATOM     64  C   UNL     1       4.874  12.332  12.556  1.00  0.00     0.037 A 
BRANCH  51  65
ATOM     65  C   UNL     1       7.358   6.925  14.258  1.00  0.00     0.064 A 
ATOM     66  C   UNL     1       8.698   6.618  14.549  1.00  0.00     0.173 A 
ATOM     67  C   UNL     1       6.365   6.314  15.039  1.00  0.00     0.173 A 
ATOM     68  F   UNL     1       9.688   7.163  13.826  1.00  0.00    -0.203 F 
ATOM     69  C   UNL     1       9.025   5.703  15.546  1.00  0.00     0.198 A 
ATOM     70  C   UNL     1       6.698   5.426  16.059  1.00  0.00     0.198 A 
ATOM     71  F   UNL     1       5.069   6.574  14.809  1.00  0.00    -0.203 F 
ATOM     72  F   UNL     1      10.308   5.375  15.757  1.00  0.00    -0.200 F 
ATOM     73  C   UNL     1       8.026   5.112  16.303  1.00  0.00     0.200 A 
ATOM     74  F   UNL     1       5.731   4.865  16.798  1.00  0.00    -0.200 F 
ATOM     75  F   UNL     1       8.342   4.229  17.261  1.00  0.00    -0.200 F 
ENDBRANCH  51  65
BRANCH  52  76
ATOM     76  C   UNL     1       4.739  12.660   6.501  1.00  0.00     0.064 A 
ATOM     77  C   UNL     1       5.372  13.873   6.201  1.00  0.00     0.173 A 
ATOM     78  C   UNL     1       3.703  12.238   5.655  1.00  0.00     0.173 A 
ATOM     79  F   UNL     1       6.358  14.327   6.990  1.00  0.00    -0.203 F 
ATOM     80  C   UNL     1       4.978  14.640   5.107  1.00  0.00     0.198 A 
ATOM     81  C   UNL     1       3.327  12.991   4.545  1.00  0.00     0.198 A 
ATOM     82  F   UNL     1       3.072  11.079   5.894  1.00  0.00    -0.203 F 
ATOM     83  F   UNL     1       5.578  15.813   4.862  1.00  0.00    -0.200 F 
ATOM     84  C   UNL     1       3.961  14.195   4.275  1.00  0.00     0.200 A 
ATOM     85  F   UNL     1       2.356  12.548   3.735  1.00  0.00    -0.200 F 
ATOM     86  F   UNL     1       3.590  14.926   3.216  1.00  0.00    -0.200 F 
ENDBRANCH  52  76
BRANCH  64  87
ATOM     87  C   UNL     1       4.369  13.449  13.423  1.00  0.00     0.064 A 
ATOM     88  C   UNL     1       3.001  13.738  13.529  1.00  0.00     0.173 A 
ATOM     89  C   UNL     1       5.264  14.216  14.184  1.00  0.00     0.173 A 
ATOM     90  F   UNL     1       2.106  13.042  12.812  1.00  0.00    -0.203 F 
ATOM     91  C   UNL     1       2.550  14.774  14.343  1.00  0.00     0.198 A 
ATOM     92  C   UNL     1       4.807  15.231  15.020  1.00  0.00     0.198 A 
ATOM     93  F   UNL     1       6.582  13.976  14.124  1.00  0.00    -0.203 F 
ATOM     94  F   UNL     1       1.243  15.066  14.389  1.00  0.00    -0.200 F 
ATOM     95  C   UNL     1       3.452  15.515  15.092  1.00  0.00     0.200 A 
ATOM     96  F   UNL     1       5.679  15.937  15.754  1.00  0.00    -0.200 F 
ATOM     97  F   UNL     1       3.015  16.509  15.878  1.00  0.00    -0.200 F 
ENDBRANCH  64  87
ENDBRANCH  38  39
ENDBRANCH  30  33
ENDBRANCH  28  29
ENDBRANCH  27  28
ENDBRANCH  26  27
ENDBRANCH   1  26
TORSDOF 17
