REMARK SMILES O=C(/C=C/c1ccc(I)cc1)NCCCCCCNC(=O)c1ccc(-c2c3nc(c(-c4c(F)c(F)c(F)c(F)c4F)c4ccc([nH]4)c(-c4c(F)c(F)c(F)c(F)c4F)c4nc(c(-c5c(F)c(F)c(F)c(F)c5F)c5ccc2[nH]5)C=C4)C=C3)cc1
REMARK SMILES IDX 16 1 15 2 14 3 13 4 12 5 1 6 2 7 3 9 4 10 5 11 6 12 11 13
REMARK SMILES IDX 7 14 10 15 8 16 9 17 17 18 18 19 19 20 20 21 21 23 22 24
REMARK SMILES IDX 23 25 84 26 24 27 83 28 25 29 26 30 27 31 77 32 28 33 82 34
REMARK SMILES IDX 76 35 78 36 29 37 81 38 75 39 74 40 30 42 62 43 42 44 61 45
REMARK SMILES IDX 43 46 46 47 60 48 79 49 44 50 45 51 59 53 80 54 47 55 31 56
REMARK SMILES IDX 32 57 40 58 33 59 34 60 38 61 41 62 35 63 36 64 39 65 37 66
REMARK SMILES IDX 63 67 64 68 72 69 65 70 66 71 70 72 73 73 67 74 68 75 71 76
REMARK SMILES IDX 69 77 48 78 49 79 57 80 50 81 51 82 55 83 58 84 52 85 53 86
REMARK SMILES IDX 56 87 54 88
REMARK H PARENT 12 8 19 22 78 41 46 52
REMARK Flexibility Score: inf
ROOT
ATOM      1  C   UNL     1       4.607   4.099   0.782  1.00  0.00     0.002 C 
ENDROOT
BRANCH   1   2
ATOM      2  C   UNL     1       4.138   3.060   1.805  1.00  0.00     0.002 C 
BRANCH   2   3
ATOM      3  C   UNL     1       2.637   2.740   1.779  1.00  0.00     0.021 C 
BRANCH   3   4
ATOM      4  C   UNL     1       2.115   2.244   0.430  1.00  0.00     0.116 C 
BRANCH   4   5
ATOM      5  N   UNL     1       2.775   1.023   0.017  1.00  0.00    -0.353 N 
ATOM      6  O   UNL     1       0.956  -0.348   0.295  1.00  0.00    -0.270 OA
ATOM      7  C   UNL     1       2.141  -0.190   0.028  1.00  0.00     0.243 C 
ATOM      8  H   UNL     1       3.712   1.067  -0.283  1.00  0.00     0.163 HD
BRANCH   7   9
ATOM      9  C   UNL     1       2.964  -1.366  -0.354  1.00  0.00     0.072 C 
ATOM     10  C   UNL     1       4.303  -1.446  -0.287  1.00  0.00     0.014 C 
BRANCH  10  11
ATOM     11  C   UNL     1       5.046  -2.675  -0.602  1.00  0.00    -0.025 A 
ATOM     12  C   UNL     1       4.690  -3.513  -1.668  1.00  0.00     0.009 A 
ATOM     13  C   UNL     1       6.171  -3.002   0.168  1.00  0.00     0.009 A 
ATOM     14  C   UNL     1       5.423  -4.673  -1.937  1.00  0.00     0.015 A 
ATOM     15  C   UNL     1       6.905  -4.161  -0.099  1.00  0.00     0.015 A 
ATOM     16  C   UNL     1       6.525  -4.995  -1.148  1.00  0.00     0.013 A 
ATOM     17  I   UNL     1       7.606  -6.726  -1.539  1.00  0.00    -0.044 I 
ENDBRANCH  10  11
ENDBRANCH   7   9
ENDBRANCH   4   5
ENDBRANCH   3   4
ENDBRANCH   2   3
ENDBRANCH   1   2
BRANCH   1  18
ATOM     18  C   UNL     1       3.918   5.462   0.869  1.00  0.00     0.021 C 
BRANCH  18  19
ATOM     19  C   UNL     1       4.053   6.169   2.215  1.00  0.00     0.116 C 
BRANCH  19  20
ATOM     20  N   UNL     1       5.433   6.504   2.534  1.00  0.00    -0.352 N 
ATOM     21  C   UNL     1       5.975   7.704   2.920  1.00  0.00     0.251 C 
ATOM     22  H   UNL     1       6.072   5.759   2.462  1.00  0.00     0.163 HD
ATOM     23  O   UNL     1       7.196   7.834   2.991  1.00  0.00    -0.269 OA
BRANCH  21  24
ATOM     24  C   UNL     1       5.097   8.854   3.226  1.00  0.00     0.039 A 
ATOM     25  C   UNL     1       5.440  10.115   2.729  1.00  0.00     0.014 A 
ATOM     26  C   UNL     1       3.946   8.698   4.003  1.00  0.00     0.014 A 
ATOM     27  C   UNL     1       4.593  11.203   2.952  1.00  0.00     0.010 A 
ATOM     28  C   UNL     1       3.066   9.767   4.162  1.00  0.00     0.010 A 
ATOM     29  C   UNL     1       3.379  11.030   3.637  1.00  0.00    -0.014 A 
BRANCH  29  30
ATOM     30  C   UNL     1       2.421  12.154   3.799  1.00  0.00     0.031 A 
ATOM     31  C   UNL     1       2.083  12.677   5.167  1.00  0.00     0.074 A 
ATOM     32  C   UNL     1       1.806  12.664   2.713  1.00  0.00     0.049 A 
ATOM     33  N   UNL     1       1.228  13.608   5.511  1.00  0.00    -0.248 NA
ATOM     34  C   UNL     1       2.779  12.053   6.303  1.00  0.00     0.031 C 
ATOM     35  C   UNL     1       2.011  12.213   1.336  1.00  0.00     0.029 A 
ATOM     36  N   UNL     1       0.875  13.667   2.598  1.00  0.00    -0.354 N 
ATOM     37  C   UNL     1       1.276  13.672   6.897  1.00  0.00     0.074 A 
ATOM     38  C   UNL     1       2.202  12.650   7.336  1.00  0.00     0.031 C 
ATOM     39  C   UNL     1       1.248  12.949   0.513  1.00  0.00     0.029 A 
ATOM     40  C   UNL     1       0.470  13.896   1.306  1.00  0.00     0.049 A 
ATOM     41  H   UNL     1       0.530  14.173   3.369  1.00  0.00     0.167 HD
ATOM     42  C   UNL     1       0.625  14.522   7.728  1.00  0.00     0.037 A 
ATOM     43  C   UNL     1      -0.435  14.765   0.815  1.00  0.00     0.037 A 
ATOM     44  C   UNL     1      -0.282  15.550   7.287  1.00  0.00     0.049 A 
ATOM     45  C   UNL     1      -1.156  15.687   1.760  1.00  0.00     0.074 A 
ATOM     46  C   UNL     1      -0.945  16.499   8.045  1.00  0.00     0.029 A 
ATOM     47  N   UNL     1      -0.660  15.759   5.968  1.00  0.00    -0.354 N 
ATOM     48  N   UNL     1      -1.047  15.789   3.063  1.00  0.00    -0.248 NA
ATOM     49  C   UNL     1      -2.123  16.621   1.166  1.00  0.00     0.031 C 
ATOM     50  C   UNL     1      -1.765  17.247   7.194  1.00  0.00     0.029 A 
ATOM     51  C   UNL     1      -1.568  16.804   5.896  1.00  0.00     0.049 A 
ATOM     52  H   UNL     1      -0.331  15.241   5.198  1.00  0.00     0.167 HD
ATOM     53  C   UNL     1      -1.905  16.814   3.439  1.00  0.00     0.074 A 
ATOM     54  C   UNL     1      -2.516  17.313   2.225  1.00  0.00     0.031 C 
ATOM     55  C   UNL     1      -2.163  17.297   4.679  1.00  0.00     0.037 A 
BRANCH  42  56
ATOM     56  C   UNL     1       0.870  14.378   9.203  1.00  0.00     0.064 A 
ATOM     57  C   UNL     1       2.107  14.705   9.780  1.00  0.00     0.173 A 
ATOM     58  C   UNL     1      -0.156  13.946  10.057  1.00  0.00     0.173 A 
ATOM     59  F   UNL     1       3.126  15.114   9.008  1.00  0.00    -0.203 F 
ATOM     60  C   UNL     1       2.317  14.575  11.151  1.00  0.00     0.198 A 
ATOM     61  C   UNL     1       0.047  13.849  11.431  1.00  0.00     0.198 A 
ATOM     62  F   UNL     1      -1.361  13.628   9.561  1.00  0.00    -0.203 F 
ATOM     63  F   UNL     1       3.522  14.844  11.671  1.00  0.00    -0.200 F 
ATOM     64  C   UNL     1       1.285  14.155  11.976  1.00  0.00     0.200 A 
ATOM     65  F   UNL     1      -0.956  13.458  12.229  1.00  0.00    -0.200 F 
ATOM     66  F   UNL     1       1.485  14.039  13.296  1.00  0.00    -0.200 F 
ENDBRANCH  42  56
BRANCH  43  67
ATOM     67  C   UNL     1      -0.696  14.819  -0.648  1.00  0.00     0.064 A 
ATOM     68  C   UNL     1      -0.314  15.934  -1.407  1.00  0.00     0.173 A 
ATOM     69  C   UNL     1      -1.337  13.765  -1.316  1.00  0.00     0.173 A 
ATOM     70  F   UNL     1       0.283  16.977  -0.810  1.00  0.00    -0.203 F 
ATOM     71  C   UNL     1      -0.582  16.003  -2.772  1.00  0.00     0.198 A 
ATOM     72  C   UNL     1      -1.577  13.822  -2.687  1.00  0.00     0.198 A 
ATOM     73  F   UNL     1      -1.718  12.673  -0.638  1.00  0.00    -0.203 F 
ATOM     74  F   UNL     1      -0.251  17.102  -3.463  1.00  0.00    -0.200 F 
ATOM     75  C   UNL     1      -1.208  14.944  -3.413  1.00  0.00     0.200 A 
ATOM     76  F   UNL     1      -2.167  12.790  -3.305  1.00  0.00    -0.200 F 
ATOM     77  F   UNL     1      -1.463  15.009  -4.726  1.00  0.00    -0.200 F 
ENDBRANCH  43  67
BRANCH  55  78
ATOM     78  C   UNL     1      -3.121  18.449   4.785  1.00  0.00     0.064 A 
ATOM     79  C   UNL     1      -4.495  18.291   4.554  1.00  0.00     0.173 A 
ATOM     80  C   UNL     1      -2.660  19.721   5.158  1.00  0.00     0.173 A 
ATOM     81  F   UNL     1      -4.985  17.100   4.180  1.00  0.00    -0.203 F 
ATOM     82  C   UNL     1      -5.369  19.370   4.666  1.00  0.00     0.198 A 
ATOM     83  C   UNL     1      -3.541  20.790   5.302  1.00  0.00     0.198 A 
ATOM     84  F   UNL     1      -1.356  19.925   5.397  1.00  0.00    -0.203 F 
ATOM     85  F   UNL     1      -6.670  19.208   4.391  1.00  0.00    -0.200 F 
ATOM     86  C   UNL     1      -4.892  20.616   5.048  1.00  0.00     0.200 A 
ATOM     87  F   UNL     1      -3.080  21.988   5.686  1.00  0.00    -0.200 F 
ATOM     88  F   UNL     1      -5.736  21.651   5.163  1.00  0.00    -0.200 F 
ENDBRANCH  55  78
ENDBRANCH  29  30
ENDBRANCH  21  24
ENDBRANCH  19  20
ENDBRANCH  18  19
ENDBRANCH   1  18
TORSDOF 14
