REMARK SMILES Cc1ccc(-c2cc(Cl)ccc2Cl)c(C(=O)NCCCCCCNC(=O)c2ccc(-c3c4nc(c(-c5c(F)c(F)c(F)c(F)c5F)c5ccc([nH]5)c(-c5c(F)c(F)c(F)c(F)c5F)c5nc(c(-c6c(F)c(F)c(F)c(F)c6F)c6ccc3[nH]6)C=C5)C=C4)cc2)c1
REMARK SMILES IDX 21 1 20 2 19 3 18 4 17 5 15 6 16 7 14 9 1 10 2 11 3 12 90 13
REMARK SMILES IDX 4 14 5 15 6 16 7 17 12 18 8 19 11 20 13 21 9 22 10 23 22 24
REMARK SMILES IDX 23 25 24 26 25 27 26 29 27 30 28 31 89 32 29 33 88 34 30 35
REMARK SMILES IDX 31 36 32 37 82 38 33 39 87 40 81 41 83 42 34 43 86 44 80 45
REMARK SMILES IDX 79 46 35 48 67 49 47 50 66 51 48 52 51 53 65 54 84 55 49 56
REMARK SMILES IDX 50 57 64 59 85 60 52 61 36 62 37 63 45 64 38 65 39 66 43 67
REMARK SMILES IDX 46 68 40 69 41 70 44 71 42 72 68 73 69 74 77 75 70 76 71 77
REMARK SMILES IDX 75 78 78 79 72 80 73 81 76 82 74 83 53 84 54 85 62 86 55 87
REMARK SMILES IDX 56 88 60 89 63 90 57 91 58 92 61 93 59 94
REMARK H PARENT 17 8 24 28 83 47 51 58
REMARK Flexibility Score: inf
ROOT
ATOM      1  C   UNL     1       0.420   7.074   0.252  1.00  0.00     0.002 C 
ENDROOT
BRANCH   1   2
ATOM      2  C   UNL     1       0.299   6.115  -0.946  1.00  0.00     0.002 C 
BRANCH   2   3
ATOM      3  C   UNL     1       0.793   4.674  -0.723  1.00  0.00     0.021 C 
BRANCH   3   4
ATOM      4  C   UNL     1       0.184   3.972   0.495  1.00  0.00     0.116 C 
BRANCH   4   5
ATOM      5  N   UNL     1      -1.175   3.559   0.222  1.00  0.00    -0.352 N 
ATOM      6  C   UNL     1      -1.811   2.376  -0.053  1.00  0.00     0.251 C 
ATOM      7  O   UNL     1      -3.028   2.498  -0.191  1.00  0.00    -0.269 OA
ATOM      8  H   UNL     1      -1.802   4.319   0.237  1.00  0.00     0.163 HD
BRANCH   6   9
ATOM      9  C   UNL     1      -1.145   1.024  -0.151  1.00  0.00     0.047 A 
ATOM     10  C   UNL     1       2.400  -0.424  -0.351  1.00  0.00     0.044 C 
ATOM     11  C   UNL     1       0.904  -0.337  -0.266  1.00  0.00    -0.050 A 
ATOM     12  C   UNL     1       0.151  -1.497  -0.117  1.00  0.00     0.004 A 
ATOM     13  C   UNL     1       0.244   0.901  -0.339  1.00  0.00     0.018 A 
ATOM     14  C   UNL     1      -1.237  -1.416  -0.048  1.00  0.00     0.010 A 
ATOM     15  C   UNL     1      -1.912  -0.174  -0.059  1.00  0.00    -0.004 A 
BRANCH  15  16
ATOM     16  C   UNL     1      -3.392  -0.217  -0.031  1.00  0.00     0.003 A 
ATOM     17  C   UNL     1      -4.105   0.122  -1.201  1.00  0.00     0.030 A 
ATOM     18  C   UNL     1      -4.136  -0.593   1.105  1.00  0.00     0.049 A 
ATOM     19  C   UNL     1      -5.499   0.151  -1.212  1.00  0.00     0.041 A 
ATOM     20  C   UNL     1      -5.537  -0.597   1.075  1.00  0.00     0.023 A 
ATOM     21  Cl  UNL     1      -3.375  -1.057   2.589  1.00  0.00    -0.084 Cl
ATOM     22  Cl  UNL     1      -6.332   0.655  -2.631  1.00  0.00    -0.084 Cl
ATOM     23  C   UNL     1      -6.219  -0.211  -0.080  1.00  0.00     0.022 A 
ENDBRANCH  15  16
ENDBRANCH   6   9
ENDBRANCH   4   5
ENDBRANCH   3   4
ENDBRANCH   2   3
ENDBRANCH   1   2
BRANCH   1  24
ATOM     24  C   UNL     1       1.757   7.054   1.001  1.00  0.00     0.021 C 
BRANCH  24  25
ATOM     25  C   UNL     1       2.919   7.631   0.202  1.00  0.00     0.116 C 
BRANCH  25  26
ATOM     26  N   UNL     1       3.425   8.893   0.732  1.00  0.00    -0.352 N 
ATOM     27  C   UNL     1       4.376   9.742   0.191  1.00  0.00     0.251 C 
ATOM     28  H   UNL     1       3.038   9.180   1.590  1.00  0.00     0.163 HD
ATOM     29  O   UNL     1       4.691  10.776   0.755  1.00  0.00    -0.269 OA
BRANCH  27  30
ATOM     30  C   UNL     1       4.913   9.429  -1.153  1.00  0.00     0.039 A 
ATOM     31  C   UNL     1       4.786  10.402  -2.150  1.00  0.00     0.014 A 
ATOM     32  C   UNL     1       5.309   8.132  -1.471  1.00  0.00     0.014 A 
ATOM     33  C   UNL     1       4.812  10.009  -3.485  1.00  0.00     0.010 A 
ATOM     34  C   UNL     1       5.253   7.726  -2.791  1.00  0.00     0.010 A 
ATOM     35  C   UNL     1       4.929   8.650  -3.790  1.00  0.00    -0.014 A 
BRANCH  35  36
ATOM     36  C   UNL     1       4.562   8.104  -5.093  1.00  0.00     0.031 A 
ATOM     37  C   UNL     1       5.585   7.656  -6.057  1.00  0.00     0.074 A 
ATOM     38  C   UNL     1       3.256   7.973  -5.418  1.00  0.00     0.049 A 
ATOM     39  N   UNL     1       5.400   7.652  -7.335  1.00  0.00    -0.248 NA
ATOM     40  C   UNL     1       6.910   7.195  -5.661  1.00  0.00     0.031 C 
ATOM     41  C   UNL     1       2.699   7.270  -6.572  1.00  0.00     0.029 A 
ATOM     42  N   UNL     1       2.158   8.652  -4.863  1.00  0.00    -0.354 N 
ATOM     43  C   UNL     1       6.446   6.973  -7.905  1.00  0.00     0.074 A 
ATOM     44  C   UNL     1       7.390   6.754  -6.830  1.00  0.00     0.031 C 
ATOM     45  C   UNL     1       1.489   7.782  -6.843  1.00  0.00     0.029 A 
ATOM     46  C   UNL     1       1.281   8.902  -5.946  1.00  0.00     0.049 A 
ATOM     47  H   UNL     1       2.027   8.901  -3.919  1.00  0.00     0.167 HD
ATOM     48  C   UNL     1       6.365   6.563  -9.201  1.00  0.00     0.037 A 
ATOM     49  C   UNL     1       0.974  10.176  -6.323  1.00  0.00     0.037 A 
ATOM     50  C   UNL     1       5.116   6.956  -9.840  1.00  0.00     0.049 A 
ATOM     51  C   UNL     1       1.378  10.538  -7.737  1.00  0.00     0.074 A 
ATOM     52  C   UNL     1       3.924   6.309 -10.126  1.00  0.00     0.029 A 
ATOM     53  N   UNL     1       4.868   8.302 -10.031  1.00  0.00    -0.354 N 
ATOM     54  N   UNL     1       2.011   9.741  -8.552  1.00  0.00    -0.248 NA
ATOM     55  C   UNL     1       1.195  11.877  -8.301  1.00  0.00     0.031 C 
ATOM     56  C   UNL     1       2.964   7.287 -10.512  1.00  0.00     0.029 A 
ATOM     57  C   UNL     1       3.574   8.525 -10.457  1.00  0.00     0.049 A 
ATOM     58  H   UNL     1       5.532   9.014  -9.882  1.00  0.00     0.167 HD
ATOM     59  C   UNL     1       2.374  10.439  -9.675  1.00  0.00     0.074 A 
ATOM     60  C   UNL     1       1.838  11.770  -9.475  1.00  0.00     0.031 C 
ATOM     61  C   UNL     1       3.133   9.891 -10.666  1.00  0.00     0.037 A 
BRANCH  48  62
ATOM     62  C   UNL     1       7.362   5.616  -9.805  1.00  0.00     0.064 A 
ATOM     63  C   UNL     1       6.955   4.572 -10.658  1.00  0.00     0.173 A 
ATOM     64  C   UNL     1       8.742   5.681  -9.539  1.00  0.00     0.173 A 
ATOM     65  F   UNL     1       5.680   4.440 -11.043  1.00  0.00    -0.203 F 
ATOM     66  C   UNL     1       7.848   3.607 -11.127  1.00  0.00     0.198 A 
ATOM     67  C   UNL     1       9.625   4.684  -9.962  1.00  0.00     0.198 A 
ATOM     68  F   UNL     1       9.265   6.718  -8.868  1.00  0.00    -0.203 F 
ATOM     69  F   UNL     1       7.406   2.627 -11.928  1.00  0.00    -0.200 F 
ATOM     70  C   UNL     1       9.175   3.641 -10.749  1.00  0.00     0.200 A 
ATOM     71  F   UNL     1      10.912   4.733  -9.590  1.00  0.00    -0.200 F 
ATOM     72  F   UNL     1      10.018   2.679 -11.147  1.00  0.00    -0.200 F 
ENDBRANCH  48  62
BRANCH  49  73
ATOM     73  C   UNL     1       0.935  11.122  -5.178  1.00  0.00     0.064 A 
ATOM     74  C   UNL     1      -0.011  10.899  -4.157  1.00  0.00     0.173 A 
ATOM     75  C   UNL     1       1.999  11.985  -4.899  1.00  0.00     0.173 A 
ATOM     76  F   UNL     1      -1.049  10.075  -4.372  1.00  0.00    -0.203 F 
ATOM     77  C   UNL     1       0.166  11.425  -2.880  1.00  0.00     0.198 A 
ATOM     78  C   UNL     1       2.161  12.527  -3.623  1.00  0.00     0.198 A 
ATOM     79  F   UNL     1       2.943  12.219  -5.820  1.00  0.00    -0.203 F 
ATOM     80  F   UNL     1      -0.689  11.101  -1.899  1.00  0.00    -0.200 F 
ATOM     81  C   UNL     1       1.267  12.219  -2.608  1.00  0.00     0.200 A 
ATOM     82  F   UNL     1       3.238  13.278  -3.354  1.00  0.00    -0.200 F 
ATOM     83  F   UNL     1       1.487  12.655  -1.360  1.00  0.00    -0.200 F 
ENDBRANCH  49  73
BRANCH  61  84
ATOM     84  C   UNL     1       3.533  10.617 -11.919  1.00  0.00     0.064 A 
ATOM     85  C   UNL     1       2.627  11.389 -12.663  1.00  0.00     0.173 A 
ATOM     86  C   UNL     1       4.818  10.455 -12.482  1.00  0.00     0.173 A 
ATOM     87  F   UNL     1       1.361  11.547 -12.250  1.00  0.00    -0.203 F 
ATOM     88  C   UNL     1       2.997  11.998 -13.864  1.00  0.00     0.198 A 
ATOM     89  C   UNL     1       5.168  11.020 -13.706  1.00  0.00     0.198 A 
ATOM     90  F   UNL     1       5.776   9.762 -11.850  1.00  0.00    -0.203 F 
ATOM     91  F   UNL     1       2.117  12.770 -14.517  1.00  0.00    -0.200 F 
ATOM     92  C   UNL     1       4.263  11.804 -14.391  1.00  0.00     0.200 A 
ATOM     93  F   UNL     1       6.390  10.802 -14.213  1.00  0.00    -0.200 F 
ATOM     94  F   UNL     1       4.608  12.370 -15.555  1.00  0.00    -0.200 F 
ENDBRANCH  61  84
ENDBRANCH  35  36
ENDBRANCH  27  30
ENDBRANCH  25  26
ENDBRANCH  24  25
ENDBRANCH   1  24
TORSDOF 14
