REMARK SMILES Cc1ccc(C(=O)N2CCC(CC(=O)NCCCCCCNC(=O)c3ccc(-c4c5nc(c(-c6c(F)c(F)c(F)c(F)c6F)c6ccc([nH]6)c(-c6c(F)c(F)c(F)c(F)c6F)c6nc(c(-c7c(F)c(F)c(F)c(F)c7F)c7ccc4[nH]7)C=C6)C=C5)cc3)CC2)cn1
REMARK SMILES IDX 18 1 17 2 16 3 15 4 13 5 14 6 12 8 11 9 6 10 7 11 8 12 9 13
REMARK SMILES IDX 89 14 10 15 88 16 5 17 1 18 2 19 3 20 91 21 4 22 90 23 19 24
REMARK SMILES IDX 20 25 21 26 22 27 23 28 24 30 25 31 26 32 87 33 27 34 86 35
REMARK SMILES IDX 28 36 29 37 30 38 80 39 31 40 85 41 79 42 81 43 32 44 84 45
REMARK SMILES IDX 78 46 77 47 33 49 65 50 45 51 64 52 46 53 49 54 63 55 82 56
REMARK SMILES IDX 47 57 48 58 62 60 83 61 50 62 34 63 35 64 43 65 36 66 37 67
REMARK SMILES IDX 41 68 44 69 38 70 39 71 42 72 40 73 66 74 67 75 75 76 68 77
REMARK SMILES IDX 69 78 73 79 76 80 70 81 71 82 74 83 72 84 51 85 52 86 60 87
REMARK SMILES IDX 53 88 54 89 58 90 61 91 55 92 56 93 59 94 57 95
REMARK H PARENT 15 7 22 29 81 48 49 59
REMARK Flexibility Score: inf
ROOT
ATOM      1  C   UNL     1      -8.248  -0.574  -4.907  1.00  0.00     0.002 C 
ENDROOT
BRANCH   1   2
ATOM      2  C   UNL     1      -7.618  -0.785  -3.532  1.00  0.00     0.021 C 
BRANCH   2   3
ATOM      3  C   UNL     1      -8.614  -0.866  -2.368  1.00  0.00     0.116 C 
BRANCH   3   4
ATOM      4  N   UNL     1      -8.962  -2.249  -2.078  1.00  0.00    -0.356 N 
ATOM      5  C   UNL     1      -8.629  -3.050  -1.026  1.00  0.00     0.220 C 
ATOM      6  O   UNL     1      -8.960  -4.237  -1.071  1.00  0.00    -0.275 OA
ATOM      7  H   UNL     1      -9.534  -2.678  -2.755  1.00  0.00     0.163 HD
BRANCH   5   8
ATOM      8  C   UNL     1      -7.867  -2.502   0.172  1.00  0.00     0.103 C 
BRANCH   8   9
ATOM      9  C   UNL     1      -6.340  -2.697   0.091  1.00  0.00     0.002 C 
ATOM     10  C   UNL     1      -3.133  -0.249   0.271  1.00  0.00     0.255 C 
ATOM     11  O   UNL     1      -3.796   0.783   0.259  1.00  0.00    -0.269 OA
ATOM     12  N   UNL     1      -3.688  -1.508   0.152  1.00  0.00    -0.339 N 
ATOM     13  C   UNL     1      -4.235  -1.906  -1.121  1.00  0.00     0.120 C 
ATOM     14  C   UNL     1      -4.143  -2.247   1.318  1.00  0.00     0.120 C 
ATOM     15  C   UNL     1      -5.747  -1.909  -1.079  1.00  0.00     0.026 C 
ATOM     16  C   UNL     1      -5.670  -2.272   1.414  1.00  0.00     0.026 C 
BRANCH  10  17
ATOM     17  C   UNL     1      -1.649  -0.222   0.267  1.00  0.00     0.058 A 
ATOM     18  C   UNL     1       2.584   0.086   0.014  1.00  0.00     0.066 C 
ATOM     19  C   UNL     1       1.095  -0.048   0.120  1.00  0.00     0.037 A 
ATOM     20  C   UNL     1       0.500  -1.305   0.117  1.00  0.00     0.024 A 
ATOM     21  N   UNL     1       0.377   1.099   0.199  1.00  0.00    -0.261 NA
ATOM     22  C   UNL     1      -0.886  -1.390   0.193  1.00  0.00     0.017 A 
ATOM     23  C   UNL     1      -0.976   0.989   0.269  1.00  0.00     0.125 A 
ENDBRANCH  10  17
ENDBRANCH   8   9
ENDBRANCH   5   8
ENDBRANCH   3   4
ENDBRANCH   2   3
ENDBRANCH   1   2
BRANCH   1  24
ATOM     24  C   UNL     1      -8.859   0.809  -5.130  1.00  0.00     0.002 C 
BRANCH  24  25
ATOM     25  C   UNL     1      -7.920   1.993  -4.881  1.00  0.00     0.021 C 
BRANCH  25  26
ATOM     26  C   UNL     1      -6.598   1.946  -5.644  1.00  0.00     0.116 C 
BRANCH  26  27
ATOM     27  N   UNL     1      -6.799   1.931  -7.083  1.00  0.00    -0.352 N 
ATOM     28  C   UNL     1      -6.422   2.852  -8.031  1.00  0.00     0.251 C 
ATOM     29  H   UNL     1      -7.276   1.143  -7.431  1.00  0.00     0.163 HD
ATOM     30  O   UNL     1      -6.868   2.789  -9.165  1.00  0.00    -0.269 OA
BRANCH  28  31
ATOM     31  C   UNL     1      -5.473   3.928  -7.671  1.00  0.00     0.039 A 
ATOM     32  C   UNL     1      -5.735   5.232  -8.099  1.00  0.00     0.014 A 
ATOM     33  C   UNL     1      -4.311   3.645  -6.947  1.00  0.00     0.014 A 
ATOM     34  C   UNL     1      -4.854   6.262  -7.761  1.00  0.00     0.010 A 
ATOM     35  C   UNL     1      -3.472   4.682  -6.550  1.00  0.00     0.010 A 
ATOM     36  C   UNL     1      -3.728   5.999  -6.964  1.00  0.00    -0.014 A 
BRANCH  36  37
ATOM     37  C   UNL     1      -2.787   7.081  -6.580  1.00  0.00     0.031 A 
ATOM     38  C   UNL     1      -1.369   7.054  -7.082  1.00  0.00     0.074 A 
ATOM     39  C   UNL     1      -3.191   8.055  -5.742  1.00  0.00     0.049 A 
ATOM     40  N   UNL     1      -0.376   7.861  -6.806  1.00  0.00    -0.248 NA
ATOM     41  C   UNL     1      -1.013   5.959  -7.997  1.00  0.00     0.031 C 
ATOM     42  C   UNL     1      -4.529   8.170  -5.161  1.00  0.00     0.029 A 
ATOM     43  N   UNL     1      -2.511   9.130  -5.226  1.00  0.00    -0.354 N 
ATOM     44  C   UNL     1       0.719   7.364  -7.501  1.00  0.00     0.074 A 
ATOM     45  C   UNL     1       0.285   6.155  -8.166  1.00  0.00     0.031 C 
ATOM     46  C   UNL     1      -4.579   9.265  -4.385  1.00  0.00     0.029 A 
ATOM     47  C   UNL     1      -3.268   9.908  -4.383  1.00  0.00     0.049 A 
ATOM     48  H   UNL     1      -1.570   9.326  -5.440  1.00  0.00     0.167 HD
ATOM     49  C   UNL     1       1.966   7.884  -7.598  1.00  0.00     0.037 A 
ATOM     50  C   UNL     1      -2.937  11.009  -3.684  1.00  0.00     0.037 A 
ATOM     51  C   UNL     1       2.388   9.098  -6.952  1.00  0.00     0.049 A 
ATOM     52  C   UNL     1      -1.537  11.555  -3.795  1.00  0.00     0.074 A 
ATOM     53  C   UNL     1       3.618   9.730  -7.017  1.00  0.00     0.029 A 
ATOM     54  N   UNL     1       1.587   9.867  -6.120  1.00  0.00    -0.354 N 
ATOM     55  N   UNL     1      -0.527  11.110  -4.503  1.00  0.00    -0.248 NA
ATOM     56  C   UNL     1      -1.234  12.763  -3.015  1.00  0.00     0.031 C 
ATOM     57  C   UNL     1       3.574  10.859  -6.193  1.00  0.00     0.029 A 
ATOM     58  C   UNL     1       2.301  10.960  -5.655  1.00  0.00     0.049 A 
ATOM     59  H   UNL     1       0.651   9.666  -5.893  1.00  0.00     0.167 HD
ATOM     60  C   UNL     1       0.515  12.001  -4.285  1.00  0.00     0.074 A 
ATOM     61  C   UNL     1       0.011  13.019  -3.388  1.00  0.00     0.031 C 
ATOM     62  C   UNL     1       1.776  11.977  -4.781  1.00  0.00     0.037 A 
BRANCH  49  63
ATOM     63  C   UNL     1       2.963   7.145  -8.443  1.00  0.00     0.064 A 
ATOM     64  C   UNL     1       2.845   7.095  -9.841  1.00  0.00     0.173 A 
ATOM     65  C   UNL     1       4.072   6.515  -7.857  1.00  0.00     0.173 A 
ATOM     66  F   UNL     1       1.798   7.670 -10.451  1.00  0.00    -0.203 F 
ATOM     67  C   UNL     1       3.783   6.418 -10.617  1.00  0.00     0.198 A 
ATOM     68  C   UNL     1       5.025   5.867  -8.638  1.00  0.00     0.198 A 
ATOM     69  F   UNL     1       4.237   6.538  -6.526  1.00  0.00    -0.203 F 
ATOM     70  F   UNL     1       3.622   6.343 -11.945  1.00  0.00    -0.200 F 
ATOM     71  C   UNL     1       4.876   5.813 -10.016  1.00  0.00     0.200 A 
ATOM     72  F   UNL     1       6.088   5.294  -8.058  1.00  0.00    -0.200 F 
ATOM     73  F   UNL     1       5.783   5.171 -10.765  1.00  0.00    -0.200 F 
ENDBRANCH  49  63
BRANCH  50  74
ATOM     74  C   UNL     1      -3.949  11.690  -2.834  1.00  0.00     0.064 A 
ATOM     75  C   UNL     1      -4.428  12.965  -3.170  1.00  0.00     0.173 A 
ATOM     76  C   UNL     1      -4.439  11.099  -1.661  1.00  0.00     0.173 A 
ATOM     77  F   UNL     1      -3.975  13.581  -4.272  1.00  0.00    -0.203 F 
ATOM     78  C   UNL     1      -5.335  13.633  -2.350  1.00  0.00     0.198 A 
ATOM     79  C   UNL     1      -5.369  11.756  -0.857  1.00  0.00     0.198 A 
ATOM     80  F   UNL     1      -4.017   9.879  -1.296  1.00  0.00    -0.203 F 
ATOM     81  F   UNL     1      -5.732  14.874  -2.666  1.00  0.00    -0.200 F 
ATOM     82  C   UNL     1      -5.807  13.027  -1.196  1.00  0.00     0.200 A 
ATOM     83  F   UNL     1      -5.834  11.161   0.249  1.00  0.00    -0.200 F 
ATOM     84  F   UNL     1      -6.677  13.671  -0.406  1.00  0.00    -0.200 F 
ENDBRANCH  50  74
BRANCH  62  85
ATOM     85  C   UNL     1       2.683  13.116  -4.414  1.00  0.00     0.064 A 
ATOM     86  C   UNL     1       3.204  13.258  -3.120  1.00  0.00     0.173 A 
ATOM     87  C   UNL     1       3.065  14.055  -5.384  1.00  0.00     0.173 A 
ATOM     88  F   UNL     1       2.857  12.396  -2.153  1.00  0.00    -0.203 F 
ATOM     89  C   UNL     1       4.054  14.315  -2.804  1.00  0.00     0.198 A 
ATOM     90  C   UNL     1       3.941  15.091  -5.073  1.00  0.00     0.198 A 
ATOM     91  F   UNL     1       2.600  13.959  -6.639  1.00  0.00    -0.203 F 
ATOM     92  F   UNL     1       4.501  14.461  -1.549  1.00  0.00    -0.200 F 
ATOM     93  C   UNL     1       4.428  15.225  -3.782  1.00  0.00     0.200 A 
ATOM     94  F   UNL     1       4.312  15.961  -6.023  1.00  0.00    -0.200 F 
ATOM     95  F   UNL     1       5.252  16.237  -3.478  1.00  0.00    -0.200 F 
ENDBRANCH  62  85
ENDBRANCH  36  37
ENDBRANCH  28  31
ENDBRANCH  26  27
ENDBRANCH  25  26
ENDBRANCH  24  25
ENDBRANCH   1  24
TORSDOF 15
