REMARK SMILES COc1ccc(C(=O)SC[C@H]([NH3+])C(=O)NCCCCCCNC(=O)c2ccc(-c3c4nc(c(-c5c(F)c(F)c(F)c(F)c5F)c5ccc([nH]5)c(-c5c(F)c(F)c(F)c(F)c5F)c5nc(c(-c6c(F)c(F)c(F)c(F)c6F)c6ccc3[nH]6)C=C5)C=C4)cc2)cc1
REMARK SMILES IDX 17 1 16 2 15 3 13 4 14 5 11 7 10 8 9 9 7 10 8 11 6 12 3 13
REMARK SMILES IDX 4 14 89 15 5 16 88 17 2 18 1 19 12 20 18 24 19 25 20 26
REMARK SMILES IDX 21 27 22 28 23 29 24 31 25 32 26 33 87 34 27 35 86 36 28 37
REMARK SMILES IDX 29 38 30 39 80 40 31 41 85 42 79 43 81 44 32 45 84 46 78 47
REMARK SMILES IDX 77 48 33 50 65 51 45 52 64 53 46 54 49 55 63 56 82 57 47 58
REMARK SMILES IDX 48 59 62 61 83 62 50 63 34 64 35 65 43 66 36 67 37 68 41 69
REMARK SMILES IDX 44 70 38 71 39 72 42 73 40 74 66 75 67 76 75 77 68 78 69 79
REMARK SMILES IDX 73 80 76 81 70 82 71 83 74 84 72 85 51 86 52 87 60 88 53 89
REMARK SMILES IDX 54 90 58 91 61 92 55 93 56 94 59 95 57 96
REMARK H PARENT 15 6 12 21 12 22 12 23 22 30 81 49 49 60
REMARK Flexibility Score: inf
ROOT
ATOM      1  C   UNL     1       3.877  10.421  -5.248  1.00  0.00     0.021 C 
ENDROOT
BRANCH   1   2
ATOM      2  C   UNL     1       3.103   9.385  -6.056  1.00  0.00     0.116 C 
BRANCH   2   3
ATOM      3  N   UNL     1       3.841   8.784  -7.148  1.00  0.00    -0.351 N 
ATOM      4  C   UNL     1       4.073   7.457  -7.394  1.00  0.00     0.279 C 
ATOM      5  O   UNL     1       4.577   7.158  -8.483  1.00  0.00    -0.268 OA
ATOM      6  H   UNL     1       4.228   9.414  -7.799  1.00  0.00     0.163 HD
BRANCH   4   7
ATOM      7  C   UNL     1       3.718   6.346  -6.374  1.00  0.00     0.281 C 
BRANCH   7   8
ATOM      8  C   UNL     1       2.298   5.754  -6.504  1.00  0.00     0.153 C 
BRANCH   8   9
ATOM      9  S   UNL     1       0.829   6.819  -6.516  1.00  0.00    -0.076 SA
BRANCH   9  10
ATOM     10  C   UNL     1       0.683   7.333  -4.835  1.00  0.00     0.219 C 
ATOM     11  O   UNL     1       1.244   6.727  -3.928  1.00  0.00    -0.282 OA
BRANCH  10  12
ATOM     12  C   UNL     1      -0.123   8.576  -4.569  1.00  0.00     0.029 A 
ATOM     13  C   UNL     1      -1.515  10.987  -4.039  1.00  0.00     0.118 A 
ATOM     14  C   UNL     1      -0.771  10.355  -3.036  1.00  0.00     0.047 A 
ATOM     15  C   UNL     1      -1.593  10.389  -5.293  1.00  0.00     0.047 A 
ATOM     16  C   UNL     1      -0.079   9.161  -3.296  1.00  0.00     0.016 A 
ATOM     17  C   UNL     1      -0.898   9.203  -5.557  1.00  0.00     0.016 A 
BRANCH  13  18
ATOM     18  O   UNL     1      -2.066  12.189  -3.694  1.00  0.00    -0.497 OA
ATOM     19  C   UNL     1      -2.764  12.914  -4.702  1.00  0.00     0.278 C 
ENDBRANCH  13  18
ENDBRANCH  10  12
ENDBRANCH   9  10
ENDBRANCH   8   9
ENDBRANCH   7   8
BRANCH   7  20
ATOM     20  N   UNL     1       4.138   6.706  -5.003  1.00  0.00    -0.347 N 
ATOM     21  H   UNL     1       3.602   7.512  -4.683  1.00  0.00     0.345 HD
ATOM     22  H   UNL     1       5.132   6.935  -5.001  1.00  0.00     0.345 HD
ATOM     23  H   UNL     1       3.971   5.917  -4.378  1.00  0.00     0.345 HD
ENDBRANCH   7  20
ENDBRANCH   4   7
ENDBRANCH   2   3
ENDBRANCH   1   2
BRANCH   1  24
ATOM     24  C   UNL     1       3.866  11.850  -5.803  1.00  0.00     0.002 C 
BRANCH  24  25
ATOM     25  C   UNL     1       2.493  12.474  -6.105  1.00  0.00     0.002 C 
BRANCH  25  26
ATOM     26  C   UNL     1       1.456  12.412  -4.981  1.00  0.00     0.021 C 
BRANCH  26  27
ATOM     27  C   UNL     1       1.675  13.352  -3.796  1.00  0.00     0.116 C 
BRANCH  27  28
ATOM     28  N   UNL     1       1.173  14.695  -4.049  1.00  0.00    -0.352 N 
ATOM     29  C   UNL     1       0.124  15.436  -3.560  1.00  0.00     0.251 C 
ATOM     30  H   UNL     1       1.704  15.181  -4.721  1.00  0.00     0.163 HD
ATOM     31  O   UNL     1      -0.100  16.514  -4.117  1.00  0.00    -0.269 OA
BRANCH  29  32
ATOM     32  C   UNL     1      -0.776  15.028  -2.438  1.00  0.00     0.039 A 
ATOM     33  C   UNL     1      -2.058  15.611  -2.399  1.00  0.00     0.014 A 
ATOM     34  C   UNL     1      -0.424  14.167  -1.400  1.00  0.00     0.014 A 
ATOM     35  C   UNL     1      -2.980  15.291  -1.393  1.00  0.00     0.010 A 
ATOM     36  C   UNL     1      -1.365  13.795  -0.425  1.00  0.00     0.010 A 
ATOM     37  C   UNL     1      -2.651  14.361  -0.401  1.00  0.00    -0.014 A 
BRANCH  37  38
ATOM     38  C   UNL     1      -3.605  14.050   0.703  1.00  0.00     0.031 A 
ATOM     39  C   UNL     1      -3.289  14.473   2.114  1.00  0.00     0.074 A 
ATOM     40  C   UNL     1      -4.752  13.383   0.462  1.00  0.00     0.049 A 
ATOM     41  N   UNL     1      -3.977  14.289   3.215  1.00  0.00    -0.248 NA
ATOM     42  C   UNL     1      -2.018  15.183   2.315  1.00  0.00     0.031 C 
ATOM     43  C   UNL     1      -5.184  12.891  -0.845  1.00  0.00     0.029 A 
ATOM     44  N   UNL     1      -5.762  12.998   1.313  1.00  0.00    -0.354 N 
ATOM     45  C   UNL     1      -3.217  14.847   4.235  1.00  0.00     0.074 A 
ATOM     46  C   UNL     1      -1.992  15.325   3.631  1.00  0.00     0.031 C 
ATOM     47  C   UNL     1      -6.374  12.280  -0.712  1.00  0.00     0.029 A 
ATOM     48  C   UNL     1      -6.776  12.306   0.694  1.00  0.00     0.049 A 
ATOM     49  H   UNL     1      -5.759  13.199   2.277  1.00  0.00     0.167 HD
ATOM     50  C   UNL     1      -3.515  14.970   5.551  1.00  0.00     0.037 A 
ATOM     51  C   UNL     1      -7.894  11.747   1.200  1.00  0.00     0.037 A 
ATOM     52  C   UNL     1      -4.737  14.509   6.159  1.00  0.00     0.049 A 
ATOM     53  C   UNL     1      -8.194  11.869   2.673  1.00  0.00     0.074 A 
ATOM     54  C   UNL     1      -5.150  14.645   7.473  1.00  0.00     0.029 A 
ATOM     55  N   UNL     1      -5.735  13.810   5.498  1.00  0.00    -0.354 N 
ATOM     56  N   UNL     1      -7.502  12.465   3.614  1.00  0.00    -0.248 NA
ATOM     57  C   UNL     1      -9.438  11.247   3.152  1.00  0.00     0.031 C 
ATOM     58  C   UNL     1      -6.366  13.969   7.623  1.00  0.00     0.029 A 
ATOM     59  C   UNL     1      -6.747  13.475   6.386  1.00  0.00     0.049 A 
ATOM     60  H   UNL     1      -5.728  13.585   4.539  1.00  0.00     0.167 HD
ATOM     61  C   UNL     1      -8.237  12.316   4.784  1.00  0.00     0.074 A 
ATOM     62  C   UNL     1      -9.437  11.587   4.434  1.00  0.00     0.031 C 
ATOM     63  C   UNL     1      -7.943  12.751   6.035  1.00  0.00     0.037 A 
BRANCH  50  64
ATOM     64  C   UNL     1      -2.484  15.617   6.434  1.00  0.00     0.064 A 
ATOM     65  C   UNL     1      -2.161  16.979   6.322  1.00  0.00     0.173 A 
ATOM     66  C   UNL     1      -1.817  14.866   7.414  1.00  0.00     0.173 A 
ATOM     67  F   UNL     1      -2.762  17.742   5.397  1.00  0.00    -0.203 F 
ATOM     68  C   UNL     1      -1.178  17.551   7.126  1.00  0.00     0.198 A 
ATOM     69  C   UNL     1      -0.862  15.450   8.241  1.00  0.00     0.198 A 
ATOM     70  F   UNL     1      -2.093  13.562   7.572  1.00  0.00    -0.203 F 
ATOM     71  F   UNL     1      -0.839  18.836   6.953  1.00  0.00    -0.200 F 
ATOM     72  C   UNL     1      -0.534  16.788   8.087  1.00  0.00     0.200 A 
ATOM     73  F   UNL     1      -0.253  14.716   9.181  1.00  0.00    -0.200 F 
ATOM     74  F   UNL     1       0.412  17.341   8.860  1.00  0.00    -0.200 F 
ENDBRANCH  50  64
BRANCH  51  75
ATOM     75  C   UNL     1      -8.831  11.020   0.299  1.00  0.00     0.064 A 
ATOM     76  C   UNL     1     -10.109  11.525   0.021  1.00  0.00     0.173 A 
ATOM     77  C   UNL     1      -8.472   9.798  -0.288  1.00  0.00     0.173 A 
ATOM     78  F   UNL     1     -10.511  12.676   0.582  1.00  0.00    -0.203 F 
ATOM     79  C   UNL     1     -10.997  10.829  -0.797  1.00  0.00     0.198 A 
ATOM     80  C   UNL     1      -9.350   9.118  -1.131  1.00  0.00     0.198 A 
ATOM     81  F   UNL     1      -7.263   9.268  -0.052  1.00  0.00    -0.203 F 
ATOM     82  F   UNL     1     -12.230  11.311  -1.007  1.00  0.00    -0.200 F 
ATOM     83  C   UNL     1     -10.614   9.630  -1.378  1.00  0.00     0.200 A 
ATOM     84  F   UNL     1      -8.971   7.965  -1.700  1.00  0.00    -0.200 F 
ATOM     85  F   UNL     1     -11.466   8.963  -2.169  1.00  0.00    -0.200 F 
ENDBRANCH  51  75
BRANCH  63  86
ATOM     86  C   UNL     1      -8.949  12.487   7.123  1.00  0.00     0.064 A 
ATOM     87  C   UNL     1      -9.192  11.195   7.613  1.00  0.00     0.173 A 
ATOM     88  C   UNL     1      -9.648  13.551   7.716  1.00  0.00     0.173 A 
ATOM     89  F   UNL     1      -8.562  10.139   7.076  1.00  0.00    -0.203 F 
ATOM     90  C   UNL     1     -10.114  10.976   8.635  1.00  0.00     0.198 A 
ATOM     91  C   UNL     1     -10.542  13.333   8.760  1.00  0.00     0.198 A 
ATOM     92  F   UNL     1      -9.450  14.809   7.293  1.00  0.00    -0.203 F 
ATOM     93  F   UNL     1     -10.366   9.727   9.051  1.00  0.00    -0.200 F 
ATOM     94  C   UNL     1     -10.781  12.045   9.213  1.00  0.00     0.200 A 
ATOM     95  F   UNL     1     -11.172  14.370   9.329  1.00  0.00    -0.200 F 
ATOM     96  F   UNL     1     -11.660  11.833  10.203  1.00  0.00    -0.200 F 
ENDBRANCH  63  86
ENDBRANCH  37  38
ENDBRANCH  29  32
ENDBRANCH  27  28
ENDBRANCH  26  27
ENDBRANCH  25  26
ENDBRANCH  24  25
ENDBRANCH   1  24
TORSDOF 19
