REMARK SMILES O=C(NCCCCCCNC(=O)[C@H]1C[C@H](O)CN1C(=O)[C@@H]1CC(=O)N(C2CC2)C1)c1ccc(-c2c3nc(c(-c4c(F)c(F)c(F)c(F)c4F)c4ccc([nH]4)c(-c4c(F)c(F)c(F)c(F)c4F)c4nc(c(-c5c(F)c(F)c(F)c(F)c5F)c5ccc2[nH]5)C=C4)C=C3)cc1
REMARK SMILES IDX 7 1 6 2 5 3 4 4 3 5 1 6 2 7 30 9 31 10 92 11 32 12 91 13
REMARK SMILES IDX 33 14 34 15 35 16 85 17 36 18 90 19 84 20 86 21 37 22 89 23
REMARK SMILES IDX 83 24 82 25 38 27 70 28 50 29 69 30 51 31 54 32 68 33 87 34
REMARK SMILES IDX 52 35 53 36 67 38 88 39 55 40 39 41 40 42 48 43 41 44 42 45
REMARK SMILES IDX 46 46 49 47 43 48 44 49 47 50 45 51 71 52 72 53 80 54 73 55
REMARK SMILES IDX 74 56 78 57 81 58 75 59 76 60 79 61 77 62 56 63 57 64 65 65
REMARK SMILES IDX 58 66 59 67 63 68 66 69 60 70 61 71 64 72 62 73 8 74 9 75
REMARK SMILES IDX 10 76 11 77 12 79 13 80 14 81 18 82 15 83 17 84 19 85 20 86
REMARK SMILES IDX 21 87 22 88 29 89 23 90 25 91 24 92 26 93 27 94 28 95 16 96
REMARK H PARENT 3 8 86 26 54 37 10 78 16 97
REMARK Flexibility Score: inf
ROOT
ATOM      1  C   UNL     1       4.736  -1.625  -4.019  1.00  0.00     0.002 C 
ENDROOT
BRANCH   1   2
ATOM      2  C   UNL     1       4.115  -2.505  -2.931  1.00  0.00     0.002 C 
BRANCH   2   3
ATOM      3  C   UNL     1       4.582  -2.215  -1.504  1.00  0.00     0.021 C 
BRANCH   3   4
ATOM      4  C   UNL     1       4.415  -0.771  -1.052  1.00  0.00     0.116 C 
BRANCH   4   5
ATOM      5  N   UNL     1       3.022  -0.365  -0.970  1.00  0.00    -0.352 N 
ATOM      6  O   UNL     1       1.129   0.351   0.030  1.00  0.00    -0.269 OA
ATOM      7  C   UNL     1       2.345   0.205   0.081  1.00  0.00     0.251 C 
ATOM      8  H   UNL     1       2.488  -0.520  -1.782  1.00  0.00     0.163 HD
BRANCH   7   9
ATOM      9  C   UNL     1       3.086   0.617   1.293  1.00  0.00     0.039 A 
ATOM     10  C   UNL     1       4.284   1.329   1.190  1.00  0.00     0.014 A 
ATOM     11  C   UNL     1       2.571   0.287   2.549  1.00  0.00     0.014 A 
ATOM     12  C   UNL     1       5.034   1.585   2.333  1.00  0.00     0.010 A 
ATOM     13  C   UNL     1       3.287   0.619   3.703  1.00  0.00     0.010 A 
ATOM     14  C   UNL     1       4.540   1.242   3.602  1.00  0.00    -0.014 A 
BRANCH  14  15
ATOM     15  C   UNL     1       5.332   1.593   4.808  1.00  0.00     0.031 A 
ATOM     16  C   UNL     1       5.922   0.530   5.690  1.00  0.00     0.074 A 
ATOM     17  C   UNL     1       5.544   2.894   5.082  1.00  0.00     0.049 A 
ATOM     18  N   UNL     1       6.676   0.665   6.753  1.00  0.00    -0.248 NA
ATOM     19  C   UNL     1       5.624  -0.867   5.342  1.00  0.00     0.031 C 
ATOM     20  C   UNL     1       5.008   4.014   4.306  1.00  0.00     0.029 A 
ATOM     21  N   UNL     1       6.282   3.496   6.069  1.00  0.00    -0.354 N 
ATOM     22  C   UNL     1       6.924  -0.622   7.212  1.00  0.00     0.074 A 
ATOM     23  C   UNL     1       6.222  -1.526   6.325  1.00  0.00     0.031 C 
ATOM     24  C   UNL     1       5.479   5.164   4.810  1.00  0.00     0.029 A 
ATOM     25  C   UNL     1       6.303   4.866   5.976  1.00  0.00     0.049 A 
ATOM     26  H   UNL     1       6.751   2.995   6.774  1.00  0.00     0.167 HD
ATOM     27  C   UNL     1       7.674  -1.010   8.271  1.00  0.00     0.037 A 
ATOM     28  C   UNL     1       6.913   5.783   6.749  1.00  0.00     0.037 A 
ATOM     29  C   UNL     1       8.388  -0.107   9.138  1.00  0.00     0.049 A 
ATOM     30  C   UNL     1       7.729   5.322   7.922  1.00  0.00     0.074 A 
ATOM     31  C   UNL     1       9.213  -0.406  10.208  1.00  0.00     0.029 A 
ATOM     32  N   UNL     1       8.357   1.277   9.034  1.00  0.00    -0.354 N 
ATOM     33  N   UNL     1       7.989   4.101   8.319  1.00  0.00    -0.248 NA
ATOM     34  C   UNL     1       8.331   6.370   8.756  1.00  0.00     0.031 C 
ATOM     35  C   UNL     1       9.647   0.796  10.778  1.00  0.00     0.029 A 
ATOM     36  C   UNL     1       9.130   1.845  10.036  1.00  0.00     0.049 A 
ATOM     37  H   UNL     1       7.860   1.781   8.350  1.00  0.00     0.167 HD
ATOM     38  C   UNL     1       8.798   4.230   9.438  1.00  0.00     0.074 A 
ATOM     39  C   UNL     1       9.002   5.650   9.645  1.00  0.00     0.031 C 
ATOM     40  C   UNL     1       9.321   3.260  10.227  1.00  0.00     0.037 A 
BRANCH  27  41
ATOM     41  C   UNL     1       7.751  -2.480   8.569  1.00  0.00     0.064 A 
ATOM     42  C   UNL     1       8.482  -3.361   7.758  1.00  0.00     0.173 A 
ATOM     43  C   UNL     1       7.119  -3.008   9.705  1.00  0.00     0.173 A 
ATOM     44  F   UNL     1       9.097  -2.909   6.654  1.00  0.00    -0.203 F 
ATOM     45  C   UNL     1       8.558  -4.718   8.060  1.00  0.00     0.198 A 
ATOM     46  C   UNL     1       7.217  -4.361  10.019  1.00  0.00     0.198 A 
ATOM     47  F   UNL     1       6.412  -2.208  10.518  1.00  0.00    -0.203 F 
ATOM     48  F   UNL     1       9.228  -5.548   7.248  1.00  0.00    -0.200 F 
ATOM     49  C   UNL     1       7.931  -5.216   9.193  1.00  0.00     0.200 A 
ATOM     50  F   UNL     1       6.621  -4.838  11.120  1.00  0.00    -0.200 F 
ATOM     51  F   UNL     1       8.010  -6.522   9.485  1.00  0.00    -0.200 F 
ENDBRANCH  27  41
BRANCH  28  52
ATOM     52  C   UNL     1       6.785   7.224   6.420  1.00  0.00     0.064 A 
ATOM     53  C   UNL     1       7.880   7.950   5.934  1.00  0.00     0.173 A 
ATOM     54  C   UNL     1       5.564   7.899   6.564  1.00  0.00     0.173 A 
ATOM     55  F   UNL     1       9.072   7.351   5.797  1.00  0.00    -0.203 F 
ATOM     56  C   UNL     1       7.762   9.300   5.613  1.00  0.00     0.198 A 
ATOM     57  C   UNL     1       5.440   9.242   6.218  1.00  0.00     0.198 A 
ATOM     58  F   UNL     1       4.485   7.246   7.021  1.00  0.00    -0.203 F 
ATOM     59  F   UNL     1       8.833   9.980   5.183  1.00  0.00    -0.200 F 
ATOM     60  C   UNL     1       6.540   9.943   5.748  1.00  0.00     0.200 A 
ATOM     61  F   UNL     1       4.254   9.855   6.334  1.00  0.00    -0.200 F 
ATOM     62  F   UNL     1       6.425  11.239   5.429  1.00  0.00    -0.200 F 
ENDBRANCH  28  52
BRANCH  40  63
ATOM     63  C   UNL     1      10.186   3.706  11.368  1.00  0.00     0.064 A 
ATOM     64  C   UNL     1       9.639   4.311  12.509  1.00  0.00     0.173 A 
ATOM     65  C   UNL     1      11.575   3.514  11.325  1.00  0.00     0.173 A 
ATOM     66  F   UNL     1       8.319   4.533  12.589  1.00  0.00    -0.203 F 
ATOM     67  C   UNL     1      10.456   4.733  13.555  1.00  0.00     0.198 A 
ATOM     68  C   UNL     1      12.385   3.913  12.383  1.00  0.00     0.198 A 
ATOM     69  F   UNL     1      12.145   2.937  10.256  1.00  0.00    -0.203 F 
ATOM     70  F   UNL     1       9.919   5.355  14.613  1.00  0.00    -0.200 F 
ATOM     71  C   UNL     1      11.827   4.529  13.493  1.00  0.00     0.200 A 
ATOM     72  F   UNL     1      13.708   3.707  12.326  1.00  0.00    -0.200 F 
ATOM     73  F   UNL     1      12.612   4.937  14.500  1.00  0.00    -0.200 F 
ENDBRANCH  40  63
ENDBRANCH  14  15
ENDBRANCH   7   9
ENDBRANCH   4   5
ENDBRANCH   3   4
ENDBRANCH   2   3
ENDBRANCH   1   2
BRANCH   1  74
ATOM     74  C   UNL     1       6.266  -1.536  -4.007  1.00  0.00     0.021 C 
BRANCH  74  75
ATOM     75  C   UNL     1       6.988  -2.880  -4.079  1.00  0.00     0.116 C 
BRANCH  75  76
ATOM     76  N   UNL     1       6.767  -3.546  -5.349  1.00  0.00    -0.354 N 
ATOM     77  C   UNL     1       7.657  -3.878  -6.327  1.00  0.00     0.242 C 
ATOM     78  H   UNL     1       5.833  -3.796  -5.532  1.00  0.00     0.163 HD
ATOM     79  O   UNL     1       7.211  -4.326  -7.388  1.00  0.00    -0.273 OA
BRANCH  77  80
ATOM     80  C   UNL     1       9.169  -3.687  -6.105  1.00  0.00     0.177 C 
ATOM     81  C   UNL     1       9.899  -5.014  -6.310  1.00  0.00     0.069 C 
ATOM     82  N   UNL     1       9.728  -2.776  -7.109  1.00  0.00    -0.328 N 
ATOM     83  C   UNL     1      10.302  -4.990  -7.779  1.00  0.00     0.136 C 
ATOM     84  C   UNL     1      10.561  -3.508  -8.053  1.00  0.00     0.152 C 
BRANCH  82  85
ATOM     85  C   UNL     1       9.483  -1.431  -6.998  1.00  0.00     0.228 C 
ATOM     86  O   UNL     1       8.849  -1.003  -6.025  1.00  0.00    -0.274 OA
BRANCH  85  87
ATOM     87  C   UNL     1      10.029  -0.403  -7.980  1.00  0.00     0.107 C 
ATOM     88  C   UNL     1       9.815  -0.652  -9.463  1.00  0.00     0.115 C 
ATOM     89  C   UNL     1      11.514  -0.197  -7.802  1.00  0.00     0.133 C 
ATOM     90  C   UNL     1      11.184  -1.024  -9.978  1.00  0.00     0.223 C 
ATOM     91  N   UNL     1      12.111  -0.805  -8.961  1.00  0.00    -0.339 N 
ATOM     92  O   UNL     1      11.389  -1.468 -11.097  1.00  0.00    -0.275 OA
BRANCH  91  93
ATOM     93  C   UNL     1      13.501  -1.148  -8.959  1.00  0.00     0.085 C 
ATOM     94  C   UNL     1      13.976  -2.468  -9.505  1.00  0.00     0.027 C 
ATOM     95  C   UNL     1      14.359  -1.186 -10.189  1.00  0.00     0.027 C 
ENDBRANCH  91  93
ENDBRANCH  85  87
ENDBRANCH  82  85
BRANCH  83  96
ATOM     96  O   UNL     1      11.447  -5.800  -8.002  1.00  0.00    -0.391 OA
ATOM     97  H   UNL     1      12.173  -5.496  -7.436  1.00  0.00     0.211 HD
ENDBRANCH  83  96
ENDBRANCH  77  80
ENDBRANCH  75  76
ENDBRANCH  74  75
ENDBRANCH   1  74
TORSDOF 17
