REMARK SMILES CC1=C(C)C[C@@H](C(=O)NCCCCCCNC(=O)c2ccc(-c3c4nc(c(-c5c(F)c(F)c(F)c(F)c5F)c5ccc([nH]5)c(-c5c(F)c(F)c(F)c(F)c5F)c5nc(c(-c6c(F)c(F)c(F)c(F)c6F)c6ccc3[nH]6)C=C5)C=C4)cc2)[C@@H](C(=O)N2CCN(c3cccc(C(F)(F)F)c3)CC2)C1
REMARK SMILES IDX 12 1 11 2 10 3 9 4 7 5 8 6 6 8 1 9 2 10 3 11 101 12 4 13
REMARK SMILES IDX 5 14 82 15 83 16 84 17 85 18 86 19 100 20 87 21 99 22 88 23
REMARK SMILES IDX 89 24 90 25 98 26 91 27 93 28 92 29 94 30 95 31 96 32 97 33
REMARK SMILES IDX 13 34 14 35 15 36 16 37 17 38 18 40 19 41 20 42 81 43 21 44
REMARK SMILES IDX 80 45 22 46 23 47 24 48 74 49 25 50 79 51 73 52 75 53 26 54
REMARK SMILES IDX 78 55 72 56 71 57 27 59 59 60 39 61 58 62 40 63 43 64 57 65
REMARK SMILES IDX 76 66 41 67 42 68 56 70 77 71 44 72 28 73 29 74 37 75 30 76
REMARK SMILES IDX 31 77 35 78 38 79 32 80 33 81 36 82 34 83 60 84 61 85 69 86
REMARK SMILES IDX 62 87 63 88 67 89 70 90 64 91 65 92 68 93 66 94 45 95 46 96
REMARK SMILES IDX 54 97 47 98 48 99 52 100 55 101 49 102 50 103 53 104 51 105
REMARK H PARENT 9 7 16 39 75 58 43 69
REMARK Flexibility Score: inf
ROOT
ATOM      1  C   UNL     1       4.065   0.085   5.210  1.00  0.00     0.002 C 
ENDROOT
BRANCH   1   2
ATOM      2  C   UNL     1       2.697  -0.189   3.570  1.00  0.00     0.021 C 
BRANCH   2   3
ATOM      3  C   UNL     1       2.315  -1.670   2.614  1.00  0.00     0.116 C 
BRANCH   3   4
ATOM      4  N   UNL     1       1.949  -2.958   3.176  1.00  0.00    -0.356 N 
ATOM      5  C   UNL     1       0.745  -3.352   3.688  1.00  0.00     0.224 C 
ATOM      6  O   UNL     1       0.702  -4.309   4.461  1.00  0.00    -0.275 OA
ATOM      7  H   UNL     1       2.663  -3.636   3.191  1.00  0.00     0.163 HD
BRANCH   5   8
ATOM      8  C   UNL     1      -0.499  -2.664   3.224  1.00  0.00     0.095 C 
ATOM      9  C   UNL     1       0.375   0.264   0.013  1.00  0.00     0.039 C 
ATOM     10  C   UNL     1      -0.220  -0.744   0.970  1.00  0.00    -0.074 C 
ATOM     11  C   UNL     1      -0.165  -2.075   0.725  1.00  0.00    -0.074 C 
ATOM     12  C   UNL     1      -0.639  -0.204   2.356  1.00  0.00     0.045 C 
ATOM     13  C   UNL     1       0.601  -2.713  -0.420  1.00  0.00     0.039 C 
ATOM     14  C   UNL     1      -0.685  -3.058   1.743  1.00  0.00     0.045 C 
ATOM     15  C   UNL     1      -0.594  -1.185   3.599  1.00  0.00     0.095 C 
BRANCH  15  16
ATOM     16  C   UNL     1       0.068  -0.708   5.011  1.00  0.00     0.226 C 
ATOM     17  O   UNL     1      -0.731  -0.238   5.842  1.00  0.00    -0.275 OA
ATOM     18  N   UNL     1       1.444  -0.504   5.287  1.00  0.00    -0.339 N 
ATOM     19  C   UNL     1       2.767  -1.614   5.125  1.00  0.00     0.141 C 
ATOM     20  C   UNL     1       1.790   1.086   5.394  1.00  0.00     0.141 C 
ATOM     21  C   UNL     1       4.268  -1.131   3.852  1.00  0.00     0.138 C 
ATOM     22  C   UNL     1       2.914   1.863   4.208  1.00  0.00     0.138 C 
ATOM     23  N   UNL     1       4.395   0.902   3.622  1.00  0.00    -0.368 N 
BRANCH  23  24
ATOM     24  C   UNL     1       5.769   2.008   4.258  1.00  0.00     0.037 A 
ATOM     25  C   UNL     1       7.417   1.667   3.379  1.00  0.00     0.026 A 
ATOM     26  C   UNL     1       4.909   3.496   3.871  1.00  0.00     0.039 A 
ATOM     27  C   UNL     1       7.756   2.547   1.802  1.00  0.00     0.003 A 
ATOM     28  C   UNL     1       5.308   4.440   2.478  1.00  0.00     0.058 A 
ATOM     29  C   UNL     1       6.618   3.928   1.371  1.00  0.00     0.013 A 
BRANCH  28  30
ATOM     30  C   UNL     1       5.090   5.902   2.948  1.00  0.00     0.416 C 
ATOM     31  F   UNL     1       5.925   6.229   3.990  1.00  0.00    -0.166 F 
ATOM     32  F   UNL     1       5.260   6.866   2.014  1.00  0.00    -0.166 F 
ATOM     33  F   UNL     1       3.844   6.096   3.481  1.00  0.00    -0.166 F 
ENDBRANCH  28  30
ENDBRANCH  23  24
ENDBRANCH  15  16
ENDBRANCH   5   8
ENDBRANCH   3   4
ENDBRANCH   2   3
ENDBRANCH   1   2
BRANCH   1  34
ATOM     34  C   UNL     1       5.958  -0.171   4.523  1.00  0.00     0.002 C 
BRANCH  34  35
ATOM     35  C   UNL     1       6.085   0.256   2.616  1.00  0.00     0.021 C 
BRANCH  35  36
ATOM     36  C   UNL     1       5.836   2.173   2.254  1.00  0.00     0.116 C 
BRANCH  36  37
ATOM     37  N   UNL     1       6.968   3.540   3.369  1.00  0.00    -0.352 N 
ATOM     38  C   UNL     1       8.276   4.284   3.459  1.00  0.00     0.251 C 
ATOM     39  H   UNL     1       6.427   3.802   4.149  1.00  0.00     0.163 HD
ATOM     40  O   UNL     1       8.799   4.394   4.570  1.00  0.00    -0.269 OA
BRANCH  38  41
ATOM     41  C   UNL     1       8.906   5.055   2.321  1.00  0.00     0.039 A 
ATOM     42  C   UNL     1       9.869   4.572   1.417  1.00  0.00     0.014 A 
ATOM     43  C   UNL     1       8.215   6.201   1.997  1.00  0.00     0.014 A 
ATOM     44  C   UNL     1       9.930   5.099   0.099  1.00  0.00     0.010 A 
ATOM     45  C   UNL     1       8.115   6.543   0.658  1.00  0.00     0.010 A 
ATOM     46  C   UNL     1       8.980   6.039  -0.331  1.00  0.00    -0.014 A 
BRANCH  46  47
ATOM     47  C   UNL     1       8.814   6.593  -1.727  1.00  0.00     0.031 A 
ATOM     48  C   UNL     1       8.525   8.087  -1.871  1.00  0.00     0.074 A 
ATOM     49  C   UNL     1       8.709   5.828  -2.840  1.00  0.00     0.049 A 
ATOM     50  N   UNL     1       8.031   8.755  -2.886  1.00  0.00    -0.248 NA
ATOM     51  C   UNL     1       8.663   8.912  -0.654  1.00  0.00     0.031 C 
ATOM     52  C   UNL     1       8.807   4.369  -2.915  1.00  0.00     0.029 A 
ATOM     53  N   UNL     1       8.464   6.194  -4.151  1.00  0.00    -0.354 N 
ATOM     54  C   UNL     1       7.700  10.002  -2.366  1.00  0.00     0.074 A 
ATOM     55  C   UNL     1       7.850   9.914  -0.937  1.00  0.00     0.031 C 
ATOM     56  C   UNL     1       8.680   3.976  -4.198  1.00  0.00     0.029 A 
ATOM     57  C   UNL     1       8.469   5.147  -5.046  1.00  0.00     0.049 A 
ATOM     58  H   UNL     1       8.299   7.126  -4.422  1.00  0.00     0.167 HD
ATOM     59  C   UNL     1       7.418  11.163  -3.002  1.00  0.00     0.037 A 
ATOM     60  C   UNL     1       8.347   5.142  -6.392  1.00  0.00     0.037 A 
ATOM     61  C   UNL     1       7.452  11.299  -4.428  1.00  0.00     0.049 A 
ATOM     62  C   UNL     1       8.149   6.453  -7.124  1.00  0.00     0.074 A 
ATOM     63  C   UNL     1       7.376  12.447  -5.191  1.00  0.00     0.029 A 
ATOM     64  N   UNL     1       7.607  10.236  -5.302  1.00  0.00    -0.354 N 
ATOM     65  N   UNL     1       8.002   7.662  -6.638  1.00  0.00    -0.248 NA
ATOM     66  C   UNL     1       8.120   6.399  -8.595  1.00  0.00     0.031 C 
ATOM     67  C   UNL     1       7.432  12.072  -6.537  1.00  0.00     0.029 A 
ATOM     68  C   UNL     1       7.600  10.697  -6.604  1.00  0.00     0.049 A 
ATOM     69  H   UNL     1       7.707   9.294  -5.035  1.00  0.00     0.167 HD
ATOM     70  C   UNL     1       7.909   8.512  -7.735  1.00  0.00     0.074 A 
ATOM     71  C   UNL     1       8.027   7.683  -8.915  1.00  0.00     0.031 C 
ATOM     72  C   UNL     1       7.743   9.858  -7.765  1.00  0.00     0.037 A 
BRANCH  59  73
ATOM     73  C   UNL     1       7.138  12.379  -2.155  1.00  0.00     0.064 A 
ATOM     74  C   UNL     1       8.095  12.909  -1.269  1.00  0.00     0.173 A 
ATOM     75  C   UNL     1       5.889  13.014  -2.212  1.00  0.00     0.173 A 
ATOM     76  F   UNL     1       9.312  12.349  -1.171  1.00  0.00    -0.203 F 
ATOM     77  C   UNL     1       7.786  13.967  -0.420  1.00  0.00     0.198 A 
ATOM     78  C   UNL     1       5.602  14.109  -1.399  1.00  0.00     0.198 A 
ATOM     79  F   UNL     1       4.941  12.570  -3.049  1.00  0.00    -0.203 F 
ATOM     80  F   UNL     1       8.683  14.378   0.488  1.00  0.00    -0.200 F 
ATOM     81  C   UNL     1       6.542  14.571  -0.489  1.00  0.00     0.200 A 
ATOM     82  F   UNL     1       4.407  14.710  -1.485  1.00  0.00    -0.200 F 
ATOM     83  F   UNL     1       6.245  15.592   0.326  1.00  0.00    -0.200 F 
ENDBRANCH  59  73
BRANCH  60  84
ATOM     84  C   UNL     1       8.541   3.880  -7.168  1.00  0.00     0.064 A 
ATOM     85  C   UNL     1       9.706   3.697  -7.933  1.00  0.00     0.173 A 
ATOM     86  C   UNL     1       7.591   2.849  -7.187  1.00  0.00     0.173 A 
ATOM     87  F   UNL     1      10.632   4.665  -7.979  1.00  0.00    -0.203 F 
ATOM     88  C   UNL     1       9.907   2.544  -8.692  1.00  0.00     0.198 A 
ATOM     89  C   UNL     1       7.805   1.683  -7.928  1.00  0.00     0.198 A 
ATOM     90  F   UNL     1       6.456   2.968  -6.484  1.00  0.00    -0.203 F 
ATOM     91  F   UNL     1      11.010   2.422  -9.443  1.00  0.00    -0.200 F 
ATOM     92  C   UNL     1       8.960   1.534  -8.682  1.00  0.00     0.200 A 
ATOM     93  F   UNL     1       6.891   0.703  -7.913  1.00  0.00    -0.200 F 
ATOM     94  F   UNL     1       9.157   0.421  -9.403  1.00  0.00    -0.200 F 
ENDBRANCH  60  84
BRANCH  72  95
ATOM     95  C   UNL     1       7.719  10.535  -9.103  1.00  0.00     0.064 A 
ATOM     96  C   UNL     1       6.630  10.401  -9.976  1.00  0.00     0.173 A 
ATOM     97  C   UNL     1       8.762  11.396  -9.479  1.00  0.00     0.173 A 
ATOM     98  F   UNL     1       5.611   9.587  -9.663  1.00  0.00    -0.203 F 
ATOM     99  C   UNL     1       6.599  11.085 -11.188  1.00  0.00     0.198 A 
ATOM    100  C   UNL     1       8.711  12.104 -10.675  1.00  0.00     0.198 A 
ATOM    101  F   UNL     1       9.819  11.572  -8.671  1.00  0.00    -0.203 F 
ATOM    102  F   UNL     1       5.568  10.909 -12.026  1.00  0.00    -0.200 F 
ATOM    103  C   UNL     1       7.633  11.943 -11.532  1.00  0.00     0.200 A 
ATOM    104  F   UNL     1       9.701  12.949 -10.994  1.00  0.00    -0.200 F 
ATOM    105  F   UNL     1       7.593  12.612 -12.692  1.00  0.00    -0.200 F 
ENDBRANCH  72  95
ENDBRANCH  46  47
ENDBRANCH  38  41
ENDBRANCH  36  37
ENDBRANCH  35  36
ENDBRANCH  34  35
ENDBRANCH   1  34
TORSDOF 16
