REMARK SMILES C=CCOc1ccccc1C(=O)N[C@H](C(=O)NCCCCCCNC(=O)c1ccc(-c2c3nc(c(-c4c(F)c(F)c(F)c(F)c4F)c4ccc([nH]4)c(-c4c(F)c(F)c(F)c(F)c4F)c4nc(c(-c5c(F)c(F)c(F)c(F)c5F)c5ccc2[nH]5)C=C4)C=C3)cc1)[C@@H](C)O
REMARK SMILES IDX 19 1 18 2 17 3 15 4 16 5 14 7 13 8 11 9 12 10 10 12 5 13
REMARK SMILES IDX 6 14 7 15 9 16 8 17 4 18 3 19 2 20 1 21 90 22 91 23 92 24
REMARK SMILES IDX 20 26 21 27 22 28 23 29 24 30 25 31 26 33 27 34 28 35 89 36
REMARK SMILES IDX 29 37 88 38 30 39 31 40 32 41 82 42 33 43 87 44 81 45 83 46
REMARK SMILES IDX 34 47 86 48 80 49 79 50 35 52 67 53 47 54 66 55 48 56 51 57
REMARK SMILES IDX 65 58 84 59 49 60 50 61 64 63 85 64 52 65 36 66 37 67 45 68
REMARK SMILES IDX 38 69 39 70 43 71 46 72 40 73 41 74 44 75 42 76 68 77 69 78
REMARK SMILES IDX 77 79 70 80 71 81 75 82 78 83 72 84 73 85 76 86 74 87 53 88
REMARK SMILES IDX 54 89 62 90 55 91 56 92 60 93 63 94 57 95 58 96 61 97 59 98
REMARK H PARENT 17 6 13 11 92 25 24 32 83 51 51 62
REMARK Flexibility Score: inf
ROOT
ATOM      1  C   UNL     1       0.838  -1.213   2.295  1.00  0.00     0.021 C 
ENDROOT
BRANCH   1   2
ATOM      2  C   UNL     1       1.172   0.304   2.315  1.00  0.00     0.116 C 
BRANCH   2   3
ATOM      3  N   UNL     1       1.040   0.919   0.978  1.00  0.00    -0.354 N 
ATOM      4  C   UNL     1       0.386   1.777   0.168  1.00  0.00     0.245 C 
ATOM      5  O   UNL     1       1.115   1.853  -0.856  1.00  0.00    -0.273 OA
ATOM      6  H   UNL     1       1.753   0.521   0.428  1.00  0.00     0.163 HD
BRANCH   4   7
ATOM      7  C   UNL     1      -0.989   2.776   0.242  1.00  0.00     0.200 C 
BRANCH   7   8
ATOM      8  N   UNL     1      -0.708   3.423  -1.053  1.00  0.00    -0.338 N 
ATOM      9  C   UNL     1      -0.962   2.899  -2.296  1.00  0.00     0.255 C 
ATOM     10  O   UNL     1      -0.545   3.546  -3.264  1.00  0.00    -0.269 OA
ATOM     11  H   UNL     1      -0.297   4.317  -1.024  1.00  0.00     0.164 HD
BRANCH   9  12
ATOM     12  C   UNL     1      -1.810   1.672  -2.549  1.00  0.00     0.081 A 
ATOM     13  C   UNL     1      -1.932   0.431  -1.849  1.00  0.00     0.132 A 
ATOM     14  C   UNL     1      -2.721  -0.589  -2.405  1.00  0.00     0.047 A 
ATOM     15  C   UNL     1      -3.510  -0.354  -3.533  1.00  0.00     0.004 A 
ATOM     16  C   UNL     1      -2.637   1.875  -3.677  1.00  0.00     0.018 A 
ATOM     17  C   UNL     1      -3.499   0.890  -4.145  1.00  0.00     0.001 A 
BRANCH  13  18
ATOM     18  O   UNL     1      -1.383   0.219  -0.606  1.00  0.00    -0.489 OA
BRANCH  18  19
ATOM     19  C   UNL     1      -2.101  -0.511   0.441  1.00  0.00     0.257 C 
BRANCH  19  20
ATOM     20  C   UNL     1      -2.029   0.275   1.741  1.00  0.00     0.006 C 
ATOM     21  C   UNL     1      -2.909   0.611   2.694  1.00  0.00     0.007 C 
ENDBRANCH  19  20
ENDBRANCH  18  19
ENDBRANCH  13  18
ENDBRANCH   9  12
ENDBRANCH   7   8
BRANCH   7  22
ATOM     22  C   UNL     1      -2.629   2.923   0.294  1.00  0.00     0.143 C 
ATOM     23  C   UNL     1      -3.838   1.995   0.019  1.00  0.00     0.041 C 
BRANCH  22  24
ATOM     24  O   UNL     1      -3.012   3.682   1.468  1.00  0.00    -0.391 OA
ATOM     25  H   UNL     1      -2.980   3.108   2.249  1.00  0.00     0.211 HD
ENDBRANCH  22  24
ENDBRANCH   7  22
ENDBRANCH   4   7
ENDBRANCH   2   3
ENDBRANCH   1   2
BRANCH   1  26
ATOM     26  C   UNL     1       1.851  -2.162   2.963  1.00  0.00     0.002 C 
BRANCH  26  27
ATOM     27  C   UNL     1       2.128  -1.929   4.449  1.00  0.00     0.002 C 
BRANCH  27  28
ATOM     28  C   UNL     1       0.999  -2.295   5.420  1.00  0.00     0.021 C 
BRANCH  28  29
ATOM     29  C   UNL     1       0.602  -3.774   5.496  1.00  0.00     0.116 C 
BRANCH  29  30
ATOM     30  N   UNL     1       1.717  -4.657   5.813  1.00  0.00    -0.352 N 
ATOM     31  C   UNL     1       1.888  -5.572   6.812  1.00  0.00     0.251 C 
ATOM     32  H   UNL     1       2.482  -4.579   5.199  1.00  0.00     0.163 HD
ATOM     33  O   UNL     1       3.010  -6.095   6.957  1.00  0.00    -0.269 OA
BRANCH  31  34
ATOM     34  C   UNL     1       0.803  -5.966   7.737  1.00  0.00     0.039 A 
ATOM     35  C   UNL     1       1.125  -6.228   9.074  1.00  0.00     0.014 A 
ATOM     36  C   UNL     1      -0.510  -6.163   7.299  1.00  0.00     0.014 A 
ATOM     37  C   UNL     1       0.136  -6.638   9.972  1.00  0.00     0.010 A 
ATOM     38  C   UNL     1      -1.512  -6.510   8.211  1.00  0.00     0.010 A 
ATOM     39  C   UNL     1      -1.199  -6.759   9.556  1.00  0.00    -0.014 A 
BRANCH  39  40
ATOM     40  C   UNL     1      -2.261  -7.136  10.528  1.00  0.00     0.031 A 
ATOM     41  C   UNL     1      -3.002  -8.439  10.399  1.00  0.00     0.074 A 
ATOM     42  C   UNL     1      -2.578  -6.283  11.523  1.00  0.00     0.049 A 
ATOM     43  N   UNL     1      -3.940  -8.939  11.165  1.00  0.00    -0.248 NA
ATOM     44  C   UNL     1      -2.661  -9.284   9.244  1.00  0.00     0.031 C 
ATOM     45  C   UNL     1      -1.976  -4.965  11.725  1.00  0.00     0.029 A 
ATOM     46  N   UNL     1      -3.481  -6.397  12.551  1.00  0.00    -0.354 N 
ATOM     47  C   UNL     1      -4.303 -10.148  10.584  1.00  0.00     0.074 A 
ATOM     48  C   UNL     1      -3.525 -10.281   9.371  1.00  0.00     0.031 C 
ATOM     49  C   UNL     1      -2.501  -4.406  12.827  1.00  0.00     0.029 A 
ATOM     50  C   UNL     1      -3.495  -5.312  13.393  1.00  0.00     0.049 A 
ATOM     51  H   UNL     1      -4.064  -7.181  12.672  1.00  0.00     0.167 HD
ATOM     52  C   UNL     1      -5.186 -11.074  11.033  1.00  0.00     0.037 A 
ATOM     53  C   UNL     1      -4.222  -5.076  14.502  1.00  0.00     0.037 A 
ATOM     54  C   UNL     1      -5.947 -10.948  12.251  1.00  0.00     0.049 A 
ATOM     55  C   UNL     1      -5.184  -6.126  14.987  1.00  0.00     0.074 A 
ATOM     56  C   UNL     1      -6.823 -11.856  12.820  1.00  0.00     0.029 A 
ATOM     57  N   UNL     1      -5.923  -9.840  13.086  1.00  0.00    -0.354 N 
ATOM     58  N   UNL     1      -5.460  -7.299  14.471  1.00  0.00    -0.248 NA
ATOM     59  C   UNL     1      -5.926  -5.823  16.218  1.00  0.00     0.031 C 
ATOM     60  C   UNL     1      -7.365 -11.278  13.975  1.00  0.00     0.029 A 
ATOM     61  C   UNL     1      -6.787 -10.033  14.154  1.00  0.00     0.049 A 
ATOM     62  H   UNL     1      -5.375  -9.036  12.941  1.00  0.00     0.167 HD
ATOM     63  C   UNL     1      -6.385  -7.884  15.324  1.00  0.00     0.074 A 
ATOM     64  C   UNL     1      -6.606  -6.945  16.405  1.00  0.00     0.031 C 
ATOM     65  C   UNL     1      -6.999  -9.088  15.221  1.00  0.00     0.037 A 
BRANCH  52  66
ATOM     66  C   UNL     1      -5.376 -12.313  10.205  1.00  0.00     0.064 A 
ATOM     67  C   UNL     1      -4.370 -13.286  10.093  1.00  0.00     0.173 A 
ATOM     68  C   UNL     1      -6.592 -12.553   9.547  1.00  0.00     0.173 A 
ATOM     69  F   UNL     1      -3.185 -13.103  10.695  1.00  0.00    -0.203 F 
ATOM     70  C   UNL     1      -4.563 -14.435   9.331  1.00  0.00     0.198 A 
ATOM     71  C   UNL     1      -6.793 -13.719   8.810  1.00  0.00     0.198 A 
ATOM     72  F   UNL     1      -7.591 -11.661   9.625  1.00  0.00    -0.203 F 
ATOM     73  F   UNL     1      -3.569 -15.325   9.199  1.00  0.00    -0.200 F 
ATOM     74  C   UNL     1      -5.776 -14.654   8.696  1.00  0.00     0.200 A 
ATOM     75  F   UNL     1      -7.971 -13.935   8.209  1.00  0.00    -0.200 F 
ATOM     76  F   UNL     1      -5.963 -15.764   7.968  1.00  0.00    -0.200 F 
ENDBRANCH  52  66
BRANCH  53  77
ATOM     77  C   UNL     1      -4.038  -3.807  15.253  1.00  0.00     0.064 A 
ATOM     78  C   UNL     1      -3.440  -3.800  16.521  1.00  0.00     0.173 A 
ATOM     79  C   UNL     1      -4.457  -2.578  14.723  1.00  0.00     0.173 A 
ATOM     80  F   UNL     1      -3.041  -4.952  17.079  1.00  0.00    -0.203 F 
ATOM     81  C   UNL     1      -3.287  -2.615  17.239  1.00  0.00     0.198 A 
ATOM     82  C   UNL     1      -4.277  -1.390  15.430  1.00  0.00     0.198 A 
ATOM     83  F   UNL     1      -5.030  -2.529  13.512  1.00  0.00    -0.203 F 
ATOM     84  F   UNL     1      -2.755  -2.644  18.469  1.00  0.00    -0.200 F 
ATOM     85  C   UNL     1      -3.700  -1.411  16.690  1.00  0.00     0.200 A 
ATOM     86  F   UNL     1      -4.664  -0.227  14.889  1.00  0.00    -0.200 F 
ATOM     87  F   UNL     1      -3.549  -0.272  17.379  1.00  0.00    -0.200 F 
ENDBRANCH  53  77
BRANCH  65  88
ATOM     88  C   UNL     1      -7.949  -9.467  16.322  1.00  0.00     0.064 A 
ATOM     89  C   UNL     1      -9.186  -8.824  16.481  1.00  0.00     0.173 A 
ATOM     90  C   UNL     1      -7.622 -10.492  17.222  1.00  0.00     0.173 A 
ATOM     91  F   UNL     1      -9.540  -7.827  15.655  1.00  0.00    -0.203 F 
ATOM     92  C   UNL     1     -10.043  -9.167  17.523  1.00  0.00     0.198 A 
ATOM     93  C   UNL     1      -8.496 -10.855  18.244  1.00  0.00     0.198 A 
ATOM     94  F   UNL     1      -6.455 -11.144  17.110  1.00  0.00    -0.203 F 
ATOM     95  F   UNL     1     -11.191  -8.497  17.692  1.00  0.00    -0.200 F 
ATOM     96  C   UNL     1      -9.700 -10.185  18.400  1.00  0.00     0.200 A 
ATOM     97  F   UNL     1      -8.168 -11.848  19.082  1.00  0.00    -0.200 F 
ATOM     98  F   UNL     1     -10.525 -10.514  19.404  1.00  0.00    -0.200 F 
ENDBRANCH  65  88
ENDBRANCH  39  40
ENDBRANCH  31  34
ENDBRANCH  29  30
ENDBRANCH  28  29
ENDBRANCH  27  28
ENDBRANCH  26  27
ENDBRANCH   1  26
TORSDOF 20
