REMARK SMILES O=C(NCCCCCCNC(=O)c1ccc(-c2c3nc(c(-c4c(F)c(F)c(F)c(F)c4F)c4ccc([nH]4)c(-c4c(F)c(F)c(F)c(F)c4F)c4nc(c(-c5c(F)c(F)c(F)c(F)c5F)c5ccc2[nH]5)C=C4)C=C3)cc1)C1=C(C(=O)Nc2ccc(-c3nc4ccccc4o3)cc2)CCCC1
REMARK SMILES IDX 6 1 5 2 4 3 3 4 1 5 2 6 76 8 77 9 99 10 96 11 98 12 97 13
REMARK SMILES IDX 78 14 79 15 80 16 81 18 82 19 95 20 83 21 94 22 84 23 85 24
REMARK SMILES IDX 86 25 93 26 87 27 92 28 88 29 91 30 89 31 90 32 7 33 8 34
REMARK SMILES IDX 9 35 10 36 11 37 12 39 13 40 14 41 75 42 15 43 74 44 16 45
REMARK SMILES IDX 17 46 18 47 68 48 19 49 73 50 67 51 69 52 20 53 72 54 66 55
REMARK SMILES IDX 65 56 21 58 53 59 33 60 52 61 34 62 37 63 51 64 70 65 35 66
REMARK SMILES IDX 36 67 50 69 71 70 38 71 22 72 23 73 31 74 24 75 25 76 29 77
REMARK SMILES IDX 32 78 26 79 27 80 30 81 28 82 54 83 55 84 63 85 56 86 57 87
REMARK SMILES IDX 61 88 64 89 58 90 59 91 62 92 60 93 39 94 40 95 48 96 41 97
REMARK SMILES IDX 42 98 46 99 49 100 43 101 44 102 47 103 45 104
REMARK H PARENT 3 7 80 17 10 38 69 57 37 68
REMARK Flexibility Score: inf
ROOT
ATOM      1  C   UNL     1       4.592  -3.992  -0.924  1.00  0.00     0.002 C 
ENDROOT
BRANCH   1   2
ATOM      2  C   UNL     1       5.257  -3.147   0.174  1.00  0.00     0.021 C 
BRANCH   2   3
ATOM      3  C   UNL     1       4.765  -1.706   0.237  1.00  0.00     0.116 C 
BRANCH   3   4
ATOM      4  N   UNL     1       3.369  -1.646   0.610  1.00  0.00    -0.352 N 
ATOM      5  O   UNL     1       1.493  -0.871   1.507  1.00  0.00    -0.270 OA
ATOM      6  C   UNL     1       2.617  -0.620   1.074  1.00  0.00     0.247 C 
ATOM      7  H   UNL     1       2.882  -2.496   0.510  1.00  0.00     0.163 HD
BRANCH   6   8
ATOM      8  C   UNL     1       3.179   0.756   1.202  1.00  0.00     0.026 C 
ATOM      9  C   UNL     1       3.843   1.470   0.262  1.00  0.00     0.026 C 
ATOM     10  C   UNL     1       2.854   1.319   2.577  1.00  0.00     0.042 C 
ATOM     11  C   UNL     1       4.557   2.757   0.653  1.00  0.00     0.042 C 
ATOM     12  C   UNL     1       3.362   2.733   2.837  1.00  0.00     0.005 C 
ATOM     13  C   UNL     1       4.706   2.936   2.167  1.00  0.00     0.005 C 
BRANCH   9  14
ATOM     14  C   UNL     1       4.116   1.084  -1.170  1.00  0.00     0.252 C 
ATOM     15  O   UNL     1       5.238   1.299  -1.638  1.00  0.00    -0.269 OA
ATOM     16  N   UNL     1       3.217   0.435  -1.968  1.00  0.00    -0.322 N 
ATOM     17  H   UNL     1       3.583   0.121  -2.826  1.00  0.00     0.170 HD
BRANCH  16  18
ATOM     18  C   UNL     1       1.866   0.145  -1.770  1.00  0.00     0.041 A 
ATOM     19  C   UNL     1       1.420  -1.139  -2.111  1.00  0.00     0.027 A 
ATOM     20  C   UNL     1       0.995   1.050  -1.175  1.00  0.00     0.027 A 
ATOM     21  C   UNL     1       0.167  -1.581  -1.673  1.00  0.00     0.016 A 
ATOM     22  C   UNL     1      -0.276   0.626  -0.797  1.00  0.00     0.016 A 
ATOM     23  C   UNL     1      -0.676  -0.709  -0.977  1.00  0.00     0.037 A 
BRANCH  23  24
ATOM     24  C   UNL     1      -1.921  -1.135  -0.356  1.00  0.00     0.227 A 
ATOM     25  N   UNL     1      -2.989  -0.399  -0.109  1.00  0.00    -0.209 NA
ATOM     26  O   UNL     1      -1.935  -2.385   0.217  1.00  0.00    -0.436 OA
ATOM     27  C   UNL     1      -3.733  -1.181   0.729  1.00  0.00     0.110 A 
ATOM     28  C   UNL     1      -3.095  -2.392   0.943  1.00  0.00     0.155 A 
ATOM     29  C   UNL     1      -4.946  -0.919   1.376  1.00  0.00     0.032 A 
ATOM     30  C   UNL     1      -3.575  -3.392   1.782  1.00  0.00     0.049 A 
ATOM     31  C   UNL     1      -5.460  -1.899   2.234  1.00  0.00     0.003 A 
ATOM     32  C   UNL     1      -4.784  -3.110   2.434  1.00  0.00     0.004 A 
ENDBRANCH  23  24
ENDBRANCH  16  18
ENDBRANCH   9  14
ENDBRANCH   6   8
ENDBRANCH   3   4
ENDBRANCH   2   3
ENDBRANCH   1   2
BRANCH   1  33
ATOM     33  C   UNL     1       4.865  -3.555  -2.368  1.00  0.00     0.002 C 
BRANCH  33  34
ATOM     34  C   UNL     1       6.336  -3.443  -2.764  1.00  0.00     0.021 C 
BRANCH  34  35
ATOM     35  C   UNL     1       7.210  -4.628  -2.379  1.00  0.00     0.116 C 
BRANCH  35  36
ATOM     36  N   UNL     1       6.779  -5.887  -2.960  1.00  0.00    -0.352 N 
ATOM     37  C   UNL     1       7.558  -6.948  -3.365  1.00  0.00     0.251 C 
ATOM     38  H   UNL     1       5.807  -5.996  -3.079  1.00  0.00     0.163 HD
ATOM     39  O   UNL     1       7.064  -7.920  -3.906  1.00  0.00    -0.269 OA
BRANCH  37  40
ATOM     40  C   UNL     1       9.024  -6.867  -3.172  1.00  0.00     0.039 A 
ATOM     41  C   UNL     1       9.857  -7.112  -4.266  1.00  0.00     0.014 A 
ATOM     42  C   UNL     1       9.566  -6.504  -1.936  1.00  0.00     0.014 A 
ATOM     43  C   UNL     1      11.235  -6.928  -4.137  1.00  0.00     0.010 A 
ATOM     44  C   UNL     1      10.930  -6.250  -1.830  1.00  0.00     0.010 A 
ATOM     45  C   UNL     1      11.778  -6.461  -2.929  1.00  0.00    -0.014 A 
BRANCH  45  46
ATOM     46  C   UNL     1      13.231  -6.191  -2.795  1.00  0.00     0.031 A 
ATOM     47  C   UNL     1      14.063  -7.007  -1.845  1.00  0.00     0.074 A 
ATOM     48  C   UNL     1      13.787  -5.173  -3.478  1.00  0.00     0.049 A 
ATOM     49  N   UNL     1      15.332  -6.892  -1.548  1.00  0.00    -0.248 NA
ATOM     50  C   UNL     1      13.368  -8.075  -1.111  1.00  0.00     0.031 C 
ATOM     51  C   UNL     1      13.074  -4.278  -4.391  1.00  0.00     0.029 A 
ATOM     52  N   UNL     1      15.079  -4.713  -3.505  1.00  0.00    -0.354 N 
ATOM     53  C   UNL     1      15.581  -7.856  -0.580  1.00  0.00     0.074 A 
ATOM     54  C   UNL     1      14.323  -8.513  -0.303  1.00  0.00     0.031 C 
ATOM     55  C   UNL     1      13.943  -3.397  -4.912  1.00  0.00     0.029 A 
ATOM     56  C   UNL     1      15.266  -3.641  -4.344  1.00  0.00     0.049 A 
ATOM     57  H   UNL     1      15.805  -5.114  -2.974  1.00  0.00     0.167 HD
ATOM     58  C   UNL     1      16.758  -8.177   0.009  1.00  0.00     0.037 A 
ATOM     59  C   UNL     1      16.379  -2.936  -4.621  1.00  0.00     0.037 A 
ATOM     60  C   UNL     1      18.014  -7.545  -0.298  1.00  0.00     0.049 A 
ATOM     61  C   UNL     1      17.674  -3.317  -3.956  1.00  0.00     0.074 A 
ATOM     62  C   UNL     1      19.275  -7.856   0.179  1.00  0.00     0.029 A 
ATOM     63  N   UNL     1      18.165  -6.470  -1.161  1.00  0.00    -0.354 N 
ATOM     64  N   UNL     1      17.914  -4.283  -3.104  1.00  0.00    -0.248 NA
ATOM     65  C   UNL     1      18.853  -2.509  -4.295  1.00  0.00     0.031 C 
ATOM     66  C   UNL     1      20.183  -6.937  -0.357  1.00  0.00     0.029 A 
ATOM     67  C   UNL     1      19.496  -6.086  -1.208  1.00  0.00     0.049 A 
ATOM     68  H   UNL     1      17.436  -6.043  -1.665  1.00  0.00     0.167 HD
ATOM     69  C   UNL     1      19.273  -4.221  -2.830  1.00  0.00     0.074 A 
ATOM     70  C   UNL     1      19.808  -3.128  -3.615  1.00  0.00     0.031 C 
ATOM     71  C   UNL     1      20.013  -5.001  -2.003  1.00  0.00     0.037 A 
BRANCH  58  72
ATOM     72  C   UNL     1      16.741  -9.262   1.046  1.00  0.00     0.064 A 
ATOM     73  C   UNL     1      16.515 -10.605   0.707  1.00  0.00     0.173 A 
ATOM     74  C   UNL     1      16.981  -8.959   2.394  1.00  0.00     0.173 A 
ATOM     75  F   UNL     1      16.268 -10.948  -0.567  1.00  0.00    -0.203 F 
ATOM     76  C   UNL     1      16.498 -11.598   1.683  1.00  0.00     0.198 A 
ATOM     77  C   UNL     1      16.994  -9.959   3.363  1.00  0.00     0.198 A 
ATOM     78  F   UNL     1      17.208  -7.692   2.773  1.00  0.00    -0.203 F 
ATOM     79  F   UNL     1      16.227 -12.866   1.342  1.00  0.00    -0.200 F 
ATOM     80  C   UNL     1      16.744 -11.275   3.008  1.00  0.00     0.200 A 
ATOM     81  F   UNL     1      17.245  -9.646   4.643  1.00  0.00    -0.200 F 
ATOM     82  F   UNL     1      16.732 -12.233   3.946  1.00  0.00    -0.200 F 
ENDBRANCH  58  72
BRANCH  59  83
ATOM     83  C   UNL     1      16.328  -1.823  -5.604  1.00  0.00     0.064 A 
ATOM     84  C   UNL     1      16.951  -1.944  -6.855  1.00  0.00     0.173 A 
ATOM     85  C   UNL     1      15.666  -0.620  -5.319  1.00  0.00     0.173 A 
ATOM     86  F   UNL     1      17.615  -3.067  -7.165  1.00  0.00    -0.203 F 
ATOM     87  C   UNL     1      16.929  -0.898  -7.775  1.00  0.00     0.198 A 
ATOM     88  C   UNL     1      15.622   0.415  -6.251  1.00  0.00     0.198 A 
ATOM     89  F   UNL     1      15.052  -0.455  -4.138  1.00  0.00    -0.203 F 
ATOM     90  F   UNL     1      17.569  -1.026  -8.945  1.00  0.00    -0.200 F 
ATOM     91  C   UNL     1      16.260   0.278  -7.475  1.00  0.00     0.200 A 
ATOM     92  F   UNL     1      14.964   1.546  -5.962  1.00  0.00    -0.200 F 
ATOM     93  F   UNL     1      16.236   1.282  -8.361  1.00  0.00    -0.200 F 
ENDBRANCH  59  83
BRANCH  71  94
ATOM     94  C   UNL     1      21.486  -4.725  -1.933  1.00  0.00     0.064 A 
ATOM     95  C   UNL     1      21.993  -3.590  -1.284  1.00  0.00     0.173 A 
ATOM     96  C   UNL     1      22.404  -5.631  -2.486  1.00  0.00     0.173 A 
ATOM     97  F   UNL     1      21.156  -2.686  -0.753  1.00  0.00    -0.203 F 
ATOM     98  C   UNL     1      23.364  -3.360  -1.213  1.00  0.00     0.198 A 
ATOM     99  C   UNL     1      23.775  -5.413  -2.387  1.00  0.00     0.198 A 
ATOM    100  F   UNL     1      21.970  -6.736  -3.111  1.00  0.00    -0.203 F 
ATOM    101  F   UNL     1      23.825  -2.245  -0.629  1.00  0.00    -0.200 F 
ATOM    102  C   UNL     1      24.253  -4.275  -1.757  1.00  0.00     0.200 A 
ATOM    103  F   UNL     1      24.633  -6.305  -2.901  1.00  0.00    -0.200 F 
ATOM    104  F   UNL     1      25.573  -4.055  -1.680  1.00  0.00    -0.200 F 
ENDBRANCH  71  94
ENDBRANCH  45  46
ENDBRANCH  37  40
ENDBRANCH  35  36
ENDBRANCH  34  35
ENDBRANCH  33  34
ENDBRANCH   1  33
TORSDOF 16
