REMARK SMILES C[C@H](NC(=O)c1c(C(=O)NCCCCCCNC(=O)c2ccc(-c3c4nc(c(-c5c(F)c(F)c(F)c(F)c5F)c5ccc([nH]5)c(-c5c(F)c(F)c(F)c(F)c5F)c5nc(c(-c6c(F)c(F)c(F)c(F)c6F)c6ccc3[nH]6)C=C5)C=C4)cc2)cnn1C)[C@]12C[C@H]3C[C@H](C[C@H](C3)C1)C2
REMARK SMILES IDX 13 1 12 2 11 3 10 4 8 5 9 6 7 8 6 9 85 10 83 11 84 12 86 13
REMARK SMILES IDX 4 14 3 15 5 17 2 18 1 19 87 20 88 21 95 22 96 23 89 24 93 25
REMARK SMILES IDX 91 26 90 27 94 28 92 29 14 30 15 31 16 32 17 33 18 34 19 36
REMARK SMILES IDX 20 37 21 38 82 39 22 40 81 41 23 42 24 43 25 44 75 45 26 46
REMARK SMILES IDX 80 47 74 48 76 49 27 50 79 51 73 52 72 53 28 55 60 56 40 57
REMARK SMILES IDX 59 58 41 59 44 60 58 61 77 62 42 63 43 64 57 66 78 67 45 68
REMARK SMILES IDX 29 69 30 70 38 71 31 72 32 73 36 74 39 75 33 76 34 77 37 78
REMARK SMILES IDX 35 79 61 80 62 81 70 82 63 83 64 84 68 85 71 86 65 87 66 88
REMARK SMILES IDX 69 89 67 90 46 91 47 92 55 93 48 94 49 95 53 96 56 97 50 98
REMARK SMILES IDX 51 99 54 100 52 101
REMARK H PARENT 10 7 3 16 17 35 76 54 44 65
REMARK Flexibility Score: inf
ROOT
ATOM      1  C   UNL     1       4.856   0.706   3.366  1.00  0.00     0.002 C 
ENDROOT
BRANCH   1   2
ATOM      2  C   UNL     1       3.699   0.040   2.622  1.00  0.00     0.021 C 
BRANCH   2   3
ATOM      3  C   UNL     1       3.928  -0.277   1.146  1.00  0.00     0.116 C 
BRANCH   3   4
ATOM      4  N   UNL     1       4.827  -1.383   0.940  1.00  0.00    -0.352 N 
ATOM      5  C   UNL     1       4.841  -2.461   0.098  1.00  0.00     0.255 C 
ATOM      6  O   UNL     1       5.817  -3.204   0.251  1.00  0.00    -0.269 OA
ATOM      7  H   UNL     1       5.606  -1.358   1.540  1.00  0.00     0.163 HD
BRANCH   5   8
ATOM      8  C   UNL     1       3.837  -2.807  -0.908  1.00  0.00     0.090 A 
ATOM      9  C   UNL     1       2.725  -2.201  -1.493  1.00  0.00     0.138 A 
ATOM     10  N   UNL     1       2.303  -3.059  -2.485  1.00  0.00    -0.262 N 
ATOM     11  C   UNL     1       3.892  -4.068  -1.577  1.00  0.00     0.149 A 
ATOM     12  N   UNL     1       2.943  -4.235  -2.494  1.00  0.00    -0.180 NA
ATOM     13  C   UNL     1       1.294  -2.825  -3.494  1.00  0.00     0.174 C 
BRANCH   9  14
ATOM     14  C   UNL     1       2.106  -0.925  -1.321  1.00  0.00     0.270 C 
ATOM     15  N   UNL     1       0.880  -0.880  -0.701  1.00  0.00    -0.348 N 
ATOM     16  H   UNL     1       0.418  -0.012  -0.755  1.00  0.00     0.164 HD
ATOM     17  O   UNL     1       2.609   0.127  -1.705  1.00  0.00    -0.267 OA
BRANCH  15  18
ATOM     18  C   UNL     1       0.150  -1.930   0.034  1.00  0.00     0.085 C 
ATOM     19  C   UNL     1       0.712  -2.034   1.457  1.00  0.00     0.031 C 
BRANCH  18  20
ATOM     20  C   UNL     1      -1.406  -1.708  -0.018  1.00  0.00    -0.009 C 
ATOM     21  C   UNL     1      -2.149  -2.658   0.970  1.00  0.00     0.012 C 
ATOM     22  C   UNL     1      -1.921  -2.028  -1.451  1.00  0.00     0.012 C 
ATOM     23  C   UNL     1      -1.835  -0.253   0.330  1.00  0.00     0.012 C 
ATOM     24  C   UNL     1      -3.674  -2.494   0.875  1.00  0.00    -0.010 C 
ATOM     25  C   UNL     1      -3.447  -1.862  -1.546  1.00  0.00    -0.010 C 
ATOM     26  C   UNL     1      -3.363  -0.085   0.235  1.00  0.00    -0.010 C 
ATOM     27  C   UNL     1      -4.045  -1.043   1.219  1.00  0.00     0.007 C 
ATOM     28  C   UNL     1      -4.128  -2.817  -0.554  1.00  0.00     0.007 C 
ATOM     29  C   UNL     1      -3.821  -0.414  -1.196  1.00  0.00     0.007 C 
ENDBRANCH  18  20
ENDBRANCH  15  18
ENDBRANCH   9  14
ENDBRANCH   5   8
ENDBRANCH   3   4
ENDBRANCH   2   3
ENDBRANCH   1   2
BRANCH   1  30
ATOM     30  C   UNL     1       5.407   2.002   2.766  1.00  0.00     0.002 C 
BRANCH  30  31
ATOM     31  C   UNL     1       4.389   3.069   2.354  1.00  0.00     0.021 C 
BRANCH  31  32
ATOM     32  C   UNL     1       3.361   3.486   3.403  1.00  0.00     0.116 C 
BRANCH  32  33
ATOM     33  N   UNL     1       3.950   4.067   4.593  1.00  0.00    -0.352 N 
ATOM     34  C   UNL     1       3.624   5.220   5.265  1.00  0.00     0.251 C 
ATOM     35  H   UNL     1       4.698   3.558   4.979  1.00  0.00     0.163 HD
ATOM     36  O   UNL     1       4.302   5.577   6.225  1.00  0.00    -0.269 OA
BRANCH  34  37
ATOM     37  C   UNL     1       2.486   6.065   4.830  1.00  0.00     0.039 A 
ATOM     38  C   UNL     1       2.680   7.449   4.767  1.00  0.00     0.014 A 
ATOM     39  C   UNL     1       1.232   5.526   4.526  1.00  0.00     0.014 A 
ATOM     40  C   UNL     1       1.645   8.285   4.340  1.00  0.00     0.010 A 
ATOM     41  C   UNL     1       0.209   6.357   4.061  1.00  0.00     0.010 A 
ATOM     42  C   UNL     1       0.410   7.742   3.958  1.00  0.00    -0.014 A 
BRANCH  42  43
ATOM     43  C   UNL     1      -0.675   8.612   3.440  1.00  0.00     0.031 A 
ATOM     44  C   UNL     1      -1.895   8.883   4.270  1.00  0.00     0.074 A 
ATOM     45  C   UNL     1      -0.582   9.125   2.199  1.00  0.00     0.049 A 
ATOM     46  N   UNL     1      -2.979   9.546   3.953  1.00  0.00    -0.248 NA
ATOM     47  C   UNL     1      -1.906   8.325   5.630  1.00  0.00     0.031 C 
ATOM     48  C   UNL     1       0.540   8.922   1.282  1.00  0.00     0.029 A 
ATOM     49  N   UNL     1      -1.453   9.916   1.492  1.00  0.00    -0.354 N 
ATOM     50  C   UNL     1      -3.810   9.464   5.061  1.00  0.00     0.074 A 
ATOM     51  C   UNL     1      -3.110   8.680   6.058  1.00  0.00     0.031 C 
ATOM     52  C   UNL     1       0.295   9.581   0.138  1.00  0.00     0.029 A 
ATOM     53  C   UNL     1      -1.010  10.230   0.232  1.00  0.00     0.049 A 
ATOM     54  H   UNL     1      -2.313  10.227   1.854  1.00  0.00     0.167 HD
ATOM     55  C   UNL     1      -5.042   9.998   5.233  1.00  0.00     0.037 A 
ATOM     56  C   UNL     1      -1.592  10.954  -0.742  1.00  0.00     0.037 A 
ATOM     57  C   UNL     1      -5.731  10.809   4.266  1.00  0.00     0.049 A 
ATOM     58  C   UNL     1      -2.947  11.559  -0.513  1.00  0.00     0.074 A 
ATOM     59  C   UNL     1      -6.966  11.426   4.376  1.00  0.00     0.029 A 
ATOM     60  N   UNL     1      -5.237  11.125   3.010  1.00  0.00    -0.354 N 
ATOM     61  N   UNL     1      -3.716  11.483   0.543  1.00  0.00    -0.248 NA
ATOM     62  C   UNL     1      -3.516  12.348  -1.617  1.00  0.00     0.031 C 
ATOM     63  C   UNL     1      -7.225  12.105   3.180  1.00  0.00     0.029 A 
ATOM     64  C   UNL     1      -6.145  11.923   2.333  1.00  0.00     0.049 A 
ATOM     65  H   UNL     1      -4.369  10.827   2.653  1.00  0.00     0.167 HD
ATOM     66  C   UNL     1      -4.853  12.217   0.240  1.00  0.00     0.074 A 
ATOM     67  C   UNL     1      -4.672  12.740  -1.099  1.00  0.00     0.031 C 
ATOM     68  C   UNL     1      -5.949  12.436   1.004  1.00  0.00     0.037 A 
BRANCH  55  69
ATOM     69  C   UNL     1      -5.735   9.711   6.527  1.00  0.00     0.064 A 
ATOM     70  C   UNL     1      -5.429  10.427   7.692  1.00  0.00     0.173 A 
ATOM     71  C   UNL     1      -6.739   8.735   6.593  1.00  0.00     0.173 A 
ATOM     72  F   UNL     1      -4.466  11.361   7.676  1.00  0.00    -0.203 F 
ATOM     73  C   UNL     1      -6.097  10.166   8.885  1.00  0.00     0.198 A 
ATOM     74  C   UNL     1      -7.414   8.485   7.784  1.00  0.00     0.198 A 
ATOM     75  F   UNL     1      -7.064   8.024   5.502  1.00  0.00    -0.203 F 
ATOM     76  F   UNL     1      -5.773  10.843   9.995  1.00  0.00    -0.200 F 
ATOM     77  C   UNL     1      -7.091   9.199   8.929  1.00  0.00     0.200 A 
ATOM     78  F   UNL     1      -8.375   7.551   7.826  1.00  0.00    -0.200 F 
ATOM     79  F   UNL     1      -7.733   8.949  10.079  1.00  0.00    -0.200 F 
ENDBRANCH  55  69
BRANCH  56  80
ATOM     80  C   UNL     1      -0.883  11.156  -2.026  1.00  0.00     0.064 A 
ATOM     81  C   UNL     1      -0.225  12.363  -2.296  1.00  0.00     0.173 A 
ATOM     82  C   UNL     1      -0.841  10.148  -2.998  1.00  0.00     0.173 A 
ATOM     83  F   UNL     1      -0.260  13.360  -1.400  1.00  0.00    -0.203 F 
ATOM     84  C   UNL     1       0.449  12.556  -3.499  1.00  0.00     0.198 A 
ATOM     85  C   UNL     1      -0.156  10.338  -4.195  1.00  0.00     0.198 A 
ATOM     86  F   UNL     1      -1.461   8.980  -2.779  1.00  0.00    -0.203 F 
ATOM     87  F   UNL     1       1.054  13.725  -3.746  1.00  0.00    -0.200 F 
ATOM     88  C   UNL     1       0.486  11.542  -4.446  1.00  0.00     0.200 A 
ATOM     89  F   UNL     1      -0.120   9.357  -5.107  1.00  0.00    -0.200 F 
ATOM     90  F   UNL     1       1.136  11.728  -5.603  1.00  0.00    -0.200 F 
ENDBRANCH  56  80
BRANCH  68  91
ATOM     91  C   UNL     1      -7.031  13.284   0.415  1.00  0.00     0.064 A 
ATOM     92  C   UNL     1      -7.974  12.743  -0.470  1.00  0.00     0.173 A 
ATOM     93  C   UNL     1      -7.147  14.636   0.766  1.00  0.00     0.173 A 
ATOM     94  F   UNL     1      -7.890  11.458  -0.842  1.00  0.00    -0.203 F 
ATOM     95  C   UNL     1      -8.994  13.533  -0.992  1.00  0.00     0.198 A 
ATOM     96  C   UNL     1      -8.175  15.420   0.249  1.00  0.00     0.198 A 
ATOM     97  F   UNL     1      -6.264  15.194   1.607  1.00  0.00    -0.203 F 
ATOM     98  F   UNL     1      -9.874  13.004  -1.854  1.00  0.00    -0.200 F 
ATOM     99  C   UNL     1      -9.096  14.868  -0.629  1.00  0.00     0.200 A 
ATOM    100  F   UNL     1      -8.273  16.710   0.599  1.00  0.00    -0.200 F 
ATOM    101  F   UNL     1     -10.079  15.627  -1.134  1.00  0.00    -0.200 F 
ENDBRANCH  68  91
ENDBRANCH  42  43
ENDBRANCH  34  37
ENDBRANCH  32  33
ENDBRANCH  31  32
ENDBRANCH  30  31
ENDBRANCH   1  30
TORSDOF 16
