REMARK SMILES CCCSc1nc2n(n1)[C@@H](c1ccccc1C(=O)NCCCCCCNC(=O)c1ccc(-c3c4nc(c(-c5c(F)c(F)c(F)c(F)c5F)c5ccc([nH]5)c(-c5c(F)c(F)c(F)c(F)c5F)c5nc(c(-c6c(F)c(F)c(F)c(F)c6F)c6ccc3[nH]6)C=C5)C=C4)cc1)C(C(=O)Nc1cccc(C)c1C)=C(C)N2
REMARK SMILES IDX 21 1 20 2 19 3 17 4 18 5 16 7 11 8 12 9 13 10 15 11 14 12
REMARK SMILES IDX 10 13 5 14 6 15 9 16 7 17 8 18 106 19 104 20 92 22 105 23
REMARK SMILES IDX 4 24 3 25 2 26 1 27 93 28 94 29 95 30 96 32 97 33 102 34
REMARK SMILES IDX 98 35 100 36 103 37 99 38 101 39 22 40 23 41 24 42 25 43
REMARK SMILES IDX 26 44 27 45 28 47 29 48 30 49 91 50 31 51 90 52 32 53 33 54
REMARK SMILES IDX 34 55 84 56 35 57 89 58 83 59 85 60 36 61 88 62 82 63 81 64
REMARK SMILES IDX 37 66 69 67 49 68 68 69 50 70 53 71 67 72 86 73 51 74 52 75
REMARK SMILES IDX 66 77 87 78 54 79 38 80 39 81 47 82 40 83 41 84 45 85 48 86
REMARK SMILES IDX 42 87 43 88 46 89 44 90 70 91 71 92 79 93 72 94 73 95 77 96
REMARK SMILES IDX 80 97 74 98 75 99 78 100 76 101 55 102 56 103 64 104 57 105
REMARK SMILES IDX 58 106 62 107 65 108 59 109 60 110 63 111 61 112
REMARK H PARENT 19 6 106 21 95 31 26 46 85 65 53 76
REMARK Flexibility Score: inf
ROOT
ATOM      1  C   UNL     1      -2.376  -6.504  -1.591  1.00  0.00     0.021 C 
ENDROOT
BRANCH   1   2
ATOM      2  C   UNL     1      -0.879  -6.659  -1.803  1.00  0.00     0.116 C 
BRANCH   2   3
ATOM      3  N   UNL     1      -0.356  -7.827  -2.441  1.00  0.00    -0.352 N 
ATOM      4  C   UNL     1       0.828  -8.026  -3.125  1.00  0.00     0.251 C 
ATOM      5  O   UNL     1       0.995  -9.198  -3.489  1.00  0.00    -0.269 OA
ATOM      6  H   UNL     1      -0.935  -8.620  -2.383  1.00  0.00     0.163 HD
BRANCH   4   7
ATOM      7  C   UNL     1       1.865  -6.974  -3.545  1.00  0.00     0.045 A 
ATOM      8  C   UNL     1       2.245  -5.709  -3.001  1.00  0.00    -0.006 A 
ATOM      9  C   UNL     1       3.257  -4.963  -3.690  1.00  0.00     0.007 A 
ATOM     10  C   UNL     1       3.952  -5.450  -4.790  1.00  0.00     0.000 A 
ATOM     11  C   UNL     1       2.648  -7.452  -4.640  1.00  0.00     0.014 A 
ATOM     12  C   UNL     1       3.679  -6.721  -5.239  1.00  0.00     0.001 A 
BRANCH   8  13
ATOM     13  C   UNL     1       1.843  -5.126  -1.636  1.00  0.00     0.180 C 
ATOM     14  C   UNL     1       1.193  -1.702  -2.147  1.00  0.00     0.210 A 
ATOM     15  N   UNL     1       2.238  -1.569  -1.264  1.00  0.00    -0.185 NA
ATOM     16  N   UNL     1       0.830  -2.965  -2.413  1.00  0.00    -0.141 NA
ATOM     17  C   UNL     1       2.529  -2.806  -0.960  1.00  0.00     0.227 A 
ATOM     18  N   UNL     1       1.743  -3.648  -1.690  1.00  0.00    -0.218 N 
ATOM     19  N   UNL     1       3.406  -3.329  -0.085  1.00  0.00    -0.328 N 
ATOM     20  C   UNL     1       3.505  -4.691   0.194  1.00  0.00     0.026 C 
ATOM     21  H   UNL     1       4.014  -2.714   0.386  1.00  0.00     0.169 HD
ATOM     22  C   UNL     1       2.719  -5.581  -0.460  1.00  0.00     0.065 C 
ATOM     23  C   UNL     1       4.506  -5.051   1.255  1.00  0.00     0.065 C 
BRANCH  14  24
ATOM     24  S   UNL     1       0.320  -0.360  -2.837  1.00  0.00    -0.084 SA
BRANCH  24  25
ATOM     25  C   UNL     1       1.002   1.069  -1.942  1.00  0.00     0.078 C 
BRANCH  25  26
ATOM     26  C   UNL     1       0.311   1.359  -0.607  1.00  0.00     0.008 C 
ATOM     27  C   UNL     1       0.618   0.362   0.499  1.00  0.00     0.005 C 
ENDBRANCH  25  26
ENDBRANCH  24  25
ENDBRANCH  14  24
BRANCH  22  28
ATOM     28  C   UNL     1       2.622  -7.036  -0.168  1.00  0.00     0.255 C 
ATOM     29  O   UNL     1       2.863  -7.836  -1.072  1.00  0.00    -0.269 OA
ATOM     30  N   UNL     1       2.275  -7.597   1.023  1.00  0.00    -0.322 N 
ATOM     31  H   UNL     1       1.930  -8.515   0.938  1.00  0.00     0.170 HD
BRANCH  30  32
ATOM     32  C   UNL     1       2.309  -7.133   2.347  1.00  0.00     0.044 A 
ATOM     33  C   UNL     1       3.008  -7.982   3.219  1.00  0.00     0.026 A 
ATOM     34  C   UNL     1       1.782  -5.925   2.831  1.00  0.00    -0.025 A 
ATOM     35  C   UNL     1       3.326  -7.575   4.507  1.00  0.00     0.002 A 
ATOM     36  C   UNL     1       2.107  -5.508   4.144  1.00  0.00    -0.046 A 
ATOM     37  C   UNL     1       0.834  -5.099   2.025  1.00  0.00     0.047 C 
ATOM     38  C   UNL     1       2.903  -6.332   4.956  1.00  0.00     0.004 A 
ATOM     39  C   UNL     1       1.673  -4.185   4.722  1.00  0.00     0.044 C 
ENDBRANCH  30  32
ENDBRANCH  22  28
ENDBRANCH   8  13
ENDBRANCH   4   7
ENDBRANCH   2   3
ENDBRANCH   1   2
BRANCH   1  40
ATOM     40  C   UNL     1      -3.025  -7.238  -0.412  1.00  0.00     0.002 C 
BRANCH  40  41
ATOM     41  C   UNL     1      -2.451  -7.054   1.003  1.00  0.00     0.002 C 
BRANCH  41  42
ATOM     42  C   UNL     1      -2.243  -5.640   1.548  1.00  0.00     0.021 C 
BRANCH  42  43
ATOM     43  C   UNL     1      -3.447  -4.746   1.705  1.00  0.00     0.116 C 
BRANCH  43  44
ATOM     44  N   UNL     1      -4.362  -5.152   2.779  1.00  0.00    -0.352 N 
ATOM     45  C   UNL     1      -5.545  -4.530   3.156  1.00  0.00     0.251 C 
ATOM     46  H   UNL     1      -4.109  -5.955   3.289  1.00  0.00     0.163 HD
ATOM     47  O   UNL     1      -6.037  -4.696   4.271  1.00  0.00    -0.269 OA
BRANCH  45  48
ATOM     48  C   UNL     1      -6.198  -3.651   2.174  1.00  0.00     0.039 A 
ATOM     49  C   UNL     1      -6.785  -2.424   2.491  1.00  0.00     0.014 A 
ATOM     50  C   UNL     1      -6.072  -4.052   0.856  1.00  0.00     0.014 A 
ATOM     51  C   UNL     1      -7.142  -1.580   1.441  1.00  0.00     0.010 A 
ATOM     52  C   UNL     1      -6.065  -3.095  -0.106  1.00  0.00     0.010 A 
ATOM     53  C   UNL     1      -6.745  -1.920   0.138  1.00  0.00    -0.014 A 
BRANCH  53  54
ATOM     54  C   UNL     1      -6.971  -1.067  -1.015  1.00  0.00     0.031 A 
ATOM     55  C   UNL     1      -6.528   0.334  -0.835  1.00  0.00     0.074 A 
ATOM     56  C   UNL     1      -7.356  -1.555  -2.217  1.00  0.00     0.049 A 
ATOM     57  N   UNL     1      -7.280   1.374  -0.709  1.00  0.00    -0.248 NA
ATOM     58  C   UNL     1      -5.098   0.594  -0.610  1.00  0.00     0.031 C 
ATOM     59  C   UNL     1      -7.524  -2.951  -2.652  1.00  0.00     0.029 A 
ATOM     60  N   UNL     1      -7.603  -0.870  -3.363  1.00  0.00    -0.354 N 
ATOM     61  C   UNL     1      -6.415   2.454  -0.598  1.00  0.00     0.074 A 
ATOM     62  C   UNL     1      -5.109   1.903  -0.345  1.00  0.00     0.031 C 
ATOM     63  C   UNL     1      -7.603  -3.010  -3.998  1.00  0.00     0.029 A 
ATOM     64  C   UNL     1      -7.694  -1.657  -4.505  1.00  0.00     0.049 A 
ATOM     65  H   UNL     1      -7.709   0.108  -3.383  1.00  0.00     0.167 HD
ATOM     66  C   UNL     1      -6.812   3.699  -0.980  1.00  0.00     0.037 A 
ATOM     67  C   UNL     1      -7.822  -1.211  -5.778  1.00  0.00     0.037 A 
ATOM     68  C   UNL     1      -8.250   3.772  -1.099  1.00  0.00     0.049 A 
ATOM     69  C   UNL     1      -8.333   0.183  -5.693  1.00  0.00     0.074 A 
ATOM     70  C   UNL     1      -9.295   3.545  -0.222  1.00  0.00     0.029 A 
ATOM     71  N   UNL     1      -8.804   3.689  -2.355  1.00  0.00    -0.354 N 
ATOM     72  N   UNL     1      -9.524   0.488  -5.253  1.00  0.00    -0.248 NA
ATOM     73  C   UNL     1      -7.346   1.251  -5.616  1.00  0.00     0.031 C 
ATOM     74  C   UNL     1     -10.267   2.832  -0.986  1.00  0.00     0.029 A 
ATOM     75  C   UNL     1      -9.806   2.750  -2.300  1.00  0.00     0.049 A 
ATOM     76  H   UNL     1      -8.532   4.207  -3.148  1.00  0.00     0.167 HD
ATOM     77  C   UNL     1      -9.332   1.610  -4.459  1.00  0.00     0.074 A 
ATOM     78  C   UNL     1      -7.982   2.074  -4.777  1.00  0.00     0.031 C 
ATOM     79  C   UNL     1     -10.156   1.883  -3.404  1.00  0.00     0.037 A 
BRANCH  66  80
ATOM     80  C   UNL     1      -5.892   4.726  -1.584  1.00  0.00     0.064 A 
ATOM     81  C   UNL     1      -6.352   6.044  -1.765  1.00  0.00     0.173 A 
ATOM     82  C   UNL     1      -4.683   4.407  -2.241  1.00  0.00     0.173 A 
ATOM     83  F   UNL     1      -7.506   6.445  -1.212  1.00  0.00    -0.203 F 
ATOM     84  C   UNL     1      -5.680   6.952  -2.587  1.00  0.00     0.198 A 
ATOM     85  C   UNL     1      -3.985   5.333  -3.013  1.00  0.00     0.198 A 
ATOM     86  F   UNL     1      -4.185   3.165  -2.258  1.00  0.00    -0.203 F 
ATOM     87  F   UNL     1      -6.216   8.157  -2.823  1.00  0.00    -0.200 F 
ATOM     88  C   UNL     1      -4.498   6.596  -3.211  1.00  0.00     0.200 A 
ATOM     89  F   UNL     1      -2.852   4.959  -3.624  1.00  0.00    -0.200 F 
ATOM     90  F   UNL     1      -3.880   7.447  -4.040  1.00  0.00    -0.200 F 
ENDBRANCH  66  80
BRANCH  67  91
ATOM     91  C   UNL     1      -7.232  -1.784  -7.010  1.00  0.00     0.064 A 
ATOM     92  C   UNL     1      -7.671  -1.378  -8.280  1.00  0.00     0.173 A 
ATOM     93  C   UNL     1      -6.037  -2.533  -6.971  1.00  0.00     0.173 A 
ATOM     94  F   UNL     1      -8.776  -0.629  -8.402  1.00  0.00    -0.203 F 
ATOM     95  C   UNL     1      -6.943  -1.675  -9.438  1.00  0.00     0.198 A 
ATOM     96  C   UNL     1      -5.315  -2.832  -8.127  1.00  0.00     0.198 A 
ATOM     97  F   UNL     1      -5.498  -2.908  -5.803  1.00  0.00    -0.203 F 
ATOM     98  F   UNL     1      -7.361  -1.215 -10.626  1.00  0.00    -0.200 F 
ATOM     99  C   UNL     1      -5.759  -2.390  -9.359  1.00  0.00     0.200 A 
ATOM    100  F   UNL     1      -4.154  -3.496  -8.033  1.00  0.00    -0.200 F 
ATOM    101  F   UNL     1      -5.030  -2.619 -10.460  1.00  0.00    -0.200 F 
ENDBRANCH  67  91
BRANCH  79 102
ATOM    102  C   UNL     1     -11.414   1.065  -3.254  1.00  0.00     0.064 A 
ATOM    103  C   UNL     1     -11.436  -0.327  -3.051  1.00  0.00     0.173 A 
ATOM    104  C   UNL     1     -12.639   1.739  -3.160  1.00  0.00     0.173 A 
ATOM    105  F   UNL     1     -10.305  -1.039  -3.021  1.00  0.00    -0.203 F 
ATOM    106  C   UNL     1     -12.628  -1.011  -2.810  1.00  0.00     0.198 A 
ATOM    107  C   UNL     1     -13.823   1.060  -2.883  1.00  0.00     0.198 A 
ATOM    108  F   UNL     1     -12.681   3.075  -3.288  1.00  0.00    -0.203 F 
ATOM    109  F   UNL     1     -12.617  -2.341  -2.631  1.00  0.00    -0.200 F 
ATOM    110  C   UNL     1     -13.820  -0.315  -2.719  1.00  0.00     0.200 A 
ATOM    111  F   UNL     1     -14.967   1.747  -2.746  1.00  0.00    -0.200 F 
ATOM    112  F   UNL     1     -14.961  -0.964  -2.447  1.00  0.00    -0.200 F 
ENDBRANCH  79 102
ENDBRANCH  53  54
ENDBRANCH  45  48
ENDBRANCH  43  44
ENDBRANCH  42  43
ENDBRANCH  41  42
ENDBRANCH  40  41
ENDBRANCH   1  40
TORSDOF 19
