REMARK SMILES O=C(NCCCCCCNC(=O)c1cc(Cl)c2c(c1)[C@H]1C=CC[C@H]1[C@H](c1ccc(S(=O)(=O)N3CCOCC3)cc1)N2)c1ccc(-c2c3nc(c(-c4c(F)c(F)c(F)c(F)c4F)c4ccc([nH]4)c(-c4c(F)c(F)c(F)c(F)c4F)c4nc(c(-c5c(F)c(F)c(F)c(F)c5F)c5ccc2[nH]5)C=C4)C=C3)cc1
REMARK SMILES IDX 7 1 6 2 5 3 4 4 3 5 1 6 2 7 42 9 43 10 104 11 44 12 103 13
REMARK SMILES IDX 45 14 46 15 47 16 97 17 48 18 102 19 96 20 98 21 49 22
REMARK SMILES IDX 101 23 95 24 94 25 50 27 82 28 62 29 81 30 63 31 66 32 80 33
REMARK SMILES IDX 99 34 64 35 65 36 79 38 100 39 67 40 51 41 52 42 60 43 53 44
REMARK SMILES IDX 54 45 58 46 61 47 55 48 56 49 59 50 57 51 83 52 84 53 92 54
REMARK SMILES IDX 85 55 86 56 90 57 93 58 87 59 88 60 91 61 89 62 68 63 69 64
REMARK SMILES IDX 77 65 70 66 71 67 75 68 78 69 72 70 73 71 76 72 74 73 8 74
REMARK SMILES IDX 9 75 10 76 11 77 12 79 13 80 14 81 19 82 15 83 18 84 16 85
REMARK SMILES IDX 17 86 20 87 41 88 21 89 24 90 25 91 22 93 23 94 26 95 27 96
REMARK SMILES IDX 40 97 28 98 39 99 29 100 30 101 31 102 32 103 33 104 34 105
REMARK SMILES IDX 38 106 35 107 37 108 36 109
REMARK H PARENT 3 8 98 26 66 37 10 78 41 92
REMARK Flexibility Score: inf
ROOT
ATOM      1  C   UNL     1       4.572  -3.759  -1.965  1.00  0.00     0.002 C 
ENDROOT
BRANCH   1   2
ATOM      2  C   UNL     1       4.083  -3.695  -0.515  1.00  0.00     0.002 C 
BRANCH   2   3
ATOM      3  C   UNL     1       4.586  -2.496   0.294  1.00  0.00     0.021 C 
BRANCH   3   4
ATOM      4  C   UNL     1       4.269  -1.131  -0.312  1.00  0.00     0.116 C 
BRANCH   4   5
ATOM      5  N   UNL     1       2.839  -0.903  -0.429  1.00  0.00    -0.352 N 
ATOM      6  O   UNL     1       0.871   0.127  -0.022  1.00  0.00    -0.269 OA
ATOM      7  C   UNL     1       2.097   0.169  -0.003  1.00  0.00     0.251 C 
ATOM      8  H   UNL     1       2.332  -1.618  -0.876  1.00  0.00     0.163 HD
BRANCH   7   9
ATOM      9  C   UNL     1       2.781   1.378   0.497  1.00  0.00     0.039 A 
ATOM     10  C   UNL     1       3.793   1.984  -0.254  1.00  0.00     0.014 A 
ATOM     11  C   UNL     1       2.386   1.921   1.722  1.00  0.00     0.014 A 
ATOM     12  C   UNL     1       4.473   3.083   0.265  1.00  0.00     0.010 A 
ATOM     13  C   UNL     1       3.043   3.046   2.224  1.00  0.00     0.010 A 
ATOM     14  C   UNL     1       4.108   3.618   1.511  1.00  0.00    -0.014 A 
BRANCH  14  15
ATOM     15  C   UNL     1       4.845   4.785   2.050  1.00  0.00     0.031 A 
ATOM     16  C   UNL     1       5.815   4.614   3.183  1.00  0.00     0.074 A 
ATOM     17  C   UNL     1       4.654   5.995   1.494  1.00  0.00     0.049 A 
ATOM     18  N   UNL     1       6.590   5.507   3.745  1.00  0.00    -0.248 NA
ATOM     19  C   UNL     1       5.933   3.267   3.763  1.00  0.00     0.031 C 
ATOM     20  C   UNL     1       3.727   6.281   0.400  1.00  0.00     0.029 A 
ATOM     21  N   UNL     1       5.231   7.209   1.771  1.00  0.00    -0.354 N 
ATOM     22  C   UNL     1       7.290   4.833   4.735  1.00  0.00     0.074 A 
ATOM     23  C   UNL     1       6.825   3.462   4.726  1.00  0.00     0.031 C 
ATOM     24  C   UNL     1       3.806   7.585   0.088  1.00  0.00     0.029 A 
ATOM     25  C   UNL     1       4.769   8.229   0.977  1.00  0.00     0.049 A 
ATOM     26  H   UNL     1       5.911   7.336   2.471  1.00  0.00     0.167 HD
ATOM     27  C   UNL     1       8.247   5.314   5.562  1.00  0.00     0.037 A 
ATOM     28  C   UNL     1       5.083   9.539   0.972  1.00  0.00     0.037 A 
ATOM     29  C   UNL     1       8.716   6.674   5.559  1.00  0.00     0.049 A 
ATOM     30  C   UNL     1       6.118  10.051   1.936  1.00  0.00     0.074 A 
ATOM     31  C   UNL     1       9.731   7.235   6.316  1.00  0.00     0.029 A 
ATOM     32  N   UNL     1       8.196   7.688   4.771  1.00  0.00    -0.354 N 
ATOM     33  N   UNL     1       6.829   9.387   2.814  1.00  0.00    -0.248 NA
ATOM     34  C   UNL     1       6.394  11.495   1.909  1.00  0.00     0.031 C 
ATOM     35  C   UNL     1       9.793   8.600   6.018  1.00  0.00     0.029 A 
ATOM     36  C   UNL     1       8.845   8.880   5.048  1.00  0.00     0.049 A 
ATOM     37  H   UNL     1       7.473   7.577   4.111  1.00  0.00     0.167 HD
ATOM     38  C   UNL     1       7.641  10.326   3.435  1.00  0.00     0.074 A 
ATOM     39  C   UNL     1       7.353  11.604   2.818  1.00  0.00     0.031 C 
ATOM     40  C   UNL     1       8.541  10.144   4.431  1.00  0.00     0.037 A 
BRANCH  27  41
ATOM     41  C   UNL     1       8.876   4.368   6.539  1.00  0.00     0.064 A 
ATOM     42  C   UNL     1       9.827   3.424   6.128  1.00  0.00     0.173 A 
ATOM     43  C   UNL     1       8.606   4.479   7.911  1.00  0.00     0.173 A 
ATOM     44  F   UNL     1      10.113   3.276   4.825  1.00  0.00    -0.203 F 
ATOM     45  C   UNL     1      10.486   2.622   7.056  1.00  0.00     0.198 A 
ATOM     46  C   UNL     1       9.281   3.689   8.838  1.00  0.00     0.198 A 
ATOM     47  F   UNL     1       7.709   5.372   8.353  1.00  0.00    -0.203 F 
ATOM     48  F   UNL     1      11.383   1.717   6.640  1.00  0.00    -0.200 F 
ATOM     49  C   UNL     1      10.220   2.763   8.410  1.00  0.00     0.200 A 
ATOM     50  F   UNL     1       9.031   3.833  10.147  1.00  0.00    -0.200 F 
ATOM     51  F   UNL     1      10.872   2.006   9.304  1.00  0.00    -0.200 F 
ENDBRANCH  27  41
BRANCH  28  52
ATOM     52  C   UNL     1       4.408  10.456   0.021  1.00  0.00     0.064 A 
ATOM     53  C   UNL     1       5.106  11.025  -1.053  1.00  0.00     0.173 A 
ATOM     54  C   UNL     1       3.052  10.784   0.168  1.00  0.00     0.173 A 
ATOM     55  F   UNL     1       6.409  10.757  -1.220  1.00  0.00    -0.203 F 
ATOM     56  C   UNL     1       4.476  11.900  -1.935  1.00  0.00     0.198 A 
ATOM     57  C   UNL     1       2.418  11.639  -0.730  1.00  0.00     0.198 A 
ATOM     58  F   UNL     1       2.342  10.264   1.180  1.00  0.00    -0.203 F 
ATOM     59  F   UNL     1       5.176  12.462  -2.930  1.00  0.00    -0.200 F 
ATOM     60  C   UNL     1       3.132  12.202  -1.776  1.00  0.00     0.200 A 
ATOM     61  F   UNL     1       1.116  11.920  -0.579  1.00  0.00    -0.200 F 
ATOM     62  F   UNL     1       2.527  13.042  -2.627  1.00  0.00    -0.200 F 
ENDBRANCH  28  52
BRANCH  40  63
ATOM     63  C   UNL     1       9.279  11.351   4.927  1.00  0.00     0.064 A 
ATOM     64  C   UNL     1       8.649  12.300   5.745  1.00  0.00     0.173 A 
ATOM     65  C   UNL     1      10.643  11.522   4.647  1.00  0.00     0.173 A 
ATOM     66  F   UNL     1       7.342  12.186   6.027  1.00  0.00    -0.203 F 
ATOM     67  C   UNL     1       9.357  13.382   6.260  1.00  0.00     0.198 A 
ATOM     68  C   UNL     1      11.354  12.591   5.184  1.00  0.00     0.198 A 
ATOM     69  F   UNL     1      11.290  10.637   3.875  1.00  0.00    -0.203 F 
ATOM     70  F   UNL     1       8.729  14.292   7.017  1.00  0.00    -0.200 F 
ATOM     71  C   UNL     1      10.710  13.521   5.987  1.00  0.00     0.200 A 
ATOM     72  F   UNL     1      12.664  12.717   4.931  1.00  0.00    -0.200 F 
ATOM     73  F   UNL     1      11.394  14.554   6.498  1.00  0.00    -0.200 F 
ENDBRANCH  40  63
ENDBRANCH  14  15
ENDBRANCH   7   9
ENDBRANCH   4   5
ENDBRANCH   3   4
ENDBRANCH   2   3
ENDBRANCH   1   2
BRANCH   1  74
ATOM     74  C   UNL     1       6.092  -3.745  -2.143  1.00  0.00     0.021 C 
BRANCH  74  75
ATOM     75  C   UNL     1       6.842  -4.818  -1.359  1.00  0.00     0.116 C 
BRANCH  75  76
ATOM     76  N   UNL     1       6.443  -6.162  -1.742  1.00  0.00    -0.352 N 
ATOM     77  C   UNL     1       7.243  -7.226  -2.070  1.00  0.00     0.251 C 
ATOM     78  H   UNL     1       5.474  -6.330  -1.770  1.00  0.00     0.163 HD
ATOM     79  O   UNL     1       6.770  -8.268  -2.506  1.00  0.00    -0.269 OA
BRANCH  77  80
ATOM     80  C   UNL     1       8.700  -7.081  -1.924  1.00  0.00     0.041 A 
ATOM     81  C   UNL     1       9.259  -6.764  -0.688  1.00  0.00     0.036 A 
ATOM     82  C   UNL     1       9.501  -7.240  -3.051  1.00  0.00     0.020 A 
ATOM     83  C   UNL     1      10.625  -6.511  -0.612  1.00  0.00     0.065 A 
ATOM     84  C   UNL     1      10.883  -7.009  -2.967  1.00  0.00    -0.015 A 
ATOM     85  Cl  UNL     1      11.282  -6.050   0.922  1.00  0.00    -0.082 Cl
ATOM     86  C   UNL     1      11.450  -6.590  -1.753  1.00  0.00     0.057 A 
ATOM     87  C   UNL     1      11.735  -7.256  -4.177  1.00  0.00     0.049 C 
ATOM     88  N   UNL     1      12.811  -6.335  -1.665  1.00  0.00    -0.376 N 
ATOM     89  C   UNL     1      11.595  -6.237  -5.279  1.00  0.00    -0.023 C 
ATOM     90  C   UNL     1      13.257  -7.241  -3.920  1.00  0.00     0.031 C 
ATOM     91  C   UNL     1      13.611  -6.157  -2.868  1.00  0.00     0.114 C 
ATOM     92  H   UNL     1      13.239  -6.274  -0.781  1.00  0.00     0.161 HD
ATOM     93  C   UNL     1      12.754  -6.082  -5.929  1.00  0.00    -0.030 C 
ATOM     94  C   UNL     1      13.810  -6.960  -5.334  1.00  0.00     0.034 C 
BRANCH  91  95
ATOM     95  C   UNL     1      15.088  -6.166  -2.490  1.00  0.00    -0.025 A 
ATOM     96  C   UNL     1      15.603  -6.850  -1.372  1.00  0.00     0.007 A 
ATOM     97  C   UNL     1      15.983  -5.471  -3.308  1.00  0.00     0.007 A 
ATOM     98  C   UNL     1      16.977  -6.850  -1.096  1.00  0.00     0.022 A 
ATOM     99  C   UNL     1      17.349  -5.513  -3.063  1.00  0.00     0.022 A 
ATOM    100  C   UNL     1      17.852  -6.191  -1.960  1.00  0.00     0.082 A 
BRANCH 100 101
ATOM    101  S   UNL     1      19.602  -6.245  -1.641  1.00  0.00     0.243 S 
ATOM    102  O   UNL     1      19.852  -5.262  -0.603  1.00  0.00    -0.207 OA
ATOM    103  O   UNL     1      19.944  -7.637  -1.472  1.00  0.00    -0.207 OA
BRANCH 101 104
ATOM    104  N   UNL     1      20.321  -5.704  -3.055  1.00  0.00    -0.193 NA
ATOM    105  C   UNL     1      20.606  -4.276  -3.306  1.00  0.00     0.131 C 
ATOM    106  C   UNL     1      20.685  -6.626  -4.146  1.00  0.00     0.131 C 
ATOM    107  C   UNL     1      20.184  -3.851  -4.724  1.00  0.00     0.177 C 
ATOM    108  C   UNL     1      20.155  -6.099  -5.480  1.00  0.00     0.177 C 
ATOM    109  O   UNL     1      20.622  -4.766  -5.735  1.00  0.00    -0.379 OA
ENDBRANCH 101 104
ENDBRANCH 100 101
ENDBRANCH  91  95
ENDBRANCH  77  80
ENDBRANCH  75  76
ENDBRANCH  74  75
ENDBRANCH   1  74
TORSDOF 16
