REMARK SMILES COc1cc2c(cc1OC)[C@H](c1cccc([N+](=O)[O-])c1)N(C(=O)CCC(=O)NCCCCCCNC(=O)c1ccc(-c3c4nc(c(-c5c(F)c(F)c(F)c(F)c5F)c5ccc([nH]5)c(-c5c(F)c(F)c(F)c(F)c5F)c5nc(c(-c6c(F)c(F)c(F)c(F)c6F)c6ccc3[nH]6)C=C5)C=C4)cc1)CC2
REMARK SMILES IDX 30 1 29 2 28 3 26 4 27 5 25 7 24 8 22 9 23 10 21 11 3 12
REMARK SMILES IDX 4 13 8 14 5 15 7 16 6 17 102 18 11 19 101 20 2 21 1 22 9 23
REMARK SMILES IDX 10 24 12 25 13 26 20 27 14 28 16 29 15 30 17 31 18 32 19 33
REMARK SMILES IDX 31 34 32 35 33 36 34 37 35 38 36 39 37 41 38 42 39 43 100 44
REMARK SMILES IDX 40 45 99 46 41 47 42 48 43 49 93 50 44 51 98 52 92 53 94 54
REMARK SMILES IDX 45 55 97 56 91 57 90 58 46 60 78 61 58 62 77 63 59 64 62 65
REMARK SMILES IDX 76 66 95 67 60 68 61 69 75 71 96 72 63 73 47 74 48 75 56 76
REMARK SMILES IDX 49 77 50 78 54 79 57 80 51 81 52 82 55 83 53 84 79 85 80 86
REMARK SMILES IDX 88 87 81 88 82 89 86 90 89 91 83 92 84 93 87 94 85 95 64 96
REMARK SMILES IDX 65 97 73 98 66 99 67 100 71 101 74 102 68 103 69 104 72 105
REMARK SMILES IDX 70 106
REMARK H PARENT 28 6 35 40 94 59 62 70
REMARK Flexibility Score: inf
ROOT
ATOM      1  C   UNL     1      -0.057  -4.309   4.485  1.00  0.00     0.021 C 
ENDROOT
BRANCH   1   2
ATOM      2  C   UNL     1       1.035  -3.185   5.943  1.00  0.00     0.116 C 
BRANCH   2   3
ATOM      3  N   UNL     1       0.630  -2.637   7.359  1.00  0.00    -0.356 N 
ATOM      4  C   UNL     1       0.905  -2.960   8.651  1.00  0.00     0.220 C 
ATOM      5  O   UNL     1       0.452  -2.211   9.520  1.00  0.00    -0.275 OA
ATOM      6  H   UNL     1       0.023  -1.865   7.294  1.00  0.00     0.163 HD
BRANCH   4   7
ATOM      7  C   UNL     1       1.707  -4.174   9.029  1.00  0.00     0.110 C 
BRANCH   7   8
ATOM      8  C   UNL     1       0.995  -5.485   8.727  1.00  0.00     0.110 C 
BRANCH   8   9
ATOM      9  C   UNL     1       1.424  -5.879   7.352  1.00  0.00     0.223 C 
ATOM     10  O   UNL     1       2.412  -6.591   7.178  1.00  0.00    -0.275 OA
BRANCH   9  11
ATOM     11  N   UNL     1       0.812  -5.201   6.307  1.00  0.00    -0.331 N 
ATOM     12  C   UNL     1       1.502  -0.655   2.841  1.00  0.00     0.161 A 
ATOM     13  C   UNL     1       0.323  -1.027   3.495  1.00  0.00     0.054 A 
ATOM     14  C   UNL     1       2.759  -1.402   2.846  1.00  0.00     0.161 A 
ATOM     15  C   UNL     1       0.374  -2.274   4.068  1.00  0.00    -0.037 A 
ATOM     16  C   UNL     1       2.934  -2.701   3.408  1.00  0.00     0.057 A 
ATOM     17  C   UNL     1       1.795  -3.299   3.940  1.00  0.00    -0.014 A 
ATOM     18  C   UNL     1      -0.969  -2.608   5.383  1.00  0.00     0.057 C 
ATOM     19  C   UNL     1       1.966  -4.986   4.860  1.00  0.00     0.146 C 
ATOM     20  C   UNL     1      -0.801  -4.258   6.471  1.00  0.00     0.125 C 
BRANCH  12  21
ATOM     21  O   UNL     1       1.422   0.549   2.159  1.00  0.00    -0.493 OA
ATOM     22  C   UNL     1       1.297   0.299   0.755  1.00  0.00     0.278 C 
ENDBRANCH  12  21
BRANCH  14  23
ATOM     23  O   UNL     1       3.812  -0.686   2.307  1.00  0.00    -0.493 OA
ATOM     24  C   UNL     1       4.784  -1.427   1.588  1.00  0.00     0.278 C 
ENDBRANCH  14  23
BRANCH  19  25
ATOM     25  C   UNL     1       1.933  -6.329   4.029  1.00  0.00    -0.014 A 
ATOM     26  C   UNL     1       2.728  -6.577   2.908  1.00  0.00     0.007 A 
ATOM     27  C   UNL     1       0.983  -7.333   4.361  1.00  0.00     0.091 A 
ATOM     28  C   UNL     1       2.429  -7.651   2.043  1.00  0.00     0.007 A 
ATOM     29  C   UNL     1       0.618  -8.335   3.458  1.00  0.00     0.269 A 
ATOM     30  C   UNL     1       1.335  -8.492   2.278  1.00  0.00     0.085 A 
BRANCH  29  31
ATOM     31  N   UNL     1      -0.617  -9.099   3.701  1.00  0.00     0.062 N 
ATOM     32  O   UNL     1      -0.987  -9.889   2.821  1.00  0.00    -0.258 OA
ATOM     33  O   UNL     1      -1.245  -8.871   4.746  1.00  0.00    -0.258 OA
ENDBRANCH  29  31
ENDBRANCH  19  25
ENDBRANCH   9  11
ENDBRANCH   8   9
ENDBRANCH   7   8
ENDBRANCH   4   7
ENDBRANCH   2   3
ENDBRANCH   1   2
BRANCH   1  34
ATOM     34  C   UNL     1      -0.173  -4.550   2.729  1.00  0.00     0.002 C 
BRANCH  34  35
ATOM     35  C   UNL     1       0.255  -3.777   1.451  1.00  0.00     0.002 C 
BRANCH  35  36
ATOM     36  C   UNL     1       1.691  -3.944   0.956  1.00  0.00     0.021 C 
BRANCH  36  37
ATOM     37  C   UNL     1       1.937  -4.933  -0.165  1.00  0.00     0.116 C 
BRANCH  37  38
ATOM     38  N   UNL     1       1.793  -4.341  -1.479  1.00  0.00    -0.352 N 
ATOM     39  C   UNL     1       2.677  -4.309  -2.533  1.00  0.00     0.251 C 
ATOM     40  H   UNL     1       0.932  -3.893  -1.643  1.00  0.00     0.163 HD
ATOM     41  O   UNL     1       2.418  -3.616  -3.513  1.00  0.00    -0.269 OA
BRANCH  39  42
ATOM     42  C   UNL     1       3.957  -5.068  -2.494  1.00  0.00     0.039 A 
ATOM     43  C   UNL     1       5.076  -4.525  -3.135  1.00  0.00     0.014 A 
ATOM     44  C   UNL     1       4.071  -6.312  -1.867  1.00  0.00     0.014 A 
ATOM     45  C   UNL     1       6.297  -5.207  -3.118  1.00  0.00     0.010 A 
ATOM     46  C   UNL     1       5.313  -6.930  -1.744  1.00  0.00     0.010 A 
ATOM     47  C   UNL     1       6.432  -6.409  -2.404  1.00  0.00    -0.014 A 
BRANCH  47  48
ATOM     48  C   UNL     1       7.712  -7.167  -2.421  1.00  0.00     0.031 A 
ATOM     49  C   UNL     1       7.752  -8.555  -3.012  1.00  0.00     0.074 A 
ATOM     50  C   UNL     1       8.826  -6.624  -1.892  1.00  0.00     0.049 A 
ATOM     51  N   UNL     1       8.764  -9.378  -3.130  1.00  0.00    -0.248 NA
ATOM     52  C   UNL     1       6.478  -9.111  -3.500  1.00  0.00     0.031 C 
ATOM     53  C   UNL     1       8.898  -5.325  -1.221  1.00  0.00     0.029 A 
ATOM     54  N   UNL     1      10.115  -7.094  -1.840  1.00  0.00    -0.354 N 
ATOM     55  C   UNL     1       8.241 -10.546  -3.673  1.00  0.00     0.074 A 
ATOM     56  C   UNL     1       6.815 -10.356  -3.800  1.00  0.00     0.031 C 
ATOM     57  C   UNL     1      10.169  -5.084  -0.860  1.00  0.00     0.029 A 
ATOM     58  C   UNL     1      10.999  -6.219  -1.254  1.00  0.00     0.049 A 
ATOM     59  H   UNL     1      10.382  -7.975  -2.189  1.00  0.00     0.167 HD
ATOM     60  C   UNL     1       8.895 -11.663  -4.068  1.00  0.00     0.037 A 
ATOM     61  C   UNL     1      12.330  -6.318  -1.072  1.00  0.00     0.037 A 
ATOM     62  C   UNL     1      10.323 -11.815  -4.012  1.00  0.00     0.049 A 
ATOM     63  C   UNL     1      13.045  -7.538  -1.591  1.00  0.00     0.074 A 
ATOM     64  C   UNL     1      11.099 -12.860  -4.479  1.00  0.00     0.029 A 
ATOM     65  N   UNL     1      11.189 -10.883  -3.461  1.00  0.00    -0.354 N 
ATOM     66  N   UNL     1      12.550  -8.592  -2.194  1.00  0.00    -0.248 NA
ATOM     67  C   UNL     1      14.504  -7.577  -1.420  1.00  0.00     0.031 C 
ATOM     68  C   UNL     1      12.435 -12.577  -4.176  1.00  0.00     0.029 A 
ATOM     69  C   UNL     1      12.493 -11.337  -3.559  1.00  0.00     0.049 A 
ATOM     70  H   UNL     1      10.917 -10.026  -3.059  1.00  0.00     0.167 HD
ATOM     71  C   UNL     1      13.634  -9.406  -2.494  1.00  0.00     0.074 A 
ATOM     72  C   UNL     1      14.817  -8.713  -2.027  1.00  0.00     0.031 C 
ATOM     73  C   UNL     1      13.652 -10.620  -3.096  1.00  0.00     0.037 A 
BRANCH  60  74
ATOM     74  C   UNL     1       8.078 -12.798  -4.616  1.00  0.00     0.064 A 
ATOM     75  C   UNL     1       7.434 -12.711  -5.860  1.00  0.00     0.173 A 
ATOM     76  C   UNL     1       7.965 -14.001  -3.903  1.00  0.00     0.173 A 
ATOM     77  F   UNL     1       7.497 -11.578  -6.576  1.00  0.00    -0.203 F 
ATOM     78  C   UNL     1       6.684 -13.775  -6.356  1.00  0.00     0.198 A 
ATOM     79  C   UNL     1       7.240 -15.073  -4.416  1.00  0.00     0.198 A 
ATOM     80  F   UNL     1       8.564 -14.139  -2.711  1.00  0.00    -0.203 F 
ATOM     81  F   UNL     1       6.035 -13.649  -7.522  1.00  0.00    -0.200 F 
ATOM     82  C   UNL     1       6.594 -14.957  -5.637  1.00  0.00     0.200 A 
ATOM     83  F   UNL     1       7.163 -16.219  -3.725  1.00  0.00    -0.200 F 
ATOM     84  F   UNL     1       5.877 -15.982  -6.118  1.00  0.00    -0.200 F 
ENDBRANCH  60  74
BRANCH  61  85
ATOM     85  C   UNL     1      13.079  -5.218  -0.406  1.00  0.00     0.064 A 
ATOM     86  C   UNL     1      13.979  -4.416  -1.122  1.00  0.00     0.173 A 
ATOM     87  C   UNL     1      12.918  -4.951   0.962  1.00  0.00     0.173 A 
ATOM     88  F   UNL     1      14.181  -4.641  -2.429  1.00  0.00    -0.203 F 
ATOM     89  C   UNL     1      14.709  -3.409  -0.492  1.00  0.00     0.198 A 
ATOM     90  C   UNL     1      13.626  -3.925   1.585  1.00  0.00     0.198 A 
ATOM     91  F   UNL     1      12.063  -5.682   1.692  1.00  0.00    -0.203 F 
ATOM     92  F   UNL     1      15.598  -2.691  -1.192  1.00  0.00    -0.200 F 
ATOM     93  C   UNL     1      14.528  -3.161   0.860  1.00  0.00     0.200 A 
ATOM     94  F   UNL     1      13.436  -3.678   2.888  1.00  0.00    -0.200 F 
ATOM     95  F   UNL     1      15.228  -2.192   1.465  1.00  0.00    -0.200 F 
ENDBRANCH  61  85
BRANCH  73  96
ATOM     96  C   UNL     1      14.989 -11.264  -3.304  1.00  0.00     0.064 A 
ATOM     97  C   UNL     1      15.710 -11.814  -2.234  1.00  0.00     0.173 A 
ATOM     98  C   UNL     1      15.527 -11.383  -4.594  1.00  0.00     0.173 A 
ATOM     99  F   UNL     1      15.241 -11.713  -0.981  1.00  0.00    -0.203 F 
ATOM    100  C   UNL     1      16.934 -12.440  -2.446  1.00  0.00     0.198 A 
ATOM    101  C   UNL     1      16.738 -12.036  -4.805  1.00  0.00     0.198 A 
ATOM    102  F   UNL     1      14.870 -10.882  -5.650  1.00  0.00    -0.203 F 
ATOM    103  F   UNL     1      17.627 -12.922  -1.405  1.00  0.00    -0.200 F 
ATOM    104  C   UNL     1      17.443 -12.558  -3.731  1.00  0.00     0.200 A 
ATOM    105  F   UNL     1      17.220 -12.162  -6.049  1.00  0.00    -0.200 F 
ATOM    106  F   UNL     1      18.617 -13.171  -3.934  1.00  0.00    -0.200 F 
ENDBRANCH  73  96
ENDBRANCH  47  48
ENDBRANCH  39  42
ENDBRANCH  37  38
ENDBRANCH  36  37
ENDBRANCH  35  36
ENDBRANCH  34  35
ENDBRANCH   1  34
TORSDOF 20
