REMARK SMILES Cc1ccc(S(=O)(=O)n2cc(C(=O)C(=O)NCC(=O)NCC(=O)NCCCCCCNC(=O)c3ccc(-c4c5nc(c(-c6c(F)c(F)c(F)c(F)c6F)c6ccc([nH]6)c(-c6c(F)c(F)c(F)c(F)c6F)c6nc(c(-c7c(F)c(F)c(F)c(F)c7F)c7ccc4[nH]7)C=C6)C=C5)cc3)c3ccccc32)cc1
REMARK SMILES IDX 25 1 24 2 22 3 23 4 21 6 20 7 18 8 19 9 17 11 16 12 14 13
REMARK SMILES IDX 15 14 12 16 13 17 11 18 9 19 10 20 102 21 97 22 101 23 98 24
REMARK SMILES IDX 100 25 99 26 6 27 7 28 8 29 5 30 1 31 2 32 3 33 104 34 4 35
REMARK SMILES IDX 103 36 26 37 27 38 28 39 29 40 30 41 31 42 32 43 33 45 34 46
REMARK SMILES IDX 35 47 96 48 36 49 95 50 37 51 38 52 39 53 89 54 40 55 94 56
REMARK SMILES IDX 88 57 90 58 41 59 93 60 87 61 86 62 42 64 74 65 54 66 73 67
REMARK SMILES IDX 55 68 58 69 72 70 91 71 56 72 57 73 71 75 92 76 59 77 43 78
REMARK SMILES IDX 44 79 52 80 45 81 46 82 50 83 53 84 47 85 48 86 51 87 49 88
REMARK SMILES IDX 75 89 76 90 84 91 77 92 78 93 82 94 85 95 79 96 80 97 83 98
REMARK SMILES IDX 81 99 60 100 61 101 69 102 62 103 63 104 67 105 70 106
REMARK SMILES IDX 64 107 65 108 68 109 66 110
REMARK H PARENT 24 5 20 10 16 15 31 44 90 63 58 74
REMARK Flexibility Score: inf
ROOT
ATOM      1  C   UNL     1      -9.754   3.373   3.591  1.00  0.00     0.116 C 
ENDROOT
BRANCH   1   2
ATOM      2  N   UNL     1     -10.261   2.918   2.320  1.00  0.00    -0.355 N 
ATOM      3  C   UNL     1     -10.114   3.478   1.083  1.00  0.00     0.239 C 
ATOM      4  O   UNL     1     -10.423   2.790   0.107  1.00  0.00    -0.273 OA
ATOM      5  H   UNL     1     -10.788   2.087   2.348  1.00  0.00     0.163 HD
BRANCH   3   6
ATOM      6  C   UNL     1      -9.427   4.844   0.892  1.00  0.00     0.216 C 
BRANCH   6   7
ATOM      7  N   UNL     1      -9.892   5.895   1.784  1.00  0.00    -0.346 N 
ATOM      8  C   UNL     1      -9.214   6.674   2.674  1.00  0.00     0.239 C 
ATOM      9  O   UNL     1      -9.871   7.446   3.376  1.00  0.00    -0.273 OA
ATOM     10  H   UNL     1     -10.859   6.075   1.736  1.00  0.00     0.164 HD
BRANCH   8  11
ATOM     11  C   UNL     1      -7.681   6.618   2.796  1.00  0.00     0.216 C 
BRANCH  11  12
ATOM     12  N   UNL     1      -7.138   5.359   3.312  1.00  0.00    -0.340 N 
ATOM     13  C   UNL     1      -6.313   4.410   2.738  1.00  0.00     0.292 C 
ATOM     14  O   UNL     1      -6.063   3.390   3.373  1.00  0.00    -0.265 OA
ATOM     15  H   UNL     1      -7.411   5.151   4.234  1.00  0.00     0.164 HD
BRANCH  13  16
ATOM     16  C   UNL     1      -5.719   4.630   1.331  1.00  0.00     0.252 C 
ATOM     17  O   UNL     1      -5.818   5.756   0.852  1.00  0.00    -0.283 OA
BRANCH  16  18
ATOM     18  C   UNL     1      -5.053   3.573   0.559  1.00  0.00     0.054 A 
ATOM     19  N   UNL     1      -4.153   1.648  -0.132  1.00  0.00    -0.240 N 
ATOM     20  C   UNL     1      -4.848   2.246   0.894  1.00  0.00     0.117 A 
ATOM     21  C   UNL     1      -3.897   2.541  -1.152  1.00  0.00     0.065 A 
ATOM     22  C   UNL     1      -4.450   3.759  -0.739  1.00  0.00     0.012 A 
ATOM     23  C   UNL     1      -3.211   2.418  -2.375  1.00  0.00     0.028 A 
ATOM     24  C   UNL     1      -4.315   4.880  -1.588  1.00  0.00     0.011 A 
ATOM     25  C   UNL     1      -3.073   3.555  -3.177  1.00  0.00     0.002 A 
ATOM     26  C   UNL     1      -3.621   4.771  -2.793  1.00  0.00     0.001 A 
BRANCH  19  27
ATOM     27  S   UNL     1      -3.587   0.040  -0.090  1.00  0.00     0.268 S 
ATOM     28  O   UNL     1      -3.935  -0.520  -1.377  1.00  0.00    -0.201 OA
ATOM     29  O   UNL     1      -4.088  -0.520   1.157  1.00  0.00    -0.201 OA
BRANCH  27  30
ATOM     30  C   UNL     1      -1.816   0.081   0.025  1.00  0.00     0.088 A 
ATOM     31  C   UNL     1       2.486  -0.049   0.021  1.00  0.00     0.044 C 
ATOM     32  C   UNL     1       0.986   0.001   0.041  1.00  0.00    -0.051 A 
ATOM     33  C   UNL     1       0.246  -1.185  -0.036  1.00  0.00     0.005 A 
ATOM     34  C   UNL     1       0.309   1.223   0.139  1.00  0.00     0.005 A 
ATOM     35  C   UNL     1      -1.149  -1.147  -0.050  1.00  0.00     0.022 A 
ATOM     36  C   UNL     1      -1.089   1.267   0.144  1.00  0.00     0.022 A 
ENDBRANCH  27  30
ENDBRANCH  19  27
ENDBRANCH  16  18
ENDBRANCH  13  16
ENDBRANCH  11  12
ENDBRANCH   8  11
ENDBRANCH   6   7
ENDBRANCH   3   6
ENDBRANCH   1   2
BRANCH   1  37
ATOM     37  C   UNL     1     -10.820   3.476   4.672  1.00  0.00     0.021 C 
BRANCH  37  38
ATOM     38  C   UNL     1     -11.235   2.135   5.276  1.00  0.00     0.002 C 
BRANCH  38  39
ATOM     39  C   UNL     1     -10.087   1.240   5.770  1.00  0.00     0.002 C 
BRANCH  39  40
ATOM     40  C   UNL     1      -9.032   1.922   6.640  1.00  0.00     0.021 C 
BRANCH  40  41
ATOM     41  C   UNL     1      -9.547   2.388   7.988  1.00  0.00     0.116 C 
BRANCH  41  42
ATOM     42  N   UNL     1      -9.553   1.335   8.994  1.00  0.00    -0.352 N 
ATOM     43  C   UNL     1      -9.736   1.408  10.362  1.00  0.00     0.251 C 
ATOM     44  H   UNL     1      -9.404   0.428   8.644  1.00  0.00     0.163 HD
ATOM     45  O   UNL     1      -9.481   0.435  11.064  1.00  0.00    -0.269 OA
BRANCH  43  46
ATOM     46  C   UNL     1     -10.449   2.568  10.948  1.00  0.00     0.039 A 
ATOM     47  C   UNL     1     -11.507   2.251  11.815  1.00  0.00     0.014 A 
ATOM     48  C   UNL     1     -10.388   3.813  10.339  1.00  0.00     0.014 A 
ATOM     49  C   UNL     1     -12.653   3.027  11.789  1.00  0.00     0.010 A 
ATOM     50  C   UNL     1     -11.565   4.490  10.177  1.00  0.00     0.010 A 
ATOM     51  C   UNL     1     -12.704   4.049  10.852  1.00  0.00    -0.014 A 
BRANCH  51  52
ATOM     52  C   UNL     1     -13.902   4.774  10.508  1.00  0.00     0.031 A 
ATOM     53  C   UNL     1     -14.112   6.054  11.192  1.00  0.00     0.074 A 
ATOM     54  C   UNL     1     -14.635   4.325   9.467  1.00  0.00     0.049 A 
ATOM     55  N   UNL     1     -15.259   6.598  11.372  1.00  0.00    -0.248 NA
ATOM     56  C   UNL     1     -13.018   6.806  11.805  1.00  0.00     0.031 C 
ATOM     57  C   UNL     1     -15.662   5.029   8.711  1.00  0.00     0.029 A 
ATOM     58  N   UNL     1     -14.675   3.013   8.964  1.00  0.00    -0.354 N 
ATOM     59  C   UNL     1     -15.031   7.888  11.805  1.00  0.00     0.074 A 
ATOM     60  C   UNL     1     -13.643   7.922  12.186  1.00  0.00     0.031 C 
ATOM     61  C   UNL     1     -16.425   4.125   8.069  1.00  0.00     0.029 A 
ATOM     62  C   UNL     1     -16.003   2.810   8.523  1.00  0.00     0.049 A 
ATOM     63  H   UNL     1     -13.932   2.368   8.927  1.00  0.00     0.167 HD
ATOM     64  C   UNL     1     -16.012   8.812  11.603  1.00  0.00     0.037 A 
ATOM     65  C   UNL     1     -16.811   1.911   9.163  1.00  0.00     0.037 A 
ATOM     66  C   UNL     1     -17.157   8.165  10.966  1.00  0.00     0.049 A 
ATOM     67  C   UNL     1     -17.987   2.581   9.831  1.00  0.00     0.074 A 
ATOM     68  C   UNL     1     -17.510   8.040   9.632  1.00  0.00     0.029 A 
ATOM     69  N   UNL     1     -17.870   7.197  11.660  1.00  0.00    -0.354 N 
ATOM     70  N   UNL     1     -17.971   3.814  10.260  1.00  0.00    -0.248 NA
ATOM     71  C   UNL     1     -19.275   1.928  10.034  1.00  0.00     0.031 C 
ATOM     72  C   UNL     1     -18.415   6.956   9.522  1.00  0.00     0.029 A 
ATOM     73  C   UNL     1     -18.625   6.436  10.789  1.00  0.00     0.049 A 
ATOM     74  H   UNL     1     -17.842   7.070  12.636  1.00  0.00     0.167 HD
ATOM     75  C   UNL     1     -19.205   4.132  10.768  1.00  0.00     0.074 A 
ATOM     76  C   UNL     1     -19.984   2.920  10.601  1.00  0.00     0.031 C 
ATOM     77  C   UNL     1     -19.485   5.370  11.276  1.00  0.00     0.037 A 
BRANCH  64  78
ATOM     78  C   UNL     1     -15.840  10.314  11.655  1.00  0.00     0.064 A 
ATOM     79  C   UNL     1     -16.719  11.148  10.926  1.00  0.00     0.173 A 
ATOM     80  C   UNL     1     -14.832  11.000  12.357  1.00  0.00     0.173 A 
ATOM     81  F   UNL     1     -17.781  10.653  10.277  1.00  0.00    -0.203 F 
ATOM     82  C   UNL     1     -16.548  12.531  10.835  1.00  0.00     0.198 A 
ATOM     83  C   UNL     1     -14.640  12.382  12.239  1.00  0.00     0.198 A 
ATOM     84  F   UNL     1     -14.032  10.378  13.228  1.00  0.00    -0.203 F 
ATOM     85  F   UNL     1     -17.414  13.260  10.116  1.00  0.00    -0.200 F 
ATOM     86  C   UNL     1     -15.493  13.147  11.471  1.00  0.00     0.200 A 
ATOM     87  F   UNL     1     -13.620  12.968  12.884  1.00  0.00    -0.200 F 
ATOM     88  F   UNL     1     -15.317  14.470  11.369  1.00  0.00    -0.200 F 
ENDBRANCH  64  78
BRANCH  65  89
ATOM     89  C   UNL     1     -16.039   0.760   9.717  1.00  0.00     0.064 A 
ATOM     90  C   UNL     1     -15.345  -0.055   8.798  1.00  0.00     0.173 A 
ATOM     91  C   UNL     1     -15.606   0.742  11.049  1.00  0.00     0.173 A 
ATOM     92  F   UNL     1     -15.735  -0.093   7.513  1.00  0.00    -0.203 F 
ATOM     93  C   UNL     1     -14.166  -0.705   9.153  1.00  0.00     0.198 A 
ATOM     94  C   UNL     1     -14.440   0.061  11.408  1.00  0.00     0.198 A 
ATOM     95  F   UNL     1     -16.230   1.481  11.977  1.00  0.00    -0.203 F 
ATOM     96  F   UNL     1     -13.442  -1.335   8.216  1.00  0.00    -0.200 F 
ATOM     97  C   UNL     1     -13.694  -0.615  10.451  1.00  0.00     0.200 A 
ATOM     98  F   UNL     1     -13.979   0.145  12.665  1.00  0.00    -0.200 F 
ATOM     99  F   UNL     1     -12.504  -1.142  10.770  1.00  0.00    -0.200 F 
ENDBRANCH  65  89
BRANCH  77 100
ATOM    100  C   UNL     1     -20.652   5.728  12.171  1.00  0.00     0.064 A 
ATOM    101  C   UNL     1     -21.386   4.791  12.916  1.00  0.00     0.173 A 
ATOM    102  C   UNL     1     -20.980   7.085  12.429  1.00  0.00     0.173 A 
ATOM    103  F   UNL     1     -21.087   3.487  12.895  1.00  0.00    -0.203 F 
ATOM    104  C   UNL     1     -22.425   5.170  13.770  1.00  0.00     0.198 A 
ATOM    105  C   UNL     1     -21.960   7.463  13.344  1.00  0.00     0.198 A 
ATOM    106  F   UNL     1     -20.340   8.099  11.828  1.00  0.00    -0.203 F 
ATOM    107  F   UNL     1     -23.137   4.227  14.401  1.00  0.00    -0.200 F 
ATOM    108  C   UNL     1     -22.704   6.504  13.993  1.00  0.00     0.200 A 
ATOM    109  F   UNL     1     -22.160   8.763  13.604  1.00  0.00    -0.200 F 
ATOM    110  F   UNL     1     -23.669   6.863  14.849  1.00  0.00    -0.200 F 
ENDBRANCH  77 100
ENDBRANCH  51  52
ENDBRANCH  43  46
ENDBRANCH  41  42
ENDBRANCH  40  41
ENDBRANCH  39  40
ENDBRANCH  38  39
ENDBRANCH  37  38
ENDBRANCH   1  37
TORSDOF 20
