REMARK SMILES NS(=O)(=O)c1ccc(-n2nc(C(=O)NCCCC(=O)NCCCCCCNC(=O)c3ccc(-c4c5nc(c(-c6c(F)c(F)c(F)c(F)c6F)c6ccc([nH]6)c(-c6c(F)c(F)c(F)c(F)c6F)c6nc(c(-c7c(F)c(F)c(F)c(F)c7F)c7ccc4[nH]7)C=C6)C=C5)cc3)cc2-c2ccccc2)cc1
REMARK SMILES IDX 21 1 20 2 18 3 19 4 17 6 16 7 15 8 14 9 12 10 13 11 11 13
REMARK SMILES IDX 9 14 10 15 94 16 93 17 8 18 5 19 6 20 102 21 7 22 101 23
REMARK SMILES IDX 2 24 3 25 4 26 1 27 95 30 96 31 100 32 97 33 99 34 98 35
REMARK SMILES IDX 22 36 23 37 24 38 25 39 26 40 27 41 28 42 29 44 30 45 31 46
REMARK SMILES IDX 92 47 32 48 91 49 33 50 34 51 35 52 85 53 36 54 90 55 84 56
REMARK SMILES IDX 86 57 37 58 89 59 83 60 82 61 38 63 70 64 50 65 69 66 51 67
REMARK SMILES IDX 54 68 68 69 87 70 52 71 53 72 67 74 88 75 55 76 39 77 40 78
REMARK SMILES IDX 48 79 41 80 42 81 46 82 49 83 43 84 44 85 47 86 45 87 71 88
REMARK SMILES IDX 72 89 80 90 73 91 74 92 78 93 81 94 75 95 76 96 79 97 77 98
REMARK SMILES IDX 56 99 57 100 65 101 58 102 59 103 63 104 66 105 60 106
REMARK SMILES IDX 61 107 64 108 62 109
REMARK H PARENT 20 5 14 12 1 28 1 29 27 43 86 62 54 73
REMARK Flexibility Score: inf
ROOT
ATOM      1  C   UNL     1       4.593   9.807  -8.384  1.00  0.00     0.116 C 
ENDROOT
BRANCH   1   2
ATOM      2  N   UNL     1       3.924  10.421  -9.511  1.00  0.00    -0.356 N 
ATOM      3  C   UNL     1       2.657  10.900  -9.621  1.00  0.00     0.220 C 
ATOM      4  O   UNL     1       2.265  11.270 -10.728  1.00  0.00    -0.275 OA
ATOM      5  H   UNL     1       4.472  10.504 -10.325  1.00  0.00     0.163 HD
BRANCH   3   6
ATOM      6  C   UNL     1       1.761  11.003  -8.402  1.00  0.00     0.102 C 
BRANCH   6   7
ATOM      7  C   UNL     1       0.870   9.785  -8.154  1.00  0.00     0.031 C 
BRANCH   7   8
ATOM      8  C   UNL     1       1.498   8.639  -7.362  1.00  0.00     0.116 C 
BRANCH   8   9
ATOM      9  N   UNL     1       2.078   9.029  -6.082  1.00  0.00    -0.351 N 
ATOM     10  C   UNL     1       2.563   8.256  -5.041  1.00  0.00     0.271 C 
ATOM     11  O   UNL     1       3.076   8.840  -4.087  1.00  0.00    -0.267 OA
ATOM     12  H   UNL     1       2.135  10.000  -5.935  1.00  0.00     0.163 HD
BRANCH  10  13
ATOM     13  C   UNL     1       2.437   6.794  -5.106  1.00  0.00     0.151 A 
ATOM     14  N   UNL     1       2.002   4.786  -4.500  1.00  0.00    -0.232 N 
ATOM     15  N   UNL     1       2.127   6.046  -4.021  1.00  0.00    -0.162 NA
ATOM     16  C   UNL     1       1.976   4.797  -5.883  1.00  0.00     0.075 A 
ATOM     17  C   UNL     1       2.538   5.986  -6.260  1.00  0.00     0.065 A 
BRANCH  14  18
ATOM     18  C   UNL     1       1.728   3.646  -3.687  1.00  0.00     0.065 A 
ATOM     19  C   UNL     1       0.665   1.337  -2.550  1.00  0.00     0.082 A 
ATOM     20  C   UNL     1       1.640   1.218  -3.539  1.00  0.00     0.024 A 
ATOM     21  C   UNL     1       0.276   2.597  -2.072  1.00  0.00     0.024 A 
ATOM     22  C   UNL     1       2.174   2.374  -4.105  1.00  0.00     0.030 A 
ATOM     23  C   UNL     1       0.830   3.760  -2.623  1.00  0.00     0.030 A 
BRANCH  19  24
ATOM     24  S   UNL     1      -0.178  -0.117  -1.976  1.00  0.00     0.238 S 
ATOM     25  O   UNL     1       0.582  -1.271  -2.421  1.00  0.00    -0.207 OA
ATOM     26  O   UNL     1      -1.579   0.042  -2.262  1.00  0.00    -0.207 OA
BRANCH  24  27
ATOM     27  N   UNL     1       0.045  -0.066  -0.311  1.00  0.00    -0.225 NA
ATOM     28  H   UNL     1      -0.409  -0.872   0.118  1.00  0.00     0.137 HD
ATOM     29  H   UNL     1      -0.362   0.792   0.060  1.00  0.00     0.137 HD
ENDBRANCH  24  27
ENDBRANCH  19  24
ENDBRANCH  14  18
BRANCH  16  30
ATOM     30  C   UNL     1       1.361   3.778  -6.698  1.00  0.00     0.000 A 
ATOM     31  C   UNL     1       0.082   3.286  -6.376  1.00  0.00     0.010 A 
ATOM     32  C   UNL     1       2.074   3.248  -7.755  1.00  0.00     0.010 A 
ATOM     33  C   UNL     1      -0.414   2.159  -7.008  1.00  0.00     0.001 A 
ATOM     34  C   UNL     1       1.557   2.145  -8.395  1.00  0.00     0.001 A 
ATOM     35  C   UNL     1       0.350   1.569  -7.995  1.00  0.00     0.000 A 
ENDBRANCH  16  30
ENDBRANCH  10  13
ENDBRANCH   8   9
ENDBRANCH   7   8
ENDBRANCH   6   7
ENDBRANCH   3   6
ENDBRANCH   1   2
BRANCH   1  36
ATOM     36  C   UNL     1       4.964   8.357  -8.705  1.00  0.00     0.021 C 
BRANCH  36  37
ATOM     37  C   UNL     1       6.266   8.217  -9.499  1.00  0.00     0.002 C 
BRANCH  37  38
ATOM     38  C   UNL     1       7.518   8.792  -8.816  1.00  0.00     0.002 C 
BRANCH  38  39
ATOM     39  C   UNL     1       7.808   8.295  -7.391  1.00  0.00     0.021 C 
BRANCH  39  40
ATOM     40  C   UNL     1       8.163   6.820  -7.329  1.00  0.00     0.116 C 
BRANCH  40  41
ATOM     41  N   UNL     1       9.412   6.510  -8.034  1.00  0.00    -0.352 N 
ATOM     42  C   UNL     1      10.027   5.283  -8.206  1.00  0.00     0.251 C 
ATOM     43  H   UNL     1       9.874   7.278  -8.440  1.00  0.00     0.163 HD
ATOM     44  O   UNL     1      11.210   5.197  -8.508  1.00  0.00    -0.269 OA
BRANCH  42  45
ATOM     45  C   UNL     1       9.212   4.070  -8.040  1.00  0.00     0.039 A 
ATOM     46  C   UNL     1       9.696   2.901  -7.446  1.00  0.00     0.014 A 
ATOM     47  C   UNL     1       7.899   4.147  -8.485  1.00  0.00     0.014 A 
ATOM     48  C   UNL     1       8.817   1.834  -7.271  1.00  0.00     0.010 A 
ATOM     49  C   UNL     1       6.991   3.224  -8.069  1.00  0.00     0.010 A 
ATOM     50  C   UNL     1       7.461   2.013  -7.591  1.00  0.00    -0.014 A 
BRANCH  50  51
ATOM     51  C   UNL     1       6.453   0.978  -7.411  1.00  0.00     0.031 A 
ATOM     52  C   UNL     1       6.324   0.504  -6.013  1.00  0.00     0.074 A 
ATOM     53  C   UNL     1       5.606   0.659  -8.419  1.00  0.00     0.049 A 
ATOM     54  N   UNL     1       6.535  -0.686  -5.563  1.00  0.00    -0.248 NA
ATOM     55  C   UNL     1       6.103   1.509  -4.961  1.00  0.00     0.031 C 
ATOM     56  C   UNL     1       5.543   1.240  -9.766  1.00  0.00     0.029 A 
ATOM     57  N   UNL     1       4.573  -0.228  -8.441  1.00  0.00    -0.354 N 
ATOM     58  C   UNL     1       6.335  -0.626  -4.186  1.00  0.00     0.074 A 
ATOM     59  C   UNL     1       6.257   0.772  -3.860  1.00  0.00     0.031 C 
ATOM     60  C   UNL     1       4.444   0.797 -10.412  1.00  0.00     0.029 A 
ATOM     61  C   UNL     1       3.767  -0.187  -9.589  1.00  0.00     0.049 A 
ATOM     62  H   UNL     1       4.403  -0.855  -7.702  1.00  0.00     0.167 HD
ATOM     63  C   UNL     1       6.058  -1.751  -3.468  1.00  0.00     0.037 A 
ATOM     64  C   UNL     1       2.604  -0.879  -9.785  1.00  0.00     0.037 A 
ATOM     65  C   UNL     1       6.383  -2.924  -4.241  1.00  0.00     0.049 A 
ATOM     66  C   UNL     1       2.668  -2.001  -8.800  1.00  0.00     0.074 A 
ATOM     67  C   UNL     1       7.562  -3.498  -4.671  1.00  0.00     0.029 A 
ATOM     68  N   UNL     1       5.382  -3.467  -5.011  1.00  0.00    -0.354 N 
ATOM     69  N   UNL     1       3.492  -3.002  -8.945  1.00  0.00    -0.248 NA
ATOM     70  C   UNL     1       2.169  -1.806  -7.440  1.00  0.00     0.031 C 
ATOM     71  C   UNL     1       7.269  -4.034  -5.957  1.00  0.00     0.029 A 
ATOM     72  C   UNL     1       5.915  -3.819  -6.224  1.00  0.00     0.049 A 
ATOM     73  H   UNL     1       4.443  -3.582  -4.739  1.00  0.00     0.167 HD
ATOM     74  C   UNL     1       3.928  -3.300  -7.661  1.00  0.00     0.074 A 
ATOM     75  C   UNL     1       2.994  -2.619  -6.769  1.00  0.00     0.031 C 
ATOM     76  C   UNL     1       5.173  -3.821  -7.463  1.00  0.00     0.037 A 
BRANCH  63  77
ATOM     77  C   UNL     1       5.203  -1.821  -2.223  1.00  0.00     0.064 A 
ATOM     78  C   UNL     1       4.952  -3.081  -1.632  1.00  0.00     0.173 A 
ATOM     79  C   UNL     1       4.413  -0.767  -1.724  1.00  0.00     0.173 A 
ATOM     80  F   UNL     1       5.655  -4.164  -1.996  1.00  0.00    -0.203 F 
ATOM     81  C   UNL     1       3.923  -3.281  -0.706  1.00  0.00     0.198 A 
ATOM     82  C   UNL     1       3.439  -0.957  -0.749  1.00  0.00     0.198 A 
ATOM     83  F   UNL     1       4.463   0.474  -2.213  1.00  0.00    -0.203 F 
ATOM     84  F   UNL     1       3.649  -4.518  -0.272  1.00  0.00    -0.200 F 
ATOM     85  C   UNL     1       3.157  -2.218  -0.276  1.00  0.00     0.200 A 
ATOM     86  F   UNL     1       2.721   0.096  -0.329  1.00  0.00    -0.200 F 
ATOM     87  F   UNL     1       2.125  -2.400   0.559  1.00  0.00    -0.200 F 
ENDBRANCH  63  77
BRANCH  64  88
ATOM     88  C   UNL     1       1.353  -0.558 -10.572  1.00  0.00     0.064 A 
ATOM     89  C   UNL     1       0.182  -1.316 -10.345  1.00  0.00     0.173 A 
ATOM     90  C   UNL     1       1.139   0.656 -11.265  1.00  0.00     0.173 A 
ATOM     91  F   UNL     1       0.251  -2.502  -9.723  1.00  0.00    -0.203 F 
ATOM     92  C   UNL     1      -1.103  -0.817 -10.619  1.00  0.00     0.198 A 
ATOM     93  C   UNL     1      -0.145   1.165 -11.516  1.00  0.00     0.198 A 
ATOM     94  F   UNL     1       2.151   1.471 -11.577  1.00  0.00    -0.203 F 
ATOM     95  F   UNL     1      -2.182  -1.520 -10.246  1.00  0.00    -0.200 F 
ATOM     96  C   UNL     1      -1.266   0.445 -11.158  1.00  0.00     0.200 A 
ATOM     97  F   UNL     1      -0.280   2.409 -11.998  1.00  0.00    -0.200 F 
ATOM     98  F   UNL     1      -2.486   0.987 -11.271  1.00  0.00    -0.200 F 
ENDBRANCH  64  88
BRANCH  76  99
ATOM     99  C   UNL     1       5.931  -4.222  -8.698  1.00  0.00     0.064 A 
ATOM    100  C   UNL     1       6.434  -3.298  -9.632  1.00  0.00     0.173 A 
ATOM    101  C   UNL     1       6.288  -5.562  -8.866  1.00  0.00     0.173 A 
ATOM    102  F   UNL     1       6.227  -1.988  -9.481  1.00  0.00    -0.203 F 
ATOM    103  C   UNL     1       7.219  -3.702 -10.708  1.00  0.00     0.198 A 
ATOM    104  C   UNL     1       7.107  -5.960  -9.918  1.00  0.00     0.198 A 
ATOM    105  F   UNL     1       5.888  -6.478  -7.971  1.00  0.00    -0.203 F 
ATOM    106  F   UNL     1       7.673  -2.796 -11.587  1.00  0.00    -0.200 F 
ATOM    107  C   UNL     1       7.564  -5.033 -10.844  1.00  0.00     0.200 A 
ATOM    108  F   UNL     1       7.485  -7.242 -10.017  1.00  0.00    -0.200 F 
ATOM    109  F   UNL     1       8.362  -5.421 -11.848  1.00  0.00    -0.200 F 
ENDBRANCH  76  99
ENDBRANCH  50  51
ENDBRANCH  42  45
ENDBRANCH  40  41
ENDBRANCH  39  40
ENDBRANCH  38  39
ENDBRANCH  37  38
ENDBRANCH  36  37
ENDBRANCH   1  36
TORSDOF 21
