REMARK SMILES Cc1ccccc1C(=O)Nc1cc(C(=O)NCCCCCCNC(=O)c2ccc(-c3c4nc(c(-c5c(F)c(F)c(F)c(F)c5F)c5ccc([nH]5)c(-c5c(F)c(F)c(F)c(F)c5F)c5nc(c(-c6c(F)c(F)c(F)c(F)c6F)c6ccc3[nH]6)C=C5)C=C4)cc2)ccc1N1CC[NH+](CC(=O)Nc2ccc(F)cc2)CC1
REMARK SMILES IDX 18 1 17 2 16 3 14 4 15 5 13 7 11 8 12 9 91 10 90 11 89 12
REMARK SMILES IDX 10 13 8 14 9 15 7 17 1 18 2 19 3 20 4 21 6 22 5 23 92 24
REMARK SMILES IDX 93 25 108 26 94 27 107 28 95 29 96 31 97 32 98 33 99 34
REMARK SMILES IDX 100 36 101 37 106 38 102 39 105 40 103 41 104 42 19 43 20 44
REMARK SMILES IDX 21 45 22 46 23 47 24 48 25 50 26 51 27 52 88 53 28 54 87 55
REMARK SMILES IDX 29 56 30 57 31 58 81 59 32 60 86 61 80 62 82 63 33 64 85 65
REMARK SMILES IDX 79 66 78 67 34 69 66 70 46 71 65 72 47 73 50 74 64 75 83 76
REMARK SMILES IDX 48 77 49 78 63 80 84 81 51 82 35 83 36 84 44 85 37 86 38 87
REMARK SMILES IDX 42 88 45 89 39 90 40 91 43 92 41 93 67 94 68 95 76 96 69 97
REMARK SMILES IDX 70 98 74 99 77 100 71 101 72 102 75 103 73 104 52 105 53 106
REMARK SMILES IDX 61 107 54 108 55 109 59 110 62 111 56 112 57 113 60 114
REMARK SMILES IDX 58 115
REMARK H PARENT 16 6 10 16 95 30 99 35 23 49 82 68 50 79
REMARK Flexibility Score: inf
ROOT
ATOM      1  C   UNL     1       1.126  -0.741  -4.131  1.00  0.00     0.021 C 
ENDROOT
BRANCH   1   2
ATOM      2  C   UNL     1       1.253  -1.555  -2.840  1.00  0.00     0.116 C 
BRANCH   2   3
ATOM      3  N   UNL     1       2.480  -2.330  -2.820  1.00  0.00    -0.352 N 
ATOM      4  C   UNL     1       3.735  -2.092  -2.312  1.00  0.00     0.251 C 
ATOM      5  O   UNL     1       4.567  -2.993  -2.430  1.00  0.00    -0.269 OA
ATOM      6  H   UNL     1       2.396  -3.206  -3.261  1.00  0.00     0.163 HD
BRANCH   4   7
ATOM      7  C   UNL     1       4.125  -0.847  -1.588  1.00  0.00     0.042 A 
ATOM      8  C   UNL     1       3.696   1.378  -0.739  1.00  0.00     0.065 A 
ATOM      9  C   UNL     1       3.383   0.323  -1.597  1.00  0.00     0.042 A 
ATOM     10  C   UNL     1       4.891   1.404   0.036  1.00  0.00     0.061 A 
ATOM     11  C   UNL     1       5.688   0.254  -0.054  1.00  0.00     0.029 A 
ATOM     12  C   UNL     1       5.296  -0.863  -0.818  1.00  0.00     0.016 A 
BRANCH   8  13
ATOM     13  N   UNL     1       2.789   2.443  -0.679  1.00  0.00    -0.320 N 
ATOM     14  C   UNL     1       1.462   2.445  -0.279  1.00  0.00     0.255 C 
ATOM     15  O   UNL     1       0.945   3.549  -0.069  1.00  0.00    -0.269 OA
ATOM     16  H   UNL     1       3.144   3.316  -0.963  1.00  0.00     0.170 HD
BRANCH  14  17
ATOM     17  C   UNL     1       0.600   1.235  -0.077  1.00  0.00     0.043 A 
ATOM     18  C   UNL     1       2.108  -0.205   1.470  1.00  0.00     0.045 C 
ATOM     19  C   UNL     1       0.877   0.060   0.654  1.00  0.00    -0.038 A 
ATOM     20  C   UNL     1      -0.090  -0.974   0.677  1.00  0.00     0.004 A 
ATOM     21  C   UNL     1      -1.346  -0.814   0.096  1.00  0.00     0.000 A 
ATOM     22  C   UNL     1      -0.697   1.390  -0.615  1.00  0.00     0.014 A 
ATOM     23  C   UNL     1      -1.663   0.386  -0.520  1.00  0.00     0.001 A 
ENDBRANCH  14  17
ENDBRANCH   8  13
BRANCH  10  24
ATOM     24  N   UNL     1       5.237   2.464   0.872  1.00  0.00    -0.359 N 
ATOM     25  C   UNL     1       6.591   2.621   1.476  1.00  0.00     0.178 C 
ATOM     26  C   UNL     1       4.216   3.108   1.698  1.00  0.00     0.178 C 
ATOM     27  C   UNL     1       6.840   4.059   2.085  1.00  0.00     0.284 C 
ATOM     28  C   UNL     1       4.538   4.604   1.730  1.00  0.00     0.284 C 
ATOM     29  N   UNL     1       5.694   4.857   2.581  1.00  0.00    -0.324 N 
ATOM     30  H   UNL     1       5.990   5.830   2.502  1.00  0.00     0.348 HD
BRANCH  29  31
ATOM     31  C   UNL     1       5.392   4.827   4.031  1.00  0.00     0.364 C 
BRANCH  31  32
ATOM     32  C   UNL     1       5.225   3.467   4.705  1.00  0.00     0.279 C 
ATOM     33  O   UNL     1       6.217   2.739   4.863  1.00  0.00    -0.268 OA
ATOM     34  N   UNL     1       4.051   2.990   5.226  1.00  0.00    -0.321 N 
ATOM     35  H   UNL     1       4.219   2.283   5.891  1.00  0.00     0.170 HD
BRANCH  34  36
ATOM     36  C   UNL     1       2.668   3.229   5.072  1.00  0.00     0.041 A 
ATOM     37  C   UNL     1       1.810   2.430   5.850  1.00  0.00     0.029 A 
ATOM     38  C   UNL     1       2.080   4.085   4.146  1.00  0.00     0.029 A 
ATOM     39  C   UNL     1       0.422   2.445   5.659  1.00  0.00     0.041 A 
ATOM     40  C   UNL     1       0.697   4.062   3.906  1.00  0.00     0.041 A 
ATOM     41  C   UNL     1      -0.121   3.241   4.664  1.00  0.00     0.123 A 
ATOM     42  F   UNL     1      -1.441   3.219   4.438  1.00  0.00    -0.207 F 
ENDBRANCH  34  36
ENDBRANCH  31  32
ENDBRANCH  29  31
ENDBRANCH  10  24
ENDBRANCH   4   7
ENDBRANCH   2   3
ENDBRANCH   1   2
BRANCH   1  43
ATOM     43  C   UNL     1       0.420  -1.493  -5.266  1.00  0.00     0.002 C 
BRANCH  43  44
ATOM     44  C   UNL     1      -1.003  -1.992  -4.954  1.00  0.00     0.002 C 
BRANCH  44  45
ATOM     45  C   UNL     1      -1.948  -0.956  -4.337  1.00  0.00     0.021 C 
BRANCH  45  46
ATOM     46  C   UNL     1      -2.399   0.111  -5.323  1.00  0.00     0.116 C 
BRANCH  46  47
ATOM     47  N   UNL     1      -3.628  -0.227  -6.028  1.00  0.00    -0.352 N 
ATOM     48  C   UNL     1      -4.246   0.392  -7.106  1.00  0.00     0.251 C 
ATOM     49  H   UNL     1      -4.097  -1.021  -5.684  1.00  0.00     0.163 HD
ATOM     50  O   UNL     1      -5.317   0.003  -7.503  1.00  0.00    -0.269 OA
BRANCH  48  51
ATOM     51  C   UNL     1      -3.509   1.447  -7.853  1.00  0.00     0.039 A 
ATOM     52  C   UNL     1      -3.518   1.383  -9.253  1.00  0.00     0.014 A 
ATOM     53  C   UNL     1      -2.672   2.343  -7.199  1.00  0.00     0.014 A 
ATOM     54  C   UNL     1      -2.516   2.028  -9.974  1.00  0.00     0.010 A 
ATOM     55  C   UNL     1      -1.613   2.885  -7.895  1.00  0.00     0.010 A 
ATOM     56  C   UNL     1      -1.502   2.673  -9.273  1.00  0.00    -0.014 A 
BRANCH  56  57
ATOM     57  C   UNL     1      -0.239   3.088  -9.865  1.00  0.00     0.031 A 
ATOM     58  C   UNL     1       0.048   4.522 -10.069  1.00  0.00     0.074 A 
ATOM     59  C   UNL     1       0.726   2.163 -10.067  1.00  0.00     0.049 A 
ATOM     60  N   UNL     1       0.983   4.968 -10.834  1.00  0.00    -0.248 NA
ATOM     61  C   UNL     1      -0.726   5.583  -9.437  1.00  0.00     0.031 C 
ATOM     62  C   UNL     1       2.147   2.402 -10.304  1.00  0.00     0.029 A 
ATOM     63  N   UNL     1       0.565   0.784 -10.291  1.00  0.00    -0.354 N 
ATOM     64  C   UNL     1       1.123   6.314 -10.594  1.00  0.00     0.074 A 
ATOM     65  C   UNL     1      -0.001   6.660  -9.756  1.00  0.00     0.031 C 
ATOM     66  C   UNL     1       2.670   1.332 -10.924  1.00  0.00     0.029 A 
ATOM     67  C   UNL     1       1.566   0.444 -11.232  1.00  0.00     0.049 A 
ATOM     68  H   UNL     1      -0.101   0.185  -9.882  1.00  0.00     0.167 HD
ATOM     69  C   UNL     1       2.247   6.947 -11.038  1.00  0.00     0.037 A 
ATOM     70  C   UNL     1       1.249   0.003 -12.484  1.00  0.00     0.037 A 
ATOM     71  C   UNL     1       3.086   6.037 -11.815  1.00  0.00     0.049 A 
ATOM     72  C   UNL     1       1.821   0.850 -13.596  1.00  0.00     0.074 A 
ATOM     73  C   UNL     1       4.214   5.293 -11.506  1.00  0.00     0.029 A 
ATOM     74  N   UNL     1       2.608   5.542 -13.023  1.00  0.00    -0.354 N 
ATOM     75  N   UNL     1       2.205   2.088 -13.444  1.00  0.00    -0.248 NA
ATOM     76  C   UNL     1       2.000   0.377 -14.964  1.00  0.00     0.031 C 
ATOM     77  C   UNL     1       4.406   4.335 -12.533  1.00  0.00     0.029 A 
ATOM     78  C   UNL     1       3.403   4.506 -13.471  1.00  0.00     0.049 A 
ATOM     79  H   UNL     1       1.814   5.882 -13.494  1.00  0.00     0.167 HD
ATOM     80  C   UNL     1       2.677   2.577 -14.638  1.00  0.00     0.074 A 
ATOM     81  C   UNL     1       2.540   1.459 -15.553  1.00  0.00     0.031 C 
ATOM     82  C   UNL     1       3.136   3.862 -14.749  1.00  0.00     0.037 A 
BRANCH  69  83
ATOM     83  C   UNL     1       2.716   8.301 -10.554  1.00  0.00     0.064 A 
ATOM     84  C   UNL     1       4.093   8.614 -10.498  1.00  0.00     0.173 A 
ATOM     85  C   UNL     1       1.865   9.319 -10.088  1.00  0.00     0.173 A 
ATOM     86  F   UNL     1       5.022   7.792 -10.999  1.00  0.00    -0.203 F 
ATOM     87  C   UNL     1       4.575   9.791  -9.918  1.00  0.00     0.198 A 
ATOM     88  C   UNL     1       2.347  10.471  -9.457  1.00  0.00     0.198 A 
ATOM     89  F   UNL     1       0.542   9.262 -10.281  1.00  0.00    -0.203 F 
ATOM     90  F   UNL     1       5.895  10.027  -9.890  1.00  0.00    -0.200 F 
ATOM     91  C   UNL     1       3.704  10.703  -9.362  1.00  0.00     0.200 A 
ATOM     92  F   UNL     1       1.482  11.359  -8.944  1.00  0.00    -0.200 F 
ATOM     93  F   UNL     1       4.166  11.809  -8.765  1.00  0.00    -0.200 F 
ENDBRANCH  69  83
BRANCH  70  94
ATOM     94  C   UNL     1      -0.040  -0.736 -12.524  1.00  0.00     0.064 A 
ATOM     95  C   UNL     1      -0.135  -1.931 -11.780  1.00  0.00     0.173 A 
ATOM     96  C   UNL     1      -1.234  -0.106 -12.890  1.00  0.00     0.173 A 
ATOM     97  F   UNL     1       0.982  -2.574 -11.404  1.00  0.00    -0.203 F 
ATOM     98  C   UNL     1      -1.360  -2.394 -11.306  1.00  0.00     0.198 A 
ATOM     99  C   UNL     1      -2.463  -0.586 -12.429  1.00  0.00     0.198 A 
ATOM    100  F   UNL     1      -1.211   1.041 -13.584  1.00  0.00    -0.203 F 
ATOM    101  F   UNL     1      -1.402  -3.457 -10.491  1.00  0.00    -0.200 F 
ATOM    102  C   UNL     1      -2.520  -1.702 -11.605  1.00  0.00     0.200 A 
ATOM    103  F   UNL     1      -3.587   0.095 -12.697  1.00  0.00    -0.200 F 
ATOM    104  F   UNL     1      -3.687  -2.083 -11.065  1.00  0.00    -0.200 F 
ENDBRANCH  70  94
BRANCH  82 105
ATOM    105  C   UNL     1       3.468   4.639 -16.013  1.00  0.00     0.064 A 
ATOM    106  C   UNL     1       3.032   4.301 -17.303  1.00  0.00     0.173 A 
ATOM    107  C   UNL     1       4.153   5.884 -15.927  1.00  0.00     0.173 A 
ATOM    108  F   UNL     1       2.278   3.220 -17.529  1.00  0.00    -0.203 F 
ATOM    109  C   UNL     1       3.300   5.106 -18.417  1.00  0.00     0.198 A 
ATOM    110  C   UNL     1       4.361   6.715 -17.027  1.00  0.00     0.198 A 
ATOM    111  F   UNL     1       4.620   6.359 -14.763  1.00  0.00    -0.203 F 
ATOM    112  F   UNL     1       2.893   4.711 -19.631  1.00  0.00    -0.200 F 
ATOM    113  C   UNL     1       3.948   6.319 -18.278  1.00  0.00     0.200 A 
ATOM    114  F   UNL     1       4.944   7.910 -16.858  1.00  0.00    -0.200 F 
ATOM    115  F   UNL     1       4.151   7.110 -19.339  1.00  0.00    -0.200 F 
ENDBRANCH  82 105
ENDBRANCH  56  57
ENDBRANCH  48  51
ENDBRANCH  46  47
ENDBRANCH  45  46
ENDBRANCH  44  45
ENDBRANCH  43  44
ENDBRANCH   1  43
TORSDOF 19
