REMARK SMILES O=C(NCCCCCCNC(=O)[C@@H]1CCCC[C@@H]1C(=O)Nc1cccc(C(F)(F)F)c1)c1ccc(-c2c3nc(c(-c4c(F)c(F)c(F)c(F)c4F)c4ccc([nH]4)c(-c4c(F)c(F)c(F)c(F)c4F)c4nc(c(-c5c(F)c(F)c(F)c(F)c5F)c5ccc2[nH]5)C=C4)C=C3)cc1
REMARK SMILES IDX 7 1 6 2 5 3 4 4 3 5 1 6 2 7 32 9 33 10 94 11 34 12 93 13
REMARK SMILES IDX 35 14 36 15 37 16 87 17 38 18 92 19 86 20 88 21 39 22 91 23
REMARK SMILES IDX 85 24 84 25 40 27 72 28 52 29 71 30 53 31 56 32 70 33 89 34
REMARK SMILES IDX 54 35 55 36 69 38 90 39 57 40 41 41 42 42 50 43 43 44 44 45
REMARK SMILES IDX 48 46 51 47 45 48 46 49 49 50 47 51 73 52 74 53 82 54 75 55
REMARK SMILES IDX 76 56 80 57 83 58 77 59 78 60 81 61 79 62 58 63 59 64 67 65
REMARK SMILES IDX 60 66 61 67 65 68 68 69 62 70 63 71 66 72 64 73 8 74 9 75
REMARK SMILES IDX 10 76 11 77 12 79 13 80 14 81 18 82 15 83 17 84 16 85 19 86
REMARK SMILES IDX 20 87 21 88 22 90 23 91 31 92 24 93 26 94 25 95 27 96 28 97
REMARK SMILES IDX 29 98 30 99
REMARK H PARENT 3 8 88 26 56 37 10 78 21 89
REMARK Flexibility Score: inf
ROOT
ATOM      1  C   UNL     1       4.686  -4.232   0.526  1.00  0.00     0.002 C 
ENDROOT
BRANCH   1   2
ATOM      2  C   UNL     1       4.245  -3.367   1.941  1.00  0.00     0.002 C 
BRANCH   2   3
ATOM      3  C   UNL     1       4.276  -1.850   2.222  1.00  0.00     0.021 C 
BRANCH   3   4
ATOM      4  C   UNL     1       3.873  -0.765   1.228  1.00  0.00     0.116 C 
BRANCH   4   5
ATOM      5  N   UNL     1       2.545  -0.785   0.650  1.00  0.00    -0.352 N 
ATOM      6  O   UNL     1       0.795   0.254  -0.400  1.00  0.00    -0.269 OA
ATOM      7  C   UNL     1       1.921   0.313   0.076  1.00  0.00     0.251 C 
ATOM      8  H   UNL     1       2.051  -1.637   0.667  1.00  0.00     0.163 HD
BRANCH   7   9
ATOM      9  C   UNL     1       2.662   1.599   0.073  1.00  0.00     0.039 A 
ATOM     10  C   UNL     1       3.855   1.703  -0.647  1.00  0.00     0.014 A 
ATOM     11  C   UNL     1       2.232   2.650   0.887  1.00  0.00     0.014 A 
ATOM     12  C   UNL     1       4.678   2.812  -0.461  1.00  0.00     0.010 A 
ATOM     13  C   UNL     1       3.031   3.792   1.022  1.00  0.00     0.010 A 
ATOM     14  C   UNL     1       4.272   3.873   0.368  1.00  0.00    -0.014 A 
BRANCH  14  15
ATOM     15  C   UNL     1       5.108   5.099   0.463  1.00  0.00     0.031 A 
ATOM     16  C   UNL     1       5.772   5.510   1.748  1.00  0.00     0.074 A 
ATOM     17  C   UNL     1       5.253   5.856  -0.641  1.00  0.00     0.049 A 
ATOM     18  N   UNL     1       6.489   6.577   2.003  1.00  0.00    -0.248 NA
ATOM     19  C   UNL     1       5.607   4.611   2.899  1.00  0.00     0.031 C 
ATOM     20  C   UNL     1       4.650   5.561  -1.942  1.00  0.00     0.029 A 
ATOM     21  N   UNL     1       5.945   7.021  -0.852  1.00  0.00    -0.354 N 
ATOM     22  C   UNL     1       6.842   6.492   3.344  1.00  0.00     0.074 A 
ATOM     23  C   UNL     1       6.247   5.273   3.854  1.00  0.00     0.031 C 
ATOM     24  C   UNL     1       5.021   6.501  -2.822  1.00  0.00     0.029 A 
ATOM     25  C   UNL     1       5.828   7.501  -2.133  1.00  0.00     0.049 A 
ATOM     26  H   UNL     1       6.475   7.470  -0.153  1.00  0.00     0.167 HD
ATOM     27  C   UNL     1       7.593   7.354   4.076  1.00  0.00     0.037 A 
ATOM     28  C   UNL     1       6.289   8.636  -2.688  1.00  0.00     0.037 A 
ATOM     29  C   UNL     1       8.184   8.563   3.554  1.00  0.00     0.049 A 
ATOM     30  C   UNL     1       7.084   9.589  -1.845  1.00  0.00     0.074 A 
ATOM     31  C   UNL     1       8.992   9.481   4.204  1.00  0.00     0.029 A 
ATOM     32  N   UNL     1       8.021   9.029   2.257  1.00  0.00    -0.354 N 
ATOM     33  N   UNL     1       7.435   9.483  -0.587  1.00  0.00    -0.248 NA
ATOM     34  C   UNL     1       7.542  10.821  -2.498  1.00  0.00     0.031 C 
ATOM     35  C   UNL     1       9.273  10.526   3.317  1.00  0.00     0.029 A 
ATOM     36  C   UNL     1       8.689  10.234   2.096  1.00  0.00     0.049 A 
ATOM     37  H   UNL     1       7.506   8.571   1.554  1.00  0.00     0.167 HD
ATOM     38  C   UNL     1       8.167  10.625  -0.299  1.00  0.00     0.074 A 
ATOM     39  C   UNL     1       8.227  11.400  -1.522  1.00  0.00     0.031 C 
ATOM     40  C   UNL     1       8.734  10.998   0.874  1.00  0.00     0.037 A 
BRANCH  27  41
ATOM     41  C   UNL     1       7.800   7.041   5.533  1.00  0.00     0.064 A 
ATOM     42  C   UNL     1       8.611   5.977   5.955  1.00  0.00     0.173 A 
ATOM     43  C   UNL     1       7.219   7.850   6.523  1.00  0.00     0.173 A 
ATOM     44  F   UNL     1       9.188   5.168   5.054  1.00  0.00    -0.203 F 
ATOM     45  C   UNL     1       8.809   5.718   7.311  1.00  0.00     0.198 A 
ATOM     46  C   UNL     1       7.442   7.606   7.877  1.00  0.00     0.198 A 
ATOM     47  F   UNL     1       6.443   8.889   6.178  1.00  0.00    -0.203 F 
ATOM     48  F   UNL     1       9.552   4.668   7.689  1.00  0.00    -0.200 F 
ATOM     49  C   UNL     1       8.230   6.535   8.270  1.00  0.00     0.200 A 
ATOM     50  F   UNL     1       6.893   8.407   8.801  1.00  0.00    -0.200 F 
ATOM     51  F   UNL     1       8.426   6.288   9.572  1.00  0.00    -0.200 F 
ENDBRANCH  27  41
BRANCH  28  52
ATOM     52  C   UNL     1       5.994   8.923  -4.115  1.00  0.00     0.064 A 
ATOM     53  C   UNL     1       7.008   8.888  -5.080  1.00  0.00     0.173 A 
ATOM     54  C   UNL     1       4.687   9.196  -4.547  1.00  0.00     0.173 A 
ATOM     55  F   UNL     1       8.275   8.648  -4.712  1.00  0.00    -0.203 F 
ATOM     56  C   UNL     1       6.727   9.122  -6.425  1.00  0.00     0.198 A 
ATOM     57  C   UNL     1       4.403   9.399  -5.895  1.00  0.00     0.198 A 
ATOM     58  F   UNL     1       3.680   9.232  -3.661  1.00  0.00    -0.203 F 
ATOM     59  F   UNL     1       7.720   9.113  -7.324  1.00  0.00    -0.200 F 
ATOM     60  C   UNL     1       5.424   9.367  -6.832  1.00  0.00     0.200 A 
ATOM     61  F   UNL     1       3.139   9.614  -6.286  1.00  0.00    -0.200 F 
ATOM     62  F   UNL     1       5.152   9.573  -8.127  1.00  0.00    -0.200 F 
ENDBRANCH  28  52
BRANCH  40  63
ATOM     63  C   UNL     1       9.492  12.294   0.879  1.00  0.00     0.064 A 
ATOM     64  C   UNL     1       8.835  13.531   0.802  1.00  0.00     0.173 A 
ATOM     65  C   UNL     1      10.892  12.298   0.975  1.00  0.00     0.173 A 
ATOM     66  F   UNL     1       7.499  13.580   0.689  1.00  0.00    -0.203 F 
ATOM     67  C   UNL     1       9.554  14.724   0.792  1.00  0.00     0.198 A 
ATOM     68  C   UNL     1      11.605  13.493   0.995  1.00  0.00     0.198 A 
ATOM     69  F   UNL     1      11.568  11.142   1.053  1.00  0.00    -0.203 F 
ATOM     70  F   UNL     1       8.909  15.892   0.662  1.00  0.00    -0.200 F 
ATOM     71  C   UNL     1      10.937  14.704   0.894  1.00  0.00     0.200 A 
ATOM     72  F   UNL     1      12.941  13.473   1.105  1.00  0.00    -0.200 F 
ATOM     73  F   UNL     1      11.627  15.853   0.886  1.00  0.00    -0.200 F 
ENDBRANCH  40  63
ENDBRANCH  14  15
ENDBRANCH   7   9
ENDBRANCH   4   5
ENDBRANCH   3   4
ENDBRANCH   2   3
ENDBRANCH   1   2
BRANCH   1  74
ATOM     74  C   UNL     1       6.449  -4.657  -0.689  1.00  0.00     0.021 C 
BRANCH  74  75
ATOM     75  C   UNL     1       7.847  -5.582  -0.669  1.00  0.00     0.116 C 
BRANCH  75  76
ATOM     76  N   UNL     1       7.775  -6.995  -0.422  1.00  0.00    -0.356 N 
ATOM     77  C   UNL     1       8.397  -7.712   0.547  1.00  0.00     0.223 C 
ATOM     78  H   UNL     1       7.201  -7.509  -1.035  1.00  0.00     0.163 HD
ATOM     79  O   UNL     1       7.960  -8.837   0.788  1.00  0.00    -0.275 OA
BRANCH  77  80
ATOM     80  C   UNL     1       9.654  -7.145   1.194  1.00  0.00     0.091 C 
ATOM     81  C   UNL     1      10.343  -8.308   1.942  1.00  0.00     0.014 C 
ATOM     82  C   UNL     1       9.521  -5.867   2.064  1.00  0.00     0.091 C 
ATOM     83  C   UNL     1      11.732  -7.926   2.411  1.00  0.00     0.001 C 
ATOM     84  C   UNL     1      10.883  -5.560   2.751  1.00  0.00     0.014 C 
ATOM     85  C   UNL     1      11.646  -6.740   3.355  1.00  0.00     0.001 C 
BRANCH  82  86
ATOM     86  C   UNL     1       8.302  -5.860   2.999  1.00  0.00     0.228 C 
ATOM     87  O   UNL     1       8.448  -6.155   4.191  1.00  0.00    -0.274 OA
ATOM     88  N   UNL     1       7.015  -5.591   2.578  1.00  0.00    -0.326 N 
ATOM     89  H   UNL     1       6.341  -5.801   3.265  1.00  0.00     0.169 HD
BRANCH  88  90
ATOM     90  C   UNL     1       6.438  -5.082   1.388  1.00  0.00     0.041 A 
ATOM     91  C   UNL     1       6.552  -3.349   0.933  1.00  0.00     0.026 A 
ATOM     92  C   UNL     1       5.460  -6.200   0.377  1.00  0.00     0.039 A 
ATOM     93  C   UNL     1       5.653  -2.715  -0.521  1.00  0.00     0.003 A 
ATOM     94  C   UNL     1       4.603  -5.598  -1.099  1.00  0.00     0.058 A 
ATOM     95  C   UNL     1       4.717  -3.846  -1.574  1.00  0.00     0.013 A 
BRANCH  94  96
ATOM     96  C   UNL     1       4.151  -6.614  -2.117  1.00  0.00     0.416 C 
ATOM     97  F   UNL     1       2.859  -6.993  -1.982  1.00  0.00    -0.166 F 
ATOM     98  F   UNL     1       4.297  -6.157  -3.391  1.00  0.00    -0.166 F 
ATOM     99  F   UNL     1       4.904  -7.749  -2.051  1.00  0.00    -0.166 F 
ENDBRANCH  94  96
ENDBRANCH  88  90
ENDBRANCH  82  86
ENDBRANCH  77  80
ENDBRANCH  75  76
ENDBRANCH  74  75
ENDBRANCH   1  74
TORSDOF 16
