REMARK SMILES CCOc1ccccc1[C@H]1CC(C(=O)NCCCCCCNC(=O)c2ccc(-c3c4nc(c(-c5c(F)c(F)c(F)c(F)c5F)c5ccc([nH]5)c(-c5c(F)c(F)c(F)c(F)c5F)c5nc(c(-c6c(F)c(F)c(F)c(F)c6F)c6ccc3[nH]6)C=C5)C=C4)cc2)=Nc2c(C(=O)Nc3ccccc3)cnn21
REMARK SMILES IDX 18 1 17 2 16 3 15 4 13 5 14 6 12 8 10 9 11 10 102 11 89 12
REMARK SMILES IDX 101 13 88 14 90 15 100 16 9 17 4 18 5 19 6 20 8 21 7 22 3 23
REMARK SMILES IDX 2 24 1 25 91 26 92 27 93 28 94 30 95 31 99 32 96 33 98 34
REMARK SMILES IDX 97 35 19 36 20 37 21 38 22 39 23 40 24 42 25 43 26 44 87 45
REMARK SMILES IDX 27 46 86 47 28 48 29 49 30 50 80 51 31 52 85 53 79 54 81 55
REMARK SMILES IDX 32 56 84 57 78 58 77 59 33 61 65 62 45 63 64 64 46 65 49 66
REMARK SMILES IDX 63 67 82 68 47 69 48 70 62 72 83 73 50 74 34 75 35 76 43 77
REMARK SMILES IDX 36 78 37 79 41 80 44 81 38 82 39 83 42 84 40 85 66 86 67 87
REMARK SMILES IDX 75 88 68 89 69 90 73 91 76 92 70 93 71 94 74 95 72 96 51 97
REMARK SMILES IDX 52 98 60 99 53 100 54 101 58 102 61 103 55 104 56 105 59 106
REMARK SMILES IDX 57 107
REMARK H PARENT 15 7 93 29 22 41 81 60 49 71
REMARK Flexibility Score: inf
ROOT
ATOM      1  C   UNL     1       0.436   4.206  -5.201  1.00  0.00     0.002 C 
ENDROOT
BRANCH   1   2
ATOM      2  C   UNL     1       1.359   3.270  -4.433  1.00  0.00     0.021 C 
BRANCH   2   3
ATOM      3  C   UNL     1       1.282   3.483  -2.936  1.00  0.00     0.116 C 
BRANCH   3   4
ATOM      4  N   UNL     1       0.010   3.106  -2.371  1.00  0.00    -0.351 N 
ATOM      5  C   UNL     1      -0.261   2.579  -1.133  1.00  0.00     0.265 C 
ATOM      6  O   UNL     1      -1.262   2.951  -0.532  1.00  0.00    -0.268 OA
ATOM      7  H   UNL     1      -0.771   3.245  -2.953  1.00  0.00     0.163 HD
BRANCH   5   8
ATOM      8  C   UNL     1       0.605   1.445  -0.569  1.00  0.00     0.110 C 
ATOM      9  C   UNL     1       3.129   0.572  -0.233  1.00  0.00     0.150 C 
ATOM     10  C   UNL     1       2.084   1.480  -0.872  1.00  0.00     0.094 C 
ATOM     11  N   UNL     1       2.488  -0.310   0.696  1.00  0.00    -0.239 N 
ATOM     12  C   UNL     1       0.666  -0.530   0.516  1.00  0.00     0.164 A 
ATOM     13  N   UNL     1       3.210  -1.707   1.704  1.00  0.00    -0.178 NA
ATOM     14  N   UNL     1      -0.044   0.499   0.028  1.00  0.00    -0.227 NA
ATOM     15  C   UNL     1       0.247  -2.067   1.293  1.00  0.00     0.104 A 
ATOM     16  C   UNL     1       1.886  -2.749   2.104  1.00  0.00     0.151 A 
BRANCH   9  17
ATOM     17  C   UNL     1       3.858  -0.192  -1.313  1.00  0.00     0.019 A 
ATOM     18  C   UNL     1       3.891  -1.583  -1.335  1.00  0.00     0.124 A 
ATOM     19  C   UNL     1       4.638  -2.241  -2.319  1.00  0.00     0.047 A 
ATOM     20  C   UNL     1       5.316  -1.527  -3.311  1.00  0.00     0.004 A 
ATOM     21  C   UNL     1       4.549   0.523  -2.324  1.00  0.00     0.010 A 
ATOM     22  C   UNL     1       5.263  -0.140  -3.321  1.00  0.00     0.001 A 
BRANCH  18  23
ATOM     23  O   UNL     1       3.348  -2.386  -0.372  1.00  0.00    -0.494 OA
BRANCH  23  24
ATOM     24  C   UNL     1       1.955  -2.052   0.295  1.00  0.00     0.226 C 
ATOM     25  C   UNL     1       1.566  -0.878   2.210  1.00  0.00     0.049 C 
ENDBRANCH  23  24
ENDBRANCH  18  23
ENDBRANCH   9  17
BRANCH  15  26
ATOM     26  C   UNL     1      -1.064  -2.685   1.472  1.00  0.00     0.261 C 
ATOM     27  O   UNL     1      -1.225  -3.528   2.353  1.00  0.00    -0.269 OA
ATOM     28  N   UNL     1      -2.153  -2.264   0.737  1.00  0.00    -0.322 N 
ATOM     29  H   UNL     1      -3.031  -2.514   1.105  1.00  0.00     0.170 HD
BRANCH  28  30
ATOM     30  C   UNL     1      -2.192  -1.531  -0.458  1.00  0.00     0.041 A 
ATOM     31  C   UNL     1      -3.070  -0.447  -0.532  1.00  0.00     0.026 A 
ATOM     32  C   UNL     1      -1.357  -1.823  -1.542  1.00  0.00     0.026 A 
ATOM     33  C   UNL     1      -3.014   0.419  -1.627  1.00  0.00     0.002 A 
ATOM     34  C   UNL     1      -1.319  -0.966  -2.647  1.00  0.00     0.002 A 
ATOM     35  C   UNL     1      -2.129   0.168  -2.676  1.00  0.00     0.000 A 
ENDBRANCH  28  30
ENDBRANCH  15  26
ENDBRANCH   5   8
ENDBRANCH   3   4
ENDBRANCH   2   3
ENDBRANCH   1   2
BRANCH   1  36
ATOM     36  C   UNL     1       0.426   5.655  -4.679  1.00  0.00     0.002 C 
BRANCH  36  37
ATOM     37  C   UNL     1       1.803   6.311  -4.458  1.00  0.00     0.021 C 
BRANCH  37  38
ATOM     38  C   UNL     1       2.631   6.357  -5.718  1.00  0.00     0.116 C 
BRANCH  38  39
ATOM     39  N   UNL     1       2.050   7.256  -6.707  1.00  0.00    -0.352 N 
ATOM     40  C   UNL     1       2.657   7.739  -7.848  1.00  0.00     0.251 C 
ATOM     41  H   UNL     1       1.124   7.550  -6.543  1.00  0.00     0.163 HD
ATOM     42  O   UNL     1       2.288   8.774  -8.385  1.00  0.00    -0.269 OA
BRANCH  40  43
ATOM     43  C   UNL     1       3.708   6.904  -8.449  1.00  0.00     0.039 A 
ATOM     44  C   UNL     1       4.830   7.378  -9.127  1.00  0.00     0.014 A 
ATOM     45  C   UNL     1       3.504   5.540  -8.358  1.00  0.00     0.014 A 
ATOM     46  C   UNL     1       5.688   6.428  -9.707  1.00  0.00     0.010 A 
ATOM     47  C   UNL     1       4.596   4.744  -8.431  1.00  0.00     0.010 A 
ATOM     48  C   UNL     1       5.487   5.063  -9.424  1.00  0.00    -0.014 A 
BRANCH  48  49
ATOM     49  C   UNL     1       6.409   3.965  -9.712  1.00  0.00     0.031 A 
ATOM     50  C   UNL     1       7.738   4.281  -9.108  1.00  0.00     0.074 A 
ATOM     51  C   UNL     1       6.009   2.776 -10.258  1.00  0.00     0.049 A 
ATOM     52  N   UNL     1       8.726   4.823  -9.741  1.00  0.00    -0.248 NA
ATOM     53  C   UNL     1       7.919   4.337  -7.640  1.00  0.00     0.031 C 
ATOM     54  C   UNL     1       4.664   2.339 -10.685  1.00  0.00     0.029 A 
ATOM     55  N   UNL     1       6.760   1.663 -10.579  1.00  0.00    -0.354 N 
ATOM     56  C   UNL     1       9.755   4.940  -8.812  1.00  0.00     0.074 A 
ATOM     57  C   UNL     1       9.122   4.912  -7.530  1.00  0.00     0.031 C 
ATOM     58  C   UNL     1       4.656   1.012 -10.990  1.00  0.00     0.029 A 
ATOM     59  C   UNL     1       6.013   0.504 -10.932  1.00  0.00     0.049 A 
ATOM     60  H   UNL     1       7.745   1.670 -10.564  1.00  0.00     0.167 HD
ATOM     61  C   UNL     1      11.027   4.634  -9.202  1.00  0.00     0.037 A 
ATOM     62  C   UNL     1       6.517  -0.728 -11.273  1.00  0.00     0.037 A 
ATOM     63  C   UNL     1      11.060   4.553 -10.646  1.00  0.00     0.049 A 
ATOM     64  C   UNL     1       7.917  -0.479 -11.684  1.00  0.00     0.074 A 
ATOM     65  C   UNL     1      10.945   5.441 -11.694  1.00  0.00     0.029 A 
ATOM     66  N   UNL     1      10.665   3.325 -11.111  1.00  0.00    -0.354 N 
ATOM     67  N   UNL     1       8.220   0.207 -12.750  1.00  0.00    -0.248 NA
ATOM     68  C   UNL     1       8.916  -0.517 -10.632  1.00  0.00     0.031 C 
ATOM     69  C   UNL     1      10.234   4.741 -12.718  1.00  0.00     0.029 A 
ATOM     70  C   UNL     1      10.072   3.411 -12.335  1.00  0.00     0.049 A 
ATOM     71  H   UNL     1      10.794   2.482 -10.619  1.00  0.00     0.167 HD
ATOM     72  C   UNL     1       9.222   1.061 -12.323  1.00  0.00     0.074 A 
ATOM     73  C   UNL     1       9.667   0.512 -11.034  1.00  0.00     0.031 C 
ATOM     74  C   UNL     1       9.341   2.300 -12.890  1.00  0.00     0.037 A 
BRANCH  61  75
ATOM     75  C   UNL     1      12.038   3.855  -8.371  1.00  0.00     0.064 A 
ATOM     76  C   UNL     1      13.299   3.582  -8.947  1.00  0.00     0.173 A 
ATOM     77  C   UNL     1      11.739   3.108  -7.211  1.00  0.00     0.173 A 
ATOM     78  F   UNL     1      13.695   4.223 -10.057  1.00  0.00    -0.203 F 
ATOM     79  C   UNL     1      14.147   2.585  -8.452  1.00  0.00     0.198 A 
ATOM     80  C   UNL     1      12.607   2.143  -6.694  1.00  0.00     0.198 A 
ATOM     81  F   UNL     1      10.565   3.196  -6.578  1.00  0.00    -0.203 F 
ATOM     82  F   UNL     1      15.277   2.286  -9.106  1.00  0.00    -0.200 F 
ATOM     83  C   UNL     1      13.796   1.861  -7.330  1.00  0.00     0.200 A 
ATOM     84  F   UNL     1      12.237   1.436  -5.616  1.00  0.00    -0.200 F 
ATOM     85  F   UNL     1      14.578   0.869  -6.884  1.00  0.00    -0.200 F 
ENDBRANCH  61  75
BRANCH  62  86
ATOM     86  C   UNL     1       6.091  -2.133 -10.959  1.00  0.00     0.064 A 
ATOM     87  C   UNL     1       6.618  -3.267 -11.628  1.00  0.00     0.173 A 
ATOM     88  C   UNL     1       5.439  -2.402  -9.745  1.00  0.00     0.173 A 
ATOM     89  F   UNL     1       7.322  -3.118 -12.760  1.00  0.00    -0.203 F 
ATOM     90  C   UNL     1       6.505  -4.570 -11.104  1.00  0.00     0.198 A 
ATOM     91  C   UNL     1       5.340  -3.698  -9.216  1.00  0.00     0.198 A 
ATOM     92  F   UNL     1       4.987  -1.390  -8.991  1.00  0.00    -0.203 F 
ATOM     93  F   UNL     1       7.061  -5.611 -11.744  1.00  0.00    -0.200 F 
ATOM     94  C   UNL     1       5.877  -4.781  -9.890  1.00  0.00     0.200 A 
ATOM     95  F   UNL     1       4.784  -3.879  -8.010  1.00  0.00    -0.200 F 
ATOM     96  F   UNL     1       5.830  -6.007  -9.348  1.00  0.00    -0.200 F 
ENDBRANCH  62  86
BRANCH  74  97
ATOM     97  C   UNL     1       8.599   2.550 -14.174  1.00  0.00     0.064 A 
ATOM     98  C   UNL     1       7.208   2.715 -14.301  1.00  0.00     0.173 A 
ATOM     99  C   UNL     1       9.377   2.754 -15.318  1.00  0.00     0.173 A 
ATOM    100  F   UNL     1       6.402   2.627 -13.236  1.00  0.00    -0.203 F 
ATOM    101  C   UNL     1       6.628   3.030 -15.533  1.00  0.00     0.198 A 
ATOM    102  C   UNL     1       8.803   3.102 -16.533  1.00  0.00     0.198 A 
ATOM    103  F   UNL     1      10.714   2.667 -15.235  1.00  0.00    -0.203 F 
ATOM    104  F   UNL     1       5.298   3.178 -15.637  1.00  0.00    -0.200 F 
ATOM    105  C   UNL     1       7.429   3.226 -16.647  1.00  0.00     0.200 A 
ATOM    106  F   UNL     1       9.591   3.347 -17.588  1.00  0.00    -0.200 F 
ATOM    107  F   UNL     1       6.881   3.558 -17.824  1.00  0.00    -0.200 F 
ENDBRANCH  74  97
ENDBRANCH  48  49
ENDBRANCH  40  43
ENDBRANCH  38  39
ENDBRANCH  37  38
ENDBRANCH  36  37
ENDBRANCH   1  36
TORSDOF 18
