REMARK SMILES Cc1cc(Cl)c2c(c1)C=C(C(=O)NCCCCCCNC(=O)c1ccc(-c3c4nc(c(-c5c(F)c(F)c(F)c(F)c5F)c5ccc([nH]5)c(-c5c(F)c(F)c(F)c(F)c5F)c5nc(c(-c6c(F)c(F)c(F)c(F)c6F)c6ccc3[nH]6)C=C5)C=C4)cc1)[C@@H](C(F)(F)F)O2
REMARK SMILES IDX 17 1 16 2 15 3 14 4 13 5 11 6 12 7 10 9 1 10 2 11 3 12 8 13
REMARK SMILES IDX 4 14 7 15 5 16 6 17 9 18 91 19 86 20 87 21 88 22 89 23 90 24
REMARK SMILES IDX 18 25 19 26 20 27 21 28 22 30 23 31 24 32 85 33 25 34 84 35
REMARK SMILES IDX 26 36 27 37 28 38 78 39 29 40 83 41 77 42 79 43 30 44 82 45
REMARK SMILES IDX 76 46 75 47 31 49 63 50 43 51 62 52 44 53 47 54 61 55 80 56
REMARK SMILES IDX 45 57 46 58 60 60 81 61 48 62 32 63 33 64 41 65 34 66 35 67
REMARK SMILES IDX 39 68 42 69 36 70 37 71 40 72 38 73 64 74 65 75 73 76 66 77
REMARK SMILES IDX 67 78 71 79 74 80 68 81 69 82 72 83 70 84 49 85 50 86 58 87
REMARK SMILES IDX 51 88 52 89 56 90 59 91 53 92 54 93 57 94 55 95
REMARK H PARENT 13 8 20 29 79 48 47 59
REMARK Flexibility Score: inf
ROOT
ATOM      1  C   UNL     1       0.710  12.226   0.060  1.00  0.00     0.002 C 
ENDROOT
BRANCH   1   2
ATOM      2  C   UNL     1       0.824  11.353   1.317  1.00  0.00     0.002 C 
BRANCH   2   3
ATOM      3  C   UNL     1       0.103  10.005   1.233  1.00  0.00     0.021 C 
BRANCH   3   4
ATOM      4  C   UNL     1       0.536   9.159   0.042  1.00  0.00     0.116 C 
BRANCH   4   5
ATOM      5  N   UNL     1       1.730   8.387   0.336  1.00  0.00    -0.352 N 
ATOM      6  C   UNL     1       2.082   7.081   0.361  1.00  0.00     0.251 C 
ATOM      7  O   UNL     1       3.262   6.859   0.652  1.00  0.00    -0.270 OA
ATOM      8  H   UNL     1       2.484   8.969   0.583  1.00  0.00     0.163 HD
BRANCH   6   9
ATOM      9  C   UNL     1       1.166   5.937   0.071  1.00  0.00     0.067 C 
ATOM     10  C   UNL     1       1.085  -0.260   0.095  1.00  0.00     0.044 C 
ATOM     11  C   UNL     1       0.539   1.130  -0.051  1.00  0.00    -0.049 A 
ATOM     12  C   UNL     1      -0.813   1.314  -0.361  1.00  0.00     0.028 A 
ATOM     13  C   UNL     1       1.352   2.251   0.171  1.00  0.00     0.015 A 
ATOM     14  C   UNL     1      -1.339   2.600  -0.468  1.00  0.00     0.084 A 
ATOM     15  C   UNL     1       0.827   3.544   0.060  1.00  0.00     0.019 A 
ATOM     16  Cl  UNL     1      -3.015   2.778  -0.848  1.00  0.00    -0.080 Cl
ATOM     17  C   UNL     1      -0.519   3.714  -0.268  1.00  0.00     0.146 A 
ATOM     18  C   UNL     1       1.658   4.712   0.330  1.00  0.00     0.025 C 
ATOM     19  O   UNL     1      -1.092   4.949  -0.352  1.00  0.00    -0.474 OA
ATOM     20  C   UNL     1      -0.211   6.088  -0.506  1.00  0.00     0.314 C 
BRANCH  20  21
ATOM     21  C   UNL     1      -0.195   6.516  -1.985  1.00  0.00     0.429 C 
ATOM     22  F   UNL     1      -1.401   7.020  -2.347  1.00  0.00    -0.167 F 
ATOM     23  F   UNL     1       0.712   7.489  -2.239  1.00  0.00    -0.167 F 
ATOM     24  F   UNL     1       0.086   5.490  -2.818  1.00  0.00    -0.167 F 
ENDBRANCH  20  21
ENDBRANCH   6   9
ENDBRANCH   4   5
ENDBRANCH   3   4
ENDBRANCH   2   3
ENDBRANCH   1   2
BRANCH   1  25
ATOM     25  C   UNL     1      -0.714  12.419  -0.471  1.00  0.00     0.021 C 
BRANCH  25  26
ATOM     26  C   UNL     1      -1.680  13.025   0.540  1.00  0.00     0.116 C 
BRANCH  26  27
ATOM     27  N   UNL     1      -1.242  14.339   0.980  1.00  0.00    -0.352 N 
ATOM     28  C   UNL     1      -1.885  15.544   0.876  1.00  0.00     0.251 C 
ATOM     29  H   UNL     1      -0.359  14.367   1.414  1.00  0.00     0.163 HD
ATOM     30  O   UNL     1      -1.280  16.592   1.087  1.00  0.00    -0.269 OA
BRANCH  28  31
ATOM     31  C   UNL     1      -3.309  15.577   0.497  1.00  0.00     0.039 A 
ATOM     32  C   UNL     1      -3.733  16.497  -0.463  1.00  0.00     0.014 A 
ATOM     33  C   UNL     1      -4.224  14.706   1.097  1.00  0.00     0.014 A 
ATOM     34  C   UNL     1      -5.071  16.513  -0.856  1.00  0.00     0.010 A 
ATOM     35  C   UNL     1      -5.540  14.671   0.650  1.00  0.00     0.010 A 
ATOM     36  C   UNL     1      -5.978  15.583  -0.321  1.00  0.00    -0.014 A 
BRANCH  36  37
ATOM     37  C   UNL     1      -7.398  15.572  -0.748  1.00  0.00     0.031 A 
ATOM     38  C   UNL     1      -8.478  15.918   0.238  1.00  0.00     0.074 A 
ATOM     39  C   UNL     1      -7.712  15.222  -2.010  1.00  0.00     0.049 A 
ATOM     40  N   UNL     1      -9.776  15.928   0.071  1.00  0.00    -0.248 NA
ATOM     41  C   UNL     1      -8.047  16.284   1.598  1.00  0.00     0.031 C 
ATOM     42  C   UNL     1      -6.750  14.836  -3.044  1.00  0.00     0.029 A 
ATOM     43  N   UNL     1      -8.928  15.133  -2.640  1.00  0.00    -0.354 N 
ATOM     44  C   UNL     1     -10.311  16.299   1.297  1.00  0.00     0.074 A 
ATOM     45  C   UNL     1      -9.207  16.446   2.218  1.00  0.00     0.031 C 
ATOM     46  C   UNL     1      -7.409  14.582  -4.186  1.00  0.00     0.029 A 
ATOM     47  C   UNL     1      -8.841  14.747  -3.956  1.00  0.00     0.049 A 
ATOM     48  H   UNL     1      -9.783  15.327  -2.191  1.00  0.00     0.167 HD
ATOM     49  C   UNL     1     -11.606  16.527   1.614  1.00  0.00     0.037 A 
ATOM     50  C   UNL     1      -9.810  14.544  -4.870  1.00  0.00     0.037 A 
ATOM     51  C   UNL     1     -12.697  16.407   0.686  1.00  0.00     0.049 A 
ATOM     52  C   UNL     1     -11.245  14.773  -4.476  1.00  0.00     0.074 A 
ATOM     53  C   UNL     1     -14.040  16.658   0.901  1.00  0.00     0.029 A 
ATOM     54  N   UNL     1     -12.571  16.003  -0.635  1.00  0.00    -0.354 N 
ATOM     55  N   UNL     1     -11.734  15.179  -3.329  1.00  0.00    -0.248 NA
ATOM     56  C   UNL     1     -12.265  14.517  -5.503  1.00  0.00     0.031 C 
ATOM     57  C   UNL     1     -14.734  16.358  -0.273  1.00  0.00     0.029 A 
ATOM     58  C   UNL     1     -13.817  15.975  -1.238  1.00  0.00     0.049 A 
ATOM     59  H   UNL     1     -11.722  15.771  -1.077  1.00  0.00     0.167 HD
ATOM     60  C   UNL     1     -13.109  15.254  -3.504  1.00  0.00     0.074 A 
ATOM     61  C   UNL     1     -13.377  14.870  -4.873  1.00  0.00     0.031 C 
ATOM     62  C   UNL     1     -14.064  15.603  -2.608  1.00  0.00     0.037 A 
BRANCH  49  63
ATOM     63  C   UNL     1     -11.925  16.959   3.015  1.00  0.00     0.064 A 
ATOM     64  C   UNL     1     -11.598  18.243   3.475  1.00  0.00     0.173 A 
ATOM     65  C   UNL     1     -12.652  16.119   3.872  1.00  0.00     0.173 A 
ATOM     66  F   UNL     1     -10.893  19.079   2.698  1.00  0.00    -0.203 F 
ATOM     67  C   UNL     1     -11.985  18.670   4.742  1.00  0.00     0.198 A 
ATOM     68  C   UNL     1     -13.062  16.559   5.128  1.00  0.00     0.198 A 
ATOM     69  F   UNL     1     -12.992  14.882   3.479  1.00  0.00    -0.203 F 
ATOM     70  F   UNL     1     -11.642  19.893   5.169  1.00  0.00    -0.200 F 
ATOM     71  C   UNL     1     -12.728  17.833   5.562  1.00  0.00     0.200 A 
ATOM     72  F   UNL     1     -13.793  15.756   5.912  1.00  0.00    -0.200 F 
ATOM     73  F   UNL     1     -13.124  18.256   6.770  1.00  0.00    -0.200 F 
ENDBRANCH  49  63
BRANCH  50  74
ATOM     74  C   UNL     1      -9.455  14.125  -6.252  1.00  0.00     0.064 A 
ATOM     75  C   UNL     1      -9.667  14.983  -7.341  1.00  0.00     0.173 A 
ATOM     76  C   UNL     1      -8.906  12.862  -6.517  1.00  0.00     0.173 A 
ATOM     77  F   UNL     1     -10.209  16.194  -7.144  1.00  0.00    -0.203 F 
ATOM     78  C   UNL     1      -9.364  14.586  -8.642  1.00  0.00     0.198 A 
ATOM     79  C   UNL     1      -8.573  12.478  -7.814  1.00  0.00     0.198 A 
ATOM     80  F   UNL     1      -8.680  12.004  -5.512  1.00  0.00    -0.203 F 
ATOM     81  F   UNL     1      -9.623  15.407  -9.668  1.00  0.00    -0.200 F 
ATOM     82  C   UNL     1      -8.811  13.336  -8.877  1.00  0.00     0.200 A 
ATOM     83  F   UNL     1      -8.024  11.276  -8.035  1.00  0.00    -0.200 F 
ATOM     84  F   UNL     1      -8.514  12.957 -10.127  1.00  0.00    -0.200 F 
ENDBRANCH  50  74
BRANCH  62  85
ATOM     85  C   UNL     1     -15.490  15.613  -3.076  1.00  0.00     0.064 A 
ATOM     86  C   UNL     1     -16.186  14.422  -3.329  1.00  0.00     0.173 A 
ATOM     87  C   UNL     1     -16.194  16.822  -3.187  1.00  0.00     0.173 A 
ATOM     88  F   UNL     1     -15.554  13.241  -3.247  1.00  0.00    -0.203 F 
ATOM     89  C   UNL     1     -17.530  14.442  -3.691  1.00  0.00     0.198 A 
ATOM     90  C   UNL     1     -17.546  16.836  -3.516  1.00  0.00     0.198 A 
ATOM     91  F   UNL     1     -15.578  17.989  -2.944  1.00  0.00    -0.203 F 
ATOM     92  F   UNL     1     -18.165  13.294  -3.963  1.00  0.00    -0.200 F 
ATOM     93  C   UNL     1     -18.211  15.647  -3.772  1.00  0.00     0.200 A 
ATOM     94  F   UNL     1     -18.208  18.000  -3.574  1.00  0.00    -0.200 F 
ATOM     95  F   UNL     1     -19.511  15.662  -4.098  1.00  0.00    -0.200 F 
ENDBRANCH  62  85
ENDBRANCH  36  37
ENDBRANCH  28  31
ENDBRANCH  26  27
ENDBRANCH  25  26
ENDBRANCH   1  25
TORSDOF 14
