REMARK SMILES CC(=O)N[C@@H](C(=O)N(CC(=O)NCCCCCCNC(=O)c1ccc(-c2c3nc(c(-c4c(F)c(F)c(F)c(F)c4F)c4ccc([nH]4)c(-c4c(F)c(F)c(F)c(F)c4F)c4nc(c(-c5c(F)c(F)c(F)c(F)c5F)c5ccc2[nH]5)C=C4)C=C3)cc1)C(C)(C)C)C(C)C
REMARK SMILES IDX 14 1 13 2 12 3 10 4 11 5 9 7 8 8 6 9 7 10 5 11 4 12 1 13
REMARK SMILES IDX 2 14 3 15 89 17 90 18 91 19 85 20 86 21 87 22 88 23 15 24
REMARK SMILES IDX 16 25 17 26 18 27 19 28 20 29 21 31 22 32 23 33 84 34 24 35
REMARK SMILES IDX 83 36 25 37 26 38 27 39 77 40 28 41 82 42 76 43 78 44 29 45
REMARK SMILES IDX 81 46 75 47 74 48 30 50 62 51 42 52 61 53 43 54 46 55 60 56
REMARK SMILES IDX 79 57 44 58 45 59 59 61 80 62 47 63 31 64 32 65 40 66 33 67
REMARK SMILES IDX 34 68 38 69 41 70 35 71 36 72 39 73 37 74 63 75 64 76 72 77
REMARK SMILES IDX 65 78 66 79 70 80 73 81 67 82 68 83 71 84 69 85 48 86 49 87
REMARK SMILES IDX 57 88 50 89 51 90 55 91 58 92 52 93 53 94 56 95 54 96
REMARK H PARENT 12 6 4 16 19 30 78 49 46 60
REMARK Flexibility Score: inf
ROOT
ATOM      1  C   UNL     1       1.873   0.570  -5.921  1.00  0.00     0.021 C 
ENDROOT
BRANCH   1   2
ATOM      2  C   UNL     1       1.815   0.086  -4.483  1.00  0.00     0.116 C 
BRANCH   2   3
ATOM      3  N   UNL     1       2.759  -0.953  -4.156  1.00  0.00    -0.355 N 
ATOM      4  C   UNL     1       3.546  -1.072  -3.049  1.00  0.00     0.239 C 
ATOM      5  O   UNL     1       4.022  -2.187  -2.809  1.00  0.00    -0.273 OA
ATOM      6  H   UNL     1       2.847  -1.673  -4.822  1.00  0.00     0.163 HD
BRANCH   4   7
ATOM      7  C   UNL     1       3.738   0.079  -2.035  1.00  0.00     0.220 C 
BRANCH   7   8
ATOM      8  N   UNL     1       4.009   1.433  -2.548  1.00  0.00    -0.327 N 
BRANCH   8   9
ATOM      9  C   UNL     1       3.089   2.495  -2.421  1.00  0.00     0.246 C 
ATOM     10  O   UNL     1       3.227   3.515  -3.106  1.00  0.00    -0.272 OA
BRANCH   9  11
ATOM     11  C   UNL     1       1.881   2.438  -1.384  1.00  0.00     0.174 C 
BRANCH  11  12
ATOM     12  N   UNL     1       0.894   1.407  -1.739  1.00  0.00    -0.344 N 
ATOM     13  C   UNL     1       0.781   0.224   0.433  1.00  0.00     0.114 C 
ATOM     14  C   UNL     1       0.343   0.410  -0.993  1.00  0.00     0.217 C 
ATOM     15  O   UNL     1      -0.508  -0.309  -1.513  1.00  0.00    -0.275 OA
ATOM     16  H   UNL     1       0.579   1.444  -2.671  1.00  0.00     0.164 HD
ENDBRANCH  11  12
BRANCH  11  17
ATOM     17  C   UNL     1       1.129   3.813  -1.351  1.00  0.00     0.015 C 
ATOM     18  C   UNL     1      -0.218   3.759  -0.611  1.00  0.00     0.010 C 
ATOM     19  C   UNL     1       1.974   4.928  -0.725  1.00  0.00     0.010 C 
ENDBRANCH  11  17
ENDBRANCH   9  11
ENDBRANCH   8   9
BRANCH   8  20
ATOM     20  C   UNL     1       5.323   1.661  -3.284  1.00  0.00     0.035 C 
ATOM     21  C   UNL     1       5.110   1.969  -4.780  1.00  0.00     0.034 C 
ATOM     22  C   UNL     1       6.101   2.820  -2.621  1.00  0.00     0.034 C 
ATOM     23  C   UNL     1       6.292   0.445  -3.251  1.00  0.00     0.034 C 
ENDBRANCH   8  20
ENDBRANCH   7   8
ENDBRANCH   4   7
ENDBRANCH   2   3
ENDBRANCH   1   2
BRANCH   1  24
ATOM     24  C   UNL     1       1.318  -0.412  -6.944  1.00  0.00     0.002 C 
BRANCH  24  25
ATOM     25  C   UNL     1      -0.153  -0.781  -6.744  1.00  0.00     0.002 C 
BRANCH  25  26
ATOM     26  C   UNL     1      -1.121   0.402  -6.641  1.00  0.00     0.021 C 
BRANCH  26  27
ATOM     27  C   UNL     1      -1.023   1.419  -7.774  1.00  0.00     0.116 C 
BRANCH  27  28
ATOM     28  N   UNL     1      -1.226   0.811  -9.079  1.00  0.00    -0.352 N 
ATOM     29  C   UNL     1      -2.100   1.158 -10.073  1.00  0.00     0.251 C 
ATOM     30  H   UNL     1      -0.650   0.037  -9.276  1.00  0.00     0.163 HD
ATOM     31  O   UNL     1      -2.266   0.417 -11.041  1.00  0.00    -0.269 OA
BRANCH  29  32
ATOM     32  C   UNL     1      -2.863   2.417  -9.974  1.00  0.00     0.039 A 
ATOM     33  C   UNL     1      -4.231   2.399 -10.255  1.00  0.00     0.014 A 
ATOM     34  C   UNL     1      -2.233   3.612  -9.614  1.00  0.00     0.014 A 
ATOM     35  C   UNL     1      -4.979   3.569 -10.122  1.00  0.00     0.010 A 
ATOM     36  C   UNL     1      -2.992   4.762  -9.413  1.00  0.00     0.010 A 
ATOM     37  C   UNL     1      -4.372   4.752  -9.669  1.00  0.00    -0.014 A 
BRANCH  37  38
ATOM     38  C   UNL     1      -5.172   5.984  -9.450  1.00  0.00     0.031 A 
ATOM     39  C   UNL     1      -4.909   7.214 -10.274  1.00  0.00     0.074 A 
ATOM     40  C   UNL     1      -6.096   6.010  -8.470  1.00  0.00     0.049 A 
ATOM     41  N   UNL     1      -5.463   8.398 -10.192  1.00  0.00    -0.248 NA
ATOM     42  C   UNL     1      -3.870   7.111 -11.311  1.00  0.00     0.031 C 
ATOM     43  C   UNL     1      -6.404   4.896  -7.571  1.00  0.00     0.029 A 
ATOM     44  N   UNL     1      -6.937   7.012  -8.055  1.00  0.00    -0.354 N 
ATOM     45  C   UNL     1      -4.832   9.179 -11.151  1.00  0.00     0.074 A 
ATOM     46  C   UNL     1      -3.821   8.352 -11.773  1.00  0.00     0.031 C 
ATOM     47  C   UNL     1      -7.376   5.270  -6.723  1.00  0.00     0.029 A 
ATOM     48  C   UNL     1      -7.731   6.660  -6.990  1.00  0.00     0.049 A 
ATOM     49  H   UNL     1      -6.969   7.899  -8.481  1.00  0.00     0.167 HD
ATOM     50  C   UNL     1      -5.088  10.464 -11.494  1.00  0.00     0.037 A 
ATOM     51  C   UNL     1      -8.632   7.383  -6.298  1.00  0.00     0.037 A 
ATOM     52  C   UNL     1      -6.116  11.272 -10.894  1.00  0.00     0.049 A 
ATOM     53  C   UNL     1      -8.896   8.808  -6.706  1.00  0.00     0.074 A 
ATOM     54  C   UNL     1      -6.503  12.559 -11.225  1.00  0.00     0.029 A 
ATOM     55  N   UNL     1      -6.918  10.873  -9.835  1.00  0.00    -0.354 N 
ATOM     56  N   UNL     1      -8.351   9.508  -7.671  1.00  0.00    -0.248 NA
ATOM     57  C   UNL     1      -9.908   9.543  -5.932  1.00  0.00     0.031 C 
ATOM     58  C   UNL     1      -7.499  12.960 -10.330  1.00  0.00     0.029 A 
ATOM     59  C   UNL     1      -7.777  11.901  -9.481  1.00  0.00     0.049 A 
ATOM     60  H   UNL     1      -6.882   9.991  -9.399  1.00  0.00     0.167 HD
ATOM     61  C   UNL     1      -8.974  10.749  -7.641  1.00  0.00     0.074 A 
ATOM     62  C   UNL     1      -9.951  10.700  -6.575  1.00  0.00     0.031 C 
ATOM     63  C   UNL     1      -8.754  11.833  -8.425  1.00  0.00     0.037 A 
BRANCH  50  64
ATOM     64  C   UNL     1      -4.249  11.086 -12.573  1.00  0.00     0.064 A 
ATOM     65  C   UNL     1      -4.374  10.704 -13.917  1.00  0.00     0.173 A 
ATOM     66  C   UNL     1      -3.365  12.133 -12.268  1.00  0.00     0.173 A 
ATOM     67  F   UNL     1      -5.197   9.703 -14.261  1.00  0.00    -0.203 F 
ATOM     68  C   UNL     1      -3.633  11.336 -14.913  1.00  0.00     0.198 A 
ATOM     69  C   UNL     1      -2.649  12.782 -13.270  1.00  0.00     0.198 A 
ATOM     70  F   UNL     1      -3.212  12.541 -10.999  1.00  0.00    -0.203 F 
ATOM     71  F   UNL     1      -3.744  10.932 -16.186  1.00  0.00    -0.200 F 
ATOM     72  C   UNL     1      -2.781  12.381 -14.590  1.00  0.00     0.200 A 
ATOM     73  F   UNL     1      -1.838  13.802 -12.957  1.00  0.00    -0.200 F 
ATOM     74  F   UNL     1      -2.084  13.002 -15.553  1.00  0.00    -0.200 F 
ENDBRANCH  50  64
BRANCH  51  75
ATOM     75  C   UNL     1      -9.356   6.776  -5.149  1.00  0.00     0.064 A 
ATOM     76  C   UNL     1     -10.740   6.553  -5.200  1.00  0.00     0.173 A 
ATOM     77  C   UNL     1      -8.687   6.440  -3.962  1.00  0.00     0.173 A 
ATOM     78  F   UNL     1     -11.429   6.876  -6.304  1.00  0.00    -0.203 F 
ATOM     79  C   UNL     1     -11.430   6.051  -4.099  1.00  0.00     0.198 A 
ATOM     80  C   UNL     1      -9.373   5.905  -2.874  1.00  0.00     0.198 A 
ATOM     81  F   UNL     1      -7.363   6.628  -3.861  1.00  0.00    -0.203 F 
ATOM     82  F   UNL     1     -12.762   5.909  -4.154  1.00  0.00    -0.200 F 
ATOM     83  C   UNL     1     -10.746   5.724  -2.938  1.00  0.00     0.200 A 
ATOM     84  F   UNL     1      -8.705   5.577  -1.760  1.00  0.00    -0.200 F 
ATOM     85  F   UNL     1     -11.411   5.247  -1.877  1.00  0.00    -0.200 F 
ENDBRANCH  51  75
BRANCH  63  86
ATOM     86  C   UNL     1      -9.613  13.041  -8.188  1.00  0.00     0.064 A 
ATOM     87  C   UNL     1      -9.473  13.834  -7.039  1.00  0.00     0.173 A 
ATOM     88  C   UNL     1     -10.563  13.434  -9.145  1.00  0.00     0.173 A 
ATOM     89  F   UNL     1      -8.590  13.494  -6.088  1.00  0.00    -0.203 F 
ATOM     90  C   UNL     1     -10.273  14.957  -6.843  1.00  0.00     0.198 A 
ATOM     91  C   UNL     1     -11.335  14.576  -8.962  1.00  0.00     0.198 A 
ATOM     92  F   UNL     1     -10.730  12.716 -10.266  1.00  0.00    -0.203 F 
ATOM     93  F   UNL     1     -10.159  15.668  -5.713  1.00  0.00    -0.200 F 
ATOM     94  C   UNL     1     -11.196  15.332  -7.808  1.00  0.00     0.200 A 
ATOM     95  F   UNL     1     -12.215  14.947  -9.903  1.00  0.00    -0.200 F 
ATOM     96  F   UNL     1     -11.958  16.418  -7.621  1.00  0.00    -0.200 F 
ENDBRANCH  63  86
ENDBRANCH  37  38
ENDBRANCH  29  32
ENDBRANCH  27  28
ENDBRANCH  26  27
ENDBRANCH  25  26
ENDBRANCH  24  25
ENDBRANCH   1  24
TORSDOF 19
