REMARK SMILES C[C@H](CC(=O)NCCCCCCNC(=O)c1ccc(-c2c3nc(c(-c4c(F)c(F)c(F)c(F)c4F)c4ccc([nH]4)c(-c4c(F)c(F)c(F)c(F)c4F)c4nc(c(-c5c(F)c(F)c(F)c(F)c5F)c5ccc2[nH]5)C=C4)C=C3)cc1)CC(=O)NC(=O)N(C)C[C@@H]1CCC[N@H+]1C
REMARK SMILES IDX 7 1 6 2 4 3 5 4 3 6 2 7 1 8 79 9 80 10 81 11 82 12 83 13
REMARK SMILES IDX 84 15 85 16 86 17 87 18 88 19 89 20 92 21 90 22 91 23 93 24
REMARK SMILES IDX 8 26 9 27 10 28 11 29 12 30 13 31 14 32 15 34 16 35 17 36
REMARK SMILES IDX 78 37 18 38 77 39 19 40 20 41 21 42 71 43 22 44 76 45 70 46
REMARK SMILES IDX 72 47 23 48 75 49 69 50 68 51 24 53 56 54 36 55 55 56 37 57
REMARK SMILES IDX 40 58 54 59 73 60 38 61 39 62 53 64 74 65 41 66 25 67 26 68
REMARK SMILES IDX 34 69 27 70 28 71 32 72 35 73 29 74 30 75 33 76 31 77 57 78
REMARK SMILES IDX 58 79 66 80 59 81 60 82 64 83 67 84 61 85 62 86 65 87 63 88
REMARK SMILES IDX 42 89 43 90 51 91 44 92 45 93 49 94 52 95 46 96 47 97 50 98
REMARK SMILES IDX 48 99
REMARK H PARENT 6 5 82 14 92 25 13 33 72 52 40 63
REMARK Flexibility Score: inf
ROOT
ATOM      1  C   UNL     1       5.556   5.364  -2.480  1.00  0.00     0.116 C 
ENDROOT
BRANCH   1   2
ATOM      2  N   UNL     1       4.547   5.241  -3.529  1.00  0.00    -0.356 N 
ATOM      3  C   UNL     1       3.752   4.309  -4.093  1.00  0.00     0.220 C 
ATOM      4  O   UNL     1       3.139   4.710  -5.094  1.00  0.00    -0.275 OA
ATOM      5  H   UNL     1       4.400   6.114  -3.961  1.00  0.00     0.163 HD
BRANCH   3   6
ATOM      6  C   UNL     1       3.392   2.926  -3.558  1.00  0.00     0.103 C 
BRANCH   6   7
ATOM      7  C   UNL     1       4.326   1.729  -3.389  1.00  0.00     0.004 C 
ATOM      8  C   UNL     1       4.498   0.997  -4.728  1.00  0.00     0.009 C 
BRANCH   7   9
ATOM      9  C   UNL     1       5.651   2.011  -2.691  1.00  0.00     0.104 C 
BRANCH   9  10
ATOM     10  C   UNL     1       5.622   2.132  -1.153  1.00  0.00     0.228 C 
ATOM     11  O   UNL     1       6.654   1.951  -0.503  1.00  0.00    -0.275 OA
ATOM     12  N   UNL     1       4.405   2.301  -0.532  1.00  0.00    -0.278 N 
ATOM     13  C   UNL     1       3.699   3.469  -0.299  1.00  0.00     0.323 C 
ATOM     14  H   UNL     1       3.977   1.476  -0.207  1.00  0.00     0.174 HD
ATOM     15  O   UNL     1       4.204   4.579  -0.192  1.00  0.00    -0.248 OA
BRANCH  13  16
ATOM     16  N   UNL     1       2.318   3.289  -0.241  1.00  0.00    -0.322 N 
ATOM     17  C   UNL     1       1.494   4.237  -0.988  1.00  0.00     0.149 C 
BRANCH  16  18
ATOM     18  C   UNL     1       1.639   2.711   0.917  1.00  0.00     0.185 C 
BRANCH  18  19
ATOM     19  C   UNL     1       2.274   1.545   1.692  1.00  0.00     0.203 C 
ATOM     20  C   UNL     1       3.334   1.995   2.702  1.00  0.00     0.073 C 
ATOM     21  N   UNL     1       2.987   0.525   0.904  1.00  0.00    -0.333 N 
ATOM     22  C   UNL     1       4.312   0.825   2.791  1.00  0.00     0.068 C 
ATOM     23  C   UNL     1       3.724  -0.260   1.898  1.00  0.00     0.262 C 
ATOM     24  C   UNL     1       2.093  -0.293   0.091  1.00  0.00     0.333 C 
ATOM     25  H   UNL     1       3.609   0.949   0.216  1.00  0.00     0.348 HD
ENDBRANCH  18  19
ENDBRANCH  16  18
ENDBRANCH  13  16
ENDBRANCH   9  10
ENDBRANCH   7   9
ENDBRANCH   6   7
ENDBRANCH   3   6
ENDBRANCH   1   2
BRANCH   1  26
ATOM     26  C   UNL     1       6.856   5.925  -3.069  1.00  0.00     0.021 C 
BRANCH  26  27
ATOM     27  C   UNL     1       7.266   7.266  -2.449  1.00  0.00     0.002 C 
BRANCH  27  28
ATOM     28  C   UNL     1       8.099   7.168  -1.166  1.00  0.00     0.002 C 
BRANCH  28  29
ATOM     29  C   UNL     1       9.440   6.437  -1.287  1.00  0.00     0.021 C 
BRANCH  29  30
ATOM     30  C   UNL     1      10.270   6.761  -2.525  1.00  0.00     0.116 C 
BRANCH  30  31
ATOM     31  N   UNL     1      10.535   8.181  -2.691  1.00  0.00    -0.352 N 
ATOM     32  C   UNL     1      11.677   8.795  -3.136  1.00  0.00     0.251 C 
ATOM     33  H   UNL     1       9.795   8.784  -2.450  1.00  0.00     0.163 HD
ATOM     34  O   UNL     1      11.763  10.021  -3.168  1.00  0.00    -0.269 OA
BRANCH  32  35
ATOM     35  C   UNL     1      12.829   7.968  -3.540  1.00  0.00     0.039 A 
ATOM     36  C   UNL     1      14.074   8.233  -2.967  1.00  0.00     0.014 A 
ATOM     37  C   UNL     1      12.672   6.918  -4.450  1.00  0.00     0.014 A 
ATOM     38  C   UNL     1      15.157   7.406  -3.263  1.00  0.00     0.010 A 
ATOM     39  C   UNL     1      13.736   6.056  -4.693  1.00  0.00     0.010 A 
ATOM     40  C   UNL     1      14.988   6.295  -4.105  1.00  0.00    -0.014 A 
BRANCH  40  41
ATOM     41  C   UNL     1      16.122   5.387  -4.398  1.00  0.00     0.031 A 
ATOM     42  C   UNL     1      16.680   5.319  -5.791  1.00  0.00     0.074 A 
ATOM     43  C   UNL     1      16.613   4.598  -3.424  1.00  0.00     0.049 A 
ATOM     44  N   UNL     1      17.636   4.560  -6.264  1.00  0.00    -0.248 NA
ATOM     45  C   UNL     1      16.065   6.204  -6.792  1.00  0.00     0.031 C 
ATOM     46  C   UNL     1      16.120   4.549  -2.047  1.00  0.00     0.029 A 
ATOM     47  N   UNL     1      17.633   3.680  -3.445  1.00  0.00    -0.354 N 
ATOM     48  C   UNL     1      17.727   4.870  -7.614  1.00  0.00     0.074 A 
ATOM     49  C   UNL     1      16.695   5.841  -7.899  1.00  0.00     0.031 C 
ATOM     50  C   UNL     1      16.853   3.666  -1.349  1.00  0.00     0.029 A 
ATOM     51  C   UNL     1      17.845   3.065  -2.235  1.00  0.00     0.049 A 
ATOM     52  H   UNL     1      18.163   3.482  -4.250  1.00  0.00     0.167 HD
ATOM     53  C   UNL     1      18.612   4.404  -8.527  1.00  0.00     0.037 A 
ATOM     54  C   UNL     1      18.739   2.121  -1.886  1.00  0.00     0.037 A 
ATOM     55  C   UNL     1      19.651   3.456  -8.229  1.00  0.00     0.049 A 
ATOM     56  C   UNL     1      19.708   1.618  -2.923  1.00  0.00     0.074 A 
ATOM     57  C   UNL     1      20.629   2.953  -9.069  1.00  0.00     0.029 A 
ATOM     58  N   UNL     1      19.847   2.867  -6.988  1.00  0.00    -0.354 N 
ATOM     59  N   UNL     1      19.828   1.964  -4.181  1.00  0.00    -0.248 NA
ATOM     60  C   UNL     1      20.672   0.598  -2.487  1.00  0.00     0.031 C 
ATOM     61  C   UNL     1      21.393   2.031  -8.345  1.00  0.00     0.029 A 
ATOM     62  C   UNL     1      20.920   1.994  -7.043  1.00  0.00     0.049 A 
ATOM     63  H   UNL     1      19.302   3.044  -6.187  1.00  0.00     0.167 HD
ATOM     64  C   UNL     1      20.895   1.231  -4.680  1.00  0.00     0.074 A 
ATOM     65  C   UNL     1      21.399   0.430  -3.583  1.00  0.00     0.031 C 
ATOM     66  C   UNL     1      21.412   1.219  -5.933  1.00  0.00     0.037 A 
BRANCH  53  67
ATOM     67  C   UNL     1      18.498   4.924  -9.931  1.00  0.00     0.064 A 
ATOM     68  C   UNL     1      18.827   6.251 -10.250  1.00  0.00     0.173 A 
ATOM     69  C   UNL     1      18.084   4.082 -10.973  1.00  0.00     0.173 A 
ATOM     70  F   UNL     1      19.216   7.100  -9.288  1.00  0.00    -0.203 F 
ATOM     71  C   UNL     1      18.719   6.722 -11.556  1.00  0.00     0.198 A 
ATOM     72  C   UNL     1      18.005   4.549 -12.283  1.00  0.00     0.198 A 
ATOM     73  F   UNL     1      17.761   2.804 -10.724  1.00  0.00    -0.203 F 
ATOM     74  F   UNL     1      18.993   8.005 -11.828  1.00  0.00    -0.200 F 
ATOM     75  C   UNL     1      18.316   5.869 -12.572  1.00  0.00     0.200 A 
ATOM     76  F   UNL     1      17.627   3.721 -13.266  1.00  0.00    -0.200 F 
ATOM     77  F   UNL     1      18.219   6.322 -13.830  1.00  0.00    -0.200 F 
ENDBRANCH  53  67
BRANCH  54  78
ATOM     78  C   UNL     1      18.783   1.612  -0.490  1.00  0.00     0.064 A 
ATOM     79  C   UNL     1      19.867   1.906   0.349  1.00  0.00     0.173 A 
ATOM     80  C   UNL     1      17.754   0.813   0.030  1.00  0.00     0.173 A 
ATOM     81  F   UNL     1      20.885   2.649  -0.109  1.00  0.00    -0.203 F 
ATOM     82  C   UNL     1      19.932   1.402   1.647  1.00  0.00     0.198 A 
ATOM     83  C   UNL     1      17.807   0.333   1.338  1.00  0.00     0.198 A 
ATOM     84  F   UNL     1      16.693   0.505  -0.729  1.00  0.00    -0.203 F 
ATOM     85  F   UNL     1      21.003   1.659   2.409  1.00  0.00    -0.200 F 
ATOM     86  C   UNL     1      18.899   0.620   2.141  1.00  0.00     0.200 A 
ATOM     87  F   UNL     1      16.802  -0.413   1.816  1.00  0.00    -0.200 F 
ATOM     88  F   UNL     1      18.962   0.135   3.389  1.00  0.00    -0.200 F 
ENDBRANCH  54  78
BRANCH  66  89
ATOM     89  C   UNL     1      22.605   0.342  -6.175  1.00  0.00     0.064 A 
ATOM     90  C   UNL     1      22.491  -1.054  -6.234  1.00  0.00     0.173 A 
ATOM     91  C   UNL     1      23.869   0.911  -6.395  1.00  0.00     0.173 A 
ATOM     92  F   UNL     1      21.307  -1.645  -6.014  1.00  0.00    -0.203 F 
ATOM     93  C   UNL     1      23.605  -1.851  -6.482  1.00  0.00     0.198 A 
ATOM     94  C   UNL     1      24.974   0.113  -6.673  1.00  0.00     0.198 A 
ATOM     95  F   UNL     1      24.027   2.242  -6.356  1.00  0.00    -0.203 F 
ATOM     96  F   UNL     1      23.483  -3.186  -6.489  1.00  0.00    -0.200 F 
ATOM     97  C   UNL     1      24.843  -1.268  -6.709  1.00  0.00     0.200 A 
ATOM     98  F   UNL     1      26.166   0.679  -6.905  1.00  0.00    -0.200 F 
ATOM     99  F   UNL     1      25.912  -2.036  -6.957  1.00  0.00    -0.200 F 
ENDBRANCH  66  89
ENDBRANCH  40  41
ENDBRANCH  32  35
ENDBRANCH  30  31
ENDBRANCH  29  30
ENDBRANCH  28  29
ENDBRANCH  27  28
ENDBRANCH  26  27
ENDBRANCH   1  26
TORSDOF 19
