REMARK SMILES O=C(NCCCCCCNC(=O)C1(c2ccccc2)CCN(S(=O)(=O)c2cccs2)CC1)c1ccc(-c2c3nc(c(-c4c(F)c(F)c(F)c(F)c4F)c4ccc([nH]4)c(-c4c(F)c(F)c(F)c(F)c4F)c4nc(c(-c5c(F)c(F)c(F)c(F)c5F)c5ccc2[nH]5)C=C4)C=C3)cc1
REMARK SMILES IDX 6 1 5 2 4 3 3 4 1 5 2 6 33 8 34 9 95 10 35 11 94 12 36 13
REMARK SMILES IDX 37 14 38 15 88 16 39 17 93 18 87 19 89 20 40 21 92 22 86 23
REMARK SMILES IDX 85 24 41 26 73 27 53 28 72 29 54 30 57 31 71 32 90 33 55 34
REMARK SMILES IDX 56 35 70 37 91 38 58 39 42 40 43 41 51 42 44 43 45 44 49 45
REMARK SMILES IDX 52 46 46 47 47 48 50 49 48 50 74 51 75 52 83 53 76 54 77 55
REMARK SMILES IDX 81 56 84 57 78 58 79 59 82 60 80 61 59 62 60 63 68 64 61 65
REMARK SMILES IDX 62 66 66 67 69 68 63 69 64 70 67 71 65 72 7 73 8 74 9 75
REMARK SMILES IDX 10 76 11 77 12 79 13 80 20 81 32 82 21 83 31 84 22 85 14 86
REMARK SMILES IDX 15 87 19 88 16 89 18 90 17 91 23 92 24 93 25 94 26 95 27 96
REMARK SMILES IDX 30 97 28 98 29 99
REMARK H PARENT 3 7 89 25 57 36 10 78
REMARK Flexibility Score: inf
ROOT
ATOM      1  C   UNL     1       3.776  -3.569  -1.381  1.00  0.00     0.002 C 
ENDROOT
BRANCH   1   2
ATOM      2  C   UNL     1       4.308  -2.659  -0.273  1.00  0.00     0.021 C 
BRANCH   2   3
ATOM      3  C   UNL     1       4.268  -1.181  -0.631  1.00  0.00     0.116 C 
BRANCH   3   4
ATOM      4  N   UNL     1       2.900  -0.708  -0.795  1.00  0.00    -0.352 N 
ATOM      5  O   UNL     1       0.988   0.308  -0.154  1.00  0.00    -0.269 OA
ATOM      6  C   UNL     1       2.205   0.211  -0.050  1.00  0.00     0.251 C 
ATOM      7  H   UNL     1       2.404  -1.105  -1.548  1.00  0.00     0.163 HD
BRANCH   6   8
ATOM      8  C   UNL     1       2.941   1.078   0.892  1.00  0.00     0.039 A 
ATOM      9  C   UNL     1       4.150   1.659   0.506  1.00  0.00     0.014 A 
ATOM     10  C   UNL     1       2.425   1.304   2.170  1.00  0.00     0.014 A 
ATOM     11  C   UNL     1       4.924   2.321   1.446  1.00  0.00     0.010 A 
ATOM     12  C   UNL     1       3.159   2.064   3.084  1.00  0.00     0.010 A 
ATOM     13  C   UNL     1       4.432   2.545   2.743  1.00  0.00    -0.014 A 
BRANCH  13  14
ATOM     14  C   UNL     1       5.263   3.317   3.700  1.00  0.00     0.031 A 
ATOM     15  C   UNL     1       5.778   2.690   4.965  1.00  0.00     0.074 A 
ATOM     16  C   UNL     1       5.590   4.587   3.390  1.00  0.00     0.049 A 
ATOM     17  N   UNL     1       6.554   3.207   5.886  1.00  0.00    -0.248 NA
ATOM     18  C   UNL     1       5.364   1.307   5.243  1.00  0.00     0.031 C 
ATOM     19  C   UNL     1       5.139   5.302   2.193  1.00  0.00     0.029 A 
ATOM     20  N   UNL     1       6.395   5.491   4.032  1.00  0.00    -0.354 N 
ATOM     21  C   UNL     1       6.699   2.227   6.859  1.00  0.00     0.074 A 
ATOM     22  C   UNL     1       5.909   1.092   6.432  1.00  0.00     0.031 C 
ATOM     23  C   UNL     1       5.720   6.509   2.156  1.00  0.00     0.029 A 
ATOM     24  C   UNL     1       6.527   6.680   3.358  1.00  0.00     0.049 A 
ATOM     25  H   UNL     1       6.836   5.306   4.893  1.00  0.00     0.167 HD
ATOM     26  C   UNL     1       7.430   2.271   7.999  1.00  0.00     0.037 A 
ATOM     27  C   UNL     1       7.213   7.792   3.678  1.00  0.00     0.037 A 
ATOM     28  C   UNL     1       8.229   3.400   8.405  1.00  0.00     0.049 A 
ATOM     29  C   UNL     1       8.001   7.816   4.956  1.00  0.00     0.074 A 
ATOM     30  C   UNL     1       9.038   3.529   9.521  1.00  0.00     0.029 A 
ATOM     31  N   UNL     1       8.314   4.600   7.712  1.00  0.00    -0.354 N 
ATOM     32  N   UNL     1       8.164   6.867   5.846  1.00  0.00    -0.248 NA
ATOM     33  C   UNL     1       8.703   9.066   5.272  1.00  0.00     0.031 C 
ATOM     34  C   UNL     1       9.568   4.824   9.532  1.00  0.00     0.029 A 
ATOM     35  C   UNL     1       9.143   5.482   8.389  1.00  0.00     0.049 A 
ATOM     36  H   UNL     1       7.854   4.796   6.864  1.00  0.00     0.167 HD
ATOM     37  C   UNL     1       9.009   7.393   6.812  1.00  0.00     0.074 A 
ATOM     38  C   UNL     1       9.339   8.739   6.388  1.00  0.00     0.031 C 
ATOM     39  C   UNL     1       9.470   6.814   7.948  1.00  0.00     0.037 A 
BRANCH  26  40
ATOM     40  C   UNL     1       7.383   1.074   8.907  1.00  0.00     0.064 A 
ATOM     41  C   UNL     1       7.977  -0.148   8.557  1.00  0.00     0.173 A 
ATOM     42  C   UNL     1       6.769   1.164  10.166  1.00  0.00     0.173 A 
ATOM     43  F   UNL     1       8.569  -0.295   7.362  1.00  0.00    -0.203 F 
ATOM     44  C   UNL     1       7.933  -1.241   9.421  1.00  0.00     0.198 A 
ATOM     45  C   UNL     1       6.754   0.080  11.040  1.00  0.00     0.198 A 
ATOM     46  F   UNL     1       6.191   2.311  10.556  1.00  0.00    -0.203 F 
ATOM     47  F   UNL     1       8.463  -2.413   9.044  1.00  0.00    -0.200 F 
ATOM     48  C   UNL     1       7.328  -1.124  10.663  1.00  0.00     0.200 A 
ATOM     49  F   UNL     1       6.182   0.200  12.246  1.00  0.00    -0.200 F 
ATOM     50  F   UNL     1       7.293  -2.175  11.495  1.00  0.00    -0.200 F 
ENDBRANCH  26  40
BRANCH  27  51
ATOM     51  C   UNL     1       7.189   8.966   2.767  1.00  0.00     0.064 A 
ATOM     52  C   UNL     1       8.343   9.373   2.084  1.00  0.00     0.173 A 
ATOM     53  C   UNL     1       6.013   9.702   2.558  1.00  0.00     0.173 A 
ATOM     54  F   UNL     1       9.496   8.711   2.263  1.00  0.00    -0.203 F 
ATOM     55  C   UNL     1       8.327  10.484   1.244  1.00  0.00     0.198 A 
ATOM     56  C   UNL     1       5.990  10.792   1.692  1.00  0.00     0.198 A 
ATOM     57  F   UNL     1       4.879   9.349   3.182  1.00  0.00    -0.203 F 
ATOM     58  F   UNL     1       9.456  10.881   0.641  1.00  0.00    -0.200 F 
ATOM     59  C   UNL     1       7.150  11.189   1.044  1.00  0.00     0.200 A 
ATOM     60  F   UNL     1       4.846  11.457   1.486  1.00  0.00    -0.200 F 
ATOM     61  F   UNL     1       7.134  12.254   0.231  1.00  0.00    -0.200 F 
ENDBRANCH  27  51
BRANCH  39  62
ATOM     62  C   UNL     1      10.427   7.617   8.782  1.00  0.00     0.064 A 
ATOM     63  C   UNL     1      10.017   8.751   9.499  1.00  0.00     0.173 A 
ATOM     64  C   UNL     1      11.775   7.236   8.873  1.00  0.00     0.173 A 
ATOM     65  F   UNL     1       8.743   9.167   9.433  1.00  0.00    -0.203 F 
ATOM     66  C   UNL     1      10.928   9.495  10.244  1.00  0.00     0.198 A 
ATOM     67  C   UNL     1      12.675   7.960   9.648  1.00  0.00     0.198 A 
ATOM     68  F   UNL     1      12.218   6.155   8.213  1.00  0.00    -0.203 F 
ATOM     69  F   UNL     1      10.527  10.611  10.869  1.00  0.00    -0.200 F 
ATOM     70  C   UNL     1      12.254   9.096  10.323  1.00  0.00     0.200 A 
ATOM     71  F   UNL     1      13.952   7.564   9.735  1.00  0.00    -0.200 F 
ATOM     72  F   UNL     1      13.129   9.812  11.042  1.00  0.00    -0.200 F 
ENDBRANCH  39  62
ENDBRANCH  13  14
ENDBRANCH   6   8
ENDBRANCH   3   4
ENDBRANCH   2   3
ENDBRANCH   1   2
BRANCH   1  73
ATOM     73  C   UNL     1       4.546  -3.478  -2.707  1.00  0.00     0.002 C 
BRANCH  73  74
ATOM     74  C   UNL     1       6.066  -3.634  -2.577  1.00  0.00     0.021 C 
BRANCH  74  75
ATOM     75  C   UNL     1       6.467  -4.970  -1.960  1.00  0.00     0.116 C 
BRANCH  75  76
ATOM     76  N   UNL     1       6.531  -6.000  -2.969  1.00  0.00    -0.355 N 
ATOM     77  C   UNL     1       7.512  -6.566  -3.700  1.00  0.00     0.230 C 
ATOM     78  H   UNL     1       5.646  -6.380  -3.172  1.00  0.00     0.163 HD
ATOM     79  O   UNL     1       7.066  -7.379  -4.523  1.00  0.00    -0.274 OA
BRANCH  77  80
ATOM     80  C   UNL     1       9.050  -6.292  -3.623  1.00  0.00     0.077 C 
ATOM     81  C   UNL     1       9.509  -5.633  -4.955  1.00  0.00     0.038 C 
ATOM     82  C   UNL     1       9.757  -7.678  -3.552  1.00  0.00     0.038 C 
ATOM     83  C   UNL     1       9.395  -6.521  -6.193  1.00  0.00     0.104 C 
ATOM     84  C   UNL     1       9.649  -8.542  -4.803  1.00  0.00     0.104 C 
ATOM     85  N   UNL     1      10.101  -7.821  -6.013  1.00  0.00    -0.197 NA
BRANCH  80  86
ATOM     86  C   UNL     1       9.491  -5.432  -2.407  1.00  0.00    -0.032 A 
ATOM     87  C   UNL     1       9.760  -6.018  -1.151  1.00  0.00     0.005 A 
ATOM     88  C   UNL     1       9.561  -4.023  -2.480  1.00  0.00     0.005 A 
ATOM     89  C   UNL     1      10.039  -5.239  -0.022  1.00  0.00     0.000 A 
ATOM     90  C   UNL     1       9.824  -3.245  -1.345  1.00  0.00     0.000 A 
ATOM     91  C   UNL     1      10.053  -3.853  -0.115  1.00  0.00     0.000 A 
ENDBRANCH  80  86
BRANCH  85  92
ATOM     92  S   UNL     1       9.975  -8.776  -7.458  1.00  0.00     0.252 S 
ATOM     93  O   UNL     1       8.574  -9.119  -7.632  1.00  0.00    -0.206 OA
ATOM     94  O   UNL     1      10.709  -8.099  -8.499  1.00  0.00    -0.206 OA
BRANCH  92  95
ATOM     95  C   UNL     1      10.759 -10.354  -7.163  1.00  0.00     0.135 A 
ATOM     96  C   UNL     1      10.347 -11.448  -6.418  1.00  0.00     0.033 A 
ATOM     97  S   UNL     1      12.271 -10.643  -7.904  1.00  0.00    -0.131 S 
ATOM     98  C   UNL     1      11.293 -12.510  -6.434  1.00  0.00     0.013 A 
ATOM     99  C   UNL     1      12.379 -12.212  -7.226  1.00  0.00     0.066 A 
ENDBRANCH  92  95
ENDBRANCH  85  92
ENDBRANCH  77  80
ENDBRANCH  75  76
ENDBRANCH  74  75
ENDBRANCH  73  74
ENDBRANCH   1  73
TORSDOF 16
