REMARK SMILES CC[C@@H]1CCC[C@@](Cc2cccc(O)c2)(C(=O)NCCCCCCNC(=O)c2ccc(-c3c4nc(c(-c5c(F)c(F)c(F)c(F)c5F)c5ccc([nH]5)c(-c5c(F)c(F)c(F)c(F)c5F)c5nc(c(-c6c(F)c(F)c(F)c(F)c6F)c6ccc3[nH]6)C=C5)C=C4)cc2)C1
REMARK SMILES IDX 21 1 20 2 19 3 18 4 16 5 17 6 7 8 3 9 4 10 91 11 5 12 6 13
REMARK SMILES IDX 2 14 1 15 8 16 9 17 10 18 15 19 11 20 13 21 12 22 14 23
REMARK SMILES IDX 22 25 23 26 24 27 25 28 26 29 27 31 28 32 29 33 90 34 30 35
REMARK SMILES IDX 89 36 31 37 32 38 33 39 83 40 34 41 88 42 82 43 84 44 35 45
REMARK SMILES IDX 87 46 81 47 80 48 36 50 68 51 48 52 67 53 49 54 52 55 66 56
REMARK SMILES IDX 85 57 50 58 51 59 65 61 86 62 53 63 37 64 38 65 46 66 39 67
REMARK SMILES IDX 40 68 44 69 47 70 41 71 42 72 45 73 43 74 69 75 70 76 78 77
REMARK SMILES IDX 71 78 72 79 76 80 79 81 73 82 74 83 77 84 75 85 54 86 55 87
REMARK SMILES IDX 63 88 56 89 57 90 61 91 64 92 58 93 59 94 62 95 60 96
REMARK H PARENT 18 7 14 24 25 30 84 49 52 60
REMARK Flexibility Score: inf
ROOT
ATOM      1  C   UNL     1       4.586  -0.790   8.236  1.00  0.00     0.002 C 
ENDROOT
BRANCH   1   2
ATOM      2  C   UNL     1       3.139  -1.070   7.817  1.00  0.00     0.021 C 
BRANCH   2   3
ATOM      3  C   UNL     1       2.488   0.052   7.021  1.00  0.00     0.116 C 
BRANCH   3   4
ATOM      4  N   UNL     1       2.946   0.142   5.654  1.00  0.00    -0.356 N 
ATOM      5  C   UNL     1       2.298   0.495   4.513  1.00  0.00     0.226 C 
ATOM      6  O   UNL     1       3.037   0.864   3.591  1.00  0.00    -0.274 OA
ATOM      7  H   UNL     1       3.893  -0.094   5.527  1.00  0.00     0.163 HD
BRANCH   5   8
ATOM      8  C   UNL     1       0.753   0.484   4.338  1.00  0.00     0.053 C 
ATOM      9  C   UNL     1       0.890  -0.956   2.150  1.00  0.00    -0.010 C 
ATOM     10  C   UNL     1       0.321  -2.158   2.918  1.00  0.00     0.003 C 
ATOM     11  C   UNL     1       0.462   0.382   2.794  1.00  0.00     0.020 C 
ATOM     12  C   UNL     1       0.544  -2.056   4.420  1.00  0.00     0.001 C 
ATOM     13  C   UNL     1       0.020  -0.726   4.959  1.00  0.00     0.017 C 
BRANCH   9  14
ATOM     14  C   UNL     1       0.457  -1.053   0.672  1.00  0.00     0.000 C 
ATOM     15  C   UNL     1       1.020   0.049  -0.213  1.00  0.00     0.004 C 
ENDBRANCH   9  14
BRANCH   8  16
ATOM     16  C   UNL     1       0.153   1.858   4.777  1.00  0.00     0.052 C 
BRANCH  16  17
ATOM     17  C   UNL     1       0.322   2.316   6.205  1.00  0.00    -0.043 A 
ATOM     18  C   UNL     1       1.398   3.146   6.562  1.00  0.00     0.004 A 
ATOM     19  C   UNL     1      -0.584   1.924   7.199  1.00  0.00     0.049 A 
ATOM     20  C   UNL     1       1.589   3.533   7.892  1.00  0.00     0.004 A 
ATOM     21  C   UNL     1      -0.384   2.315   8.521  1.00  0.00     0.115 A 
ATOM     22  C   UNL     1       0.701   3.109   8.879  1.00  0.00     0.046 A 
BRANCH  21  23
ATOM     23  O   UNL     1      -1.278   1.877   9.453  1.00  0.00    -0.508 OA
ATOM     24  H   UNL     1      -1.175   2.120  10.352  1.00  0.00     0.293 HD
ENDBRANCH  21  23
ENDBRANCH  16  17
ENDBRANCH   8  16
ENDBRANCH   5   8
ENDBRANCH   3   4
ENDBRANCH   2   3
ENDBRANCH   1   2
BRANCH   1  25
ATOM     25  C   UNL     1       4.838   0.559   8.923  1.00  0.00     0.002 C 
BRANCH  25  26
ATOM     26  C   UNL     1       3.910   0.899  10.093  1.00  0.00     0.021 C 
BRANCH  26  27
ATOM     27  C   UNL     1       3.904  -0.115  11.229  1.00  0.00     0.116 C 
BRANCH  27  28
ATOM     28  N   UNL     1       5.214  -0.270  11.838  1.00  0.00    -0.352 N 
ATOM     29  C   UNL     1       5.571  -0.234  13.159  1.00  0.00     0.251 C 
ATOM     30  H   UNL     1       5.954  -0.424  11.207  1.00  0.00     0.163 HD
ATOM     31  O   UNL     1       6.762  -0.214  13.473  1.00  0.00    -0.269 OA
BRANCH  29  32
ATOM     32  C   UNL     1       4.537  -0.197  14.213  1.00  0.00     0.039 A 
ATOM     33  C   UNL     1       4.724   0.650  15.308  1.00  0.00     0.014 A 
ATOM     34  C   UNL     1       3.399  -1.006  14.140  1.00  0.00     0.014 A 
ATOM     35  C   UNL     1       3.748   0.723  16.304  1.00  0.00     0.010 A 
ATOM     36  C   UNL     1       2.392  -0.876  15.092  1.00  0.00     0.010 A 
ATOM     37  C   UNL     1       2.561  -0.018  16.189  1.00  0.00    -0.014 A 
BRANCH  37  38
ATOM     38  C   UNL     1       1.493   0.081  17.215  1.00  0.00     0.031 A 
ATOM     39  C   UNL     1       1.130  -1.119  18.045  1.00  0.00     0.074 A 
ATOM     40  C   UNL     1       0.815   1.235  17.360  1.00  0.00     0.049 A 
ATOM     41  N   UNL     1       0.196  -1.247  18.954  1.00  0.00    -0.248 NA
ATOM     42  C   UNL     1       1.903  -2.347  17.803  1.00  0.00     0.031 C 
ATOM     43  C   UNL     1       1.050   2.455  16.587  1.00  0.00     0.029 A 
ATOM     44  N   UNL     1      -0.214   1.569  18.205  1.00  0.00    -0.354 N 
ATOM     45  C   UNL     1       0.259  -2.568  19.378  1.00  0.00     0.074 A 
ATOM     46  C   UNL     1       1.283  -3.216  18.588  1.00  0.00     0.031 C 
ATOM     47  C   UNL     1       0.212   3.414  17.014  1.00  0.00     0.029 A 
ATOM     48  C   UNL     1      -0.645   2.865  18.061  1.00  0.00     0.049 A 
ATOM     49  H   UNL     1      -0.605   0.940  18.852  1.00  0.00     0.167 HD
ATOM     50  C   UNL     1      -0.455  -3.178  20.354  1.00  0.00     0.037 A 
ATOM     51  C   UNL     1      -1.625   3.532  18.699  1.00  0.00     0.037 A 
ATOM     52  C   UNL     1      -1.457  -2.520  21.151  1.00  0.00     0.049 A 
ATOM     53  C   UNL     1      -2.419   2.824  19.764  1.00  0.00     0.074 A 
ATOM     54  C   UNL     1      -2.192  -3.030  22.207  1.00  0.00     0.029 A 
ATOM     55  N   UNL     1      -1.869  -1.207  20.974  1.00  0.00    -0.354 N 
ATOM     56  N   UNL     1      -2.300   1.597  20.209  1.00  0.00    -0.248 NA
ATOM     57  C   UNL     1      -3.483   3.599  20.418  1.00  0.00     0.031 C 
ATOM     58  C   UNL     1      -3.088  -2.043  22.632  1.00  0.00     0.029 A 
ATOM     59  C   UNL     1      -2.871  -0.899  21.881  1.00  0.00     0.049 A 
ATOM     60  H   UNL     1      -1.504  -0.586  20.303  1.00  0.00     0.167 HD
ATOM     61  C   UNL     1      -3.246   1.462  21.215  1.00  0.00     0.074 A 
ATOM     62  C   UNL     1      -3.924   2.738  21.324  1.00  0.00     0.031 C 
ATOM     63  C   UNL     1      -3.529   0.380  21.982  1.00  0.00     0.037 A 
BRANCH  50  64
ATOM     64  C   UNL     1      -0.179  -4.633  20.608  1.00  0.00     0.064 A 
ATOM     65  C   UNL     1       1.038  -5.071  21.154  1.00  0.00     0.173 A 
ATOM     66  C   UNL     1      -1.151  -5.603  20.319  1.00  0.00     0.173 A 
ATOM     67  F   UNL     1       2.006  -4.187  21.440  1.00  0.00    -0.203 F 
ATOM     68  C   UNL     1       1.285  -6.425  21.365  1.00  0.00     0.198 A 
ATOM     69  C   UNL     1      -0.914  -6.953  20.563  1.00  0.00     0.198 A 
ATOM     70  F   UNL     1      -2.335  -5.241  19.802  1.00  0.00    -0.203 F 
ATOM     71  F   UNL     1       2.478  -6.822  21.830  1.00  0.00    -0.200 F 
ATOM     72  C   UNL     1       0.307  -7.364  21.075  1.00  0.00     0.200 A 
ATOM     73  F   UNL     1      -1.866  -7.858  20.296  1.00  0.00    -0.200 F 
ATOM     74  F   UNL     1       0.545  -8.667  21.280  1.00  0.00    -0.200 F 
ENDBRANCH  50  64
BRANCH  51  75
ATOM     75  C   UNL     1      -1.888   4.959  18.375  1.00  0.00     0.064 A 
ATOM     76  C   UNL     1      -1.602   5.969  19.304  1.00  0.00     0.173 A 
ATOM     77  C   UNL     1      -2.430   5.343  17.140  1.00  0.00     0.173 A 
ATOM     78  F   UNL     1      -1.100   5.650  20.506  1.00  0.00    -0.203 F 
ATOM     79  C   UNL     1      -1.869   7.306  19.019  1.00  0.00     0.198 A 
ATOM     80  C   UNL     1      -2.669   6.684  16.845  1.00  0.00     0.198 A 
ATOM     81  F   UNL     1      -2.714   4.417  16.213  1.00  0.00    -0.203 F 
ATOM     82  F   UNL     1      -1.630   8.246  19.944  1.00  0.00    -0.200 F 
ATOM     83  C   UNL     1      -2.397   7.663  17.788  1.00  0.00     0.200 A 
ATOM     84  F   UNL     1      -3.163   7.026  15.647  1.00  0.00    -0.200 F 
ATOM     85  F   UNL     1      -2.650   8.950  17.512  1.00  0.00    -0.200 F 
ENDBRANCH  51  75
BRANCH  63  86
ATOM     86  C   UNL     1      -4.588   0.540  23.035  1.00  0.00     0.064 A 
ATOM     87  C   UNL     1      -5.945   0.663  22.705  1.00  0.00     0.173 A 
ATOM     88  C   UNL     1      -4.240   0.534  24.395  1.00  0.00     0.173 A 
ATOM     89  F   UNL     1      -6.327   0.691  21.419  1.00  0.00    -0.203 F 
ATOM     90  C   UNL     1      -6.913   0.802  23.697  1.00  0.00     0.198 A 
ATOM     91  C   UNL     1      -5.214   0.639  25.384  1.00  0.00     0.198 A 
ATOM     92  F   UNL     1      -2.957   0.412  24.765  1.00  0.00    -0.203 F 
ATOM     93  F   UNL     1      -8.198   0.971  23.356  1.00  0.00    -0.200 F 
ATOM     94  C   UNL     1      -6.548   0.782  25.034  1.00  0.00     0.200 A 
ATOM     95  F   UNL     1      -4.861   0.604  26.677  1.00  0.00    -0.200 F 
ATOM     96  F   UNL     1      -7.482   0.908  25.987  1.00  0.00    -0.200 F 
ENDBRANCH  63  86
ENDBRANCH  37  38
ENDBRANCH  29  32
ENDBRANCH  27  28
ENDBRANCH  26  27
ENDBRANCH  25  26
ENDBRANCH   1  25
TORSDOF 17
