REMARK SMILES COc1ccc(-c2ccc(CCC(=O)NCCCCCCNC(=O)c3ccc(-c4c5nc(c(-c6c(F)c(F)c(F)c(F)c6F)c6ccc([nH]6)c(-c6c(F)c(F)c(F)c(F)c6F)c6nc(c(-c7c(F)c(F)c(F)c(F)c7F)c7ccc4[nH]7)C=C6)C=C5)cc3)n2-c2ccc(C(C)=O)cc2)cc1
REMARK SMILES IDX 17 1 16 2 15 3 13 4 14 5 12 7 11 8 10 9 7 10 8 11 88 12 9 13
REMARK SMILES IDX 6 14 3 15 4 16 99 17 5 18 98 19 2 20 1 21 89 22 90 23 97 24
REMARK SMILES IDX 91 25 96 26 92 27 93 28 94 29 95 30 18 31 19 32 20 33 21 34
REMARK SMILES IDX 22 35 23 36 24 38 25 39 26 40 87 41 27 42 86 43 28 44 29 45
REMARK SMILES IDX 30 46 80 47 31 48 85 49 79 50 81 51 32 52 84 53 78 54 77 55
REMARK SMILES IDX 33 57 65 58 45 59 64 60 46 61 49 62 63 63 82 64 47 65 48 66
REMARK SMILES IDX 62 68 83 69 50 70 34 71 35 72 43 73 36 74 37 75 41 76 44 77
REMARK SMILES IDX 38 78 39 79 42 80 40 81 66 82 67 83 75 84 68 85 69 86 73 87
REMARK SMILES IDX 76 88 70 89 71 90 74 91 72 92 51 93 52 94 60 95 53 96 54 97
REMARK SMILES IDX 58 98 61 99 55 100 56 101 59 102 57 103
REMARK H PARENT 15 6 22 37 81 56 49 67
REMARK Flexibility Score: inf
ROOT
ATOM      1  C   UNL     1       4.835   5.567   5.883  1.00  0.00     0.021 C 
ENDROOT
BRANCH   1   2
ATOM      2  C   UNL     1       5.007   4.681   7.113  1.00  0.00     0.116 C 
BRANCH   2   3
ATOM      3  N   UNL     1       4.990   5.488   8.316  1.00  0.00    -0.356 N 
ATOM      4  C   UNL     1       4.016   5.595   9.261  1.00  0.00     0.220 C 
ATOM      5  O   UNL     1       4.103   6.496  10.097  1.00  0.00    -0.275 OA
ATOM      6  H   UNL     1       5.794   6.035   8.471  1.00  0.00     0.163 HD
BRANCH   4   7
ATOM      7  C   UNL     1       2.873   4.600   9.302  1.00  0.00     0.106 C 
BRANCH   7   8
ATOM      8  C   UNL     1       1.566   5.161   8.743  1.00  0.00     0.064 C 
BRANCH   8   9
ATOM      9  C   UNL     1       1.477   5.131   7.238  1.00  0.00     0.024 A 
ATOM     10  C   UNL     1       1.411   4.252   5.154  1.00  0.00     0.053 A 
ATOM     11  C   UNL     1       1.634   5.619   5.048  1.00  0.00     0.029 A 
ATOM     12  N   UNL     1       1.083   4.021   6.491  1.00  0.00    -0.314 N 
ATOM     13  C   UNL     1       1.671   6.167   6.347  1.00  0.00     0.024 A 
BRANCH  10  14
ATOM     14  C   UNL     1       1.192   3.329   4.040  1.00  0.00    -0.001 A 
ATOM     15  C   UNL     1       0.755   1.688   1.796  1.00  0.00     0.118 A 
ATOM     16  C   UNL     1      -0.258   2.512   2.285  1.00  0.00     0.047 A 
ATOM     17  C   UNL     1       1.997   1.685   2.432  1.00  0.00     0.047 A 
ATOM     18  C   UNL     1      -0.045   3.328   3.394  1.00  0.00     0.014 A 
ATOM     19  C   UNL     1       2.214   2.504   3.553  1.00  0.00     0.014 A 
BRANCH  15  20
ATOM     20  O   UNL     1       0.416   0.978   0.678  1.00  0.00    -0.497 OA
ATOM     21  C   UNL     1       1.206  -0.162   0.371  1.00  0.00     0.278 C 
ENDBRANCH  15  20
ENDBRANCH  10  14
BRANCH  12  22
ATOM     22  C   UNL     1       0.155   3.046   6.935  1.00  0.00     0.046 A 
ATOM     23  C   UNL     1      -1.038   3.522   7.491  1.00  0.00     0.027 A 
ATOM     24  C   UNL     1       0.344   1.684   6.721  1.00  0.00     0.027 A 
ATOM     25  C   UNL     1      -2.052   2.638   7.843  1.00  0.00     0.014 A 
ATOM     26  C   UNL     1      -0.671   0.796   7.102  1.00  0.00     0.014 A 
ATOM     27  C   UNL     1      -1.880   1.265   7.655  1.00  0.00     0.017 A 
BRANCH  27  28
ATOM     28  C   UNL     1      -2.937   0.269   8.010  1.00  0.00     0.159 C 
ATOM     29  C   UNL     1      -4.299   0.716   8.486  1.00  0.00     0.093 C 
ATOM     30  O   UNL     1      -2.688  -0.932   7.899  1.00  0.00    -0.295 OA
ENDBRANCH  27  28
ENDBRANCH  12  22
ENDBRANCH   8   9
ENDBRANCH   7   8
ENDBRANCH   4   7
ENDBRANCH   2   3
ENDBRANCH   1   2
BRANCH   1  31
ATOM     31  C   UNL     1       6.128   6.053   5.242  1.00  0.00     0.002 C 
BRANCH  31  32
ATOM     32  C   UNL     1       6.980   4.940   4.628  1.00  0.00     0.002 C 
BRANCH  32  33
ATOM     33  C   UNL     1       6.243   3.999   3.659  1.00  0.00     0.021 C 
BRANCH  33  34
ATOM     34  C   UNL     1       5.586   4.705   2.470  1.00  0.00     0.116 C 
BRANCH  34  35
ATOM     35  N   UNL     1       6.602   5.326   1.641  1.00  0.00    -0.352 N 
ATOM     36  C   UNL     1       6.564   5.684   0.323  1.00  0.00     0.251 C 
ATOM     37  H   UNL     1       7.451   5.519   2.100  1.00  0.00     0.163 HD
ATOM     38  O   UNL     1       7.617   5.790  -0.292  1.00  0.00    -0.269 OA
BRANCH  36  39
ATOM     39  C   UNL     1       5.291   5.978  -0.365  1.00  0.00     0.039 A 
ATOM     40  C   UNL     1       5.225   5.706  -1.738  1.00  0.00     0.014 A 
ATOM     41  C   UNL     1       4.241   6.649   0.274  1.00  0.00     0.014 A 
ATOM     42  C   UNL     1       4.110   6.092  -2.469  1.00  0.00     0.010 A 
ATOM     43  C   UNL     1       3.115   7.026  -0.451  1.00  0.00     0.010 A 
ATOM     44  C   UNL     1       3.052   6.744  -1.821  1.00  0.00    -0.014 A 
BRANCH  44  45
ATOM     45  C   UNL     1       1.790   6.938  -2.566  1.00  0.00     0.031 A 
ATOM     46  C   UNL     1       0.948   5.634  -2.571  1.00  0.00     0.074 A 
ATOM     47  C   UNL     1       1.586   8.175  -3.122  1.00  0.00     0.049 A 
ATOM     48  N   UNL     1      -0.032   5.275  -3.342  1.00  0.00    -0.248 NA
ATOM     49  C   UNL     1       1.258   4.554  -1.586  1.00  0.00     0.031 C 
ATOM     50  C   UNL     1       2.486   9.343  -2.955  1.00  0.00     0.029 A 
ATOM     51  N   UNL     1       0.605   8.716  -3.933  1.00  0.00    -0.354 N 
ATOM     52  C   UNL     1      -0.580   4.077  -2.818  1.00  0.00     0.074 A 
ATOM     53  C   UNL     1       0.320   3.630  -1.805  1.00  0.00     0.031 C 
ATOM     54  C   UNL     1       2.068  10.396  -3.695  1.00  0.00     0.029 A 
ATOM     55  C   UNL     1       0.852  10.043  -4.400  1.00  0.00     0.049 A 
ATOM     56  H   UNL     1      -0.210   8.218  -4.173  1.00  0.00     0.167 HD
ATOM     57  C   UNL     1      -1.817   3.611  -3.165  1.00  0.00     0.037 A 
ATOM     58  C   UNL     1       0.136  10.785  -5.307  1.00  0.00     0.037 A 
ATOM     59  C   UNL     1      -2.373   4.441  -4.172  1.00  0.00     0.049 A 
ATOM     60  C   UNL     1      -1.098  10.025  -5.492  1.00  0.00     0.074 A 
ATOM     61  C   UNL     1      -2.047   4.589  -5.492  1.00  0.00     0.029 A 
ATOM     62  N   UNL     1      -3.108   5.519  -3.748  1.00  0.00    -0.354 N 
ATOM     63  N   UNL     1      -2.048   9.980  -4.609  1.00  0.00    -0.248 NA
ATOM     64  C   UNL     1      -1.286   9.247  -6.718  1.00  0.00     0.031 C 
ATOM     65  C   UNL     1      -2.149   5.978  -5.676  1.00  0.00     0.029 A 
ATOM     66  C   UNL     1      -2.799   6.561  -4.580  1.00  0.00     0.049 A 
ATOM     67  H   UNL     1      -3.737   5.540  -2.991  1.00  0.00     0.167 HD
ATOM     68  C   UNL     1      -2.754   8.882  -5.021  1.00  0.00     0.074 A 
ATOM     69  C   UNL     1      -2.469   8.707  -6.431  1.00  0.00     0.031 C 
ATOM     70  C   UNL     1      -3.004   7.907  -4.111  1.00  0.00     0.037 A 
BRANCH  57  71
ATOM     71  C   UNL     1      -2.748   2.599  -2.559  1.00  0.00     0.064 A 
ATOM     72  C   UNL     1      -3.808   2.096  -3.357  1.00  0.00     0.173 A 
ATOM     73  C   UNL     1      -2.884   2.438  -1.178  1.00  0.00     0.173 A 
ATOM     74  F   UNL     1      -3.758   2.176  -4.696  1.00  0.00    -0.203 F 
ATOM     75  C   UNL     1      -4.985   1.603  -2.796  1.00  0.00     0.198 A 
ATOM     76  C   UNL     1      -4.043   1.888  -0.620  1.00  0.00     0.198 A 
ATOM     77  F   UNL     1      -1.963   2.927  -0.343  1.00  0.00    -0.203 F 
ATOM     78  F   UNL     1      -6.023   1.293  -3.586  1.00  0.00    -0.200 F 
ATOM     79  C   UNL     1      -5.108   1.515  -1.425  1.00  0.00     0.200 A 
ATOM     80  F   UNL     1      -4.163   1.810   0.713  1.00  0.00    -0.200 F 
ATOM     81  F   UNL     1      -6.265   1.116  -0.877  1.00  0.00    -0.200 F 
ENDBRANCH  57  71
BRANCH  58  82
ATOM     82  C   UNL     1       0.201  12.055  -6.136  1.00  0.00     0.064 A 
ATOM     83  C   UNL     1       1.291  12.922  -6.234  1.00  0.00     0.173 A 
ATOM     84  C   UNL     1      -0.862  12.353  -7.049  1.00  0.00     0.173 A 
ATOM     85  F   UNL     1       2.316  12.834  -5.379  1.00  0.00    -0.203 F 
ATOM     86  C   UNL     1       1.364  13.910  -7.241  1.00  0.00     0.198 A 
ATOM     87  C   UNL     1      -0.761  13.276  -8.086  1.00  0.00     0.198 A 
ATOM     88  F   UNL     1      -2.047  11.729  -6.984  1.00  0.00    -0.203 F 
ATOM     89  F   UNL     1       2.433  14.716  -7.307  1.00  0.00    -0.200 F 
ATOM     90  C   UNL     1       0.367  14.048  -8.195  1.00  0.00     0.200 A 
ATOM     91  F   UNL     1      -1.749  13.376  -8.988  1.00  0.00    -0.200 F 
ATOM     92  F   UNL     1       0.488  14.918  -9.207  1.00  0.00    -0.200 F 
ENDBRANCH  58  82
BRANCH  70  93
ATOM     93  C   UNL     1      -3.024   8.401  -2.669  1.00  0.00     0.064 A 
ATOM     94  C   UNL     1      -3.880   9.460  -2.311  1.00  0.00     0.173 A 
ATOM     95  C   UNL     1      -2.130   7.982  -1.668  1.00  0.00     0.173 A 
ATOM     96  F   UNL     1      -4.795   9.905  -3.186  1.00  0.00    -0.203 F 
ATOM     97  C   UNL     1      -3.805  10.088  -1.063  1.00  0.00     0.198 A 
ATOM     98  C   UNL     1      -2.056   8.603  -0.416  1.00  0.00     0.198 A 
ATOM     99  F   UNL     1      -1.312   6.952  -1.872  1.00  0.00    -0.203 F 
ATOM    100  F   UNL     1      -4.627  11.107  -0.777  1.00  0.00    -0.200 F 
ATOM    101  C   UNL     1      -2.887   9.664  -0.118  1.00  0.00     0.200 A 
ATOM    102  F   UNL     1      -1.177   8.165   0.500  1.00  0.00    -0.200 F 
ATOM    103  F   UNL     1      -2.819  10.261   1.081  1.00  0.00    -0.200 F 
ENDBRANCH  70  93
ENDBRANCH  44  45
ENDBRANCH  36  39
ENDBRANCH  34  35
ENDBRANCH  33  34
ENDBRANCH  32  33
ENDBRANCH  31  32
ENDBRANCH   1  31
TORSDOF 19
