REMARK SMILES [NH3+][C@H]1CN(C(=O)OCC2c3ccccc3-c3ccccc32)C[C@@H]1C(=O)NCCCCCCNC(=O)c1ccc(-c2c3nc(c(-c4c(F)c(F)c(F)c(F)c4F)c4ccc([nH]4)c(-c4c(F)c(F)c(F)c(F)c4F)c4nc(c(-c5c(F)c(F)c(F)c(F)c5F)c5ccc2[nH]5)C=C4)C=C3)cc1
REMARK SMILES IDX 28 1 27 2 26 3 24 4 25 5 23 7 2 8 3 9 4 10 22 11 1 12 5 16
REMARK SMILES IDX 6 17 7 18 8 19 9 20 10 21 21 22 11 23 15 24 16 25 20 26
REMARK SMILES IDX 12 27 14 28 17 29 19 30 13 31 18 32 29 33 30 34 31 35 32 36
REMARK SMILES IDX 33 37 34 38 35 40 36 41 37 42 98 43 38 44 97 45 39 46 40 47
REMARK SMILES IDX 41 48 91 49 42 50 96 51 90 52 92 53 43 54 95 55 89 56 88 57
REMARK SMILES IDX 44 59 76 60 56 61 75 62 57 63 60 64 74 65 93 66 58 67 59 68
REMARK SMILES IDX 73 70 94 71 61 72 45 73 46 74 54 75 47 76 48 77 52 78 55 79
REMARK SMILES IDX 49 80 50 81 53 82 51 83 77 84 78 85 86 86 79 87 80 88 84 89
REMARK SMILES IDX 87 90 81 91 82 92 85 93 83 94 62 95 63 96 71 97 64 98 65 99
REMARK SMILES IDX 69 100 72 101 66 102 67 103 70 104 68 105
REMARK H PARENT 26 6 1 13 1 14 1 15 33 39 92 58 60 69
REMARK Flexibility Score: inf
ROOT
ATOM      1  C   UNL     1      -4.306  -0.331   0.668  1.00  0.00     0.021 C 
ENDROOT
BRANCH   1   2
ATOM      2  C   UNL     1      -3.655   1.018   0.361  1.00  0.00     0.116 C 
BRANCH   2   3
ATOM      3  N   UNL     1      -2.481   1.218   1.194  1.00  0.00    -0.356 N 
ATOM      4  C   UNL     1      -1.161   1.229   0.842  1.00  0.00     0.231 C 
ATOM      5  O   UNL     1      -0.310   1.202   1.730  1.00  0.00    -0.274 OA
ATOM      6  H   UNL     1      -2.663   1.366   2.150  1.00  0.00     0.163 HD
BRANCH   4   7
ATOM      7  C   UNL     1      -0.810   1.313  -0.631  1.00  0.00     0.158 C 
ATOM      8  C   UNL     1       0.680   1.054  -0.916  1.00  0.00     0.215 C 
ATOM      9  C   UNL     1       1.341   2.440  -0.737  1.00  0.00     0.188 C 
ATOM     10  N   UNL     1       0.255   3.400  -0.801  1.00  0.00    -0.301 N 
ATOM     11  C   UNL     1      -1.013   2.755  -1.072  1.00  0.00     0.143 C 
BRANCH   8  12
ATOM     12  N   UNL     1       0.848   0.551  -2.296  1.00  0.00    -0.353 N 
ATOM     13  H   UNL     1       1.837   0.381  -2.478  1.00  0.00     0.344 HD
ATOM     14  H   UNL     1       0.494   1.244  -2.955  1.00  0.00     0.344 HD
ATOM     15  H   UNL     1       0.328  -0.320  -2.406  1.00  0.00     0.344 HD
ENDBRANCH   8  12
BRANCH  10  16
ATOM     16  C   UNL     1       0.353   4.704  -0.410  1.00  0.00     0.410 C 
ATOM     17  O   UNL     1      -0.607   5.359  -0.010  1.00  0.00    -0.224 OA
BRANCH  16  18
ATOM     18  O   UNL     1       1.601   5.201  -0.597  1.00  0.00    -0.448 OA
BRANCH  18  19
ATOM     19  C   UNL     1       1.750   6.630  -0.443  1.00  0.00     0.248 C 
BRANCH  19  20
ATOM     20  C   UNL     1       1.591   7.366  -1.793  1.00  0.00     0.088 C 
ATOM     21  C   UNL     1       0.172   7.869  -2.070  1.00  0.00    -0.029 A 
ATOM     22  C   UNL     1       2.373   8.682  -1.805  1.00  0.00    -0.029 A 
ATOM     23  C   UNL     1      -0.986   7.142  -2.301  1.00  0.00     0.005 A 
ATOM     24  C   UNL     1       0.146   9.279  -2.105  1.00  0.00    -0.014 A 
ATOM     25  C   UNL     1       1.497   9.775  -1.973  1.00  0.00    -0.014 A 
ATOM     26  C   UNL     1       3.745   8.873  -1.714  1.00  0.00     0.005 A 
ATOM     27  C   UNL     1      -2.191   7.829  -2.463  1.00  0.00     0.000 A 
ATOM     28  C   UNL     1      -1.047   9.965  -2.281  1.00  0.00     0.009 A 
ATOM     29  C   UNL     1       1.985  11.070  -2.045  1.00  0.00     0.009 A 
ATOM     30  C   UNL     1       4.236  10.179  -1.786  1.00  0.00     0.000 A 
ATOM     31  C   UNL     1      -2.224   9.230  -2.441  1.00  0.00     0.001 A 
ATOM     32  C   UNL     1       3.365  11.268  -1.950  1.00  0.00     0.001 A 
ENDBRANCH  19  20
ENDBRANCH  18  19
ENDBRANCH  16  18
ENDBRANCH  10  16
ENDBRANCH   4   7
ENDBRANCH   2   3
ENDBRANCH   1   2
BRANCH   1  33
ATOM     33  C   UNL     1      -4.913  -0.422   2.075  1.00  0.00     0.002 C 
BRANCH  33  34
ATOM     34  C   UNL     1      -6.009   0.605   2.377  1.00  0.00     0.002 C 
BRANCH  34  35
ATOM     35  C   UNL     1      -7.193   0.594   1.408  1.00  0.00     0.021 C 
BRANCH  35  36
ATOM     36  C   UNL     1      -7.936  -0.735   1.327  1.00  0.00     0.116 C 
BRANCH  36  37
ATOM     37  N   UNL     1      -8.587  -1.084   2.579  1.00  0.00    -0.352 N 
ATOM     38  C   UNL     1      -9.880  -1.491   2.800  1.00  0.00     0.251 C 
ATOM     39  H   UNL     1      -8.022  -1.019   3.382  1.00  0.00     0.163 HD
ATOM     40  O   UNL     1     -10.316  -1.589   3.942  1.00  0.00    -0.269 OA
BRANCH  38  41
ATOM     41  C   UNL     1     -10.759  -1.790   1.650  1.00  0.00     0.039 A 
ATOM     42  C   UNL     1     -12.056  -1.269   1.635  1.00  0.00     0.014 A 
ATOM     43  C   UNL     1     -10.307  -2.583   0.592  1.00  0.00     0.014 A 
ATOM     44  C   UNL     1     -12.880  -1.493   0.530  1.00  0.00     0.010 A 
ATOM     45  C   UNL     1     -11.104  -2.750  -0.537  1.00  0.00     0.010 A 
ATOM     46  C   UNL     1     -12.399  -2.209  -0.578  1.00  0.00    -0.014 A 
BRANCH  46  47
ATOM     47  C   UNL     1     -13.233  -2.417  -1.788  1.00  0.00     0.031 A 
ATOM     48  C   UNL     1     -13.654  -3.807  -2.177  1.00  0.00     0.074 A 
ATOM     49  C   UNL     1     -13.540  -1.372  -2.579  1.00  0.00     0.049 A 
ATOM     50  N   UNL     1     -14.277  -4.214  -3.254  1.00  0.00    -0.248 NA
ATOM     51  C   UNL     1     -13.302  -4.887  -1.242  1.00  0.00     0.031 C 
ATOM     52  C   UNL     1     -13.157   0.019  -2.330  1.00  0.00     0.029 A 
ATOM     53  N   UNL     1     -14.230  -1.319  -3.764  1.00  0.00    -0.354 N 
ATOM     54  C   UNL     1     -14.369  -5.594  -3.137  1.00  0.00     0.074 A 
ATOM     55  C   UNL     1     -13.700  -5.961  -1.907  1.00  0.00     0.031 C 
ATOM     56  C   UNL     1     -13.627   0.788  -3.325  1.00  0.00     0.029 A 
ATOM     57  C   UNL     1     -14.309  -0.057  -4.300  1.00  0.00     0.049 A 
ATOM     58  H   UNL     1     -14.631  -2.112  -4.190  1.00  0.00     0.167 HD
ATOM     59  C   UNL     1     -14.974  -6.474  -3.970  1.00  0.00     0.037 A 
ATOM     60  C   UNL     1     -14.858   0.367  -5.455  1.00  0.00     0.037 A 
ATOM     61  C   UNL     1     -15.669  -6.102  -5.174  1.00  0.00     0.049 A 
ATOM     62  C   UNL     1     -15.528  -0.631  -6.361  1.00  0.00     0.074 A 
ATOM     63  C   UNL     1     -16.366  -6.912  -6.054  1.00  0.00     0.029 A 
ATOM     64  N   UNL     1     -15.756  -4.808  -5.667  1.00  0.00    -0.354 N 
ATOM     65  N   UNL     1     -15.658  -1.926  -6.213  1.00  0.00    -0.248 NA
ATOM     66  C   UNL     1     -16.133  -0.105  -7.593  1.00  0.00     0.031 C 
ATOM     67  C   UNL     1     -16.841  -6.114  -7.100  1.00  0.00     0.029 A 
ATOM     68  C   UNL     1     -16.481  -4.800  -6.847  1.00  0.00     0.049 A 
ATOM     69  H   UNL     1     -15.361  -4.013  -5.240  1.00  0.00     0.167 HD
ATOM     70  C   UNL     1     -16.384  -2.366  -7.312  1.00  0.00     0.074 A 
ATOM     71  C   UNL     1     -16.674  -1.197  -8.115  1.00  0.00     0.031 C 
ATOM     72  C   UNL     1     -16.776  -3.624  -7.625  1.00  0.00     0.037 A 
BRANCH  59  73
ATOM     73  C   UNL     1     -14.914  -7.928  -3.606  1.00  0.00     0.064 A 
ATOM     74  C   UNL     1     -15.633  -8.445  -2.517  1.00  0.00     0.173 A 
ATOM     75  C   UNL     1     -14.155  -8.823  -4.375  1.00  0.00     0.173 A 
ATOM     76  F   UNL     1     -16.364  -7.629  -1.743  1.00  0.00    -0.203 F 
ATOM     77  C   UNL     1     -15.571  -9.798  -2.195  1.00  0.00     0.198 A 
ATOM     78  C   UNL     1     -14.119 -10.181  -4.068  1.00  0.00     0.198 A 
ATOM     79  F   UNL     1     -13.453  -8.383  -5.430  1.00  0.00    -0.203 F 
ATOM     80  F   UNL     1     -16.226 -10.260  -1.121  1.00  0.00    -0.200 F 
ATOM     81  C   UNL     1     -14.820 -10.666  -2.974  1.00  0.00     0.200 A 
ATOM     82  F   UNL     1     -13.403 -11.020  -4.829  1.00  0.00    -0.200 F 
ATOM     83  F   UNL     1     -14.767 -11.969  -2.666  1.00  0.00    -0.200 F 
ENDBRANCH  59  73
BRANCH  60  84
ATOM     84  C   UNL     1     -14.817   1.809  -5.809  1.00  0.00     0.064 A 
ATOM     85  C   UNL     1     -15.984   2.585  -5.793  1.00  0.00     0.173 A 
ATOM     86  C   UNL     1     -13.619   2.438  -6.173  1.00  0.00     0.173 A 
ATOM     87  F   UNL     1     -17.158   2.022  -5.472  1.00  0.00    -0.203 F 
ATOM     88  C   UNL     1     -15.957   3.933  -6.147  1.00  0.00     0.198 A 
ATOM     89  C   UNL     1     -13.588   3.792  -6.501  1.00  0.00     0.198 A 
ATOM     90  F   UNL     1     -12.474   1.740  -6.200  1.00  0.00    -0.203 F 
ATOM     91  F   UNL     1     -17.095   4.641  -6.165  1.00  0.00    -0.200 F 
ATOM     92  C   UNL     1     -14.759   4.537  -6.495  1.00  0.00     0.200 A 
ATOM     93  F   UNL     1     -12.426   4.376  -6.824  1.00  0.00    -0.200 F 
ATOM     94  F   UNL     1     -14.732   5.833  -6.831  1.00  0.00    -0.200 F 
ENDBRANCH  60  84
BRANCH  72  95
ATOM     95  C   UNL     1     -17.601  -3.802  -8.866  1.00  0.00     0.064 A 
ATOM     96  C   UNL     1     -17.037  -3.701 -10.146  1.00  0.00     0.173 A 
ATOM     97  C   UNL     1     -18.962  -4.128  -8.769  1.00  0.00     0.173 A 
ATOM     98  F   UNL     1     -15.743  -3.377 -10.290  1.00  0.00    -0.203 F 
ATOM     99  C   UNL     1     -17.812  -3.902 -11.285  1.00  0.00     0.198 A 
ATOM    100  C   UNL     1     -19.727  -4.355  -9.909  1.00  0.00     0.198 A 
ATOM    101  F   UNL     1     -19.546  -4.242  -7.567  1.00  0.00    -0.203 F 
ATOM    102  F   UNL     1     -17.263  -3.762 -12.500  1.00  0.00    -0.200 F 
ATOM    103  C   UNL     1     -19.153  -4.237 -11.166  1.00  0.00     0.200 A 
ATOM    104  F   UNL     1     -21.019  -4.691  -9.792  1.00  0.00    -0.200 F 
ATOM    105  F   UNL     1     -19.894  -4.440 -12.264  1.00  0.00    -0.200 F 
ENDBRANCH  72  95
ENDBRANCH  46  47
ENDBRANCH  38  41
ENDBRANCH  36  37
ENDBRANCH  35  36
ENDBRANCH  34  35
ENDBRANCH  33  34
ENDBRANCH   1  33
TORSDOF 18
