REMARK SMILES Cc1ccccc1OCCN1C(=O)CC[C@H](C(=O)NCCCCCCNC(=O)c2ccc(-c3c4nc(c(-c5c(F)c(F)c(F)c(F)c5F)c5ccc([nH]5)c(-c5c(F)c(F)c(F)c(F)c5F)c5nc(c(-c6c(F)c(F)c(F)c(F)c6F)c6ccc3[nH]6)C=C5)C=C4)cc2)[C@@H]1c1ccco1
REMARK SMILES IDX 21 1 20 2 19 3 17 4 18 5 16 7 11 8 12 9 92 10 13 11 14 12
REMARK SMILES IDX 15 13 10 14 9 15 8 16 7 17 1 18 2 19 3 20 4 21 6 22 5 23
REMARK SMILES IDX 93 24 94 25 97 26 95 27 96 28 22 29 23 30 24 31 25 32 26 33
REMARK SMILES IDX 27 34 28 36 29 37 30 38 91 39 31 40 90 41 32 42 33 43 34 44
REMARK SMILES IDX 84 45 35 46 89 47 83 48 85 49 36 50 88 51 82 52 81 53 37 55
REMARK SMILES IDX 69 56 49 57 68 58 50 59 53 60 67 61 86 62 51 63 52 64 66 66
REMARK SMILES IDX 87 67 54 68 38 69 39 70 47 71 40 72 41 73 45 74 48 75 42 76
REMARK SMILES IDX 43 77 46 78 44 79 70 80 71 81 79 82 72 83 73 84 77 85 80 86
REMARK SMILES IDX 74 87 75 88 78 89 76 90 55 91 56 92 64 93 57 94 58 95 62 96
REMARK SMILES IDX 65 97 59 98 60 99 63 100 61 101
REMARK H PARENT 19 6 26 35 85 54 53 65
REMARK Flexibility Score: inf
ROOT
ATOM      1  C   UNL     1       3.220  -4.507   4.748  1.00  0.00     0.021 C 
ENDROOT
BRANCH   1   2
ATOM      2  C   UNL     1       3.528  -3.380   3.773  1.00  0.00     0.116 C 
BRANCH   2   3
ATOM      3  N   UNL     1       3.895  -3.797   2.440  1.00  0.00    -0.356 N 
ATOM      4  C   UNL     1       3.770  -3.087   1.282  1.00  0.00     0.225 C 
ATOM      5  O   UNL     1       4.490  -3.409   0.332  1.00  0.00    -0.275 OA
ATOM      6  H   UNL     1       4.281  -4.699   2.357  1.00  0.00     0.163 HD
BRANCH   4   7
ATOM      7  C   UNL     1       2.780  -1.930   1.131  1.00  0.00     0.109 C 
ATOM      8  N   UNL     1       2.273   0.479   1.647  1.00  0.00    -0.328 N 
ATOM      9  C   UNL     1       1.062   0.208   2.257  1.00  0.00     0.223 C 
ATOM     10  C   UNL     1       3.324  -0.542   1.502  1.00  0.00     0.164 C 
ATOM     11  O   UNL     1       0.300   1.089   2.661  1.00  0.00    -0.275 OA
ATOM     12  C   UNL     1       0.702  -1.237   2.491  1.00  0.00     0.101 C 
ATOM     13  C   UNL     1       1.359  -2.261   1.587  1.00  0.00     0.026 C 
BRANCH   8  14
ATOM     14  C   UNL     1       2.619   1.888   1.410  1.00  0.00     0.162 C 
BRANCH  14  15
ATOM     15  C   UNL     1       2.394   2.391  -0.024  1.00  0.00     0.251 C 
BRANCH  15  16
ATOM     16  O   UNL     1       1.037   2.472  -0.459  1.00  0.00    -0.491 OA
BRANCH  16  17
ATOM     17  C   UNL     1       0.342   1.326  -0.725  1.00  0.00     0.122 A 
ATOM     18  C   UNL     1       2.095   0.155  -2.186  1.00  0.00     0.048 C 
ATOM     19  C   UNL     1       0.775   0.226  -1.478  1.00  0.00    -0.009 A 
ATOM     20  C   UNL     1      -0.089  -0.881  -1.610  1.00  0.00     0.007 A 
ATOM     21  C   UNL     1      -1.374  -0.872  -1.067  1.00  0.00     0.001 A 
ATOM     22  C   UNL     1      -0.971   1.343  -0.226  1.00  0.00     0.047 A 
ATOM     23  C   UNL     1      -1.823   0.252  -0.388  1.00  0.00     0.004 A 
ENDBRANCH  16  17
ENDBRANCH  15  16
ENDBRANCH  14  15
ENDBRANCH   8  14
BRANCH  10  24
ATOM     24  C   UNL     1       4.244  -0.474   2.690  1.00  0.00     0.127 A 
ATOM     25  C   UNL     1       5.608  -0.660   2.828  1.00  0.00     0.048 A 
ATOM     26  O   UNL     1       3.713  -0.093   3.891  1.00  0.00    -0.467 OA
ATOM     27  C   UNL     1       5.924  -0.351   4.174  1.00  0.00     0.042 A 
ATOM     28  C   UNL     1       4.740   0.009   4.772  1.00  0.00     0.195 A 
ENDBRANCH  10  24
ENDBRANCH   4   7
ENDBRANCH   2   3
ENDBRANCH   1   2
BRANCH   1  29
ATOM     29  C   UNL     1       4.412  -5.369   5.179  1.00  0.00     0.002 C 
BRANCH  29  30
ATOM     30  C   UNL     1       5.722  -4.655   5.558  1.00  0.00     0.002 C 
BRANCH  30  31
ATOM     31  C   UNL     1       5.633  -3.446   6.491  1.00  0.00     0.021 C 
BRANCH  31  32
ATOM     32  C   UNL     1       5.073  -3.730   7.871  1.00  0.00     0.116 C 
BRANCH  32  33
ATOM     33  N   UNL     1       6.064  -4.064   8.880  1.00  0.00    -0.352 N 
ATOM     34  C   UNL     1       5.877  -4.460  10.196  1.00  0.00     0.251 C 
ATOM     35  H   UNL     1       7.002  -3.999   8.587  1.00  0.00     0.163 HD
ATOM     36  O   UNL     1       6.835  -4.607  10.933  1.00  0.00    -0.269 OA
BRANCH  34  37
ATOM     37  C   UNL     1       4.516  -4.845  10.656  1.00  0.00     0.039 A 
ATOM     38  C   UNL     1       4.385  -6.029  11.395  1.00  0.00     0.014 A 
ATOM     39  C   UNL     1       3.385  -4.197  10.178  1.00  0.00     0.014 A 
ATOM     40  C   UNL     1       3.158  -6.689  11.418  1.00  0.00     0.010 A 
ATOM     41  C   UNL     1       2.212  -4.910  10.078  1.00  0.00     0.010 A 
ATOM     42  C   UNL     1       2.115  -6.183  10.649  1.00  0.00    -0.014 A 
BRANCH  42  43
ATOM     43  C   UNL     1       0.914  -6.924  10.294  1.00  0.00     0.031 A 
ATOM     44  C   UNL     1      -0.399  -6.504  10.833  1.00  0.00     0.074 A 
ATOM     45  C   UNL     1       0.989  -7.859   9.319  1.00  0.00     0.049 A 
ATOM     46  N   UNL     1      -1.463  -7.229  10.778  1.00  0.00    -0.248 NA
ATOM     47  C   UNL     1      -0.615  -5.227  11.508  1.00  0.00     0.031 C 
ATOM     48  C   UNL     1      -0.115  -8.407   8.535  1.00  0.00     0.029 A 
ATOM     49  N   UNL     1       2.099  -8.637   8.942  1.00  0.00    -0.354 N 
ATOM     50  C   UNL     1      -2.528  -6.449  11.163  1.00  0.00     0.074 A 
ATOM     51  C   UNL     1      -1.945  -5.219  11.641  1.00  0.00     0.031 C 
ATOM     52  C   UNL     1       0.264  -9.579   8.004  1.00  0.00     0.029 A 
ATOM     53  C   UNL     1       1.566  -9.894   8.562  1.00  0.00     0.049 A 
ATOM     54  H   UNL     1       3.045  -8.366   8.942  1.00  0.00     0.167 HD
ATOM     55  C   UNL     1      -3.793  -6.899  10.930  1.00  0.00     0.037 A 
ATOM     56  C   UNL     1       1.855 -11.035   9.253  1.00  0.00     0.037 A 
ATOM     57  C   UNL     1      -3.775  -8.230  10.341  1.00  0.00     0.049 A 
ATOM     58  C   UNL     1       0.643 -11.733   9.823  1.00  0.00     0.074 A 
ATOM     59  C   UNL     1      -3.827  -8.677   9.030  1.00  0.00     0.029 A 
ATOM     60  N   UNL     1      -3.346  -9.302  11.110  1.00  0.00    -0.354 N 
ATOM     61  N   UNL     1      -0.502 -11.143  10.019  1.00  0.00    -0.248 NA
ATOM     62  C   UNL     1       0.623 -13.135  10.234  1.00  0.00     0.031 C 
ATOM     63  C   UNL     1      -3.388 -10.023   9.009  1.00  0.00     0.029 A 
ATOM     64  C   UNL     1      -3.093 -10.396  10.309  1.00  0.00     0.049 A 
ATOM     65  H   UNL     1      -3.237  -9.285  12.088  1.00  0.00     0.167 HD
ATOM     66  C   UNL     1      -1.391 -12.030  10.568  1.00  0.00     0.074 A 
ATOM     67  C   UNL     1      -0.643 -13.268  10.673  1.00  0.00     0.031 C 
ATOM     68  C   UNL     1      -2.664 -11.656  10.892  1.00  0.00     0.037 A 
BRANCH  55  69
ATOM     69  C   UNL     1      -5.032  -6.045  11.015  1.00  0.00     0.064 A 
ATOM     70  C   UNL     1      -6.122  -6.267  10.144  1.00  0.00     0.173 A 
ATOM     71  C   UNL     1      -5.197  -4.979  11.916  1.00  0.00     0.173 A 
ATOM     72  F   UNL     1      -6.132  -7.289   9.279  1.00  0.00    -0.203 F 
ATOM     73  C   UNL     1      -7.244  -5.436  10.120  1.00  0.00     0.198 A 
ATOM     74  C   UNL     1      -6.296  -4.115  11.856  1.00  0.00     0.198 A 
ATOM     75  F   UNL     1      -4.325  -4.772  12.912  1.00  0.00    -0.203 F 
ATOM     76  F   UNL     1      -8.248  -5.698   9.272  1.00  0.00    -0.200 F 
ATOM     77  C   UNL     1      -7.316  -4.340  10.954  1.00  0.00     0.200 A 
ATOM     78  F   UNL     1      -6.358  -3.061  12.683  1.00  0.00    -0.200 F 
ATOM     79  F   UNL     1      -8.373  -3.518  10.903  1.00  0.00    -0.200 F 
ENDBRANCH  55  69
BRANCH  56  80
ATOM     80  C   UNL     1       3.207 -11.002   9.870  1.00  0.00     0.064 A 
ATOM     81  C   UNL     1       4.319 -10.969   9.006  1.00  0.00     0.173 A 
ATOM     82  C   UNL     1       3.393 -10.561  11.185  1.00  0.00     0.173 A 
ATOM     83  F   UNL     1       4.190 -11.382   7.735  1.00  0.00    -0.203 F 
ATOM     84  C   UNL     1       5.522 -10.387   9.398  1.00  0.00     0.198 A 
ATOM     85  C   UNL     1       4.608  -9.993  11.579  1.00  0.00     0.198 A 
ATOM     86  F   UNL     1       2.369 -10.554  12.050  1.00  0.00    -0.203 F 
ATOM     87  F   UNL     1       6.519 -10.251   8.511  1.00  0.00    -0.200 F 
ATOM     88  C   UNL     1       5.653  -9.868  10.674  1.00  0.00     0.200 A 
ATOM     89  F   UNL     1       4.730  -9.467  12.806  1.00  0.00    -0.200 F 
ATOM     90  F   UNL     1       6.768  -9.208  11.019  1.00  0.00    -0.200 F 
ENDBRANCH  56  80
BRANCH  68  91
ATOM     91  C   UNL     1      -3.664 -12.430  11.719  1.00  0.00     0.064 A 
ATOM     92  C   UNL     1      -3.314 -13.367  12.702  1.00  0.00     0.173 A 
ATOM     93  C   UNL     1      -5.044 -12.102  11.657  1.00  0.00     0.173 A 
ATOM     94  F   UNL     1      -2.036 -13.692  12.933  1.00  0.00    -0.203 F 
ATOM     95  C   UNL     1      -4.271 -13.958  13.534  1.00  0.00     0.198 A 
ATOM     96  C   UNL     1      -5.985 -12.645  12.528  1.00  0.00     0.198 A 
ATOM     97  F   UNL     1      -5.518 -11.215  10.769  1.00  0.00    -0.203 F 
ATOM     98  F   UNL     1      -3.889 -14.870  14.438  1.00  0.00    -0.200 F 
ATOM     99  C   UNL     1      -5.601 -13.584  13.460  1.00  0.00     0.200 A 
ATOM    100  F   UNL     1      -7.260 -12.231  12.475  1.00  0.00    -0.200 F 
ATOM    101  F   UNL     1      -6.503 -14.109  14.300  1.00  0.00    -0.200 F 
ENDBRANCH  68  91
ENDBRANCH  42  43
ENDBRANCH  34  37
ENDBRANCH  32  33
ENDBRANCH  31  32
ENDBRANCH  30  31
ENDBRANCH  29  30
ENDBRANCH   1  29
TORSDOF 18
