REMARK SMILES CC(C)[C@H](NC(=O)[C@H](C)NC(=O)CNC(=O)OCc1ccccc1)C(=O)NCCCCCCNC(=O)c1ccc(-c2c3nc(c(-c4c(F)c(F)c(F)c(F)c4F)c4ccc([nH]4)c(-c4c(F)c(F)c(F)c(F)c4F)c4nc(c(-c5c(F)c(F)c(F)c(F)c5F)c5ccc2[nH]5)C=C4)C=C3)cc1
REMARK SMILES IDX 25 1 26 2 27 3 4 5 2 6 1 7 3 8 5 9 6 10 7 12 8 13 9 14 10 15
REMARK SMILES IDX 11 16 12 18 13 19 14 20 15 21 16 23 17 24 18 25 19 26 20 27
REMARK SMILES IDX 24 28 21 29 23 30 22 31 28 32 29 33 30 34 31 35 32 36 33 37
REMARK SMILES IDX 34 38 35 39 36 41 37 42 38 43 99 44 39 45 98 46 40 47 41 48
REMARK SMILES IDX 42 49 92 50 43 51 97 52 91 53 93 54 44 55 96 56 90 57 89 58
REMARK SMILES IDX 45 60 77 61 57 62 76 63 58 64 61 65 75 66 94 67 59 68 60 69
REMARK SMILES IDX 74 71 95 72 62 73 46 74 47 75 55 76 48 77 49 78 53 79 56 80
REMARK SMILES IDX 50 81 51 82 54 83 52 84 78 85 79 86 87 87 80 88 81 89 85 90
REMARK SMILES IDX 88 91 82 92 83 93 86 94 84 95 63 96 64 97 72 98 65 99 66 100
REMARK SMILES IDX 70 101 73 102 67 103 68 104 71 105 69 106
REMARK H PARENT 27 4 5 11 10 17 14 22 34 40 93 59 61 70
REMARK Flexibility Score: inf
ROOT
ATOM      1  C   UNL     1      -3.428  -3.958   0.358  1.00  0.00     0.242 C 
ATOM      2  O   UNL     1      -3.369  -2.997   1.131  1.00  0.00    -0.273 OA
ATOM      3  N   UNL     1      -4.659  -4.247  -0.156  1.00  0.00    -0.354 N 
ATOM      4  H   UNL     1      -5.426  -4.145   0.452  1.00  0.00     0.163 HD
ENDROOT
BRANCH   1   5
ATOM      5  C   UNL     1      -2.159  -4.810   0.044  1.00  0.00     0.173 C 
BRANCH   5   6
ATOM      6  C   UNL     1      -0.926  -4.089  -0.519  1.00  0.00     0.015 C 
ATOM      7  C   UNL     1      -0.685  -2.651  -0.076  1.00  0.00     0.010 C 
ATOM      8  C   UNL     1       0.350  -4.918  -0.306  1.00  0.00     0.010 C 
ENDBRANCH   5   6
BRANCH   5   9
ATOM      9  N   UNL     1      -2.370  -6.137  -0.571  1.00  0.00    -0.342 N 
ATOM     10  C   UNL     1      -2.263  -6.750  -1.773  1.00  0.00     0.242 C 
ATOM     11  H   UNL     1      -2.688  -6.776   0.107  1.00  0.00     0.164 HD
ATOM     12  O   UNL     1      -2.459  -7.974  -1.685  1.00  0.00    -0.273 OA
BRANCH  10  13
ATOM     13  C   UNL     1      -2.168  -6.087  -3.204  1.00  0.00     0.168 C 
ATOM     14  C   UNL     1      -1.967  -7.219  -4.232  1.00  0.00     0.041 C 
BRANCH  13  15
ATOM     15  N   UNL     1      -1.181  -5.052  -3.524  1.00  0.00    -0.343 N 
ATOM     16  C   UNL     1      -1.287  -3.745  -3.910  1.00  0.00     0.240 C 
ATOM     17  H   UNL     1      -0.250  -5.362  -3.445  1.00  0.00     0.164 HD
ATOM     18  O   UNL     1      -0.293  -3.238  -4.440  1.00  0.00    -0.273 OA
BRANCH  16  19
ATOM     19  C   UNL     1      -2.564  -2.914  -3.731  1.00  0.00     0.219 C 
BRANCH  19  20
ATOM     20  N   UNL     1      -3.293  -2.769  -4.971  1.00  0.00    -0.312 N 
ATOM     21  C   UNL     1      -4.596  -2.408  -5.152  1.00  0.00     0.407 C 
ATOM     22  H   UNL     1      -2.783  -2.956  -5.792  1.00  0.00     0.167 HD
ATOM     23  O   UNL     1      -4.985  -2.142  -6.283  1.00  0.00    -0.225 OA
BRANCH  21  24
ATOM     24  O   UNL     1      -5.334  -2.430  -4.028  1.00  0.00    -0.445 OA
BRANCH  24  25
ATOM     25  C   UNL     1      -6.770  -2.178  -3.921  1.00  0.00     0.270 C 
BRANCH  25  26
ATOM     26  C   UNL     1      -7.742  -1.993  -5.073  1.00  0.00    -0.011 A 
ATOM     27  C   UNL     1      -7.697  -2.721  -6.267  1.00  0.00     0.007 A 
ATOM     28  C   UNL     1      -8.844  -1.138  -4.880  1.00  0.00     0.007 A 
ATOM     29  C   UNL     1      -8.632  -2.501  -7.283  1.00  0.00     0.000 A 
ATOM     30  C   UNL     1      -9.801  -0.944  -5.880  1.00  0.00     0.000 A 
ATOM     31  C   UNL     1      -9.679  -1.607  -7.095  1.00  0.00     0.000 A 
ENDBRANCH  25  26
ENDBRANCH  24  25
ENDBRANCH  21  24
ENDBRANCH  19  20
ENDBRANCH  16  19
ENDBRANCH  13  15
ENDBRANCH  10  13
ENDBRANCH   5   9
ENDBRANCH   1   5
BRANCH   3  32
ATOM     32  C   UNL     1      -4.950  -4.684  -1.491  1.00  0.00     0.116 C 
BRANCH  32  33
ATOM     33  C   UNL     1      -5.619  -6.041  -1.651  1.00  0.00     0.021 C 
BRANCH  33  34
ATOM     34  C   UNL     1      -6.628  -6.058  -2.806  1.00  0.00     0.002 C 
BRANCH  34  35
ATOM     35  C   UNL     1      -6.097  -5.514  -4.138  1.00  0.00     0.002 C 
BRANCH  35  36
ATOM     36  C   UNL     1      -5.905  -6.519  -5.252  1.00  0.00     0.021 C 
BRANCH  36  37
ATOM     37  C   UNL     1      -7.184  -7.232  -5.644  1.00  0.00     0.116 C 
BRANCH  37  38
ATOM     38  N   UNL     1      -8.259  -6.346  -6.098  1.00  0.00    -0.352 N 
ATOM     39  C   UNL     1      -8.920  -6.309  -7.307  1.00  0.00     0.251 C 
ATOM     40  H   UNL     1      -8.553  -5.675  -5.440  1.00  0.00     0.163 HD
ATOM     41  O   UNL     1      -9.790  -5.481  -7.547  1.00  0.00    -0.269 OA
BRANCH  39  42
ATOM     42  C   UNL     1      -8.540  -7.285  -8.337  1.00  0.00     0.039 A 
ATOM     43  C   UNL     1      -8.213  -6.864  -9.628  1.00  0.00     0.014 A 
ATOM     44  C   UNL     1      -8.391  -8.613  -7.958  1.00  0.00     0.014 A 
ATOM     45  C   UNL     1      -7.631  -7.774 -10.512  1.00  0.00     0.010 A 
ATOM     46  C   UNL     1      -7.643  -9.448  -8.759  1.00  0.00     0.010 A 
ATOM     47  C   UNL     1      -7.293  -9.058 -10.062  1.00  0.00    -0.014 A 
BRANCH  47  48
ATOM     48  C   UNL     1      -6.663 -10.097 -10.911  1.00  0.00     0.031 A 
ATOM     49  C   UNL     1      -7.356 -11.432 -11.005  1.00  0.00     0.074 A 
ATOM     50  C   UNL     1      -5.439  -9.915 -11.439  1.00  0.00     0.049 A 
ATOM     51  N   UNL     1      -6.885 -12.592 -11.376  1.00  0.00    -0.248 NA
ATOM     52  C   UNL     1      -8.748 -11.479 -10.516  1.00  0.00     0.031 C 
ATOM     53  C   UNL     1      -4.652  -8.683 -11.378  1.00  0.00     0.029 A 
ATOM     54  N   UNL     1      -4.626 -10.795 -12.108  1.00  0.00    -0.354 N 
ATOM     55  C   UNL     1      -7.896 -13.504 -11.097  1.00  0.00     0.074 A 
ATOM     56  C   UNL     1      -8.959 -12.782 -10.440  1.00  0.00     0.031 C 
ATOM     57  C   UNL     1      -3.481  -8.877 -12.006  1.00  0.00     0.029 A 
ATOM     58  C   UNL     1      -3.408 -10.263 -12.458  1.00  0.00     0.049 A 
ATOM     59  H   UNL     1      -4.890 -11.720 -12.318  1.00  0.00     0.167 HD
ATOM     60  C   UNL     1      -7.949 -14.821 -11.400  1.00  0.00     0.037 A 
ATOM     61  C   UNL     1      -2.353 -10.845 -13.058  1.00  0.00     0.037 A 
ATOM     62  C   UNL     1      -6.913 -15.499 -12.128  1.00  0.00     0.049 A 
ATOM     63  C   UNL     1      -2.443 -12.306 -13.420  1.00  0.00     0.074 A 
ATOM     64  C   UNL     1      -6.883 -16.806 -12.572  1.00  0.00     0.029 A 
ATOM     65  N   UNL     1      -5.726 -14.904 -12.535  1.00  0.00    -0.354 N 
ATOM     66  N   UNL     1      -3.417 -13.157 -13.197  1.00  0.00    -0.248 NA
ATOM     67  C   UNL     1      -1.290 -12.888 -14.119  1.00  0.00     0.031 C 
ATOM     68  C   UNL     1      -5.657 -17.017 -13.209  1.00  0.00     0.029 A 
ATOM     69  C   UNL     1      -4.952 -15.822 -13.219  1.00  0.00     0.049 A 
ATOM     70  H   UNL     1      -5.475 -13.968 -12.363  1.00  0.00     0.167 HD
ATOM     71  C   UNL     1      -3.016 -14.357 -13.767  1.00  0.00     0.074 A 
ATOM     72  C   UNL     1      -1.709 -14.125 -14.347  1.00  0.00     0.031 C 
ATOM     73  C   UNL     1      -3.668 -15.546 -13.813  1.00  0.00     0.037 A 
BRANCH  60  74
ATOM     74  C   UNL     1      -9.165 -15.590 -10.967  1.00  0.00     0.064 A 
ATOM     75  C   UNL     1     -10.442 -15.311 -11.481  1.00  0.00     0.173 A 
ATOM     76  C   UNL     1      -9.054 -16.624 -10.025  1.00  0.00     0.173 A 
ATOM     77  F   UNL     1     -10.611 -14.324 -12.374  1.00  0.00    -0.203 F 
ATOM     78  C   UNL     1     -11.565 -16.003 -11.033  1.00  0.00     0.198 A 
ATOM     79  C   UNL     1     -10.173 -17.344  -9.613  1.00  0.00     0.198 A 
ATOM     80  F   UNL     1      -7.860 -16.938  -9.501  1.00  0.00    -0.203 F 
ATOM     81  F   UNL     1     -12.781 -15.662 -11.482  1.00  0.00    -0.200 F 
ATOM     82  C   UNL     1     -11.428 -17.024 -10.107  1.00  0.00     0.200 A 
ATOM     83  F   UNL     1     -10.037 -18.342  -8.729  1.00  0.00    -0.200 F 
ATOM     84  F   UNL     1     -12.508 -17.693  -9.681  1.00  0.00    -0.200 F 
ENDBRANCH  60  74
BRANCH  61  85
ATOM     85  C   UNL     1      -1.144 -10.044 -13.390  1.00  0.00     0.064 A 
ATOM     86  C   UNL     1      -0.818  -9.766 -14.726  1.00  0.00     0.173 A 
ATOM     87  C   UNL     1      -0.291  -9.542 -12.396  1.00  0.00     0.173 A 
ATOM     88  F   UNL     1      -1.592 -10.238 -15.715  1.00  0.00    -0.203 F 
ATOM     89  C   UNL     1       0.325  -9.041 -15.056  1.00  0.00     0.198 A 
ATOM     90  C   UNL     1       0.836  -8.789 -12.726  1.00  0.00     0.198 A 
ATOM     91  F   UNL     1      -0.559  -9.769 -11.102  1.00  0.00    -0.203 F 
ATOM     92  F   UNL     1       0.637  -8.836 -16.343  1.00  0.00    -0.200 F 
ATOM     93  C   UNL     1       1.149  -8.548 -14.056  1.00  0.00     0.200 A 
ATOM     94  F   UNL     1       1.620  -8.301 -11.756  1.00  0.00    -0.200 F 
ATOM     95  F   UNL     1       2.247  -7.849 -14.373  1.00  0.00    -0.200 F 
ENDBRANCH  61  85
BRANCH  73  96
ATOM     96  C   UNL     1      -3.021 -16.664 -14.575  1.00  0.00     0.064 A 
ATOM     97  C   UNL     1      -1.894 -17.338 -14.089  1.00  0.00     0.173 A 
ATOM     98  C   UNL     1      -3.596 -17.116 -15.774  1.00  0.00     0.173 A 
ATOM     99  F   UNL     1      -1.303 -16.935 -12.954  1.00  0.00    -0.203 F 
ATOM    100  C   UNL     1      -1.353 -18.416 -14.784  1.00  0.00     0.198 A 
ATOM    101  C   UNL     1      -3.074 -18.215 -16.447  1.00  0.00     0.198 A 
ATOM    102  F   UNL     1      -4.683 -16.510 -16.274  1.00  0.00    -0.203 F 
ATOM    103  F   UNL     1      -0.251 -19.022 -14.323  1.00  0.00    -0.200 F 
ATOM    104  C   UNL     1      -1.950 -18.860 -15.955  1.00  0.00     0.200 A 
ATOM    105  F   UNL     1      -3.666 -18.656 -17.566  1.00  0.00    -0.200 F 
ATOM    106  F   UNL     1      -1.440 -19.912 -16.611  1.00  0.00    -0.200 F 
ENDBRANCH  73  96
ENDBRANCH  47  48
ENDBRANCH  39  42
ENDBRANCH  37  38
ENDBRANCH  36  37
ENDBRANCH  35  36
ENDBRANCH  34  35
ENDBRANCH  33  34
ENDBRANCH  32  33
ENDBRANCH   3  32
TORSDOF 22
