REMARK SMILES O=C(NCCCCCCNC(=O)c1cc2ccccc2cc1OCCO)c1ccc(-c2c3nc(c(-c4c(F)c(F)c(F)c(F)c4F)c4ccc([nH]4)c(-c4c(F)c(F)c(F)c(F)c4F)c4nc(c(-c5c(F)c(F)c(F)c(F)c5F)c5ccc2[nH]5)C=C4)C=C3)cc1
REMARK SMILES IDX 7 1 6 2 5 3 4 4 3 5 1 6 2 7 27 9 28 10 89 11 29 12 88 13
REMARK SMILES IDX 30 14 31 15 32 16 82 17 33 18 87 19 81 20 83 21 34 22 86 23
REMARK SMILES IDX 80 24 79 25 35 27 67 28 47 29 66 30 48 31 51 32 65 33 84 34
REMARK SMILES IDX 49 35 50 36 64 38 85 39 52 40 36 41 37 42 45 43 38 44 39 45
REMARK SMILES IDX 43 46 46 47 40 48 41 49 44 50 42 51 68 52 69 53 77 54 70 55
REMARK SMILES IDX 71 56 75 57 78 58 72 59 73 60 76 61 74 62 53 63 54 64 62 65
REMARK SMILES IDX 55 66 56 67 60 68 63 69 57 70 58 71 61 72 59 73 8 74 9 75
REMARK SMILES IDX 10 76 11 77 12 79 13 80 14 81 22 82 15 83 21 84 16 85 20 86
REMARK SMILES IDX 17 87 19 88 18 89 23 90 24 91 25 92 26 93
REMARK H PARENT 3 8 83 26 51 37 10 78 26 94
REMARK Flexibility Score: inf
ROOT
ATOM      1  C   UNL     1       4.703  -0.422  -4.502  1.00  0.00     0.002 C 
ENDROOT
BRANCH   1   2
ATOM      2  C   UNL     1       4.367  -1.635  -3.635  1.00  0.00     0.002 C 
BRANCH   2   3
ATOM      3  C   UNL     1       4.918  -1.638  -2.213  1.00  0.00     0.021 C 
BRANCH   3   4
ATOM      4  C   UNL     1       4.545  -0.432  -1.361  1.00  0.00     0.116 C 
BRANCH   4   5
ATOM      5  N   UNL     1       3.112  -0.258  -1.180  1.00  0.00    -0.352 N 
ATOM      6  O   UNL     1       1.181   0.115  -0.076  1.00  0.00    -0.269 OA
ATOM      7  C   UNL     1       2.408   0.086  -0.051  1.00  0.00     0.251 C 
ATOM      8  H   UNL     1       2.567  -0.407  -1.986  1.00  0.00     0.163 HD
BRANCH   7   9
ATOM      9  C   UNL     1       3.121   0.386   1.213  1.00  0.00     0.039 A 
ATOM     10  C   UNL     1       4.277   1.168   1.224  1.00  0.00     0.014 A 
ATOM     11  C   UNL     1       2.612  -0.121   2.414  1.00  0.00     0.014 A 
ATOM     12  C   UNL     1       5.005   1.313   2.401  1.00  0.00     0.010 A 
ATOM     13  C   UNL     1       3.298   0.100   3.613  1.00  0.00     0.010 A 
ATOM     14  C   UNL     1       4.519   0.790   3.611  1.00  0.00    -0.014 A 
BRANCH  14  15
ATOM     15  C   UNL     1       5.282   1.028   4.862  1.00  0.00     0.031 A 
ATOM     16  C   UNL     1       5.908  -0.108   5.623  1.00  0.00     0.074 A 
ATOM     17  C   UNL     1       5.437   2.295   5.292  1.00  0.00     0.049 A 
ATOM     18  N   UNL     1       6.630  -0.070   6.716  1.00  0.00    -0.248 NA
ATOM     19  C   UNL     1       5.691  -1.464   5.096  1.00  0.00     0.031 C 
ATOM     20  C   UNL     1       4.864   3.476   4.644  1.00  0.00     0.029 A 
ATOM     21  N   UNL     1       6.134   2.805   6.357  1.00  0.00    -0.354 N 
ATOM     22  C   UNL     1       6.938  -1.390   7.016  1.00  0.00     0.074 A 
ATOM     23  C   UNL     1       6.303  -2.210   6.006  1.00  0.00     0.031 C 
ATOM     24  C   UNL     1       5.271   4.575   5.295  1.00  0.00     0.029 A 
ATOM     25  C   UNL     1       6.082   4.175   6.439  1.00  0.00     0.049 A 
ATOM     26  H   UNL     1       6.623   2.244   7.001  1.00  0.00     0.167 HD
ATOM     27  C   UNL     1       7.689  -1.870   8.038  1.00  0.00     0.037 A 
ATOM     28  C   UNL     1       6.617   5.016   7.342  1.00  0.00     0.037 A 
ATOM     29  C   UNL     1       8.333  -1.047   9.031  1.00  0.00     0.049 A 
ATOM     30  C   UNL     1       7.431   4.454   8.471  1.00  0.00     0.074 A 
ATOM     31  C   UNL     1       9.144  -1.438  10.083  1.00  0.00     0.029 A 
ATOM     32  N   UNL     1       8.235   0.336   9.097  1.00  0.00    -0.354 N 
ATOM     33  N   UNL     1       7.743   3.207   8.723  1.00  0.00    -0.248 NA
ATOM     34  C   UNL     1       7.964   5.417   9.443  1.00  0.00     0.031 C 
ATOM     35  C   UNL     1       9.500  -0.296  10.811  1.00  0.00     0.029 A 
ATOM     36  C   UNL     1       8.952   0.811  10.184  1.00  0.00     0.049 A 
ATOM     37  H   UNL     1       7.730   0.897   8.464  1.00  0.00     0.167 HD
ATOM     38  C   UNL     1       8.521   3.234   9.871  1.00  0.00     0.074 A 
ATOM     39  C   UNL     1       8.652   4.626  10.253  1.00  0.00     0.031 C 
ATOM     40  C   UNL     1       9.072   2.199  10.551  1.00  0.00     0.037 A 
BRANCH  27  41
ATOM     41  C   UNL     1       7.848  -3.360   8.148  1.00  0.00     0.064 A 
ATOM     42  C   UNL     1       8.642  -4.086   7.249  1.00  0.00     0.173 A 
ATOM     43  C   UNL     1       7.239  -4.062   9.200  1.00  0.00     0.173 A 
ATOM     44  F   UNL     1       9.239  -3.465   6.221  1.00  0.00    -0.203 F 
ATOM     45  C   UNL     1       8.803  -5.463   7.386  1.00  0.00     0.198 A 
ATOM     46  C   UNL     1       7.424  -5.435   9.350  1.00  0.00     0.198 A 
ATOM     47  F   UNL     1       6.477  -3.415  10.094  1.00  0.00    -0.203 F 
ATOM     48  F   UNL     1       9.536  -6.143   6.492  1.00  0.00    -0.200 F 
ATOM     49  C   UNL     1       8.201  -6.135   8.439  1.00  0.00     0.200 A 
ATOM     50  F   UNL     1       6.853  -6.079  10.376  1.00  0.00    -0.200 F 
ATOM     51  F   UNL     1       8.365  -7.458   8.574  1.00  0.00    -0.200 F 
ENDBRANCH  27  41
BRANCH  28  52
ATOM     52  C   UNL     1       6.397   6.479   7.205  1.00  0.00     0.064 A 
ATOM     53  C   UNL     1       7.450   7.338   6.867  1.00  0.00     0.173 A 
ATOM     54  C   UNL     1       5.126   7.043   7.390  1.00  0.00     0.173 A 
ATOM     55  F   UNL     1       8.687   6.848   6.698  1.00  0.00    -0.203 F 
ATOM     56  C   UNL     1       7.244   8.710   6.733  1.00  0.00     0.198 A 
ATOM     57  C   UNL     1       4.914   8.409   7.226  1.00  0.00     0.198 A 
ATOM     58  F   UNL     1       4.084   6.261   7.708  1.00  0.00    -0.203 F 
ATOM     59  F   UNL     1       8.275   9.515   6.447  1.00  0.00    -0.200 F 
ATOM     60  C   UNL     1       5.974   9.242   6.904  1.00  0.00     0.200 A 
ATOM     61  F   UNL     1       3.683   8.916   7.375  1.00  0.00    -0.200 F 
ATOM     62  F   UNL     1       5.774  10.560   6.764  1.00  0.00    -0.200 F 
ENDBRANCH  28  52
BRANCH  40  63
ATOM     63  C   UNL     1       9.889   2.540  11.762  1.00  0.00     0.064 A 
ATOM     64  C   UNL     1       9.291   2.988  12.949  1.00  0.00     0.173 A 
ATOM     65  C   UNL     1      11.285   2.399  11.740  1.00  0.00     0.173 A 
ATOM     66  F   UNL     1       7.962   3.156  13.014  1.00  0.00    -0.203 F 
ATOM     67  C   UNL     1      10.064   3.311  14.061  1.00  0.00     0.198 A 
ATOM     68  C   UNL     1      12.052   2.695  12.863  1.00  0.00     0.198 A 
ATOM     69  F   UNL     1      11.904   1.970  10.630  1.00  0.00    -0.203 F 
ATOM     70  F   UNL     1       9.476   3.787  15.168  1.00  0.00    -0.200 F 
ATOM     71  C   UNL     1      11.442   3.159  14.020  1.00  0.00     0.200 A 
ATOM     72  F   UNL     1      13.382   2.538  12.825  1.00  0.00    -0.200 F 
ATOM     73  F   UNL     1      12.184   3.469  15.091  1.00  0.00    -0.200 F 
ENDBRANCH  40  63
ENDBRANCH  14  15
ENDBRANCH   7   9
ENDBRANCH   4   5
ENDBRANCH   3   4
ENDBRANCH   2   3
ENDBRANCH   1   2
BRANCH   1  74
ATOM     74  C   UNL     1       6.173   0.010  -4.619  1.00  0.00     0.021 C 
BRANCH  74  75
ATOM     75  C   UNL     1       7.206  -1.033  -5.058  1.00  0.00     0.116 C 
BRANCH  75  76
ATOM     76  N   UNL     1       6.815  -1.792  -6.229  1.00  0.00    -0.352 N 
ATOM     77  C   UNL     1       7.559  -2.708  -6.931  1.00  0.00     0.255 C 
ATOM     78  H   UNL     1       5.902  -1.632  -6.563  1.00  0.00     0.163 HD
ATOM     79  O   UNL     1       7.042  -3.379  -7.818  1.00  0.00    -0.269 OA
BRANCH  77  80
ATOM     80  C   UNL     1       9.006  -2.831  -6.683  1.00  0.00     0.082 A 
ATOM     81  C   UNL     1       9.810  -2.011  -7.500  1.00  0.00     0.026 A 
ATOM     82  C   UNL     1       9.602  -3.693  -5.761  1.00  0.00     0.132 A 
ATOM     83  C   UNL     1      11.211  -2.011  -7.383  1.00  0.00    -0.017 A 
ATOM     84  C   UNL     1      11.001  -3.673  -5.635  1.00  0.00     0.056 A 
ATOM     85  C   UNL     1      12.028  -1.202  -8.191  1.00  0.00     0.009 A 
ATOM     86  C   UNL     1      11.813  -2.849  -6.426  1.00  0.00    -0.015 A 
ATOM     87  C   UNL     1      13.418  -1.215  -8.040  1.00  0.00     0.001 A 
ATOM     88  C   UNL     1      13.210  -2.849  -6.281  1.00  0.00     0.009 A 
ATOM     89  C   UNL     1      14.007  -2.035  -7.083  1.00  0.00     0.001 A 
BRANCH  82  90
ATOM     90  O   UNL     1       9.049  -4.548  -4.860  1.00  0.00    -0.490 OA
BRANCH  90  91
ATOM     91  C   UNL     1       7.800  -5.198  -5.085  1.00  0.00     0.257 C 
BRANCH  91  92
ATOM     92  C   UNL     1       6.778  -4.613  -4.119  1.00  0.00     0.197 C 
BRANCH  92  93
ATOM     93  O   UNL     1       7.382  -4.253  -2.874  1.00  0.00    -0.393 OA
ATOM     94  H   UNL     1       7.763  -5.043  -2.460  1.00  0.00     0.210 HD
ENDBRANCH  92  93
ENDBRANCH  91  92
ENDBRANCH  90  91
ENDBRANCH  82  90
ENDBRANCH  77  80
ENDBRANCH  75  76
ENDBRANCH  74  75
ENDBRANCH   1  74
TORSDOF 17
