REMARK SMILES COc1ccc(-c2cc(C(F)(F)F)n3nc(C(=O)NCCCCCCNC(=O)c4ccc(-c5c6nc(c(-c7c(F)c(F)c(F)c(F)c7F)c7ccc([nH]7)c(-c7c(F)c(F)c(F)c(F)c7F)c7nc(c(-c8c(F)c(F)c(F)c(F)c8F)c8ccc5[nH]8)C=C7)C=C6)cc4)cc3n2)cc1OC
REMARK SMILES IDX 22 1 21 2 20 3 19 4 17 5 18 6 16 8 7 9 8 10 94 11 9 12 93 13
REMARK SMILES IDX 14 14 92 15 15 16 6 17 3 18 4 19 96 20 5 21 95 22 2 23 1 24
REMARK SMILES IDX 97 25 98 26 10 27 11 28 12 29 13 30 23 31 24 32 25 33 26 34
REMARK SMILES IDX 27 35 28 37 29 38 30 39 91 40 31 41 90 42 32 43 33 44 34 45
REMARK SMILES IDX 84 46 35 47 89 48 83 49 85 50 36 51 88 52 82 53 81 54 37 56
REMARK SMILES IDX 69 57 49 58 68 59 50 60 53 61 67 62 86 63 51 64 52 65 66 67
REMARK SMILES IDX 87 68 54 69 38 70 39 71 47 72 40 73 41 74 45 75 48 76 42 77
REMARK SMILES IDX 43 78 46 79 44 80 70 81 71 82 79 83 72 84 73 85 77 86 80 87
REMARK SMILES IDX 74 88 75 89 78 90 76 91 55 92 56 93 64 94 57 95 58 96 62 97
REMARK SMILES IDX 65 98 59 99 60 100 63 101 61 102
REMARK H PARENT 19 7 26 36 85 55 53 66
REMARK Flexibility Score: inf
ROOT
ATOM      1  C   UNL     1      -0.500 -13.165  -1.995  1.00  0.00     0.002 C 
ENDROOT
BRANCH   1   2
ATOM      2  C   UNL     1      -0.131 -11.797  -1.403  1.00  0.00     0.021 C 
BRANCH   2   3
ATOM      3  C   UNL     1      -0.453 -11.684   0.088  1.00  0.00     0.116 C 
BRANCH   3   4
ATOM      4  N   UNL     1       0.605 -12.270   0.883  1.00  0.00    -0.351 N 
ATOM      5  C   UNL     1       1.629 -11.724   1.619  1.00  0.00     0.271 C 
ATOM      6  O   UNL     1       2.360 -12.537   2.195  1.00  0.00    -0.267 OA
ATOM      7  H   UNL     1       0.588 -13.254   0.899  1.00  0.00     0.163 HD
BRANCH   5   8
ATOM      8  C   UNL     1       1.827 -10.264   1.744  1.00  0.00     0.152 A 
ATOM      9  C   UNL     1       2.051  -5.856   2.106  1.00  0.00     0.075 A 
ATOM     10  C   UNL     1       3.076  -6.186   3.145  1.00  0.00     0.062 A 
ATOM     11  N   UNL     1       1.408  -6.731   1.391  1.00  0.00    -0.228 NA
ATOM     12  C   UNL     1       3.299  -7.498   3.361  1.00  0.00     0.150 A 
ATOM     13  C   UNL     1       1.712  -8.039   1.625  1.00  0.00     0.157 A 
ATOM     14  N   UNL     1       2.597  -8.443   2.622  1.00  0.00    -0.209 N 
ATOM     15  C   UNL     1       1.311  -9.186   0.987  1.00  0.00     0.085 A 
ATOM     16  N   UNL     1       2.634  -9.788   2.714  1.00  0.00    -0.161 NA
BRANCH   9  17
ATOM     17  C   UNL     1       1.769  -4.418   1.903  1.00  0.00     0.004 A 
ATOM     18  C   UNL     1       1.226  -1.721   1.437  1.00  0.00     0.160 A 
ATOM     19  C   UNL     1       0.187  -2.603   1.770  1.00  0.00     0.051 A 
ATOM     20  C   UNL     1       2.546  -2.187   1.347  1.00  0.00     0.161 A 
ATOM     21  C   UNL     1       0.454  -3.957   1.985  1.00  0.00     0.014 A 
ATOM     22  C   UNL     1       2.808  -3.541   1.587  1.00  0.00     0.060 A 
BRANCH  18  23
ATOM     23  O   UNL     1       0.939  -0.389   1.307  1.00  0.00    -0.493 OA
ATOM     24  C   UNL     1       0.138  -0.119   0.156  1.00  0.00     0.278 C 
ENDBRANCH  18  23
BRANCH  20  25
ATOM     25  O   UNL     1       3.677  -1.472   1.060  1.00  0.00    -0.493 OA
ATOM     26  C   UNL     1       3.524  -0.242   0.368  1.00  0.00     0.278 C 
ENDBRANCH  20  25
ENDBRANCH   9  17
BRANCH  12  27
ATOM     27  C   UNL     1       4.286  -8.021   4.335  1.00  0.00     0.433 C 
ATOM     28  F   UNL     1       3.720  -8.760   5.320  1.00  0.00    -0.165 F 
ATOM     29  F   UNL     1       5.253  -8.771   3.750  1.00  0.00    -0.165 F 
ATOM     30  F   UNL     1       4.941  -7.004   4.965  1.00  0.00    -0.165 F 
ENDBRANCH  12  27
ENDBRANCH   5   8
ENDBRANCH   3   4
ENDBRANCH   2   3
ENDBRANCH   1   2
BRANCH   1  31
ATOM     31  C   UNL     1      -1.994 -13.512  -1.936  1.00  0.00     0.002 C 
BRANCH  31  32
ATOM     32  C   UNL     1      -2.927 -12.474  -2.568  1.00  0.00     0.021 C 
BRANCH  32  33
ATOM     33  C   UNL     1      -2.688 -12.240  -4.057  1.00  0.00     0.116 C 
BRANCH  33  34
ATOM     34  N   UNL     1      -2.955 -13.438  -4.841  1.00  0.00    -0.352 N 
ATOM     35  C   UNL     1      -3.869 -13.642  -5.840  1.00  0.00     0.251 C 
ATOM     36  H   UNL     1      -2.395 -14.216  -4.619  1.00  0.00     0.163 HD
ATOM     37  O   UNL     1      -4.116 -14.784  -6.229  1.00  0.00    -0.269 OA
BRANCH  35  38
ATOM     38  C   UNL     1      -4.574 -12.495  -6.445  1.00  0.00     0.039 A 
ATOM     39  C   UNL     1      -5.952 -12.584  -6.659  1.00  0.00     0.014 A 
ATOM     40  C   UNL     1      -3.878 -11.338  -6.808  1.00  0.00     0.014 A 
ATOM     41  C   UNL     1      -6.645 -11.484  -7.168  1.00  0.00     0.010 A 
ATOM     42  C   UNL     1      -4.579 -10.221  -7.255  1.00  0.00     0.010 A 
ATOM     43  C   UNL     1      -5.970 -10.280  -7.429  1.00  0.00    -0.014 A 
BRANCH  43  44
ATOM     44  C   UNL     1      -6.710  -9.061  -7.840  1.00  0.00     0.031 A 
ATOM     45  C   UNL     1      -6.488  -8.451  -9.194  1.00  0.00     0.074 A 
ATOM     46  C   UNL     1      -7.532  -8.465  -6.955  1.00  0.00     0.049 A 
ATOM     47  N   UNL     1      -6.995  -7.354  -9.699  1.00  0.00    -0.248 NA
ATOM     48  C   UNL     1      -5.557  -9.152 -10.091  1.00  0.00     0.031 C 
ATOM     49  C   UNL     1      -7.791  -8.937  -5.593  1.00  0.00     0.029 A 
ATOM     50  N   UNL     1      -8.291  -7.327  -7.061  1.00  0.00    -0.354 N 
ATOM     51  C   UNL     1      -6.441  -7.230 -10.966  1.00  0.00     0.074 A 
ATOM     52  C   UNL     1      -5.521  -8.335 -11.134  1.00  0.00     0.031 C 
ATOM     53  C   UNL     1      -8.662  -8.107  -4.998  1.00  0.00     0.029 A 
ATOM     54  C   UNL     1      -8.992  -7.024  -5.919  1.00  0.00     0.049 A 
ATOM     55  H   UNL     1      -8.330  -6.779  -7.878  1.00  0.00     0.167 HD
ATOM     56  C   UNL     1      -6.693  -6.290 -11.908  1.00  0.00     0.037 A 
ATOM     57  C   UNL     1      -9.799  -5.983  -5.640  1.00  0.00     0.037 A 
ATOM     58  C   UNL     1      -7.620  -5.201 -11.739  1.00  0.00     0.049 A 
ATOM     59  C   UNL     1     -10.044  -4.942  -6.698  1.00  0.00     0.074 A 
ATOM     60  C   UNL     1      -7.993  -4.235 -12.658  1.00  0.00     0.029 A 
ATOM     61  N   UNL     1      -8.313  -4.927 -10.569  1.00  0.00    -0.354 N 
ATOM     62  N   UNL     1      -9.572  -4.876  -7.919  1.00  0.00    -0.248 NA
ATOM     63  C   UNL     1     -10.937  -3.832  -6.338  1.00  0.00     0.031 C 
ATOM     64  C   UNL     1      -8.871  -3.347 -12.028  1.00  0.00     0.029 A 
ATOM     65  C   UNL     1      -9.087  -3.789 -10.732  1.00  0.00     0.049 A 
ATOM     66  H   UNL     1      -8.263  -5.462  -9.744  1.00  0.00     0.167 HD
ATOM     67  C   UNL     1     -10.124  -3.733  -8.480  1.00  0.00     0.074 A 
ATOM     68  C   UNL     1     -10.984  -3.148  -7.472  1.00  0.00     0.031 C 
ATOM     69  C   UNL     1      -9.934  -3.214  -9.718  1.00  0.00     0.037 A 
BRANCH  56  70
ATOM     70  C   UNL     1      -5.955  -6.396 -13.212  1.00  0.00     0.064 A 
ATOM     71  C   UNL     1      -6.230  -7.420 -14.132  1.00  0.00     0.173 A 
ATOM     72  C   UNL     1      -4.995  -5.437 -13.568  1.00  0.00     0.173 A 
ATOM     73  F   UNL     1      -7.132  -8.368 -13.837  1.00  0.00    -0.203 F 
ATOM     74  C   UNL     1      -5.552  -7.495 -15.346  1.00  0.00     0.198 A 
ATOM     75  C   UNL     1      -4.341  -5.497 -14.796  1.00  0.00     0.198 A 
ATOM     76  F   UNL     1      -4.699  -4.433 -12.729  1.00  0.00    -0.203 F 
ATOM     77  F   UNL     1      -5.799  -8.507 -16.188  1.00  0.00    -0.200 F 
ATOM     78  C   UNL     1      -4.615  -6.529 -15.680  1.00  0.00     0.200 A 
ATOM     79  F   UNL     1      -3.446  -4.555 -15.123  1.00  0.00    -0.200 F 
ATOM     80  F   UNL     1      -3.970  -6.596 -16.853  1.00  0.00    -0.200 F 
ENDBRANCH  56  70
BRANCH  57  81
ATOM     81  C   UNL     1     -10.444  -5.882  -4.305  1.00  0.00     0.064 A 
ATOM     82  C   UNL     1     -11.828  -6.049  -4.160  1.00  0.00     0.173 A 
ATOM     83  C   UNL     1      -9.693  -5.616  -3.150  1.00  0.00     0.173 A 
ATOM     84  F   UNL     1     -12.590  -6.283  -5.238  1.00  0.00    -0.203 F 
ATOM     85  C   UNL     1     -12.439  -5.934  -2.913  1.00  0.00     0.198 A 
ATOM     86  C   UNL     1     -10.302  -5.532  -1.900  1.00  0.00     0.198 A 
ATOM     87  F   UNL     1      -8.365  -5.453  -3.235  1.00  0.00    -0.203 F 
ATOM     88  F   UNL     1     -13.770  -6.052  -2.810  1.00  0.00    -0.200 F 
ATOM     89  C   UNL     1     -11.676  -5.682  -1.784  1.00  0.00     0.200 A 
ATOM     90  F   UNL     1      -9.558  -5.303  -0.809  1.00  0.00    -0.200 F 
ATOM     91  F   UNL     1     -12.264  -5.577  -0.585  1.00  0.00    -0.200 F 
ENDBRANCH  57  81
BRANCH  69  92
ATOM     92  C   UNL     1     -10.682  -1.957 -10.056  1.00  0.00     0.064 A 
ATOM     93  C   UNL     1     -10.341  -0.723  -9.484  1.00  0.00     0.173 A 
ATOM     94  C   UNL     1     -11.732  -1.982 -10.986  1.00  0.00     0.173 A 
ATOM     95  F   UNL     1      -9.355  -0.649  -8.576  1.00  0.00    -0.203 F 
ATOM     96  C   UNL     1     -11.040   0.436  -9.811  1.00  0.00     0.198 A 
ATOM     97  C   UNL     1     -12.409  -0.816 -11.335  1.00  0.00     0.198 A 
ATOM     98  F   UNL     1     -12.095  -3.136 -11.566  1.00  0.00    -0.203 F 
ATOM     99  F   UNL     1     -10.728   1.595  -9.214  1.00  0.00    -0.200 F 
ATOM    100  C   UNL     1     -12.067   0.390 -10.741  1.00  0.00     0.200 A 
ATOM    101  F   UNL     1     -13.392  -0.860 -12.244  1.00  0.00    -0.200 F 
ATOM    102  F   UNL     1     -12.735   1.507 -11.060  1.00  0.00    -0.200 F 
ENDBRANCH  69  92
ENDBRANCH  43  44
ENDBRANCH  35  38
ENDBRANCH  33  34
ENDBRANCH  32  33
ENDBRANCH  31  32
ENDBRANCH   1  31
TORSDOF 17
