REMARK SMILES CCCc1cc(OC(F)(F)F)cc2c1O[C@H](C(F)(F)F)C(C(=O)NCCCCCCNC(=O)c1ccc(-c3c4nc(c(-c5c(F)c(F)c(F)c(F)c5F)c5ccc([nH]5)c(-c5c(F)c(F)c(F)c(F)c5F)c5nc(c(-c6c(F)c(F)c(F)c(F)c6F)c6ccc3[nH]6)C=C5)C=C4)cc1)=C2
REMARK SMILES IDX 27 1 26 2 25 3 24 4 22 5 23 6 21 8 4 9 5 10 14 11 6 12 13 13
REMARK SMILES IDX 15 14 12 15 97 16 16 17 3 18 2 19 1 20 7 21 8 22 9 23 10 24
REMARK SMILES IDX 11 25 17 26 18 27 19 28 20 29 28 30 29 31 30 32 31 33 32 34
REMARK SMILES IDX 33 36 34 37 35 38 96 39 36 40 95 41 37 42 38 43 39 44 89 45
REMARK SMILES IDX 40 46 94 47 88 48 90 49 41 50 93 51 87 52 86 53 42 55 74 56
REMARK SMILES IDX 54 57 73 58 55 59 58 60 72 61 91 62 56 63 57 64 71 66 92 67
REMARK SMILES IDX 59 68 43 69 44 70 52 71 45 72 46 73 50 74 53 75 47 76 48 77
REMARK SMILES IDX 51 78 49 79 75 80 76 81 84 82 77 83 78 84 82 85 85 86 79 87
REMARK SMILES IDX 80 88 83 89 81 90 60 91 61 92 69 93 62 94 63 95 67 96 70 97
REMARK SMILES IDX 64 98 65 99 68 100 66 101
REMARK H PARENT 24 7 31 35 90 54 58 65
REMARK Flexibility Score: inf
ROOT
ATOM      1  C   UNL     1       0.662  -6.535  -6.159  1.00  0.00     0.002 C 
ENDROOT
BRANCH   1   2
ATOM      2  C   UNL     1       0.502  -5.035  -5.875  1.00  0.00     0.021 C 
BRANCH   2   3
ATOM      3  C   UNL     1      -0.203  -4.764  -4.545  1.00  0.00     0.116 C 
BRANCH   3   4
ATOM      4  N   UNL     1       0.746  -4.896  -3.461  1.00  0.00    -0.352 N 
ATOM      5  C   UNL     1       1.579  -4.018  -2.853  1.00  0.00     0.251 C 
ATOM      6  O   UNL     1       2.337  -4.472  -1.995  1.00  0.00    -0.270 OA
ATOM      7  H   UNL     1       0.797  -5.807  -3.091  1.00  0.00     0.163 HD
BRANCH   5   8
ATOM      8  C   UNL     1       1.518  -2.540  -3.061  1.00  0.00     0.067 C 
ATOM      9  C   UNL     1       0.673   1.532  -2.518  1.00  0.00    -0.002 A 
ATOM     10  C   UNL     1       0.024   2.234  -3.554  1.00  0.00     0.054 A 
ATOM     11  C   UNL     1       1.033   0.193  -2.733  1.00  0.00     0.131 A 
ATOM     12  C   UNL     1      -0.251   1.616  -4.777  1.00  0.00     0.130 A 
ATOM     13  C   UNL     1       0.740  -0.442  -3.943  1.00  0.00     0.021 A 
ATOM     14  O   UNL     1       1.636  -0.457  -1.698  1.00  0.00    -0.475 OA
ATOM     15  C   UNL     1       0.102   0.276  -4.959  1.00  0.00     0.058 A 
ATOM     16  C   UNL     1       0.972  -1.877  -4.089  1.00  0.00     0.025 C 
ATOM     17  C   UNL     1       2.173  -1.779  -1.923  1.00  0.00     0.314 C 
BRANCH   9  18
ATOM     18  C   UNL     1       1.021   2.250  -1.228  1.00  0.00     0.039 C 
BRANCH  18  19
ATOM     19  C   UNL     1       0.173   1.912   0.009  1.00  0.00     0.001 C 
ATOM     20  C   UNL     1       0.534   0.610   0.712  1.00  0.00     0.004 C 
ENDBRANCH  18  19
ENDBRANCH   9  18
BRANCH  12  21
ATOM     21  O   UNL     1      -0.868   2.181  -5.856  1.00  0.00    -0.406 OA
BRANCH  21  22
ATOM     22  C   UNL     1      -1.067   3.584  -5.851  1.00  0.00     0.573 C 
ATOM     23  F   UNL     1      -1.949   3.945  -4.896  1.00  0.00    -0.132 F 
ATOM     24  F   UNL     1       0.096   4.243  -5.666  1.00  0.00    -0.132 F 
ATOM     25  F   UNL     1      -1.572   3.952  -7.050  1.00  0.00    -0.132 F 
ENDBRANCH  21  22
ENDBRANCH  12  21
BRANCH  17  26
ATOM     26  C   UNL     1       3.703  -1.679  -2.083  1.00  0.00     0.429 C 
ATOM     27  F   UNL     1       4.052  -0.663  -2.913  1.00  0.00    -0.167 F 
ATOM     28  F   UNL     1       4.296  -1.434  -0.888  1.00  0.00    -0.167 F 
ATOM     29  F   UNL     1       4.273  -2.794  -2.588  1.00  0.00    -0.167 F 
ENDBRANCH  17  26
ENDBRANCH   5   8
ENDBRANCH   3   4
ENDBRANCH   2   3
ENDBRANCH   1   2
BRANCH   1  30
ATOM     30  C   UNL     1      -0.660  -7.291  -6.346  1.00  0.00     0.002 C 
BRANCH  30  31
ATOM     31  C   UNL     1      -1.584  -6.704  -7.416  1.00  0.00     0.021 C 
BRANCH  31  32
ATOM     32  C   UNL     1      -0.971  -6.675  -8.812  1.00  0.00     0.116 C 
BRANCH  32  33
ATOM     33  N   UNL     1      -0.736  -8.021  -9.317  1.00  0.00    -0.352 N 
ATOM     34  C   UNL     1      -1.291  -8.644 -10.403  1.00  0.00     0.251 C 
ATOM     35  H   UNL     1      -0.087  -8.557  -8.807  1.00  0.00     0.163 HD
ATOM     36  O   UNL     1      -1.190  -9.862 -10.546  1.00  0.00    -0.269 OA
BRANCH  34  37
ATOM     37  C   UNL     1      -2.031  -7.845 -11.398  1.00  0.00     0.039 A 
ATOM     38  C   UNL     1      -3.285  -8.283 -11.829  1.00  0.00     0.014 A 
ATOM     39  C   UNL     1      -1.488  -6.654 -11.889  1.00  0.00     0.014 A 
ATOM     40  C   UNL     1      -4.033  -7.483 -12.694  1.00  0.00     0.010 A 
ATOM     41  C   UNL     1      -2.261  -5.827 -12.698  1.00  0.00     0.010 A 
ATOM     42  C   UNL     1      -3.545  -6.229 -13.097  1.00  0.00    -0.014 A 
BRANCH  42  43
ATOM     43  C   UNL     1      -4.381  -5.297 -13.893  1.00  0.00     0.031 A 
ATOM     44  C   UNL     1      -3.969  -4.904 -15.282  1.00  0.00     0.074 A 
ATOM     45  C   UNL     1      -5.467  -4.740 -13.323  1.00  0.00     0.049 A 
ATOM     46  N   UNL     1      -4.518  -4.034 -16.092  1.00  0.00    -0.248 NA
ATOM     47  C   UNL     1      -2.768  -5.558 -15.825  1.00  0.00     0.031 C 
ATOM     48  C   UNL     1      -5.939  -5.010 -11.964  1.00  0.00     0.029 A 
ATOM     49  N   UNL     1      -6.360  -3.817 -13.807  1.00  0.00    -0.354 N 
ATOM     50  C   UNL     1      -3.727  -4.030 -17.233  1.00  0.00     0.074 A 
ATOM     51  C   UNL     1      -2.632  -4.946 -16.993  1.00  0.00     0.031 C 
ATOM     52  C   UNL     1      -7.042  -4.283 -11.729  1.00  0.00     0.029 A 
ATOM     53  C   UNL     1      -7.329  -3.462 -12.900  1.00  0.00     0.049 A 
ATOM     54  H   UNL     1      -6.312  -3.446 -14.717  1.00  0.00     0.167 HD
ATOM     55  C   UNL     1      -3.911  -3.337 -18.382  1.00  0.00     0.037 A 
ATOM     56  C   UNL     1      -8.324  -2.560 -12.996  1.00  0.00     0.037 A 
ATOM     57  C   UNL     1      -5.011  -2.438 -18.618  1.00  0.00     0.049 A 
ATOM     58  C   UNL     1      -8.484  -1.779 -14.271  1.00  0.00     0.074 A 
ATOM     59  C   UNL     1      -5.326  -1.745 -19.773  1.00  0.00     0.029 A 
ATOM     60  N   UNL     1      -5.971  -2.100 -17.675  1.00  0.00    -0.354 N 
ATOM     61  N   UNL     1      -7.777  -1.841 -15.373  1.00  0.00    -0.248 NA
ATOM     62  C   UNL     1      -9.580  -0.801 -14.315  1.00  0.00     0.031 C 
ATOM     63  C   UNL     1      -6.443  -0.945 -19.512  1.00  0.00     0.029 A 
ATOM     64  C   UNL     1      -6.856  -1.178 -18.211  1.00  0.00     0.049 A 
ATOM     65  H   UNL     1      -6.017  -2.461 -16.760  1.00  0.00     0.167 HD
ATOM     66  C   UNL     1      -8.349  -0.925 -16.245  1.00  0.00     0.074 A 
ATOM     67  C   UNL     1      -9.477  -0.338 -15.553  1.00  0.00     0.031 C 
ATOM     68  C   UNL     1      -7.970  -0.597 -17.505  1.00  0.00     0.037 A 
BRANCH  55  69
ATOM     69  C   UNL     1      -2.901  -3.523 -19.477  1.00  0.00     0.064 A 
ATOM     70  C   UNL     1      -2.806  -4.725 -20.195  1.00  0.00     0.173 A 
ATOM     71  C   UNL     1      -2.051  -2.470 -19.847  1.00  0.00     0.173 A 
ATOM     72  F   UNL     1      -3.590  -5.766 -19.874  1.00  0.00    -0.203 F 
ATOM     73  C   UNL     1      -1.880  -4.875 -21.224  1.00  0.00     0.198 A 
ATOM     74  C   UNL     1      -1.147  -2.613 -20.897  1.00  0.00     0.198 A 
ATOM     75  F   UNL     1      -2.105  -1.297 -19.199  1.00  0.00    -0.203 F 
ATOM     76  F   UNL     1      -1.777  -6.047 -21.865  1.00  0.00    -0.200 F 
ATOM     77  C   UNL     1      -1.058  -3.817 -21.579  1.00  0.00     0.200 A 
ATOM     78  F   UNL     1      -0.363  -1.585 -21.248  1.00  0.00    -0.200 F 
ATOM     79  F   UNL     1      -0.174  -3.959 -22.577  1.00  0.00    -0.200 F 
ENDBRANCH  55  69
BRANCH  56  80
ATOM     80  C   UNL     1      -9.248  -2.349 -11.850  1.00  0.00     0.064 A 
ATOM     81  C   UNL     1     -10.593  -2.735 -11.930  1.00  0.00     0.173 A 
ATOM     82  C   UNL     1      -8.808  -1.758 -10.657  1.00  0.00     0.173 A 
ATOM     83  F   UNL     1     -11.065  -3.285 -13.058  1.00  0.00    -0.203 F 
ATOM     84  C   UNL     1     -11.468  -2.519 -10.867  1.00  0.00     0.198 A 
ATOM     85  C   UNL     1      -9.677  -1.570  -9.584  1.00  0.00     0.198 A 
ATOM     86  F   UNL     1      -7.529  -1.376 -10.527  1.00  0.00    -0.203 F 
ATOM     87  F   UNL     1     -12.759  -2.855 -10.987  1.00  0.00    -0.200 F 
ATOM     88  C   UNL     1     -11.008  -1.943  -9.693  1.00  0.00     0.200 A 
ATOM     89  F   UNL     1      -9.224  -1.028  -8.445  1.00  0.00    -0.200 F 
ATOM     90  F   UNL     1     -11.848  -1.740  -8.669  1.00  0.00    -0.200 F 
ENDBRANCH  56  80
BRANCH  68  91
ATOM     91  C   UNL     1      -8.788   0.439 -18.220  1.00  0.00     0.064 A 
ATOM     92  C   UNL     1      -8.732   1.793 -17.857  1.00  0.00     0.173 A 
ATOM     93  C   UNL     1      -9.602   0.082 -19.305  1.00  0.00     0.173 A 
ATOM     94  F   UNL     1      -7.982   2.182 -16.815  1.00  0.00    -0.203 F 
ATOM     95  C   UNL     1      -9.477   2.748 -18.543  1.00  0.00     0.198 A 
ATOM     96  C   UNL     1     -10.322   1.044 -20.008  1.00  0.00     0.198 A 
ATOM     97  F   UNL     1      -9.688  -1.199 -19.695  1.00  0.00    -0.203 F 
ATOM     98  F   UNL     1      -9.443   4.029 -18.151  1.00  0.00    -0.200 F 
ATOM     99  C   UNL     1     -10.264   2.375 -19.622  1.00  0.00     0.200 A 
ATOM    100  F   UNL     1     -11.071   0.684 -21.059  1.00  0.00    -0.200 F 
ATOM    101  F   UNL     1     -10.972   3.298 -20.288  1.00  0.00    -0.200 F 
ENDBRANCH  68  91
ENDBRANCH  42  43
ENDBRANCH  34  37
ENDBRANCH  32  33
ENDBRANCH  31  32
ENDBRANCH  30  31
ENDBRANCH   1  30
TORSDOF 18
