REMARK SMILES CC[C@H](C)c1ccccc1Oc1cccc(F)c1C(=O)NCCCCCCNC(=O)c1ccc(-c2c3nc(c(-c4c(F)c(F)c(F)c(F)c4F)c4ccc([nH]4)c(-c4c(F)c(F)c(F)c(F)c4F)c4nc(c(-c5c(F)c(F)c(F)c(F)c5F)c5ccc2[nH]5)C=C4)C=C3)cc1
REMARK SMILES IDX 23 1 22 2 21 3 19 4 20 5 18 7 12 8 13 9 14 10 16 11 15 12
REMARK SMILES IDX 17 13 11 14 10 15 5 16 6 17 7 18 9 19 8 20 3 21 4 22 2 23
REMARK SMILES IDX 1 24 24 25 25 26 26 27 27 28 28 29 29 30 30 32 31 33 32 34
REMARK SMILES IDX 93 35 33 36 92 37 34 38 35 39 36 40 86 41 37 42 91 43 85 44
REMARK SMILES IDX 87 45 38 46 90 47 84 48 83 49 39 51 71 52 51 53 70 54 52 55
REMARK SMILES IDX 55 56 69 57 88 58 53 59 54 60 68 62 89 63 56 64 40 65 41 66
REMARK SMILES IDX 49 67 42 68 43 69 47 70 50 71 44 72 45 73 48 74 46 75 72 76
REMARK SMILES IDX 73 77 81 78 74 79 75 80 79 81 82 82 76 83 77 84 80 85 78 86
REMARK SMILES IDX 57 87 58 88 66 89 59 90 60 91 64 92 67 93 61 94 62 95 65 96
REMARK SMILES IDX 63 97
REMARK H PARENT 21 6 28 31 87 50 55 61
REMARK Flexibility Score: inf
ROOT
ATOM      1  C   UNL     1       2.792  -2.251   6.225  1.00  0.00     0.021 C 
ENDROOT
BRANCH   1   2
ATOM      2  C   UNL     1       2.140  -1.623   5.001  1.00  0.00     0.116 C 
BRANCH   2   3
ATOM      3  N   UNL     1       2.989  -0.766   4.213  1.00  0.00    -0.352 N 
ATOM      4  C   UNL     1       2.876  -0.422   2.886  1.00  0.00     0.258 C 
ATOM      5  O   UNL     1       3.531   0.541   2.486  1.00  0.00    -0.269 OA
ATOM      6  H   UNL     1       3.755  -0.373   4.690  1.00  0.00     0.163 HD
BRANCH   4   7
ATOM      7  C   UNL     1       2.083  -1.208   1.906  1.00  0.00     0.118 A 
ATOM      8  C   UNL     1       0.735  -1.579   1.984  1.00  0.00     0.143 A 
ATOM      9  C   UNL     1       0.186  -2.415   0.984  1.00  0.00     0.048 A 
ATOM     10  C   UNL     1       0.904  -2.771  -0.152  1.00  0.00     0.007 A 
ATOM     11  C   UNL     1       2.786  -1.563   0.736  1.00  0.00     0.139 A 
ATOM     12  C   UNL     1       2.205  -2.316  -0.288  1.00  0.00     0.040 A 
ATOM     13  F   UNL     1       4.068  -1.205   0.562  1.00  0.00    -0.206 F 
BRANCH   8  14
ATOM     14  O   UNL     1      -0.197  -1.312   2.951  1.00  0.00    -0.456 OA
BRANCH  14  15
ATOM     15  C   UNL     1      -0.403  -0.087   3.535  1.00  0.00     0.130 A 
ATOM     16  C   UNL     1      -0.172   1.206   3.037  1.00  0.00    -0.002 A 
ATOM     17  C   UNL     1      -0.241   2.255   3.986  1.00  0.00     0.008 A 
ATOM     18  C   UNL     1      -0.716   2.067   5.287  1.00  0.00     0.001 A 
ATOM     19  C   UNL     1      -0.993  -0.249   4.807  1.00  0.00     0.047 A 
ATOM     20  C   UNL     1      -1.157   0.819   5.678  1.00  0.00     0.004 A 
BRANCH  16  21
ATOM     21  C   UNL     1       0.076   1.540   1.555  1.00  0.00     0.019 C 
ATOM     22  C   UNL     1      -0.873   0.768   0.616  1.00  0.00     0.013 C 
BRANCH  21  23
ATOM     23  C   UNL     1       0.001   3.062   1.234  1.00  0.00     0.005 C 
ATOM     24  C   UNL     1       0.068   3.436  -0.241  1.00  0.00     0.004 C 
ENDBRANCH  21  23
ENDBRANCH  16  21
ENDBRANCH  14  15
ENDBRANCH   8  14
ENDBRANCH   4   7
ENDBRANCH   2   3
ENDBRANCH   1   2
BRANCH   1  25
ATOM     25  C   UNL     1       3.110  -1.308   7.393  1.00  0.00     0.002 C 
BRANCH  25  26
ATOM     26  C   UNL     1       1.989  -0.390   7.899  1.00  0.00     0.002 C 
BRANCH  26  27
ATOM     27  C   UNL     1       0.630  -1.034   8.172  1.00  0.00     0.021 C 
BRANCH  27  28
ATOM     28  C   UNL     1       0.617  -2.222   9.122  1.00  0.00     0.116 C 
BRANCH  28  29
ATOM     29  N   UNL     1       1.069  -1.887  10.458  1.00  0.00    -0.352 N 
ATOM     30  C   UNL     1       0.458  -2.075  11.673  1.00  0.00     0.251 C 
ATOM     31  H   UNL     1       1.954  -1.458  10.501  1.00  0.00     0.163 HD
ATOM     32  O   UNL     1       0.956  -1.592  12.685  1.00  0.00    -0.269 OA
BRANCH  30  33
ATOM     33  C   UNL     1      -0.811  -2.834  11.778  1.00  0.00     0.039 A 
ATOM     34  C   UNL     1      -1.794  -2.374  12.661  1.00  0.00     0.014 A 
ATOM     35  C   UNL     1      -1.028  -4.010  11.054  1.00  0.00     0.014 A 
ATOM     36  C   UNL     1      -3.004  -3.062  12.782  1.00  0.00     0.010 A 
ATOM     37  C   UNL     1      -2.266  -4.648  11.112  1.00  0.00     0.010 A 
ATOM     38  C   UNL     1      -3.261  -4.191  11.989  1.00  0.00    -0.014 A 
BRANCH  38  39
ATOM     39  C   UNL     1      -4.547  -4.928  12.089  1.00  0.00     0.031 A 
ATOM     40  C   UNL     1      -4.562  -6.351  12.576  1.00  0.00     0.074 A 
ATOM     41  C   UNL     1      -5.692  -4.338  11.697  1.00  0.00     0.049 A 
ATOM     42  N   UNL     1      -5.567  -7.186  12.673  1.00  0.00    -0.248 NA
ATOM     43  C   UNL     1      -3.268  -6.922  12.982  1.00  0.00     0.031 C 
ATOM     44  C   UNL     1      -5.806  -2.976  11.174  1.00  0.00     0.029 A 
ATOM     45  N   UNL     1      -6.981  -4.811  11.674  1.00  0.00    -0.354 N 
ATOM     46  C   UNL     1      -5.023  -8.379  13.133  1.00  0.00     0.074 A 
ATOM     47  C   UNL     1      -3.594  -8.180  13.237  1.00  0.00     0.031 C 
ATOM     48  C   UNL     1      -7.096  -2.712  10.911  1.00  0.00     0.029 A 
ATOM     49  C   UNL     1      -7.895  -3.897  11.210  1.00  0.00     0.049 A 
ATOM     50  H   UNL     1      -7.226  -5.720  11.963  1.00  0.00     0.167 HD
ATOM     51  C   UNL     1      -5.660  -9.528  13.466  1.00  0.00     0.037 A 
ATOM     52  C   UNL     1      -9.227  -4.005  11.044  1.00  0.00     0.037 A 
ATOM     53  C   UNL     1      -7.085  -9.714  13.387  1.00  0.00     0.049 A 
ATOM     54  C   UNL     1      -9.909  -5.297  11.404  1.00  0.00     0.074 A 
ATOM     55  C   UNL     1      -7.834 -10.821  13.746  1.00  0.00     0.029 A 
ATOM     56  N   UNL     1      -7.978  -8.762  12.915  1.00  0.00    -0.354 N 
ATOM     57  N   UNL     1      -9.393  -6.399  11.890  1.00  0.00    -0.248 NA
ATOM     58  C   UNL     1     -11.363  -5.356  11.195  1.00  0.00     0.031 C 
ATOM     59  C   UNL     1      -9.176 -10.554  13.452  1.00  0.00     0.029 A 
ATOM     60  C   UNL     1      -9.269  -9.264  12.956  1.00  0.00     0.049 A 
ATOM     61  H   UNL     1      -7.731  -7.864  12.599  1.00  0.00     0.167 HD
ATOM     62  C   UNL     1     -10.457  -7.271  12.075  1.00  0.00     0.074 A 
ATOM     63  C   UNL     1     -11.651  -6.564  11.659  1.00  0.00     0.031 C 
ATOM     64  C   UNL     1     -10.447  -8.542  12.547  1.00  0.00     0.037 A 
BRANCH  51  65
ATOM     65  C   UNL     1      -4.813 -10.671  13.950  1.00  0.00     0.064 A 
ATOM     66  C   UNL     1      -4.152 -10.623  15.188  1.00  0.00     0.173 A 
ATOM     67  C   UNL     1      -4.668 -11.831  13.175  1.00  0.00     0.173 A 
ATOM     68  F   UNL     1      -4.247  -9.533  15.963  1.00  0.00    -0.203 F 
ATOM     69  C   UNL     1      -3.346 -11.677  15.612  1.00  0.00     0.198 A 
ATOM     70  C   UNL     1      -3.887 -12.896  13.618  1.00  0.00     0.198 A 
ATOM     71  F   UNL     1      -5.282 -11.933  11.987  1.00  0.00    -0.203 F 
ATOM     72  F   UNL     1      -2.676 -11.581  16.769  1.00  0.00    -0.200 F 
ATOM     73  C   UNL     1      -3.219 -12.814  14.830  1.00  0.00     0.200 A 
ATOM     74  F   UNL     1      -3.775 -14.001  12.867  1.00  0.00    -0.200 F 
ATOM     75  F   UNL     1      -2.443 -13.827  15.239  1.00  0.00    -0.200 F 
ENDBRANCH  51  65
BRANCH  52  76
ATOM     76  C   UNL     1     -10.010  -2.843  10.549  1.00  0.00     0.064 A 
ATOM     77  C   UNL     1     -10.888  -2.158  11.400  1.00  0.00     0.173 A 
ATOM     78  C   UNL     1      -9.899  -2.393   9.225  1.00  0.00     0.173 A 
ATOM     79  F   UNL     1     -11.043  -2.565  12.668  1.00  0.00    -0.203 F 
ATOM     80  C   UNL     1     -11.639  -1.078  10.942  1.00  0.00     0.198 A 
ATOM     81  C   UNL     1     -10.631  -1.296   8.776  1.00  0.00     0.198 A 
ATOM     82  F   UNL     1      -9.070  -3.012   8.372  1.00  0.00    -0.203 F 
ATOM     83  F   UNL     1     -12.502  -0.468  11.766  1.00  0.00    -0.200 F 
ATOM     84  C   UNL     1     -11.506  -0.643   9.632  1.00  0.00     0.200 A 
ATOM     85  F   UNL     1     -10.490  -0.871   7.513  1.00  0.00    -0.200 F 
ATOM     86  F   UNL     1     -12.225   0.399   9.193  1.00  0.00    -0.200 F 
ENDBRANCH  52  76
BRANCH  64  87
ATOM     87  C   UNL     1     -11.771  -9.236  12.676  1.00  0.00     0.064 A 
ATOM     88  C   UNL     1     -12.484  -9.679  11.552  1.00  0.00     0.173 A 
ATOM     89  C   UNL     1     -12.315  -9.496  13.944  1.00  0.00     0.173 A 
ATOM     90  F   UNL     1     -12.014  -9.440  10.318  1.00  0.00    -0.203 F 
ATOM     91  C   UNL     1     -13.704 -10.333  11.692  1.00  0.00     0.198 A 
ATOM     92  C   UNL     1     -13.521 -10.177  14.080  1.00  0.00     0.198 A 
ATOM     93  F   UNL     1     -11.669  -9.099  15.050  1.00  0.00    -0.203 F 
ATOM     94  F   UNL     1     -14.391 -10.705  10.602  1.00  0.00    -0.200 F 
ATOM     95  C   UNL     1     -14.218 -10.588  12.955  1.00  0.00     0.200 A 
ATOM     96  F   UNL     1     -14.009 -10.434  15.302  1.00  0.00    -0.200 F 
ATOM     97  F   UNL     1     -15.390 -11.225  13.087  1.00  0.00    -0.200 F 
ENDBRANCH  64  87
ENDBRANCH  38  39
ENDBRANCH  30  33
ENDBRANCH  28  29
ENDBRANCH  27  28
ENDBRANCH  26  27
ENDBRANCH  25  26
ENDBRANCH   1  25
TORSDOF 17
