REMARK SMILES Cc1ccc(C(=O)N2CCC3(CCC(=O)N(CC(=O)NCCCCCCNC(=O)c4ccc(-c5c6nc(c(-c7c(F)c(F)c(F)c(F)c7F)c7ccc([nH]7)c(-c7c(F)c(F)c(F)c(F)c7F)c7nc(c(-c8c(F)c(F)c(F)c(F)c8F)c8ccc5[nH]8)C=C7)C=C6)cc4)C3)CC2)cc1O
REMARK SMILES IDX 23 1 22 2 21 3 20 4 18 5 19 6 17 8 16 9 6 10 7 11 8 12 9 13
REMARK SMILES IDX 95 14 10 15 94 16 11 17 12 18 93 19 13 20 14 21 15 22 5 23
REMARK SMILES IDX 1 24 2 25 3 26 97 27 4 28 96 29 98 30 24 32 25 33 26 34
REMARK SMILES IDX 27 35 28 36 29 38 30 39 31 40 92 41 32 42 91 43 33 44 34 45
REMARK SMILES IDX 35 46 85 47 36 48 90 49 84 50 86 51 37 52 89 53 83 54 82 55
REMARK SMILES IDX 38 57 70 58 50 59 69 60 51 61 54 62 68 63 87 64 52 65 53 66
REMARK SMILES IDX 67 68 88 69 55 70 39 71 40 72 48 73 41 74 42 75 46 76 49 77
REMARK SMILES IDX 43 78 44 79 47 80 45 81 71 82 72 83 80 84 73 85 74 86 78 87
REMARK SMILES IDX 81 88 75 89 76 90 79 91 77 92 56 93 57 94 65 95 58 96 59 97
REMARK SMILES IDX 63 98 66 99 60 100 61 101 64 102 62 103
REMARK H PARENT 20 7 98 31 27 37 86 56 54 67
REMARK Flexibility Score: inf
ROOT
ATOM      1  C   UNL     1       9.955  -6.404   1.757  1.00  0.00     0.002 C 
ENDROOT
BRANCH   1   2
ATOM      2  C   UNL     1       8.911  -5.293   1.589  1.00  0.00     0.021 C 
BRANCH   2   3
ATOM      3  C   UNL     1       8.055  -5.069   2.831  1.00  0.00     0.116 C 
BRANCH   3   4
ATOM      4  N   UNL     1       8.835  -4.529   3.916  1.00  0.00    -0.355 N 
ATOM      5  C   UNL     1       8.833  -3.269   4.432  1.00  0.00     0.239 C 
ATOM      6  O   UNL     1       9.459  -3.087   5.480  1.00  0.00    -0.273 OA
ATOM      7  H   UNL     1       9.457  -5.161   4.344  1.00  0.00     0.163 HD
BRANCH   5   8
ATOM      8  C   UNL     1       7.910  -2.187   3.857  1.00  0.00     0.219 C 
BRANCH   8   9
ATOM      9  N   UNL     1       8.040  -1.821   2.441  1.00  0.00    -0.333 N 
ATOM     10  C   UNL     1       3.025   1.507   0.167  1.00  0.00     0.253 C 
ATOM     11  O   UNL     1       2.889   2.674   0.533  1.00  0.00    -0.269 OA
ATOM     12  N   UNL     1       4.280   0.909   0.104  1.00  0.00    -0.339 N 
ATOM     13  C   UNL     1       5.313   1.407   0.997  1.00  0.00     0.120 C 
ATOM     14  C   UNL     1       4.740  -0.002  -0.939  1.00  0.00     0.120 C 
ATOM     15  C   UNL     1       5.952   0.221   1.706  1.00  0.00     0.030 C 
ATOM     16  C   UNL     1       5.468  -1.209  -0.336  1.00  0.00     0.030 C 
ATOM     17  C   UNL     1       6.542  -0.821   0.720  1.00  0.00    -0.008 C 
ATOM     18  C   UNL     1       7.818  -0.331   0.006  1.00  0.00     0.019 C 
ATOM     19  C   UNL     1       6.948  -2.074   1.511  1.00  0.00     0.127 C 
ATOM     20  C   UNL     1       8.972  -0.075   0.963  1.00  0.00     0.101 C 
ATOM     21  C   UNL     1       9.156  -1.090   2.076  1.00  0.00     0.223 C 
ATOM     22  O   UNL     1      10.205  -1.123   2.716  1.00  0.00    -0.275 OA
BRANCH  10  23
ATOM     23  C   UNL     1       1.794   0.687  -0.047  1.00  0.00     0.043 A 
ATOM     24  C   UNL     1      -1.904  -1.566  -0.059  1.00  0.00     0.048 C 
ATOM     25  C   UNL     1      -0.636  -0.764  -0.087  1.00  0.00    -0.009 A 
ATOM     26  C   UNL     1       0.592  -1.426   0.031  1.00  0.00     0.008 A 
ATOM     27  C   UNL     1      -0.627   0.632  -0.179  1.00  0.00     0.119 A 
ATOM     28  C   UNL     1       1.788  -0.706   0.075  1.00  0.00     0.014 A 
ATOM     29  C   UNL     1       0.569   1.351  -0.174  1.00  0.00     0.060 A 
BRANCH  27  30
ATOM     30  O   UNL     1      -1.773   1.372  -0.245  1.00  0.00    -0.508 OA
ATOM     31  H   UNL     1      -2.607   0.945  -0.252  1.00  0.00     0.293 HD
ENDBRANCH  27  30
ENDBRANCH  10  23
ENDBRANCH   8   9
ENDBRANCH   5   8
ENDBRANCH   3   4
ENDBRANCH   2   3
ENDBRANCH   1   2
BRANCH   1  32
ATOM     32  C   UNL     1       9.387  -7.767   2.173  1.00  0.00     0.002 C 
BRANCH  32  33
ATOM     33  C   UNL     1       8.287  -8.311   1.260  1.00  0.00     0.021 C 
BRANCH  33  34
ATOM     34  C   UNL     1       8.720  -8.518  -0.186  1.00  0.00     0.116 C 
BRANCH  34  35
ATOM     35  N   UNL     1       9.764  -9.525  -0.302  1.00  0.00    -0.352 N 
ATOM     36  C   UNL     1       9.790 -10.665  -1.062  1.00  0.00     0.251 C 
ATOM     37  H   UNL     1      10.566  -9.365   0.246  1.00  0.00     0.163 HD
ATOM     38  O   UNL     1      10.660 -11.514  -0.878  1.00  0.00    -0.269 OA
BRANCH  36  39
ATOM     39  C   UNL     1       8.759 -10.882  -2.097  1.00  0.00     0.039 A 
ATOM     40  C   UNL     1       8.166 -12.141  -2.208  1.00  0.00     0.014 A 
ATOM     41  C   UNL     1       8.383  -9.847  -2.958  1.00  0.00     0.014 A 
ATOM     42  C   UNL     1       7.153 -12.347  -3.146  1.00  0.00     0.010 A 
ATOM     43  C   UNL     1       7.320 -10.032  -3.838  1.00  0.00     0.010 A 
ATOM     44  C   UNL     1       6.698 -11.285  -3.944  1.00  0.00    -0.014 A 
BRANCH  44  45
ATOM     45  C   UNL     1       5.572 -11.466  -4.894  1.00  0.00     0.031 A 
ATOM     46  C   UNL     1       5.795 -11.298  -6.372  1.00  0.00     0.074 A 
ATOM     47  C   UNL     1       4.336 -11.720  -4.421  1.00  0.00     0.049 A 
ATOM     48  N   UNL     1       4.927 -11.345  -7.351  1.00  0.00    -0.248 NA
ATOM     49  C   UNL     1       7.171 -11.011  -6.804  1.00  0.00     0.031 C 
ATOM     50  C   UNL     1       3.985 -11.862  -3.007  1.00  0.00     0.029 A 
ATOM     51  N   UNL     1       3.143 -11.894  -5.078  1.00  0.00    -0.354 N 
ATOM     52  C   UNL     1       5.649 -11.085  -8.508  1.00  0.00     0.074 A 
ATOM     53  C   UNL     1       7.013 -10.822  -8.106  1.00  0.00     0.031 C 
ATOM     54  C   UNL     1       2.673 -12.124  -2.904  1.00  0.00     0.029 A 
ATOM     55  C   UNL     1       2.081 -12.125  -4.238  1.00  0.00     0.049 A 
ATOM     56  H   UNL     1       3.057 -11.857  -6.058  1.00  0.00     0.167 HD
ATOM     57  C   UNL     1       5.217 -11.089  -9.792  1.00  0.00     0.037 A 
ATOM     58  C   UNL     1       0.775 -12.306  -4.513  1.00  0.00     0.037 A 
ATOM     59  C   UNL     1       3.862 -11.372 -10.188  1.00  0.00     0.049 A 
ATOM     60  C   UNL     1       0.319 -12.287  -5.948  1.00  0.00     0.074 A 
ATOM     61  C   UNL     1       3.337 -11.457 -11.466  1.00  0.00     0.029 A 
ATOM     62  N   UNL     1       2.816 -11.613  -9.310  1.00  0.00    -0.354 N 
ATOM     63  N   UNL     1       1.023 -12.107  -7.039  1.00  0.00    -0.248 NA
ATOM     64  C   UNL     1      -1.114 -12.503  -6.190  1.00  0.00     0.031 C 
ATOM     65  C   UNL     1       1.963 -11.692 -11.360  1.00  0.00     0.029 A 
ATOM     66  C   UNL     1       1.642 -11.818 -10.018  1.00  0.00     0.049 A 
ATOM     67  H   UNL     1       2.896 -11.636  -8.329  1.00  0.00     0.167 HD
ATOM     68  C   UNL     1       0.129 -12.220  -8.095  1.00  0.00     0.074 A 
ATOM     69  C   UNL     1      -1.168 -12.500  -7.514  1.00  0.00     0.031 C 
ATOM     70  C   UNL     1       0.360 -12.104  -9.425  1.00  0.00     0.037 A 
BRANCH  57  71
ATOM     71  C   UNL     1       6.220 -10.777 -10.867  1.00  0.00     0.064 A 
ATOM     72  C   UNL     1       7.266 -11.659 -11.179  1.00  0.00     0.173 A 
ATOM     73  C   UNL     1       6.107  -9.602 -11.625  1.00  0.00     0.173 A 
ATOM     74  F   UNL     1       7.426 -12.792 -10.477  1.00  0.00    -0.203 F 
ATOM     75  C   UNL     1       8.177 -11.363 -12.189  1.00  0.00     0.198 A 
ATOM     76  C   UNL     1       7.000  -9.325 -12.657  1.00  0.00     0.198 A 
ATOM     77  F   UNL     1       5.123  -8.725 -11.374  1.00  0.00    -0.203 F 
ATOM     78  F   UNL     1       9.197 -12.197 -12.434  1.00  0.00    -0.200 F 
ATOM     79  C   UNL     1       8.039 -10.201 -12.933  1.00  0.00     0.200 A 
ATOM     80  F   UNL     1       6.855  -8.209 -13.385  1.00  0.00    -0.200 F 
ATOM     81  F   UNL     1       8.910  -9.922 -13.912  1.00  0.00    -0.200 F 
ENDBRANCH  57  71
BRANCH  58  82
ATOM     82  C   UNL     1      -0.195 -12.535  -3.409  1.00  0.00     0.064 A 
ATOM     83  C   UNL     1      -0.838 -13.772  -3.258  1.00  0.00     0.173 A 
ATOM     84  C   UNL     1      -0.511 -11.521  -2.494  1.00  0.00     0.173 A 
ATOM     85  F   UNL     1      -0.585 -14.768  -4.120  1.00  0.00    -0.203 F 
ATOM     86  C   UNL     1      -1.780 -13.976  -2.252  1.00  0.00     0.198 A 
ATOM     87  C   UNL     1      -1.429 -11.737  -1.468  1.00  0.00     0.198 A 
ATOM     88  F   UNL     1       0.080 -10.321  -2.588  1.00  0.00    -0.203 F 
ATOM     89  F   UNL     1      -2.421 -15.150  -2.166  1.00  0.00    -0.200 F 
ATOM     90  C   UNL     1      -2.071 -12.960  -1.354  1.00  0.00     0.200 A 
ATOM     91  F   UNL     1      -1.694 -10.757  -0.593  1.00  0.00    -0.200 F 
ATOM     92  F   UNL     1      -2.976 -13.157  -0.386  1.00  0.00    -0.200 F 
ENDBRANCH  58  82
BRANCH  70  93
ATOM     93  C   UNL     1      -0.804 -12.318 -10.350  1.00  0.00     0.064 A 
ATOM     94  C   UNL     1      -1.855 -11.394 -10.443  1.00  0.00     0.173 A 
ATOM     95  C   UNL     1      -0.847 -13.446 -11.185  1.00  0.00     0.173 A 
ATOM     96  F   UNL     1      -1.870 -10.307  -9.657  1.00  0.00    -0.203 F 
ATOM     97  C   UNL     1      -2.919 -11.605 -11.317  1.00  0.00     0.198 A 
ATOM     98  C   UNL     1      -1.894 -13.636 -12.082  1.00  0.00     0.198 A 
ATOM     99  F   UNL     1       0.136 -14.358 -11.141  1.00  0.00    -0.203 F 
ATOM    100  F   UNL     1      -3.938 -10.735 -11.350  1.00  0.00    -0.200 F 
ATOM    101  C   UNL     1      -2.933 -12.720 -12.141  1.00  0.00     0.200 A 
ATOM    102  F   UNL     1      -1.898 -14.706 -12.889  1.00  0.00    -0.200 F 
ATOM    103  F   UNL     1      -3.953 -12.916 -12.988  1.00  0.00    -0.200 F 
ENDBRANCH  70  93
ENDBRANCH  44  45
ENDBRANCH  36  39
ENDBRANCH  34  35
ENDBRANCH  33  34
ENDBRANCH  32  33
ENDBRANCH   1  32
TORSDOF 16
