REMARK SMILES [NH3+][C@@H](CNc1ccc(C(=O)NCCCCCCNC(=O)c2ccc(-c3c4nc(c(-c5c(F)c(F)c(F)c(F)c5F)c5ccc([nH]5)c(-c5c(F)c(F)c(F)c(F)c5F)c5nc(c(-c6c(F)c(F)c(F)c(F)c6F)c6ccc3[nH]6)C=C5)C=C4)cc2)c(F)c1F)c1ccccc1
REMARK SMILES IDX 13 1 12 2 11 3 9 4 10 5 8 7 5 8 6 9 86 10 7 11 84 12 87 13
REMARK SMILES IDX 85 14 4 15 3 17 2 18 1 19 88 23 89 24 93 25 90 26 92 27
REMARK SMILES IDX 91 28 14 29 15 30 16 31 17 32 18 33 19 34 20 36 21 37 22 38
REMARK SMILES IDX 83 39 23 40 82 41 24 42 25 43 26 44 76 45 27 46 81 47 75 48
REMARK SMILES IDX 77 49 28 50 80 51 74 52 73 53 29 55 61 56 41 57 60 58 42 59
REMARK SMILES IDX 45 60 59 61 78 62 43 63 44 64 58 66 79 67 46 68 30 69 31 70
REMARK SMILES IDX 39 71 32 72 33 73 37 74 40 75 34 76 35 77 38 78 36 79 62 80
REMARK SMILES IDX 63 81 71 82 64 83 65 84 69 85 72 86 66 87 67 88 70 89 68 90
REMARK SMILES IDX 47 91 48 92 56 93 49 94 50 95 54 96 57 97 51 98 52 99 55 100
REMARK SMILES IDX 53 101
REMARK H PARENT 11 6 4 16 1 20 1 21 1 22 18 35 77 54 45 65
REMARK Flexibility Score: inf
ROOT
ATOM      1  C   UNL     1      -6.239  -2.329   5.382  1.00  0.00     0.021 C 
ENDROOT
BRANCH   1   2
ATOM      2  C   UNL     1      -4.813  -1.974   5.795  1.00  0.00     0.116 C 
BRANCH   2   3
ATOM      3  N   UNL     1      -4.117  -3.057   6.462  1.00  0.00    -0.352 N 
ATOM      4  C   UNL     1      -2.814  -3.478   6.369  1.00  0.00     0.254 C 
ATOM      5  O   UNL     1      -2.469  -4.450   7.042  1.00  0.00    -0.269 OA
ATOM      6  H   UNL     1      -4.672  -3.577   7.087  1.00  0.00     0.163 HD
BRANCH   4   7
ATOM      7  C   UNL     1      -1.824  -2.871   5.447  1.00  0.00     0.078 A 
ATOM      8  C   UNL     1       0.107  -1.903   3.605  1.00  0.00     0.074 A 
ATOM      9  C   UNL     1       0.063  -3.256   3.947  1.00  0.00     0.030 A 
ATOM     10  C   UNL     1      -0.789  -1.042   4.258  1.00  0.00     0.182 A 
ATOM     11  C   UNL     1      -0.891  -3.737   4.853  1.00  0.00     0.019 A 
ATOM     12  C   UNL     1      -1.721  -1.510   5.184  1.00  0.00     0.173 A 
ATOM     13  F   UNL     1      -0.757   0.271   3.970  1.00  0.00    -0.201 F 
ATOM     14  F   UNL     1      -2.487  -0.613   5.822  1.00  0.00    -0.203 F 
BRANCH   8  15
ATOM     15  N   UNL     1       0.993  -1.399   2.657  1.00  0.00    -0.376 N 
ATOM     16  H   UNL     1       1.456  -0.548   2.833  1.00  0.00     0.160 HD
BRANCH  15  17
ATOM     17  C   UNL     1       1.248  -2.110   1.401  1.00  0.00     0.183 C 
BRANCH  17  18
ATOM     18  C   UNL     1       0.587  -1.398   0.172  1.00  0.00     0.231 C 
BRANCH  18  19
ATOM     19  N   UNL     1       1.155  -0.048  -0.025  1.00  0.00    -0.350 N 
ATOM     20  H   UNL     1       2.173  -0.109  -0.061  1.00  0.00     0.345 HD
ATOM     21  H   UNL     1       0.878   0.554   0.750  1.00  0.00     0.345 HD
ATOM     22  H   UNL     1       0.807   0.343  -0.900  1.00  0.00     0.345 HD
ENDBRANCH  18  19
BRANCH  18  23
ATOM     23  C   UNL     1      -0.939  -1.408   0.239  1.00  0.00     0.011 A 
ATOM     24  C   UNL     1      -1.710  -0.234   0.279  1.00  0.00     0.010 A 
ATOM     25  C   UNL     1      -1.622  -2.639   0.260  1.00  0.00     0.010 A 
ATOM     26  C   UNL     1      -3.104  -0.287   0.368  1.00  0.00     0.001 A 
ATOM     27  C   UNL     1      -3.015  -2.692   0.351  1.00  0.00     0.001 A 
ATOM     28  C   UNL     1      -3.756  -1.515   0.410  1.00  0.00     0.000 A 
ENDBRANCH  18  23
ENDBRANCH  17  18
ENDBRANCH  15  17
ENDBRANCH   8  15
ENDBRANCH   4   7
ENDBRANCH   2   3
ENDBRANCH   1   2
BRANCH   1  29
ATOM     29  C   UNL     1      -7.225  -2.629   6.514  1.00  0.00     0.002 C 
BRANCH  29  30
ATOM     30  C   UNL     1      -7.367  -1.560   7.601  1.00  0.00     0.002 C 
BRANCH  30  31
ATOM     31  C   UNL     1      -7.634  -0.133   7.116  1.00  0.00     0.021 C 
BRANCH  31  32
ATOM     32  C   UNL     1      -8.825   0.036   6.179  1.00  0.00     0.116 C 
BRANCH  32  33
ATOM     33  N   UNL     1     -10.085  -0.348   6.792  1.00  0.00    -0.352 N 
ATOM     34  C   UNL     1     -11.250   0.367   6.926  1.00  0.00     0.251 C 
ATOM     35  H   UNL     1     -10.106  -1.258   7.167  1.00  0.00     0.163 HD
ATOM     36  O   UNL     1     -12.164  -0.070   7.616  1.00  0.00    -0.269 OA
BRANCH  34  37
ATOM     37  C   UNL     1     -11.399   1.680   6.259  1.00  0.00     0.039 A 
ATOM     38  C   UNL     1     -11.957   2.740   6.980  1.00  0.00     0.014 A 
ATOM     39  C   UNL     1     -11.008   1.867   4.931  1.00  0.00     0.014 A 
ATOM     40  C   UNL     1     -12.060   4.002   6.391  1.00  0.00     0.010 A 
ATOM     41  C   UNL     1     -11.043   3.141   4.370  1.00  0.00     0.010 A 
ATOM     42  C   UNL     1     -11.567   4.222   5.094  1.00  0.00    -0.014 A 
BRANCH  42  43
ATOM     43  C   UNL     1     -11.578   5.577   4.486  1.00  0.00     0.031 A 
ATOM     44  C   UNL     1     -12.399   5.853   3.259  1.00  0.00     0.074 A 
ATOM     45  C   UNL     1     -10.803   6.545   5.011  1.00  0.00     0.049 A 
ATOM     46  N   UNL     1     -12.483   6.950   2.549  1.00  0.00    -0.248 NA
ATOM     47  C   UNL     1     -13.219   4.744   2.747  1.00  0.00     0.031 C 
ATOM     48  C   UNL     1      -9.940   6.391   6.182  1.00  0.00     0.029 A 
ATOM     49  N   UNL     1     -10.610   7.849   4.626  1.00  0.00    -0.354 N 
ATOM     50  C   UNL     1     -13.358   6.663   1.511  1.00  0.00     0.074 A 
ATOM     51  C   UNL     1     -13.732   5.272   1.645  1.00  0.00     0.031 C 
ATOM     52  C   UNL     1      -9.336   7.560   6.441  1.00  0.00     0.029 A 
ATOM     53  C   UNL     1      -9.730   8.535   5.428  1.00  0.00     0.049 A 
ATOM     54  H   UNL     1     -11.059   8.254   3.849  1.00  0.00     0.167 HD
ATOM     55  C   UNL     1     -13.827   7.492   0.548  1.00  0.00     0.037 A 
ATOM     56  C   UNL     1      -9.286   9.805   5.353  1.00  0.00     0.037 A 
ATOM     57  C   UNL     1     -13.460   8.880   0.428  1.00  0.00     0.049 A 
ATOM     58  C   UNL     1      -9.789  10.696   4.251  1.00  0.00     0.074 A 
ATOM     59  C   UNL     1     -13.908   9.811  -0.492  1.00  0.00     0.029 A 
ATOM     60  N   UNL     1     -12.554   9.534   1.250  1.00  0.00    -0.354 N 
ATOM     61  N   UNL     1     -10.650  10.426   3.300  1.00  0.00    -0.248 NA
ATOM     62  C   UNL     1      -9.261  12.067   4.211  1.00  0.00     0.031 C 
ATOM     63  C   UNL     1     -13.232  11.013  -0.262  1.00  0.00     0.029 A 
ATOM     64  C   UNL     1     -12.411  10.851   0.842  1.00  0.00     0.049 A 
ATOM     65  H   UNL     1     -12.083   9.124   2.011  1.00  0.00     0.167 HD
ATOM     66  C   UNL     1     -10.788  11.596   2.566  1.00  0.00     0.074 A 
ATOM     67  C   UNL     1      -9.931  12.583   3.189  1.00  0.00     0.031 C 
ATOM     68  C   UNL     1     -11.558  11.828   1.474  1.00  0.00     0.037 A 
BRANCH  55  69
ATOM     69  C   UNL     1     -14.800   6.929  -0.448  1.00  0.00     0.064 A 
ATOM     70  C   UNL     1     -14.450   6.811  -1.802  1.00  0.00     0.173 A 
ATOM     71  C   UNL     1     -16.104   6.566  -0.076  1.00  0.00     0.173 A 
ATOM     72  F   UNL     1     -13.219   7.150  -2.215  1.00  0.00    -0.203 F 
ATOM     73  C   UNL     1     -15.370   6.361  -2.745  1.00  0.00     0.198 A 
ATOM     74  C   UNL     1     -17.011   6.085  -1.017  1.00  0.00     0.198 A 
ATOM     75  F   UNL     1     -16.489   6.651   1.206  1.00  0.00    -0.203 F 
ATOM     76  F   UNL     1     -15.022   6.289  -4.038  1.00  0.00    -0.200 F 
ATOM     77  C   UNL     1     -16.648   5.993  -2.351  1.00  0.00     0.200 A 
ATOM     78  F   UNL     1     -18.236   5.704  -0.629  1.00  0.00    -0.200 F 
ATOM     79  F   UNL     1     -17.527   5.546  -3.258  1.00  0.00    -0.200 F 
ENDBRANCH  55  69
BRANCH  56  80
ATOM     80  C   UNL     1      -8.343  10.310   6.385  1.00  0.00     0.064 A 
ATOM     81  C   UNL     1      -7.026   9.834   6.473  1.00  0.00     0.173 A 
ATOM     82  C   UNL     1      -8.762  11.247   7.339  1.00  0.00     0.173 A 
ATOM     83  F   UNL     1      -6.577   8.932   5.587  1.00  0.00    -0.203 F 
ATOM     84  C   UNL     1      -6.175  10.254   7.493  1.00  0.00     0.198 A 
ATOM     85  C   UNL     1      -7.900  11.689   8.342  1.00  0.00     0.198 A 
ATOM     86  F   UNL     1     -10.005  11.748   7.285  1.00  0.00    -0.203 F 
ATOM     87  F   UNL     1      -4.937   9.749   7.580  1.00  0.00    -0.200 F 
ATOM     88  C   UNL     1      -6.612  11.183   8.425  1.00  0.00     0.200 A 
ATOM     89  F   UNL     1      -8.319  12.604   9.226  1.00  0.00    -0.200 F 
ATOM     90  F   UNL     1      -5.791  11.591   9.403  1.00  0.00    -0.200 F 
ENDBRANCH  56  80
BRANCH  68  91
ATOM     91  C   UNL     1     -11.537  13.208   0.882  1.00  0.00     0.064 A 
ATOM     92  C   UNL     1     -12.678  14.024   0.946  1.00  0.00     0.173 A 
ATOM     93  C   UNL     1     -10.425  13.690   0.177  1.00  0.00     0.173 A 
ATOM     94  F   UNL     1     -13.772  13.608   1.601  1.00  0.00    -0.203 F 
ATOM     95  C   UNL     1     -12.712  15.260   0.306  1.00  0.00     0.198 A 
ATOM     96  C   UNL     1     -10.451  14.941  -0.433  1.00  0.00     0.198 A 
ATOM     97  F   UNL     1      -9.306  12.954   0.098  1.00  0.00    -0.203 F 
ATOM     98  F   UNL     1     -13.829  16.001   0.344  1.00  0.00    -0.200 F 
ATOM     99  C   UNL     1     -11.598  15.719  -0.379  1.00  0.00     0.200 A 
ATOM    100  F   UNL     1      -9.366  15.395  -1.075  1.00  0.00    -0.200 F 
ATOM    101  F   UNL     1     -11.630  16.913  -0.988  1.00  0.00    -0.200 F 
ENDBRANCH  68  91
ENDBRANCH  42  43
ENDBRANCH  34  37
ENDBRANCH  32  33
ENDBRANCH  31  32
ENDBRANCH  30  31
ENDBRANCH  29  30
ENDBRANCH   1  29
TORSDOF 18
