REMARK SMILES Cc1cc2n(n1)[C@H](C(F)(F)F)CCN2C(=O)c1cnn([C@@H](C)C(=O)NCCCCCCNC(=O)c2ccc(-c3c4nc(c(-c5c(F)c(F)c(F)c(F)c5F)c5ccc([nH]5)c(-c5c(F)c(F)c(F)c(F)c5F)c5nc(c(-c6c(F)c(F)c(F)c(F)c6F)c6ccc3[nH]6)C=C5)C=C4)cc2)c1
REMARK SMILES IDX 27 1 26 2 25 3 23 4 24 5 21 7 22 8 20 9 17 10 18 11 98 12
REMARK SMILES IDX 19 13 15 14 16 15 14 16 1 17 2 18 3 19 6 20 4 21 5 22 7 23
REMARK SMILES IDX 13 24 12 25 8 26 9 27 10 28 11 29 28 30 29 31 30 32 31 33
REMARK SMILES IDX 32 34 33 35 34 37 35 38 36 39 97 40 37 41 96 42 38 43 39 44
REMARK SMILES IDX 40 45 90 46 41 47 95 48 89 49 91 50 42 51 94 52 88 53 87 54
REMARK SMILES IDX 43 56 75 57 55 58 74 59 56 60 59 61 73 62 92 63 57 64 58 65
REMARK SMILES IDX 72 67 93 68 60 69 44 70 45 71 53 72 46 73 47 74 51 75 54 76
REMARK SMILES IDX 48 77 49 78 52 79 50 80 76 81 77 82 85 83 78 84 79 85 83 86
REMARK SMILES IDX 86 87 80 88 81 89 84 90 82 91 61 92 62 93 70 94 63 95 64 96
REMARK SMILES IDX 68 97 71 98 65 99 66 100 69 101 67 102
REMARK H PARENT 25 6 32 36 91 55 59 66
REMARK Flexibility Score: inf
ROOT
ATOM      1  C   UNL     1      -7.451   7.605  -2.667  1.00  0.00     0.021 C 
ENDROOT
BRANCH   1   2
ATOM      2  C   UNL     1      -7.827   8.101  -1.268  1.00  0.00     0.116 C 
BRANCH   2   3
ATOM      3  N   UNL     1      -8.654   7.144  -0.557  1.00  0.00    -0.354 N 
ATOM      4  C   UNL     1      -8.376   6.345   0.509  1.00  0.00     0.244 C 
ATOM      5  O   UNL     1      -9.244   5.523   0.828  1.00  0.00    -0.273 OA
ATOM      6  H   UNL     1      -9.571   7.058  -0.905  1.00  0.00     0.163 HD
BRANCH   4   7
ATOM      7  C   UNL     1      -7.095   6.439   1.333  1.00  0.00     0.193 C 
ATOM      8  C   UNL     1      -6.851   7.800   1.978  1.00  0.00     0.044 C 
BRANCH   7   9
ATOM      9  N   UNL     1      -5.937   5.882   0.641  1.00  0.00    -0.260 N 
ATOM     10  C   UNL     1      -4.202   4.631   0.085  1.00  0.00     0.078 A 
ATOM     11  C   UNL     1      -4.468   5.636  -0.862  1.00  0.00     0.149 A 
ATOM     12  C   UNL     1      -5.208   4.785   1.023  1.00  0.00     0.123 A 
ATOM     13  N   UNL     1      -5.417   6.473  -0.453  1.00  0.00    -0.180 NA
BRANCH  10  14
ATOM     14  C   UNL     1      -3.201   3.604   0.063  1.00  0.00     0.262 C 
ATOM     15  O   UNL     1      -3.461   2.407   0.177  1.00  0.00    -0.269 OA
BRANCH  14  16
ATOM     16  N   UNL     1      -1.831   4.097  -0.032  1.00  0.00    -0.293 N 
ATOM     17  C   UNL     1       1.182   0.083  -0.209  1.00  0.00     0.069 C 
ATOM     18  C   UNL     1       0.611   1.452  -0.227  1.00  0.00     0.062 A 
ATOM     19  C   UNL     1      -0.760   1.812  -0.216  1.00  0.00     0.072 A 
ATOM     20  N   UNL     1       1.403   2.531  -0.237  1.00  0.00    -0.176 NA
ATOM     21  C   UNL     1      -0.773   3.185  -0.127  1.00  0.00     0.134 A 
ATOM     22  N   UNL     1       0.546   3.551  -0.123  1.00  0.00    -0.237 N 
ATOM     23  C   UNL     1       1.015   4.915  -0.013  1.00  0.00     0.216 C 
ATOM     24  C   UNL     1      -1.476   5.519   0.233  1.00  0.00     0.130 C 
ATOM     25  C   UNL     1      -0.117   5.889  -0.370  1.00  0.00     0.059 C 
BRANCH  23  26
ATOM     26  C   UNL     1       1.568   5.163   1.373  1.00  0.00     0.410 C 
ATOM     27  F   UNL     1       1.946   6.461   1.489  1.00  0.00    -0.169 F 
ATOM     28  F   UNL     1       0.631   4.945   2.324  1.00  0.00    -0.169 F 
ATOM     29  F   UNL     1       2.648   4.413   1.657  1.00  0.00    -0.169 F 
ENDBRANCH  23  26
ENDBRANCH  14  16
ENDBRANCH  10  14
ENDBRANCH   7   9
ENDBRANCH   4   7
ENDBRANCH   2   3
ENDBRANCH   1   2
BRANCH   1  30
ATOM     30  C   UNL     1      -8.580   7.683  -3.698  1.00  0.00     0.002 C 
BRANCH  30  31
ATOM     31  C   UNL     1      -9.279   9.043  -3.832  1.00  0.00     0.002 C 
BRANCH  31  32
ATOM     32  C   UNL     1      -8.376  10.271  -4.026  1.00  0.00     0.021 C 
BRANCH  32  33
ATOM     33  C   UNL     1      -7.657  10.311  -5.365  1.00  0.00     0.116 C 
BRANCH  33  34
ATOM     34  N   UNL     1      -8.577  10.425  -6.498  1.00  0.00    -0.352 N 
ATOM     35  C   UNL     1      -8.304  10.304  -7.846  1.00  0.00     0.251 C 
ATOM     36  H   UNL     1      -9.515  10.614  -6.268  1.00  0.00     0.163 HD
ATOM     37  O   UNL     1      -9.075  10.735  -8.695  1.00  0.00    -0.269 OA
BRANCH  35  38
ATOM     38  C   UNL     1      -7.054   9.640  -8.248  1.00  0.00     0.039 A 
ATOM     39  C   UNL     1      -6.239  10.144  -9.266  1.00  0.00     0.014 A 
ATOM     40  C   UNL     1      -6.683   8.509  -7.534  1.00  0.00     0.014 A 
ATOM     41  C   UNL     1      -5.006   9.538  -9.508  1.00  0.00     0.010 A 
ATOM     42  C   UNL     1      -5.399   8.047  -7.635  1.00  0.00     0.010 A 
ATOM     43  C   UNL     1      -4.588   8.491  -8.679  1.00  0.00    -0.014 A 
BRANCH  43  44
ATOM     44  C   UNL     1      -3.317   7.797  -8.878  1.00  0.00     0.031 A 
ATOM     45  C   UNL     1      -2.053   8.581  -8.732  1.00  0.00     0.074 A 
ATOM     46  C   UNL     1      -3.288   6.446  -8.895  1.00  0.00     0.049 A 
ATOM     47  N   UNL     1      -1.035   8.624  -9.533  1.00  0.00    -0.248 NA
ATOM     48  C   UNL     1      -1.899   9.430  -7.540  1.00  0.00     0.031 C 
ATOM     49  C   UNL     1      -4.404   5.503  -8.710  1.00  0.00     0.029 A 
ATOM     50  N   UNL     1      -2.209   5.622  -8.932  1.00  0.00    -0.354 N 
ATOM     51  C   UNL     1      -0.064   9.408  -8.908  1.00  0.00     0.074 A 
ATOM     52  C   UNL     1      -0.679   9.942  -7.720  1.00  0.00     0.031 C 
ATOM     53  C   UNL     1      -3.920   4.284  -8.396  1.00  0.00     0.029 A 
ATOM     54  C   UNL     1      -2.481   4.316  -8.562  1.00  0.00     0.049 A 
ATOM     55  H   UNL     1      -1.312   5.927  -9.199  1.00  0.00     0.167 HD
ATOM     56  C   UNL     1       1.230   9.452  -9.339  1.00  0.00     0.037 A 
ATOM     57  C   UNL     1      -1.585   3.325  -8.372  1.00  0.00     0.037 A 
ATOM     58  C   UNL     1       1.360   8.944 -10.676  1.00  0.00     0.049 A 
ATOM     59  C   UNL     1      -0.336   3.716  -9.067  1.00  0.00     0.074 A 
ATOM     60  C   UNL     1       0.888   9.340 -11.912  1.00  0.00     0.029 A 
ATOM     61  N   UNL     1       1.807   7.659 -10.853  1.00  0.00    -0.354 N 
ATOM     62  N   UNL     1      -0.232   3.837 -10.362  1.00  0.00    -0.248 NA
ATOM     63  C   UNL     1       0.683   4.406  -8.293  1.00  0.00     0.031 C 
ATOM     64  C   UNL     1       0.606   8.126 -12.604  1.00  0.00     0.029 A 
ATOM     65  C   UNL     1       0.963   7.072 -11.761  1.00  0.00     0.049 A 
ATOM     66  H   UNL     1       2.583   7.240 -10.415  1.00  0.00     0.167 HD
ATOM     67  C   UNL     1       0.603   4.927 -10.555  1.00  0.00     0.074 A 
ATOM     68  C   UNL     1       1.214   5.170  -9.251  1.00  0.00     0.031 C 
ATOM     69  C   UNL     1       0.513   5.702 -11.676  1.00  0.00     0.037 A 
BRANCH  56  70
ATOM     70  C   UNL     1       2.435   9.731  -8.476  1.00  0.00     0.064 A 
ATOM     71  C   UNL     1       3.686   9.994  -9.073  1.00  0.00     0.173 A 
ATOM     72  C   UNL     1       2.465   9.477  -7.089  1.00  0.00     0.173 A 
ATOM     73  F   UNL     1       3.781  10.222 -10.392  1.00  0.00    -0.203 F 
ATOM     74  C   UNL     1       4.880   9.950  -8.345  1.00  0.00     0.198 A 
ATOM     75  C   UNL     1       3.652   9.486  -6.356  1.00  0.00     0.198 A 
ATOM     76  F   UNL     1       1.368   9.106  -6.417  1.00  0.00    -0.203 F 
ATOM     77  F   UNL     1       6.053  10.095  -8.976  1.00  0.00    -0.200 F 
ATOM     78  C   UNL     1       4.862   9.694  -6.987  1.00  0.00     0.200 A 
ATOM     79  F   UNL     1       3.616   9.214  -5.043  1.00  0.00    -0.200 F 
ATOM     80  F   UNL     1       6.005   9.598  -6.295  1.00  0.00    -0.200 F 
ENDBRANCH  56  70
BRANCH  57  81
ATOM     81  C   UNL     1      -1.681   2.233  -7.384  1.00  0.00     0.064 A 
ATOM     82  C   UNL     1      -1.014   1.016  -7.566  1.00  0.00     0.173 A 
ATOM     83  C   UNL     1      -2.256   2.459  -6.116  1.00  0.00     0.173 A 
ATOM     84  F   UNL     1      -0.399   0.755  -8.728  1.00  0.00    -0.203 F 
ATOM     85  C   UNL     1      -0.923   0.076  -6.534  1.00  0.00     0.198 A 
ATOM     86  C   UNL     1      -2.167   1.521  -5.089  1.00  0.00     0.198 A 
ATOM     87  F   UNL     1      -2.833   3.635  -5.822  1.00  0.00    -0.203 F 
ATOM     88  F   UNL     1      -0.234  -1.058  -6.722  1.00  0.00    -0.200 F 
ATOM     89  C   UNL     1      -1.493   0.332  -5.295  1.00  0.00     0.200 A 
ATOM     90  F   UNL     1      -2.679   1.807  -3.882  1.00  0.00    -0.200 F 
ATOM     91  F   UNL     1      -1.354  -0.541  -4.288  1.00  0.00    -0.200 F 
ENDBRANCH  57  81
BRANCH  69  92
ATOM     92  C   UNL     1      -0.356   5.214 -12.803  1.00  0.00     0.064 A 
ATOM     93  C   UNL     1      -1.753   5.086 -12.704  1.00  0.00     0.173 A 
ATOM     94  C   UNL     1       0.212   5.044 -14.071  1.00  0.00     0.173 A 
ATOM     95  F   UNL     1      -2.386   5.341 -11.556  1.00  0.00    -0.203 F 
ATOM     96  C   UNL     1      -2.537   4.763 -13.809  1.00  0.00     0.198 A 
ATOM     97  C   UNL     1      -0.577   4.756 -15.184  1.00  0.00     0.198 A 
ATOM     98  F   UNL     1       1.531   5.219 -14.244  1.00  0.00    -0.203 F 
ATOM     99  F   UNL     1      -3.866   4.645 -13.679  1.00  0.00    -0.200 F 
ATOM    100  C   UNL     1      -1.948   4.606 -15.052  1.00  0.00     0.200 A 
ATOM    101  F   UNL     1      -0.009   4.659 -16.394  1.00  0.00    -0.200 F 
ATOM    102  F   UNL     1      -2.705   4.344 -16.126  1.00  0.00    -0.200 F 
ENDBRANCH  69  92
ENDBRANCH  43  44
ENDBRANCH  35  38
ENDBRANCH  33  34
ENDBRANCH  32  33
ENDBRANCH  31  32
ENDBRANCH  30  31
ENDBRANCH   1  30
TORSDOF 17
