REMARK SMILES O=C(CCCN1C(=O)/C(=C\c2ccc(O)c(O)c2)SC1=S)NCCCCCCNC(=O)c1ccc(-c2c3nc(c(-c4c(F)c(F)c(F)c(F)c4F)c4ccc([nH]4)c(-c4c(F)c(F)c(F)c(F)c4F)c4nc(c(-c5c(F)c(F)c(F)c(F)c5F)c5ccc2[nH]5)C=C4)C=C3)cc1
REMARK SMILES IDX 24 1 23 2 22 3 1 4 2 5 3 7 4 8 5 9 6 10 7 11 20 12 8 13 9 14
REMARK SMILES IDX 19 15 21 16 10 17 11 18 12 19 18 20 13 21 16 22 14 23 17 24
REMARK SMILES IDX 15 26 25 28 26 29 27 30 28 31 29 32 30 33 31 35 32 36 33 37
REMARK SMILES IDX 94 38 34 39 93 40 35 41 36 42 37 43 87 44 38 45 92 46 86 47
REMARK SMILES IDX 88 48 39 49 91 50 85 51 84 52 40 54 72 55 52 56 71 57 53 58
REMARK SMILES IDX 56 59 70 60 89 61 54 62 55 63 69 65 90 66 57 67 41 68 42 69
REMARK SMILES IDX 50 70 43 71 44 72 48 73 51 74 45 75 46 76 49 77 47 78 73 79
REMARK SMILES IDX 74 80 82 81 75 82 76 83 80 84 83 85 77 86 78 87 81 88 79 89
REMARK SMILES IDX 58 90 59 91 67 92 60 93 61 94 65 95 68 96 62 97 63 98 66 99
REMARK SMILES IDX 64 100
REMARK H PARENT 22 6 17 25 15 27 29 34 88 53 56 64
REMARK Flexibility Score: inf
ROOT
ATOM      1  C   UNL     1       2.409  -1.363   3.304  1.00  0.00     0.021 C 
ENDROOT
BRANCH   1   2
ATOM      2  C   UNL     1       1.780  -0.259   2.450  1.00  0.00     0.116 C 
BRANCH   2   3
ATOM      3  N   UNL     1       2.216  -0.348   1.073  1.00  0.00    -0.356 N 
ATOM      4  O   UNL     1       0.788   1.216   0.203  1.00  0.00    -0.275 OA
ATOM      5  C   UNL     1       1.721   0.434   0.061  1.00  0.00     0.220 C 
ATOM      6  H   UNL     1       2.909  -1.011   0.850  1.00  0.00     0.163 HD
BRANCH   5   7
ATOM      7  C   UNL     1       2.463   0.273  -1.259  1.00  0.00     0.102 C 
BRANCH   7   8
ATOM      8  C   UNL     1       3.811   1.003  -1.297  1.00  0.00     0.032 C 
BRANCH   8   9
ATOM      9  C   UNL     1       4.872   0.638  -0.245  1.00  0.00     0.128 C 
BRANCH   9  10
ATOM     10  N   UNL     1       5.814  -0.451  -0.573  1.00  0.00    -0.293 N 
ATOM     11  C   UNL     1       7.130  -0.083  -0.842  1.00  0.00     0.266 C 
ATOM     12  C   UNL     1       5.585  -1.810  -0.485  1.00  0.00     0.148 C 
ATOM     13  O   UNL     1       7.521   1.064  -1.002  1.00  0.00    -0.268 OA
ATOM     14  C   UNL     1       8.019  -1.282  -0.852  1.00  0.00     0.081 C 
ATOM     15  S   UNL     1       7.071  -2.707  -0.745  1.00  0.00    -0.054 SA
ATOM     16  S   UNL     1       4.189  -2.649  -0.145  1.00  0.00    -0.052 S 
ATOM     17  C   UNL     1       9.357  -1.330  -0.894  1.00  0.00     0.029 C 
BRANCH  17  18
ATOM     18  C   UNL     1      10.234  -0.168  -0.993  1.00  0.00    -0.020 A 
ATOM     19  C   UNL     1      10.377   0.736   0.072  1.00  0.00     0.012 A 
ATOM     20  C   UNL     1      10.922   0.046  -2.190  1.00  0.00     0.058 A 
ATOM     21  C   UNL     1      11.168   1.878  -0.074  1.00  0.00     0.051 A 
ATOM     22  C   UNL     1      11.707   1.180  -2.323  1.00  0.00     0.157 A 
ATOM     23  C   UNL     1      11.822   2.096  -1.280  1.00  0.00     0.157 A 
BRANCH  22  24
ATOM     24  O   UNL     1      12.358   1.399  -3.503  1.00  0.00    -0.504 OA
ATOM     25  H   UNL     1      12.893   2.162  -3.608  1.00  0.00     0.293 HD
ENDBRANCH  22  24
BRANCH  23  26
ATOM     26  O   UNL     1      12.588   3.208  -1.496  1.00  0.00    -0.504 OA
ATOM     27  H   UNL     1      12.688   3.847  -0.817  1.00  0.00     0.293 HD
ENDBRANCH  23  26
ENDBRANCH  17  18
ENDBRANCH   9  10
ENDBRANCH   8   9
ENDBRANCH   7   8
ENDBRANCH   5   7
ENDBRANCH   2   3
ENDBRANCH   1   2
BRANCH   1  28
ATOM     28  C   UNL     1       3.930  -1.253   3.500  1.00  0.00     0.002 C 
BRANCH  28  29
ATOM     29  C   UNL     1       4.416  -0.062   4.329  1.00  0.00     0.002 C 
BRANCH  29  30
ATOM     30  C   UNL     1       3.821   0.041   5.731  1.00  0.00     0.021 C 
BRANCH  30  31
ATOM     31  C   UNL     1       3.999  -1.200   6.601  1.00  0.00     0.116 C 
BRANCH  31  32
ATOM     32  N   UNL     1       5.390  -1.455   6.943  1.00  0.00    -0.352 N 
ATOM     33  C   UNL     1       5.957  -1.658   8.178  1.00  0.00     0.251 C 
ATOM     34  H   UNL     1       6.013  -1.488   6.181  1.00  0.00     0.163 HD
ATOM     35  O   UNL     1       7.178  -1.706   8.300  1.00  0.00    -0.269 OA
BRANCH  33  36
ATOM     36  C   UNL     1       5.093  -1.787   9.372  1.00  0.00     0.039 A 
ATOM     37  C   UNL     1       5.423  -1.072  10.526  1.00  0.00     0.014 A 
ATOM     38  C   UNL     1       3.954  -2.596   9.350  1.00  0.00     0.014 A 
ATOM     39  C   UNL     1       4.571  -1.112  11.633  1.00  0.00     0.010 A 
ATOM     40  C   UNL     1       3.067  -2.573  10.423  1.00  0.00     0.010 A 
ATOM     41  C   UNL     1       3.365  -1.830  11.576  1.00  0.00    -0.014 A 
BRANCH  41  42
ATOM     42  C   UNL     1       2.401  -1.810  12.707  1.00  0.00     0.031 A 
ATOM     43  C   UNL     1       2.072  -3.079  13.444  1.00  0.00     0.074 A 
ATOM     44  C   UNL     1       1.773  -0.663  13.029  1.00  0.00     0.049 A 
ATOM     45  N   UNL     1       1.210  -3.277  14.410  1.00  0.00    -0.248 NA
ATOM     46  C   UNL     1       2.786  -4.293  13.020  1.00  0.00     0.031 C 
ATOM     47  C   UNL     1       1.969   0.625  12.361  1.00  0.00     0.029 A 
ATOM     48  N   UNL     1       0.831  -0.396  13.993  1.00  0.00    -0.354 N 
ATOM     49  C   UNL     1       1.271  -4.634  14.699  1.00  0.00     0.074 A 
ATOM     50  C   UNL     1       2.210  -5.222  13.769  1.00  0.00     0.031 C 
ATOM     51  C   UNL     1       1.192   1.549  12.950  1.00  0.00     0.029 A 
ATOM     52  C   UNL     1       0.413   0.913  14.007  1.00  0.00     0.049 A 
ATOM     53  H   UNL     1       0.489  -1.078  14.615  1.00  0.00     0.167 HD
ATOM     54  C   UNL     1       0.622  -5.323  15.668  1.00  0.00     0.037 A 
ATOM     55  C   UNL     1      -0.503   1.528  14.780  1.00  0.00     0.037 A 
ATOM     56  C   UNL     1      -0.298  -4.731  16.604  1.00  0.00     0.049 A 
ATOM     57  C   UNL     1      -1.225   0.735  15.836  1.00  0.00     0.074 A 
ATOM     58  C   UNL     1      -0.962  -5.333  17.659  1.00  0.00     0.029 A 
ATOM     59  N   UNL     1      -0.690  -3.400  16.594  1.00  0.00    -0.354 N 
ATOM     60  N   UNL     1      -1.104  -0.532  16.149  1.00  0.00    -0.248 NA
ATOM     61  C   UNL     1      -2.208   1.462  16.652  1.00  0.00     0.031 C 
ATOM     62  C   UNL     1      -1.796  -4.380  18.253  1.00  0.00     0.029 A 
ATOM     63  C   UNL     1      -1.607  -3.168  17.607  1.00  0.00     0.049 A 
ATOM     64  H   UNL     1      -0.364  -2.720  15.960  1.00  0.00     0.167 HD
ATOM     65  C   UNL     1      -1.968  -0.747  17.215  1.00  0.00     0.074 A 
ATOM     66  C   UNL     1      -2.596   0.525  17.505  1.00  0.00     0.031 C 
ATOM     67  C   UNL     1      -2.218  -1.895  17.892  1.00  0.00     0.037 A 
BRANCH  54  68
ATOM     68  C   UNL     1       0.883  -6.799  15.765  1.00  0.00     0.064 A 
ATOM     69  C   UNL     1       2.126  -7.302  16.181  1.00  0.00     0.173 A 
ATOM     70  C   UNL     1      -0.131  -7.724  15.471  1.00  0.00     0.173 A 
ATOM     71  F   UNL     1       3.134  -6.462  16.464  1.00  0.00    -0.203 F 
ATOM     72  C   UNL     1       2.354  -8.673  16.266  1.00  0.00     0.198 A 
ATOM     73  C   UNL     1       0.090  -9.094  15.591  1.00  0.00     0.198 A 
ATOM     74  F   UNL     1      -1.340  -7.299  15.076  1.00  0.00    -0.203 F 
ATOM     75  F   UNL     1       3.566  -9.129  16.612  1.00  0.00    -0.200 F 
ATOM     76  C   UNL     1       1.334  -9.567  15.979  1.00  0.00     0.200 A 
ATOM     77  F   UNL     1      -0.901  -9.956  15.327  1.00  0.00    -0.200 F 
ATOM     78  F   UNL     1       1.553 -10.886  16.068  1.00  0.00    -0.200 F 
ENDBRANCH  54  68
BRANCH  55  79
ATOM     79  C   UNL     1      -0.776   2.979  14.599  1.00  0.00     0.064 A 
ATOM     80  C   UNL     1      -0.413   3.907  15.586  1.00  0.00     0.173 A 
ATOM     81  C   UNL     1      -1.412   3.467  13.448  1.00  0.00     0.173 A 
ATOM     82  F   UNL     1       0.178   3.487  16.714  1.00  0.00    -0.203 F 
ATOM     83  C   UNL     1      -0.697   5.263  15.439  1.00  0.00     0.198 A 
ATOM     84  C   UNL     1      -1.667   4.827  13.289  1.00  0.00     0.198 A 
ATOM     85  F   UNL     1      -1.775   2.622  12.472  1.00  0.00    -0.203 F 
ATOM     86  F   UNL     1      -0.385   6.120  16.420  1.00  0.00    -0.200 F 
ATOM     87  C   UNL     1      -1.319   5.723  14.288  1.00  0.00     0.200 A 
ATOM     88  F   UNL     1      -2.254   5.269  12.168  1.00  0.00    -0.200 F 
ATOM     89  F   UNL     1      -1.589   7.028  14.146  1.00  0.00    -0.200 F 
ENDBRANCH  55  79
BRANCH  67  90
ATOM     90  C   UNL     1      -3.182  -1.822  19.042  1.00  0.00     0.064 A 
ATOM     91  C   UNL     1      -4.557  -1.634  18.843  1.00  0.00     0.173 A 
ATOM     92  C   UNL     1      -2.725  -1.981  20.359  1.00  0.00     0.173 A 
ATOM     93  F   UNL     1      -5.043  -1.462  17.604  1.00  0.00    -0.203 F 
ATOM     94  C   UNL     1      -5.436  -1.581  19.922  1.00  0.00     0.198 A 
ATOM     95  C   UNL     1      -3.610  -1.961  21.433  1.00  0.00     0.198 A 
ATOM     96  F   UNL     1      -1.419  -2.170  20.605  1.00  0.00    -0.203 F 
ATOM     97  F   UNL     1      -6.739  -1.348  19.712  1.00  0.00    -0.200 F 
ATOM     98  C   UNL     1      -4.963  -1.752  21.215  1.00  0.00     0.200 A 
ATOM     99  F   UNL     1      -3.153  -2.142  22.680  1.00  0.00    -0.200 F 
ATOM    100  F   UNL     1      -5.811  -1.709  22.251  1.00  0.00    -0.200 F 
ENDBRANCH  67  90
ENDBRANCH  41  42
ENDBRANCH  33  36
ENDBRANCH  31  32
ENDBRANCH  30  31
ENDBRANCH  29  30
ENDBRANCH  28  29
ENDBRANCH   1  28
TORSDOF 19
