REMARK SMILES O=C(NCCCCCCNC(=O)c1ccc(C[NH2+]CCOc2ccccc2)nc1)c1ccc(-c2c3nc(c(-c4c(F)c(F)c(F)c(F)c4F)c4ccc([nH]4)c(-c4c(F)c(F)c(F)c(F)c4F)c4nc(c(-c5c(F)c(F)c(F)c(F)c5F)c5ccc2[nH]5)C=C4)C=C3)cc1
REMARK SMILES IDX 8 1 7 2 6 3 5 4 4 5 3 6 1 7 2 8 30 10 31 11 92 12 32 13
REMARK SMILES IDX 91 14 33 15 34 16 35 17 85 18 36 19 90 20 84 21 86 22 37 23
REMARK SMILES IDX 89 24 83 25 82 26 38 28 70 29 50 30 69 31 51 32 54 33 68 34
REMARK SMILES IDX 87 35 52 36 53 37 67 39 88 40 55 41 39 42 40 43 48 44 41 45
REMARK SMILES IDX 42 46 46 47 49 48 43 49 44 50 47 51 45 52 71 53 72 54 80 55
REMARK SMILES IDX 73 56 74 57 78 58 81 59 75 60 76 61 79 62 77 63 56 64 57 65
REMARK SMILES IDX 65 66 58 67 59 68 63 69 66 70 60 71 61 72 64 73 62 74 9 75
REMARK SMILES IDX 10 76 11 77 12 79 13 80 14 81 29 82 15 83 28 84 16 85 17 86
REMARK SMILES IDX 18 87 19 90 20 91 21 92 22 93 23 94 27 95 24 96 26 97 25 98
REMARK H PARENT 3 9 86 27 54 38 10 78 18 88 18 89
REMARK Flexibility Score: inf
ROOT
ATOM      1  C   UNL     1       6.268  -4.454   0.249  1.00  0.00     0.021 C 
ENDROOT
BRANCH   1   2
ATOM      2  C   UNL     1       4.744  -4.475   0.398  1.00  0.00     0.002 C 
BRANCH   2   3
ATOM      3  C   UNL     1       4.179  -3.693   1.587  1.00  0.00     0.002 C 
BRANCH   3   4
ATOM      4  C   UNL     1       4.650  -2.244   1.712  1.00  0.00     0.021 C 
BRANCH   4   5
ATOM      5  C   UNL     1       4.417  -1.378   0.481  1.00  0.00     0.116 C 
BRANCH   5   6
ATOM      6  N   UNL     1       3.007  -1.181   0.194  1.00  0.00    -0.352 N 
ATOM      7  O   UNL     1       1.093  -0.019  -0.078  1.00  0.00    -0.269 OA
ATOM      8  C   UNL     1       2.313  -0.009   0.006  1.00  0.00     0.251 C 
ATOM      9  H   UNL     1       2.472  -2.004   0.124  1.00  0.00     0.163 HD
BRANCH   8  10
ATOM     10  C   UNL     1       3.046   1.275  -0.071  1.00  0.00     0.039 A 
ATOM     11  C   UNL     1       4.204   1.395  -0.843  1.00  0.00     0.014 A 
ATOM     12  C   UNL     1       2.551   2.380   0.628  1.00  0.00     0.014 A 
ATOM     13  C   UNL     1       4.935   2.578  -0.814  1.00  0.00     0.010 A 
ATOM     14  C   UNL     1       3.244   3.593   0.592  1.00  0.00     0.010 A 
ATOM     15  C   UNL     1       4.455   3.695  -0.110  1.00  0.00    -0.014 A 
BRANCH  15  16
ATOM     16  C   UNL     1       5.200   4.976  -0.181  1.00  0.00     0.031 A 
ATOM     17  C   UNL     1       5.853   5.569   1.034  1.00  0.00     0.074 A 
ATOM     18  C   UNL     1       5.298   5.597  -1.373  1.00  0.00     0.049 A 
ATOM     19  N   UNL     1       6.551   6.672   1.141  1.00  0.00    -0.248 NA
ATOM     20  C   UNL     1       5.698   4.834   2.299  1.00  0.00     0.031 C 
ATOM     21  C   UNL     1       4.691   5.123  -2.618  1.00  0.00     0.029 A 
ATOM     22  N   UNL     1       5.950   6.747  -1.738  1.00  0.00    -0.354 N 
ATOM     23  C   UNL     1       6.905   6.773   2.479  1.00  0.00     0.074 A 
ATOM     24  C   UNL     1       6.324   5.632   3.155  1.00  0.00     0.031 C 
ATOM     25  C   UNL     1       5.031   5.950  -3.616  1.00  0.00     0.029 A 
ATOM     26  C   UNL     1       5.830   7.043  -3.073  1.00  0.00     0.049 A 
ATOM     27  H   UNL     1       6.455   7.306  -1.103  1.00  0.00     0.167 HD
ATOM     28  C   UNL     1       7.653   7.728   3.084  1.00  0.00     0.037 A 
ATOM     29  C   UNL     1       6.296   8.088  -3.780  1.00  0.00     0.037 A 
ATOM     30  C   UNL     1       8.238   8.854   2.402  1.00  0.00     0.049 A 
ATOM     31  C   UNL     1       7.103   9.142  -3.078  1.00  0.00     0.074 A 
ATOM     32  C   UNL     1       9.046   9.853   2.919  1.00  0.00     0.029 A 
ATOM     33  N   UNL     1       8.072   9.136   1.053  1.00  0.00    -0.354 N 
ATOM     34  N   UNL     1       7.465   9.203  -1.820  1.00  0.00    -0.248 NA
ATOM     35  C   UNL     1       7.562  10.273  -3.894  1.00  0.00     0.031 C 
ATOM     36  C   UNL     1       9.331  10.762   1.895  1.00  0.00     0.029 A 
ATOM     37  C   UNL     1       8.742  10.306   0.727  1.00  0.00     0.049 A 
ATOM     38  H   UNL     1       7.555   8.587   0.421  1.00  0.00     0.167 HD
ATOM     39  C   UNL     1       8.205  10.369  -1.694  1.00  0.00     0.074 A 
ATOM     40  C   UNL     1       8.260  10.973  -3.011  1.00  0.00     0.031 C 
ATOM     41  C   UNL     1       8.783  10.895  -0.587  1.00  0.00     0.037 A 
BRANCH  28  42
ATOM     42  C   UNL     1       7.874   7.609   4.564  1.00  0.00     0.064 A 
ATOM     43  C   UNL     1       8.721   6.632   5.107  1.00  0.00     0.173 A 
ATOM     44  C   UNL     1       7.272   8.519   5.447  1.00  0.00     0.173 A 
ATOM     45  F   UNL     1       9.313   5.731   4.308  1.00  0.00    -0.203 F 
ATOM     46  C   UNL     1       8.941   6.557   6.481  1.00  0.00     0.198 A 
ATOM     47  C   UNL     1       7.515   8.457   6.817  1.00  0.00     0.198 A 
ATOM     48  F   UNL     1       6.458   9.477   4.980  1.00  0.00    -0.203 F 
ATOM     49  F   UNL     1       9.725   5.591   6.980  1.00  0.00    -0.200 F 
ATOM     50  C   UNL     1       8.344   7.473   7.334  1.00  0.00     0.200 A 
ATOM     51  F   UNL     1       6.947   9.351   7.639  1.00  0.00    -0.200 F 
ATOM     52  F   UNL     1       8.564   7.405   8.654  1.00  0.00    -0.200 F 
ENDBRANCH  28  42
BRANCH  29  53
ATOM     53  C   UNL     1       6.005   8.180  -5.233  1.00  0.00     0.064 A 
ATOM     54  C   UNL     1       7.020   8.017  -6.184  1.00  0.00     0.173 A 
ATOM     55  C   UNL     1       4.702   8.414  -5.699  1.00  0.00     0.173 A 
ATOM     56  F   UNL     1       8.284   7.810  -5.785  1.00  0.00    -0.203 F 
ATOM     57  C   UNL     1       6.746   8.095  -7.548  1.00  0.00     0.198 A 
ATOM     58  C   UNL     1       4.424   8.462  -7.063  1.00  0.00     0.198 A 
ATOM     59  F   UNL     1       3.695   8.571  -4.828  1.00  0.00    -0.203 F 
ATOM     60  F   UNL     1       7.741   7.972  -8.436  1.00  0.00    -0.200 F 
ATOM     61  C   UNL     1       5.447   8.310  -7.986  1.00  0.00     0.200 A 
ATOM     62  F   UNL     1       3.166   8.652  -7.481  1.00  0.00    -0.200 F 
ATOM     63  F   UNL     1       5.183   8.374  -9.298  1.00  0.00    -0.200 F 
ENDBRANCH  29  53
BRANCH  41  64
ATOM     64  C   UNL     1       9.542  12.177  -0.760  1.00  0.00     0.064 A 
ATOM     65  C   UNL     1       8.883  13.396  -0.976  1.00  0.00     0.173 A 
ATOM     66  C   UNL     1      10.943  12.190  -0.687  1.00  0.00     0.173 A 
ATOM     67  F   UNL     1       7.545  13.432  -1.072  1.00  0.00    -0.203 F 
ATOM     68  C   UNL     1       9.601  14.578  -1.138  1.00  0.00     0.198 A 
ATOM     69  C   UNL     1      11.656  13.377  -0.822  1.00  0.00     0.198 A 
ATOM     70  F   UNL     1      11.620  11.050  -0.478  1.00  0.00    -0.203 F 
ATOM     71  F   UNL     1       8.953  15.723  -1.393  1.00  0.00    -0.200 F 
ATOM     72  C   UNL     1      10.985  14.569  -1.055  1.00  0.00     0.200 A 
ATOM     73  F   UNL     1      12.993  13.369  -0.731  1.00  0.00    -0.200 F 
ATOM     74  F   UNL     1      11.674  15.708  -1.209  1.00  0.00    -0.200 F 
ENDBRANCH  41  64
ENDBRANCH  15  16
ENDBRANCH   8  10
ENDBRANCH   5   6
ENDBRANCH   4   5
ENDBRANCH   3   4
ENDBRANCH   2   3
ENDBRANCH   1   2
BRANCH   1  75
ATOM     75  C   UNL     1       7.048  -4.893   1.486  1.00  0.00     0.116 C 
BRANCH  75  76
ATOM     76  N   UNL     1       6.807  -6.284   1.823  1.00  0.00    -0.352 N 
ATOM     77  C   UNL     1       7.706  -7.318   1.902  1.00  0.00     0.252 C 
ATOM     78  H   UNL     1       5.872  -6.518   2.023  1.00  0.00     0.163 HD
ATOM     79  O   UNL     1       7.322  -8.473   2.045  1.00  0.00    -0.269 OA
BRANCH  77  80
ATOM     80  C   UNL     1       9.143  -7.034   1.798  1.00  0.00     0.058 A 
ATOM     81  C   UNL     1       9.778  -6.124   2.640  1.00  0.00     0.017 A 
ATOM     82  C   UNL     1       9.893  -7.684   0.835  1.00  0.00     0.125 A 
ATOM     83  C   UNL     1      11.129  -5.850   2.440  1.00  0.00     0.030 A 
ATOM     84  N   UNL     1      11.206  -7.428   0.617  1.00  0.00    -0.255 NA
ATOM     85  C   UNL     1      11.810  -6.506   1.413  1.00  0.00     0.094 A 
BRANCH  85  86
ATOM     86  C   UNL     1      13.285  -6.219   1.175  1.00  0.00     0.318 C 
BRANCH  86  87
ATOM     87  N   UNL     1      14.132  -7.380   1.458  1.00  0.00    -0.338 N 
ATOM     88  H   UNL     1      14.274  -7.891   0.587  1.00  0.00     0.346 HD
ATOM     89  H   UNL     1      13.647  -7.930   2.166  1.00  0.00     0.346 HD
BRANCH  87  90
ATOM     90  C   UNL     1      15.446  -7.048   2.013  1.00  0.00     0.302 C 
BRANCH  90  91
ATOM     91  C   UNL     1      15.465  -6.465   3.442  1.00  0.00     0.290 C 
BRANCH  91  92
ATOM     92  O   UNL     1      15.210  -7.479   4.426  1.00  0.00    -0.488 OA
BRANCH  92  93
ATOM     93  C   UNL     1      13.910  -7.495   4.846  1.00  0.00     0.119 A 
ATOM     94  C   UNL     1      13.387  -6.488   5.656  1.00  0.00     0.046 A 
ATOM     95  C   UNL     1      13.134  -8.599   4.502  1.00  0.00     0.046 A 
ATOM     96  C   UNL     1      12.056  -6.561   6.072  1.00  0.00     0.004 A 
ATOM     97  C   UNL     1      11.799  -8.658   4.894  1.00  0.00     0.004 A 
ATOM     98  C   UNL     1      11.259  -7.639   5.678  1.00  0.00     0.000 A 
ENDBRANCH  92  93
ENDBRANCH  91  92
ENDBRANCH  90  91
ENDBRANCH  87  90
ENDBRANCH  86  87
ENDBRANCH  85  86
ENDBRANCH  77  80
ENDBRANCH  75  76
ENDBRANCH   1  75
TORSDOF 19
