REMARK SMILES CC[C@@H](C)c1ccccc1NC(=O)[C@@H]1[C@@H](C(=O)NCCCCCCNC(=O)c2ccc(-c3c4nc(c(-c5c(F)c(F)c(F)c(F)c5F)c5ccc([nH]5)c(-c5c(F)c(F)c(F)c(F)c5F)c5nc(c(-c6c(F)c(F)c(F)c(F)c6F)c6ccc3[nH]6)C=C5)C=C4)cc2)[C@@H]2C=C[C@H]1C2
REMARK SMILES IDX 20 1 19 2 18 3 16 4 17 5 15 7 14 8 94 9 91 10 93 11 95 12
REMARK SMILES IDX 92 13 12 14 11 15 13 17 10 18 5 19 6 20 7 21 9 22 8 23 3 24
REMARK SMILES IDX 4 25 2 26 1 27 21 28 22 29 23 30 24 31 25 32 26 33 27 35
REMARK SMILES IDX 28 36 29 37 90 38 30 39 89 40 31 41 32 42 33 43 83 44 34 45
REMARK SMILES IDX 88 46 82 47 84 48 35 49 87 50 81 51 80 52 36 54 68 55 48 56
REMARK SMILES IDX 67 57 49 58 52 59 66 60 85 61 50 62 51 63 65 65 86 66 53 67
REMARK SMILES IDX 37 68 38 69 46 70 39 71 40 72 44 73 47 74 41 75 42 76 45 77
REMARK SMILES IDX 43 78 69 79 70 80 78 81 71 82 72 83 76 84 79 85 73 86 74 87
REMARK SMILES IDX 77 88 75 89 54 90 55 91 63 92 56 93 57 94 61 95 64 96 58 97
REMARK SMILES IDX 59 98 62 99 60 100
REMARK H PARENT 18 6 11 16 25 34 84 53 52 64
REMARK Flexibility Score: inf
ROOT
ATOM      1  C   UNL     1       3.163 -11.658  -0.724  1.00  0.00     0.021 C 
ENDROOT
BRANCH   1   2
ATOM      2  C   UNL     1       3.355 -11.170  -2.162  1.00  0.00     0.116 C 
BRANCH   2   3
ATOM      3  N   UNL     1       2.089 -10.773  -2.744  1.00  0.00    -0.356 N 
ATOM      4  C   UNL     1       1.611  -9.536  -3.038  1.00  0.00     0.224 C 
ATOM      5  O   UNL     1       0.424  -9.452  -3.357  1.00  0.00    -0.275 OA
ATOM      6  H   UNL     1       1.480 -11.516  -2.960  1.00  0.00     0.163 HD
BRANCH   4   7
ATOM      7  C   UNL     1       2.560  -8.345  -3.051  1.00  0.00     0.098 C 
ATOM      8  C   UNL     1       1.785  -6.975  -3.096  1.00  0.00     0.099 C 
ATOM      9  C   UNL     1       2.285  -6.361  -4.431  1.00  0.00     0.025 C 
ATOM     10  C   UNL     1       3.321  -8.340  -4.405  1.00  0.00     0.025 C 
ATOM     11  C   UNL     1       3.770  -6.089  -4.347  1.00  0.00    -0.027 C 
ATOM     12  C   UNL     1       2.334  -7.605  -5.321  1.00  0.00     0.017 C 
ATOM     13  C   UNL     1       4.393  -7.277  -4.334  1.00  0.00    -0.027 C 
BRANCH   8  14
ATOM     14  C   UNL     1       2.010  -6.077  -1.891  1.00  0.00     0.228 C 
ATOM     15  N   UNL     1       1.420  -4.846  -1.775  1.00  0.00    -0.326 N 
ATOM     16  H   UNL     1       1.734  -4.346  -0.987  1.00  0.00     0.169 HD
ATOM     17  O   UNL     1       2.757  -6.423  -0.969  1.00  0.00    -0.274 OA
BRANCH  15  18
ATOM     18  C   UNL     1       0.462  -4.131  -2.532  1.00  0.00     0.044 A 
ATOM     19  C   UNL     1       0.323  -2.731  -2.340  1.00  0.00    -0.022 A 
ATOM     20  C   UNL     1      -0.402  -2.010  -3.319  1.00  0.00     0.006 A 
ATOM     21  C   UNL     1      -1.075  -2.643  -4.361  1.00  0.00     0.000 A 
ATOM     22  C   UNL     1      -0.354  -4.752  -3.486  1.00  0.00     0.026 A 
ATOM     23  C   UNL     1      -1.099  -4.022  -4.408  1.00  0.00     0.002 A 
BRANCH  19  24
ATOM     24  C   UNL     1       0.896  -1.995  -1.109  1.00  0.00     0.018 C 
ATOM     25  C   UNL     1       0.286  -2.569   0.186  1.00  0.00     0.013 C 
BRANCH  24  26
ATOM     26  C   UNL     1       0.673  -0.455  -1.130  1.00  0.00     0.005 C 
ATOM     27  C   UNL     1       1.230   0.308   0.065  1.00  0.00     0.004 C 
ENDBRANCH  24  26
ENDBRANCH  19  24
ENDBRANCH  15  18
ENDBRANCH   8  14
ENDBRANCH   4   7
ENDBRANCH   2   3
ENDBRANCH   1   2
BRANCH   1  28
ATOM     28  C   UNL     1       2.165 -12.816  -0.568  1.00  0.00     0.002 C 
BRANCH  28  29
ATOM     29  C   UNL     1       2.464 -14.063  -1.407  1.00  0.00     0.002 C 
BRANCH  29  30
ATOM     30  C   UNL     1       3.832 -14.697  -1.159  1.00  0.00     0.021 C 
BRANCH  30  31
ATOM     31  C   UNL     1       4.083 -15.130   0.282  1.00  0.00     0.116 C 
BRANCH  31  32
ATOM     32  N   UNL     1       3.194 -16.202   0.706  1.00  0.00    -0.352 N 
ATOM     33  C   UNL     1       3.499 -17.445   1.211  1.00  0.00     0.251 C 
ATOM     34  H   UNL     1       2.233 -16.009   0.618  1.00  0.00     0.163 HD
ATOM     35  O   UNL     1       2.625 -18.285   1.365  1.00  0.00    -0.269 OA
BRANCH  33  36
ATOM     36  C   UNL     1       4.904 -17.774   1.538  1.00  0.00     0.039 A 
ATOM     37  C   UNL     1       5.438 -18.982   1.083  1.00  0.00     0.014 A 
ATOM     38  C   UNL     1       5.695 -16.883   2.267  1.00  0.00     0.014 A 
ATOM     39  C   UNL     1       6.793 -19.256   1.280  1.00  0.00     0.010 A 
ATOM     40  C   UNL     1       7.059 -17.123   2.399  1.00  0.00     0.010 A 
ATOM     41  C   UNL     1       7.624 -18.305   1.894  1.00  0.00    -0.014 A 
BRANCH  41  42
ATOM     42  C   UNL     1       9.093 -18.501   1.982  1.00  0.00     0.031 A 
ATOM     43  C   UNL     1       9.764 -18.622   3.319  1.00  0.00     0.074 A 
ATOM     44  C   UNL     1       9.832 -18.479   0.857  1.00  0.00     0.049 A 
ATOM     45  N   UNL     1      11.040 -18.701   3.603  1.00  0.00    -0.248 NA
ATOM     46  C   UNL     1       8.883 -18.630   4.496  1.00  0.00     0.031 C 
ATOM     47  C   UNL     1       9.302 -18.338  -0.499  1.00  0.00     0.029 A 
ATOM     48  N   UNL     1      11.191 -18.562   0.675  1.00  0.00    -0.354 N 
ATOM     49  C   UNL     1      11.115 -18.756   4.987  1.00  0.00     0.074 A 
ATOM     50  C   UNL     1       9.761 -18.645   5.488  1.00  0.00     0.031 C 
ATOM     51  C   UNL     1      10.318 -18.372  -1.375  1.00  0.00     0.029 A 
ATOM     52  C   UNL     1      11.575 -18.486  -0.641  1.00  0.00     0.049 A 
ATOM     53  H   UNL     1      11.828 -18.666   1.418  1.00  0.00     0.167 HD
ATOM     54  C   UNL     1      12.212 -18.904   5.769  1.00  0.00     0.037 A 
ATOM     55  C   UNL     1      12.803 -18.493  -1.193  1.00  0.00     0.037 A 
ATOM     56  C   UNL     1      13.556 -19.019   5.263  1.00  0.00     0.049 A 
ATOM     57  C   UNL     1      14.010 -18.588  -0.301  1.00  0.00     0.074 A 
ATOM     58  C   UNL     1      14.727 -19.244   5.965  1.00  0.00     0.029 A 
ATOM     59  N   UNL     1      13.909 -18.900   3.926  1.00  0.00    -0.354 N 
ATOM     60  N   UNL     1      14.068 -18.717   1.002  1.00  0.00    -0.248 NA
ATOM     61  C   UNL     1      15.323 -18.527  -0.958  1.00  0.00     0.031 C 
ATOM     62  C   UNL     1      15.795 -19.196   5.062  1.00  0.00     0.029 A 
ATOM     63  C   UNL     1      15.286 -18.997   3.789  1.00  0.00     0.049 A 
ATOM     64  H   UNL     1      13.276 -18.765   3.185  1.00  0.00     0.167 HD
ATOM     65  C   UNL     1      15.418 -18.773   1.321  1.00  0.00     0.074 A 
ATOM     66  C   UNL     1      16.146 -18.679   0.072  1.00  0.00     0.031 C 
ATOM     67  C   UNL     1      16.000 -18.892   2.540  1.00  0.00     0.037 A 
BRANCH  54  68
ATOM     68  C   UNL     1      11.998 -18.930   7.256  1.00  0.00     0.064 A 
ATOM     69  C   UNL     1      11.323 -19.987   7.888  1.00  0.00     0.173 A 
ATOM     70  C   UNL     1      12.472 -17.884   8.062  1.00  0.00     0.173 A 
ATOM     71  F   UNL     1      10.843 -21.010   7.164  1.00  0.00    -0.203 F 
ATOM     72  C   UNL     1      11.087 -19.970   9.260  1.00  0.00     0.198 A 
ATOM     73  C   UNL     1      12.266 -17.888   9.439  1.00  0.00     0.198 A 
ATOM     74  F   UNL     1      13.133 -16.853   7.514  1.00  0.00    -0.203 F 
ATOM     75  F   UNL     1      10.379 -20.956   9.828  1.00  0.00    -0.200 F 
ATOM     76  C   UNL     1      11.562 -18.923  10.035  1.00  0.00     0.200 A 
ATOM     77  F   UNL     1      12.738 -16.883  10.189  1.00  0.00    -0.200 F 
ATOM     78  F   UNL     1      11.329 -18.905  11.354  1.00  0.00    -0.200 F 
ENDBRANCH  54  68
BRANCH  55  79
ATOM     79  C   UNL     1      12.947 -18.432  -2.670  1.00  0.00     0.064 A 
ATOM     80  C   UNL     1      13.388 -19.552  -3.389  1.00  0.00     0.173 A 
ATOM     81  C   UNL     1      12.629 -17.274  -3.395  1.00  0.00     0.173 A 
ATOM     82  F   UNL     1      13.725 -20.674  -2.736  1.00  0.00    -0.203 F 
ATOM     83  C   UNL     1      13.509 -19.515  -4.776  1.00  0.00     0.198 A 
ATOM     84  C   UNL     1      12.726 -17.247  -4.785  1.00  0.00     0.198 A 
ATOM     85  F   UNL     1      12.200 -16.177  -2.755  1.00  0.00    -0.203 F 
ATOM     86  F   UNL     1      13.962 -20.590  -5.435  1.00  0.00    -0.200 F 
ATOM     87  C   UNL     1      13.170 -18.366  -5.473  1.00  0.00     0.200 A 
ATOM     88  F   UNL     1      12.383 -16.139  -5.457  1.00  0.00    -0.200 F 
ATOM     89  F   UNL     1      13.275 -18.335  -6.809  1.00  0.00    -0.200 F 
ENDBRANCH  55  79
BRANCH  67  90
ATOM     90  C   UNL     1      17.500 -18.935   2.587  1.00  0.00     0.064 A 
ATOM     91  C   UNL     1      18.274 -17.790   2.347  1.00  0.00     0.173 A 
ATOM     92  C   UNL     1      18.169 -20.119   2.930  1.00  0.00     0.173 A 
ATOM     93  F   UNL     1      17.683 -16.637   1.997  1.00  0.00    -0.203 F 
ATOM     94  C   UNL     1      19.663 -17.833   2.435  1.00  0.00     0.198 A 
ATOM     95  C   UNL     1      19.556 -20.152   3.047  1.00  0.00     0.198 A 
ATOM     96  F   UNL     1      17.476 -21.242   3.172  1.00  0.00    -0.203 F 
ATOM     97  F   UNL     1      20.384 -16.737   2.163  1.00  0.00    -0.200 F 
ATOM     98  C   UNL     1      20.302 -19.010   2.795  1.00  0.00     0.200 A 
ATOM     99  F   UNL     1      20.171 -21.287   3.408  1.00  0.00    -0.200 F 
ATOM    100  F   UNL     1      21.638 -19.046   2.894  1.00  0.00    -0.200 F 
ENDBRANCH  67  90
ENDBRANCH  41  42
ENDBRANCH  33  36
ENDBRANCH  31  32
ENDBRANCH  30  31
ENDBRANCH  29  30
ENDBRANCH  28  29
ENDBRANCH   1  28
TORSDOF 17
