REMARK SMILES CC1(C)O[C@H]2C[C@H]3[C@@H]4CCC5=CC(=O)C=C[C@]5(C)[C@@]4(F)[C@H](O)C[C@@]3(C)[C@@]2(C(=O)NCCCCCCNC(=O)c2ccc(-c3c4nc(c(-c5c(F)c(F)c(F)c(F)c5F)c5ccc([nH]5)c(-c5c(F)c(F)c(F)c(F)c5F)c5nc(c(-c6c(F)c(F)c(F)c(F)c6F)c6ccc3[nH]6)C=C5)C=C4)cc2)O1
REMARK SMILES IDX 33 1 32 2 31 3 30 4 29 5 27 6 28 7 26 9 1 10 2 11 3 12 4 13
REMARK SMILES IDX 102 14 5 15 6 16 24 17 7 18 23 19 25 20 8 21 21 22 9 23
REMARK SMILES IDX 19 24 10 25 17 26 20 27 11 28 16 29 18 30 12 31 15 32 13 33
REMARK SMILES IDX 14 34 22 35 34 37 35 38 36 39 37 40 38 42 39 43 40 44 101 45
REMARK SMILES IDX 41 46 100 47 42 48 43 49 44 50 94 51 45 52 99 53 93 54 95 55
REMARK SMILES IDX 46 56 98 57 92 58 91 59 47 61 79 62 59 63 78 64 60 65 63 66
REMARK SMILES IDX 77 67 96 68 61 69 62 70 76 72 97 73 64 74 48 75 49 76 57 77
REMARK SMILES IDX 50 78 51 79 55 80 58 81 52 82 53 83 56 84 54 85 80 86 81 87
REMARK SMILES IDX 89 88 82 89 83 90 87 91 90 92 84 93 85 94 88 95 86 96 65 97
REMARK SMILES IDX 66 98 74 99 67 100 68 101 72 102 75 103 69 104 70 105 73 106
REMARK SMILES IDX 71 107
REMARK H PARENT 29 8 22 36 36 41 95 60 63 71
REMARK Flexibility Score: inf
ROOT
ATOM      1  C   UNL     1       4.193   7.141  -2.716  1.00  0.00     0.002 C 
ENDROOT
BRANCH   1   2
ATOM      2  C   UNL     1       4.462   5.767  -3.348  1.00  0.00     0.002 C 
BRANCH   2   3
ATOM      3  C   UNL     1       3.870   4.547  -2.640  1.00  0.00     0.021 C 
BRANCH   3   4
ATOM      4  C   UNL     1       2.382   4.624  -2.331  1.00  0.00     0.116 C 
BRANCH   4   5
ATOM      5  N   UNL     1       1.429   4.267  -3.358  1.00  0.00    -0.353 N 
ATOM      6  C   UNL     1       0.161   3.740  -3.166  1.00  0.00     0.255 C 
ATOM      7  O   UNL     1      -0.603   3.700  -4.132  1.00  0.00    -0.272 OA
ATOM      8  H   UNL     1       1.709   4.413  -4.290  1.00  0.00     0.163 HD
BRANCH   6   9
ATOM      9  C   UNL     1      -0.247   3.177  -1.775  1.00  0.00     0.181 C 
ATOM     10  C   UNL     1       0.616  -0.055  -0.565  1.00  0.00     0.075 C 
ATOM     11  C   UNL     1       0.259   0.898  -1.712  1.00  0.00     0.164 C 
ATOM     12  C   UNL     1       0.853   0.369  -3.010  1.00  0.00     0.075 C 
ATOM     13  O   UNL     1      -1.159   0.936  -1.861  1.00  0.00    -0.344 OA
ATOM     14  O   UNL     1       0.782   2.209  -1.417  1.00  0.00    -0.331 OA
ATOM     15  C   UNL     1      -1.569   2.300  -1.737  1.00  0.00     0.164 C 
ATOM     16  C   UNL     1      -2.219   2.484  -0.278  1.00  0.00     0.040 C 
ATOM     17  C   UNL     1      -0.590   4.221  -0.622  1.00  0.00     0.014 C 
ATOM     18  C   UNL     1      -1.065   3.183   0.451  1.00  0.00     0.008 C 
ATOM     19  C   UNL     1       0.359   5.217   0.042  1.00  0.00     0.046 C 
ATOM     20  C   UNL     1      -1.706   5.166  -1.197  1.00  0.00     0.015 C 
ATOM     21  C   UNL     1      -0.240   2.923   1.766  1.00  0.00     0.035 C 
ATOM     22  C   UNL     1       1.415   4.646   0.957  1.00  0.00     0.154 C 
ATOM     23  C   UNL     1      -0.975   2.307   2.946  1.00  0.00     0.012 C 
ATOM     24  C   UNL     1       0.782   3.994   2.215  1.00  0.00     0.152 C 
ATOM     25  C   UNL     1       0.052   1.530   3.792  1.00  0.00     0.032 C 
ATOM     26  C   UNL     1       1.875   3.350   3.178  1.00  0.00     0.044 C 
ATOM     27  F   UNL     1       0.085   4.948   2.903  1.00  0.00    -0.239 F 
ATOM     28  C   UNL     1       1.290   2.319   4.169  1.00  0.00    -0.053 C 
ATOM     29  C   UNL     1       2.637   4.416   3.971  1.00  0.00    -0.009 C 
ATOM     30  C   UNL     1       2.955   2.577   2.346  1.00  0.00     0.024 C 
ATOM     31  C   UNL     1       1.940   2.035   5.316  1.00  0.00     0.052 C 
ATOM     32  C   UNL     1       3.282   4.145   5.114  1.00  0.00     0.048 C 
ATOM     33  C   UNL     1       3.151   2.798   5.713  1.00  0.00     0.178 C 
ATOM     34  O   UNL     1       3.956   2.368   6.516  1.00  0.00    -0.290 OA
BRANCH  22  35
ATOM     35  O   UNL     1       2.308   5.726   1.238  1.00  0.00    -0.390 OA
ATOM     36  H   UNL     1       1.815   6.455   1.646  1.00  0.00     0.211 HD
ENDBRANCH  22  35
ENDBRANCH   6   9
ENDBRANCH   4   5
ENDBRANCH   3   4
ENDBRANCH   2   3
ENDBRANCH   1   2
BRANCH   1  37
ATOM     37  C   UNL     1       4.600   7.332  -1.250  1.00  0.00     0.021 C 
BRANCH  37  38
ATOM     38  C   UNL     1       6.063   7.056  -0.913  1.00  0.00     0.116 C 
BRANCH  38  39
ATOM     39  N   UNL     1       6.988   7.830  -1.723  1.00  0.00    -0.352 N 
ATOM     40  C   UNL     1       8.051   8.617  -1.358  1.00  0.00     0.251 C 
ATOM     41  H   UNL     1       6.827   7.780  -2.693  1.00  0.00     0.163 HD
ATOM     42  O   UNL     1       8.619   9.301  -2.206  1.00  0.00    -0.269 OA
BRANCH  40  43
ATOM     43  C   UNL     1       8.511   8.672   0.048  1.00  0.00     0.039 A 
ATOM     44  C   UNL     1       8.880   9.911   0.583  1.00  0.00     0.014 A 
ATOM     45  C   UNL     1       8.623   7.518   0.827  1.00  0.00     0.014 A 
ATOM     46  C   UNL     1       9.300  10.001   1.912  1.00  0.00     0.010 A 
ATOM     47  C   UNL     1       8.975   7.618   2.173  1.00  0.00     0.010 A 
ATOM     48  C   UNL     1       9.318   8.860   2.730  1.00  0.00    -0.014 A 
BRANCH  48  49
ATOM     49  C   UNL     1       9.688   8.950   4.167  1.00  0.00     0.031 A 
ATOM     50  C   UNL     1      10.911   8.246   4.685  1.00  0.00     0.074 A 
ATOM     51  C   UNL     1       8.887   9.621   5.018  1.00  0.00     0.049 A 
ATOM     52  N   UNL     1      11.359   8.156   5.913  1.00  0.00    -0.248 NA
ATOM     53  C   UNL     1      11.727   7.525   3.696  1.00  0.00     0.031 C 
ATOM     54  C   UNL     1       7.652  10.313   4.646  1.00  0.00     0.029 A 
ATOM     55  N   UNL     1       8.986   9.824   6.372  1.00  0.00    -0.354 N 
ATOM     56  C   UNL     1      12.497   7.364   5.844  1.00  0.00     0.074 A 
ATOM     57  C   UNL     1      12.641   6.951   4.465  1.00  0.00     0.031 C 
ATOM     58  C   UNL     1       7.120  10.882   5.740  1.00  0.00     0.029 A 
ATOM     59  C   UNL     1       7.951  10.560   6.896  1.00  0.00     0.049 A 
ATOM     60  H   UNL     1       9.728   9.474   6.917  1.00  0.00     0.167 HD
ATOM     61  C   UNL     1      13.357   7.029   6.837  1.00  0.00     0.037 A 
ATOM     62  C   UNL     1       7.695  10.926   8.167  1.00  0.00     0.037 A 
ATOM     63  C   UNL     1      13.219   7.455   8.206  1.00  0.00     0.049 A 
ATOM     64  C   UNL     1       8.654  10.521   9.255  1.00  0.00     0.074 A 
ATOM     65  C   UNL     1      14.065   7.214   9.274  1.00  0.00     0.029 A 
ATOM     66  N   UNL     1      12.160   8.206   8.697  1.00  0.00    -0.354 N 
ATOM     67  N   UNL     1       9.764   9.830   9.165  1.00  0.00    -0.248 NA
ATOM     68  C   UNL     1       8.326  10.953  10.620  1.00  0.00     0.031 C 
ATOM     69  C   UNL     1      13.491   7.770  10.422  1.00  0.00     0.029 A 
ATOM     70  C   UNL     1      12.319   8.413  10.058  1.00  0.00     0.049 A 
ATOM     71  H   UNL     1      11.408   8.541   8.158  1.00  0.00     0.167 HD
ATOM     72  C   UNL     1      10.283   9.772  10.452  1.00  0.00     0.074 A 
ATOM     73  C   UNL     1       9.373  10.513  11.302  1.00  0.00     0.031 C 
ATOM     74  C   UNL     1      11.411   9.161  10.891  1.00  0.00     0.037 A 
BRANCH  61  75
ATOM     75  C   UNL     1      14.528   6.157   6.479  1.00  0.00     0.064 A 
ATOM     76  C   UNL     1      15.576   6.625   5.671  1.00  0.00     0.173 A 
ATOM     77  C   UNL     1      14.624   4.851   6.983  1.00  0.00     0.173 A 
ATOM     78  F   UNL     1      15.532   7.862   5.156  1.00  0.00    -0.203 F 
ATOM     79  C   UNL     1      16.659   5.807   5.355  1.00  0.00     0.198 A 
ATOM     80  C   UNL     1      15.725   4.048   6.693  1.00  0.00     0.198 A 
ATOM     81  F   UNL     1      13.655   4.354   7.767  1.00  0.00    -0.203 F 
ATOM     82  F   UNL     1      17.620   6.258   4.538  1.00  0.00    -0.200 F 
ATOM     83  C   UNL     1      16.736   4.523   5.872  1.00  0.00     0.200 A 
ATOM     84  F   UNL     1      15.805   2.812   7.206  1.00  0.00    -0.200 F 
ATOM     85  F   UNL     1      17.782   3.740   5.573  1.00  0.00    -0.200 F 
ENDBRANCH  61  75
BRANCH  62  86
ATOM     86  C   UNL     1       6.487  11.736   8.480  1.00  0.00     0.064 A 
ATOM     87  C   UNL     1       6.603  13.062   8.920  1.00  0.00     0.173 A 
ATOM     88  C   UNL     1       5.196  11.200   8.359  1.00  0.00     0.173 A 
ATOM     89  F   UNL     1       7.816  13.613   9.071  1.00  0.00    -0.203 F 
ATOM     90  C   UNL     1       5.477  13.813   9.250  1.00  0.00     0.198 A 
ATOM     91  C   UNL     1       4.069  11.963   8.659  1.00  0.00     0.198 A 
ATOM     92  F   UNL     1       5.028   9.938   7.937  1.00  0.00    -0.203 F 
ATOM     93  F   UNL     1       5.620  15.060   9.718  1.00  0.00    -0.200 F 
ATOM     94  C   UNL     1       4.211  13.265   9.114  1.00  0.00     0.200 A 
ATOM     95  F   UNL     1       2.847  11.435   8.511  1.00  0.00    -0.200 F 
ATOM     96  F   UNL     1       3.128  13.988   9.430  1.00  0.00    -0.200 F 
ENDBRANCH  62  86
BRANCH  74  97
ATOM     97  C   UNL     1      11.751   9.302  12.348  1.00  0.00     0.064 A 
ATOM     98  C   UNL     1      11.002   8.664  13.348  1.00  0.00     0.173 A 
ATOM     99  C   UNL     1      12.865  10.058  12.744  1.00  0.00     0.173 A 
ATOM    100  F   UNL     1       9.919   7.942  13.024  1.00  0.00    -0.203 F 
ATOM    101  C   UNL     1      11.340   8.802  14.692  1.00  0.00     0.198 A 
ATOM    102  C   UNL     1      13.220  10.165  14.086  1.00  0.00     0.198 A 
ATOM    103  F   UNL     1      13.620  10.684  11.828  1.00  0.00    -0.203 F 
ATOM    104  F   UNL     1      10.579   8.227  15.634  1.00  0.00    -0.200 F 
ATOM    105  C   UNL     1      12.452   9.544  15.059  1.00  0.00     0.200 A 
ATOM    106  F   UNL     1      14.305  10.869  14.437  1.00  0.00    -0.200 F 
ATOM    107  F   UNL     1      12.780   9.668  16.353  1.00  0.00    -0.200 F 
ENDBRANCH  74  97
ENDBRANCH  48  49
ENDBRANCH  40  43
ENDBRANCH  38  39
ENDBRANCH  37  38
ENDBRANCH   1  37
TORSDOF 14
