REMARK SMILES Cc1cc(CS(=O)(=O)NC[C@@H]2CC[C@H](C(=O)NCCCCCCNC(=O)c3ccc(-c4c5nc(c(-c6c(F)c(F)c(F)c(F)c6F)c6ccc([nH]6)c(-c6c(F)c(F)c(F)c(F)c6F)c6nc(c(-c7c(F)c(F)c(F)c(F)c7F)c7ccc4[nH]7)C=C6)C=C5)cc3)O2)no1
REMARK SMILES IDX 19 1 18 2 17 3 15 4 16 5 14 7 11 8 12 9 90 10 13 11 10 12
REMARK SMILES IDX 9 13 6 15 7 16 8 17 5 18 4 19 1 20 2 21 3 22 92 23 91 24
REMARK SMILES IDX 20 25 21 26 22 27 23 28 24 29 25 30 26 32 27 33 28 34 89 35
REMARK SMILES IDX 29 36 88 37 30 38 31 39 32 40 82 41 33 42 87 43 81 44 83 45
REMARK SMILES IDX 34 46 86 47 80 48 79 49 35 51 67 52 47 53 66 54 48 55 51 56
REMARK SMILES IDX 65 57 84 58 49 59 50 60 64 62 85 63 52 64 36 65 37 66 45 67
REMARK SMILES IDX 38 68 39 69 43 70 46 71 40 72 41 73 44 74 42 75 68 76 69 77
REMARK SMILES IDX 77 78 70 79 71 80 75 81 78 82 72 83 73 84 76 85 74 86 53 87
REMARK SMILES IDX 54 88 62 89 55 90 56 91 60 92 63 93 57 94 58 95 61 96 59 97
REMARK H PARENT 17 6 9 14 24 31 83 50 51 61
REMARK Flexibility Score: inf
ROOT
ATOM      1  C   UNL     1       1.492   2.450   0.166  1.00  0.00     0.021 C 
ENDROOT
BRANCH   1   2
ATOM      2  C   UNL     1       1.220   2.279   1.667  1.00  0.00     0.116 C 
BRANCH   2   3
ATOM      3  N   UNL     1       1.011   3.542   2.347  1.00  0.00    -0.354 N 
ATOM      4  C   UNL     1      -0.014   3.966   3.142  1.00  0.00     0.249 C 
ATOM      5  O   UNL     1       0.124   5.067   3.687  1.00  0.00    -0.272 OA
ATOM      6  H   UNL     1       1.728   4.203   2.213  1.00  0.00     0.163 HD
BRANCH   4   7
ATOM      7  C   UNL     1      -1.341   3.181   3.312  1.00  0.00     0.207 C 
ATOM      8  C   UNL     1      -2.380   1.109   2.990  1.00  0.00     0.134 C 
ATOM      9  C   UNL     1      -2.468   1.859   1.671  1.00  0.00     0.037 C 
ATOM     10  O   UNL     1      -1.281   1.796   3.662  1.00  0.00    -0.364 OA
ATOM     11  C   UNL     1      -2.236   3.293   2.086  1.00  0.00     0.045 C 
BRANCH   8  12
ATOM     12  C   UNL     1      -1.989  -0.365   2.912  1.00  0.00     0.130 C 
BRANCH  12  13
ATOM     13  N   UNL     1      -3.024  -1.397   2.729  1.00  0.00    -0.212 NA
ATOM     14  H   UNL     1      -2.509  -2.276   2.676  1.00  0.00     0.141 HD
BRANCH  13  15
ATOM     15  S   UNL     1      -4.153  -1.493   1.512  1.00  0.00     0.217 S 
ATOM     16  O   UNL     1      -4.671  -0.164   1.281  1.00  0.00    -0.212 OA
ATOM     17  O   UNL     1      -5.050  -2.531   1.978  1.00  0.00    -0.212 OA
BRANCH  15  18
ATOM     18  C   UNL     1      -3.363  -2.135   0.004  1.00  0.00     0.213 C 
BRANCH  18  19
ATOM     19  C   UNL     1      -1.938  -1.777  -0.110  1.00  0.00     0.100 A 
ATOM     20  C   UNL     1       1.358  -1.408   1.288  1.00  0.00     0.091 C 
ATOM     21  C   UNL     1       0.159  -1.550   0.446  1.00  0.00     0.133 A 
ATOM     22  C   UNL     1      -0.840  -2.487   0.430  1.00  0.00     0.073 A 
ATOM     23  O   UNL     1      -0.215  -0.481  -0.308  1.00  0.00    -0.361 OA
ATOM     24  N   UNL     1      -1.543  -0.632  -0.681  1.00  0.00    -0.084 NA
ENDBRANCH  18  19
ENDBRANCH  15  18
ENDBRANCH  13  15
ENDBRANCH  12  13
ENDBRANCH   8  12
ENDBRANCH   4   7
ENDBRANCH   2   3
ENDBRANCH   1   2
BRANCH   1  25
ATOM     25  C   UNL     1       2.957   2.698  -0.227  1.00  0.00     0.002 C 
BRANCH  25  26
ATOM     26  C   UNL     1       3.951   1.541  -0.025  1.00  0.00     0.002 C 
BRANCH  26  27
ATOM     27  C   UNL     1       3.716   0.231  -0.784  1.00  0.00     0.021 C 
BRANCH  27  28
ATOM     28  C   UNL     1       3.396   0.312  -2.270  1.00  0.00     0.116 C 
BRANCH  28  29
ATOM     29  N   UNL     1       4.605   0.277  -3.070  1.00  0.00    -0.352 N 
ATOM     30  C   UNL     1       5.208  -0.794  -3.686  1.00  0.00     0.251 C 
ATOM     31  H   UNL     1       5.058   1.143  -3.189  1.00  0.00     0.163 HD
ATOM     32  O   UNL     1       6.391  -0.719  -4.007  1.00  0.00    -0.269 OA
BRANCH  30  33
ATOM     33  C   UNL     1       4.454  -2.041  -3.981  1.00  0.00     0.039 A 
ATOM     34  C   UNL     1       5.118  -3.271  -3.909  1.00  0.00     0.014 A 
ATOM     35  C   UNL     1       3.132  -2.004  -4.435  1.00  0.00     0.014 A 
ATOM     36  C   UNL     1       4.460  -4.453  -4.276  1.00  0.00     0.010 A 
ATOM     37  C   UNL     1       2.451  -3.188  -4.719  1.00  0.00     0.010 A 
ATOM     38  C   UNL     1       3.116  -4.424  -4.679  1.00  0.00    -0.014 A 
BRANCH  38  39
ATOM     39  C   UNL     1       2.409  -5.650  -5.146  1.00  0.00     0.031 A 
ATOM     40  C   UNL     1       1.908  -5.724  -6.568  1.00  0.00     0.074 A 
ATOM     41  C   UNL     1       2.169  -6.670  -4.300  1.00  0.00     0.049 A 
ATOM     42  N   UNL     1       1.163  -6.636  -7.143  1.00  0.00    -0.248 NA
ATOM     43  C   UNL     1       2.271  -4.606  -7.454  1.00  0.00     0.031 C 
ATOM     44  C   UNL     1       2.583  -6.723  -2.899  1.00  0.00     0.029 A 
ATOM     45  N   UNL     1       1.499  -7.856  -4.493  1.00  0.00    -0.354 N 
ATOM     46  C   UNL     1       0.956  -6.191  -8.443  1.00  0.00     0.074 A 
ATOM     47  C   UNL     1       1.600  -4.901  -8.557  1.00  0.00     0.031 C 
ATOM     48  C   UNL     1       2.166  -7.881  -2.361  1.00  0.00     0.029 A 
ATOM     49  C   UNL     1       1.415  -8.633  -3.363  1.00  0.00     0.049 A 
ATOM     50  H   UNL     1       1.116  -8.122  -5.360  1.00  0.00     0.167 HD
ATOM     51  C   UNL     1       0.311  -6.811  -9.461  1.00  0.00     0.037 A 
ATOM     52  C   UNL     1       0.787  -9.807  -3.153  1.00  0.00     0.037 A 
ATOM     53  C   UNL     1      -0.307  -8.107  -9.357  1.00  0.00     0.049 A 
ATOM     54  C   UNL     1       0.050 -10.464  -4.293  1.00  0.00     0.074 A 
ATOM     55  C   UNL     1      -0.956  -8.835 -10.338  1.00  0.00     0.029 A 
ATOM     56  N   UNL     1      -0.348  -8.870  -8.199  1.00  0.00    -0.354 N 
ATOM     57  N   UNL     1      -0.105 -10.050  -5.528  1.00  0.00    -0.248 NA
ATOM     58  C   UNL     1      -0.593 -11.756  -4.013  1.00  0.00     0.031 C 
ATOM     59  C   UNL     1      -1.435 -10.015  -9.763  1.00  0.00     0.029 A 
ATOM     60  C   UNL     1      -1.025 -10.054  -8.440  1.00  0.00     0.049 A 
ATOM     61  H   UNL     1       0.046  -8.609  -7.336  1.00  0.00     0.167 HD
ATOM     62  C   UNL     1      -0.821 -11.047  -6.179  1.00  0.00     0.074 A 
ATOM     63  C   UNL     1      -1.067 -12.089  -5.205  1.00  0.00     0.031 C 
ATOM     64  C   UNL     1      -1.236 -11.096  -7.468  1.00  0.00     0.037 A 
BRANCH  51  65
ATOM     65  C   UNL     1       0.245  -6.101 -10.784  1.00  0.00     0.064 A 
ATOM     66  C   UNL     1       1.389  -5.907 -11.574  1.00  0.00     0.173 A 
ATOM     67  C   UNL     1      -0.983  -5.651 -11.293  1.00  0.00     0.173 A 
ATOM     68  F   UNL     1       2.591  -6.309 -11.132  1.00  0.00    -0.203 F 
ATOM     69  C   UNL     1       1.311  -5.263 -12.806  1.00  0.00     0.198 A 
ATOM     70  C   UNL     1      -1.063  -5.040 -12.542  1.00  0.00     0.198 A 
ATOM     71  F   UNL     1      -2.111  -5.818 -10.585  1.00  0.00    -0.203 F 
ATOM     72  F   UNL     1       2.426  -5.044 -13.517  1.00  0.00    -0.200 F 
ATOM     73  C   UNL     1       0.084  -4.838 -13.293  1.00  0.00     0.200 A 
ATOM     74  F   UNL     1      -2.252  -4.646 -13.019  1.00  0.00    -0.200 F 
ATOM     75  F   UNL     1       0.009  -4.231 -14.485  1.00  0.00    -0.200 F 
ENDBRANCH  51  65
BRANCH  52  76
ATOM     76  C   UNL     1       0.820 -10.444  -1.808  1.00  0.00     0.064 A 
ATOM     77  C   UNL     1       1.483 -11.662  -1.598  1.00  0.00     0.173 A 
ATOM     78  C   UNL     1       0.165  -9.864  -0.711  1.00  0.00     0.173 A 
ATOM     79  F   UNL     1       2.109 -12.267  -2.618  1.00  0.00    -0.203 F 
ATOM     80  C   UNL     1       1.460 -12.291  -0.355  1.00  0.00     0.198 A 
ATOM     81  C   UNL     1       0.172 -10.476   0.541  1.00  0.00     0.198 A 
ATOM     82  F   UNL     1      -0.479  -8.695  -0.852  1.00  0.00    -0.203 F 
ATOM     83  F   UNL     1       2.049 -13.485  -0.200  1.00  0.00    -0.200 F 
ATOM     84  C   UNL     1       0.808 -11.696   0.715  1.00  0.00     0.200 A 
ATOM     85  F   UNL     1      -0.442  -9.887   1.575  1.00  0.00    -0.200 F 
ATOM     86  F   UNL     1       0.786 -12.301   1.910  1.00  0.00    -0.200 F 
ENDBRANCH  52  76
BRANCH  64  87
ATOM     87  C   UNL     1      -1.938 -12.341  -7.931  1.00  0.00     0.064 A 
ATOM     88  C   UNL     1      -3.239 -12.658  -7.518  1.00  0.00     0.173 A 
ATOM     89  C   UNL     1      -1.316 -13.195  -8.856  1.00  0.00     0.173 A 
ATOM     90  F   UNL     1      -3.873 -11.882  -6.626  1.00  0.00    -0.203 F 
ATOM     91  C   UNL     1      -3.884 -13.796  -7.998  1.00  0.00     0.198 A 
ATOM     92  C   UNL     1      -1.976 -14.312  -9.358  1.00  0.00     0.198 A 
ATOM     93  F   UNL     1      -0.073 -12.933  -9.290  1.00  0.00    -0.203 F 
ATOM     94  F   UNL     1      -5.112 -14.104  -7.556  1.00  0.00    -0.200 F 
ATOM     95  C   UNL     1      -3.257 -14.616  -8.924  1.00  0.00     0.200 A 
ATOM     96  F   UNL     1      -1.374 -15.092 -10.267  1.00  0.00    -0.200 F 
ATOM     97  F   UNL     1      -3.886 -15.701  -9.396  1.00  0.00    -0.200 F 
ENDBRANCH  64  87
ENDBRANCH  38  39
ENDBRANCH  30  33
ENDBRANCH  28  29
ENDBRANCH  27  28
ENDBRANCH  26  27
ENDBRANCH  25  26
ENDBRANCH   1  25
TORSDOF 18
