REMARK SMILES O=C(NCCCCCCNC(=O)C1(NC(=O)c2ccc3[nH]nnc3c2)CCCC1)c1ccc(-c2c3nc(c(-c4c(F)c(F)c(F)c(F)c4F)c4ccc([nH]4)c(-c4c(F)c(F)c(F)c(F)c4F)c4nc(c(-c5c(F)c(F)c(F)c(F)c5F)c5ccc2[nH]5)C=C4)C=C3)cc1
REMARK SMILES IDX 6 1 5 2 4 3 3 4 1 5 2 6 30 8 31 9 92 10 32 11 91 12 33 13
REMARK SMILES IDX 34 14 35 15 85 16 36 17 90 18 84 19 86 20 37 21 89 22 83 23
REMARK SMILES IDX 82 24 38 26 70 27 50 28 69 29 51 30 54 31 68 32 87 33 52 34
REMARK SMILES IDX 53 35 67 37 88 38 55 39 39 40 40 41 48 42 41 43 42 44 46 45
REMARK SMILES IDX 49 46 43 47 44 48 47 49 45 50 71 51 72 52 80 53 73 54 74 55
REMARK SMILES IDX 78 56 81 57 75 58 76 59 79 60 77 61 56 62 57 63 65 64 58 65
REMARK SMILES IDX 59 66 63 67 66 68 60 69 61 70 64 71 62 72 7 73 8 74 9 75
REMARK SMILES IDX 10 76 11 77 12 79 13 80 26 81 29 82 27 83 28 84 14 85 15 86
REMARK SMILES IDX 16 88 17 89 18 90 25 91 19 92 24 93 20 94 23 95 21 96 22 97
REMARK H PARENT 3 7 86 25 54 36 10 78 14 87 21 98
REMARK Flexibility Score: inf
ROOT
ATOM      1  C   UNL     1       4.227  -2.922  -2.117  1.00  0.00     0.002 C 
ENDROOT
BRANCH   1   2
ATOM      2  C   UNL     1       4.681  -2.242  -0.832  1.00  0.00     0.021 C 
BRANCH   2   3
ATOM      3  C   UNL     1       4.379  -0.756  -0.755  1.00  0.00     0.116 C 
BRANCH   3   4
ATOM      4  N   UNL     1       2.959  -0.446  -0.820  1.00  0.00    -0.352 N 
ATOM      5  O   UNL     1       1.018   0.518  -0.163  1.00  0.00    -0.269 OA
ATOM      6  C   UNL     1       2.235   0.427  -0.044  1.00  0.00     0.251 C 
ATOM      7  H   UNL     1       2.449  -0.926  -1.512  1.00  0.00     0.163 HD
BRANCH   6   8
ATOM      8  C   UNL     1       2.941   1.230   0.976  1.00  0.00     0.039 A 
ATOM      9  C   UNL     1       4.129   1.887   0.656  1.00  0.00     0.014 A 
ATOM     10  C   UNL     1       2.441   1.269   2.281  1.00  0.00     0.014 A 
ATOM     11  C   UNL     1       4.909   2.420   1.671  1.00  0.00     0.010 A 
ATOM     12  C   UNL     1       3.178   1.904   3.284  1.00  0.00     0.010 A 
ATOM     13  C   UNL     1       4.441   2.445   2.996  1.00  0.00    -0.014 A 
BRANCH  13  14
ATOM     14  C   UNL     1       5.284   3.077   4.043  1.00  0.00     0.031 A 
ATOM     15  C   UNL     1       5.829   2.281   5.196  1.00  0.00     0.074 A 
ATOM     16  C   UNL     1       5.601   4.379   3.907  1.00  0.00     0.049 A 
ATOM     17  N   UNL     1       6.614   2.674   6.169  1.00  0.00    -0.248 NA
ATOM     18  C   UNL     1       5.439   0.865   5.279  1.00  0.00     0.031 C 
ATOM     19  C   UNL     1       5.119   5.253   2.835  1.00  0.00     0.029 A 
ATOM     20  N   UNL     1       6.427   5.186   4.646  1.00  0.00    -0.354 N 
ATOM     21  C   UNL     1       6.779   1.570   6.996  1.00  0.00     0.074 A 
ATOM     22  C   UNL     1       6.005   0.492   6.419  1.00  0.00     0.031 C 
ATOM     23  C   UNL     1       5.714   6.449   2.940  1.00  0.00     0.029 A 
ATOM     24  C   UNL     1       6.562   6.450   4.126  1.00  0.00     0.049 A 
ATOM     25  H   UNL     1       6.879   4.889   5.468  1.00  0.00     0.167 HD
ATOM     26  C   UNL     1       7.513   1.470   8.131  1.00  0.00     0.037 A 
ATOM     27  C   UNL     1       7.284   7.499   4.559  1.00  0.00     0.037 A 
ATOM     28  C   UNL     1       8.313   2.537   8.678  1.00  0.00     0.049 A 
ATOM     29  C   UNL     1       8.103   7.350   5.807  1.00  0.00     0.074 A 
ATOM     30  C   UNL     1       9.124   2.522   9.800  1.00  0.00     0.029 A 
ATOM     31  N   UNL     1       8.406   3.811   8.137  1.00  0.00    -0.354 N 
ATOM     32  N   UNL     1       8.264   6.295   6.567  1.00  0.00    -0.248 NA
ATOM     33  C   UNL     1       8.834   8.540   6.260  1.00  0.00     0.031 C 
ATOM     34  C   UNL     1       9.677   3.797   9.959  1.00  0.00     0.029 A 
ATOM     35  C   UNL     1       9.248   4.595   8.911  1.00  0.00     0.049 A 
ATOM     36  H   UNL     1       7.942   4.114   7.323  1.00  0.00     0.167 HD
ATOM     37  C   UNL     1       9.124   6.687   7.582  1.00  0.00     0.074 A 
ATOM     38  C   UNL     1       9.469   8.071   7.324  1.00  0.00     0.031 C 
ATOM     39  C   UNL     1       9.582   5.968   8.635  1.00  0.00     0.037 A 
BRANCH  26  40
ATOM     40  C   UNL     1       7.471   0.167   8.878  1.00  0.00     0.064 A 
ATOM     41  C   UNL     1       8.118  -0.982   8.402  1.00  0.00     0.173 A 
ATOM     42  C   UNL     1       6.812   0.083  10.115  1.00  0.00     0.173 A 
ATOM     43  F   UNL     1       8.754  -0.959   7.221  1.00  0.00    -0.203 F 
ATOM     44  C   UNL     1       8.089  -2.173   9.126  1.00  0.00     0.198 A 
ATOM     45  C   UNL     1       6.807  -1.101  10.848  1.00  0.00     0.198 A 
ATOM     46  F   UNL     1       6.184   1.155  10.620  1.00  0.00    -0.203 F 
ATOM     47  F   UNL     1       8.683  -3.269   8.633  1.00  0.00    -0.200 F 
ATOM     48  C   UNL     1       7.440  -2.229  10.350  1.00  0.00     0.200 A 
ATOM     49  F   UNL     1       6.190  -1.149  12.037  1.00  0.00    -0.200 F 
ATOM     50  F   UNL     1       7.421  -3.373  11.049  1.00  0.00    -0.200 F 
ENDBRANCH  26  40
BRANCH  27  51
ATOM     51  C   UNL     1       7.266   8.770   3.793  1.00  0.00     0.064 A 
ATOM     52  C   UNL     1       8.400   9.204   3.094  1.00  0.00     0.173 A 
ATOM     53  C   UNL     1       6.110   9.561   3.720  1.00  0.00     0.173 A 
ATOM     54  F   UNL     1       9.534   8.490   3.147  1.00  0.00    -0.203 F 
ATOM     55  C   UNL     1       8.382  10.388   2.360  1.00  0.00     0.198 A 
ATOM     56  C   UNL     1       6.084  10.728   2.961  1.00  0.00     0.198 A 
ATOM     57  F   UNL     1       4.997   9.183   4.365  1.00  0.00    -0.203 F 
ATOM     58  F   UNL     1       9.490  10.799   1.728  1.00  0.00    -0.200 F 
ATOM     59  C   UNL     1       7.221  11.144   2.287  1.00  0.00     0.200 A 
ATOM     60  F   UNL     1       4.955  11.445   2.878  1.00  0.00    -0.200 F 
ATOM     61  F   UNL     1       7.201  12.276   1.570  1.00  0.00    -0.200 F 
ENDBRANCH  27  51
BRANCH  39  62
ATOM     62  C   UNL     1      10.529   6.663   9.567  1.00  0.00     0.064 A 
ATOM     63  C   UNL     1      10.088   7.653  10.457  1.00  0.00     0.173 A 
ATOM     64  C   UNL     1      11.890   6.327   9.574  1.00  0.00     0.173 A 
ATOM     65  F   UNL     1       8.798   8.021  10.473  1.00  0.00    -0.203 F 
ATOM     66  C   UNL     1      10.984   8.303  11.302  1.00  0.00     0.198 A 
ATOM     67  C   UNL     1      12.778   6.960  10.439  1.00  0.00     0.198 A 
ATOM     68  F   UNL     1      12.359   5.384   8.743  1.00  0.00    -0.203 F 
ATOM     69  F   UNL     1      10.552   9.284  12.106  1.00  0.00    -0.200 F 
ATOM     70  C   UNL     1      12.326   7.953  11.295  1.00  0.00     0.200 A 
ATOM     71  F   UNL     1      14.073   6.616  10.437  1.00  0.00    -0.200 F 
ATOM     72  F   UNL     1      13.187   8.582  12.106  1.00  0.00    -0.200 F 
ENDBRANCH  39  62
ENDBRANCH  13  14
ENDBRANCH   6   8
ENDBRANCH   3   4
ENDBRANCH   2   3
ENDBRANCH   1   2
BRANCH   1  73
ATOM     73  C   UNL     1       4.691  -2.279  -3.424  1.00  0.00     0.002 C 
BRANCH  73  74
ATOM     74  C   UNL     1       6.204  -2.062  -3.552  1.00  0.00     0.021 C 
BRANCH  74  75
ATOM     75  C   UNL     1       7.046  -3.335  -3.487  1.00  0.00     0.116 C 
BRANCH  75  76
ATOM     76  N   UNL     1       6.826  -4.179  -4.645  1.00  0.00    -0.354 N 
ATOM     77  C   UNL     1       7.609  -5.163  -5.173  1.00  0.00     0.245 C 
ATOM     78  H   UNL     1       5.980  -4.018  -5.123  1.00  0.00     0.163 HD
ATOM     79  O   UNL     1       7.224  -5.670  -6.232  1.00  0.00    -0.272 OA
BRANCH  77  80
ATOM     80  C   UNL     1       8.980  -5.536  -4.535  1.00  0.00     0.119 C 
ATOM     81  C   UNL     1       9.672  -6.713  -5.257  1.00  0.00     0.038 C 
ATOM     82  C   UNL     1       9.955  -4.355  -4.821  1.00  0.00     0.038 C 
ATOM     83  C   UNL     1      11.161  -6.444  -5.098  1.00  0.00     0.003 C 
ATOM     84  C   UNL     1      11.284  -4.946  -5.284  1.00  0.00     0.003 C 
BRANCH  80  85
ATOM     85  N   UNL     1       8.947  -5.793  -3.074  1.00  0.00    -0.338 N 
ATOM     86  C   UNL     1       8.152  -6.613  -2.306  1.00  0.00     0.252 C 
ATOM     87  H   UNL     1       9.614  -5.284  -2.560  1.00  0.00     0.164 HD
ATOM     88  O   UNL     1       8.502  -6.888  -1.161  1.00  0.00    -0.269 OA
BRANCH  86  89
ATOM     89  C   UNL     1       6.799  -7.003  -2.753  1.00  0.00     0.042 A 
ATOM     90  C   UNL     1       6.569  -7.766  -3.902  1.00  0.00     0.016 A 
ATOM     91  C   UNL     1       5.729  -6.504  -1.992  1.00  0.00     0.046 A 
ATOM     92  C   UNL     1       5.275  -7.926  -4.418  1.00  0.00     0.031 A 
ATOM     93  C   UNL     1       4.435  -6.647  -2.506  1.00  0.00     0.113 A 
ATOM     94  C   UNL     1       4.244  -7.314  -3.706  1.00  0.00     0.086 A 
ATOM     95  N   UNL     1       3.233  -6.177  -2.048  1.00  0.00    -0.130 NA
ATOM     96  N   UNL     1       2.904  -7.167  -3.931  1.00  0.00    -0.258 N 
ATOM     97  N   UNL     1       2.303  -6.483  -2.944  1.00  0.00    -0.069 NA
ATOM     98  H   UNL     1       2.436  -7.521  -4.721  1.00  0.00     0.192 HD
ENDBRANCH  86  89
ENDBRANCH  80  85
ENDBRANCH  77  80
ENDBRANCH  75  76
ENDBRANCH  74  75
ENDBRANCH  73  74
ENDBRANCH   1  73
TORSDOF 15
