REMARK SMILES COc1ccc(CCC(=O)Nc2ccc(N3CCCC3)cc2C(=O)NCCCCCCNC(=O)c2ccc(-c3c4nc(c(-c5c(F)c(F)c(F)c(F)c5F)c5ccc([nH]5)c(-c5c(F)c(F)c(F)c(F)c5F)c5nc(c(-c6c(F)c(F)c(F)c(F)c6F)c6ccc3[nH]6)C=C5)C=C4)cc2)cc1
REMARK SMILES IDX 27 1 26 2 25 3 23 4 24 5 22 7 12 8 13 9 14 10 21 11 15 12
REMARK SMILES IDX 11 13 9 14 10 15 8 17 7 18 6 19 3 20 4 21 99 22 5 23 98 24
REMARK SMILES IDX 2 25 1 26 16 27 17 28 20 29 18 30 19 31 28 32 29 33 30 34
REMARK SMILES IDX 31 35 32 36 33 37 34 39 35 40 36 41 97 42 37 43 96 44 38 45
REMARK SMILES IDX 39 46 40 47 90 48 41 49 95 50 89 51 91 52 42 53 94 54 88 55
REMARK SMILES IDX 87 56 43 58 75 59 55 60 74 61 56 62 59 63 73 64 92 65 57 66
REMARK SMILES IDX 58 67 72 69 93 70 60 71 44 72 45 73 53 74 46 75 47 76 51 77
REMARK SMILES IDX 54 78 48 79 49 80 52 81 50 82 76 83 77 84 85 85 78 86 79 87
REMARK SMILES IDX 83 88 86 89 80 90 81 91 84 92 82 93 61 94 62 95 70 96 63 97
REMARK SMILES IDX 64 98 68 99 71 100 65 101 66 102 69 103 67 104
REMARK H PARENT 25 6 11 16 32 38 91 57 59 68
REMARK Flexibility Score: inf
ROOT
ATOM      1  C   UNL     1      -2.997  -6.226  -4.097  1.00  0.00     0.021 C 
ENDROOT
BRANCH   1   2
ATOM      2  C   UNL     1      -2.205  -6.314  -2.805  1.00  0.00     0.116 C 
BRANCH   2   3
ATOM      3  N   UNL     1      -0.896  -5.709  -2.882  1.00  0.00    -0.352 N 
ATOM      4  C   UNL     1      -0.624  -4.498  -2.256  1.00  0.00     0.253 C 
ATOM      5  O   UNL     1      -1.286  -3.496  -2.541  1.00  0.00    -0.269 OA
ATOM      6  H   UNL     1      -0.183  -6.162  -3.387  1.00  0.00     0.163 HD
BRANCH   4   7
ATOM      7  C   UNL     1       0.335  -4.487  -1.083  1.00  0.00     0.065 A 
ATOM      8  C   UNL     1       0.589  -5.683  -0.436  1.00  0.00     0.054 A 
ATOM      9  C   UNL     1       0.653  -5.695   0.946  1.00  0.00     0.029 A 
ATOM     10  C   UNL     1       1.089  -4.529   1.560  1.00  0.00     0.028 A 
ATOM     11  C   UNL     1       0.830  -3.332  -0.461  1.00  0.00     0.042 A 
ATOM     12  C   UNL     1       1.437  -3.406   0.801  1.00  0.00     0.038 A 
BRANCH   8  13
ATOM     13  N   UNL     1       1.067  -6.794  -1.143  1.00  0.00    -0.325 N 
ATOM     14  C   UNL     1       1.847  -6.747  -2.286  1.00  0.00     0.224 C 
ATOM     15  O   UNL     1       1.839  -7.738  -3.021  1.00  0.00    -0.275 OA
ATOM     16  H   UNL     1       0.829  -7.684  -0.797  1.00  0.00     0.169 HD
BRANCH  14  17
ATOM     17  C   UNL     1       2.781  -5.536  -2.584  1.00  0.00     0.105 C 
BRANCH  17  18
ATOM     18  C   UNL     1       2.538  -4.651  -3.846  1.00  0.00     0.045 C 
BRANCH  18  19
ATOM     19  C   UNL     1       2.285  -3.152  -3.648  1.00  0.00    -0.047 A 
ATOM     20  C   UNL     1       1.436  -0.617  -2.743  1.00  0.00     0.118 A 
ATOM     21  C   UNL     1       0.660  -1.323  -3.653  1.00  0.00     0.046 A 
ATOM     22  C   UNL     1       2.755  -1.028  -2.530  1.00  0.00     0.046 A 
ATOM     23  C   UNL     1       1.101  -2.570  -4.129  1.00  0.00     0.007 A 
ATOM     24  C   UNL     1       3.167  -2.311  -2.952  1.00  0.00     0.007 A 
BRANCH  20  25
ATOM     25  O   UNL     1       0.729  -0.130  -1.655  1.00  0.00    -0.497 OA
ATOM     26  C   UNL     1       0.611   1.262  -1.470  1.00  0.00     0.278 C 
ENDBRANCH  20  25
ENDBRANCH  18  19
ENDBRANCH  17  18
ENDBRANCH  14  17
ENDBRANCH   8  13
BRANCH  12  27
ATOM     27  N   UNL     1       2.385  -2.544   1.304  1.00  0.00    -0.372 N 
ATOM     28  C   UNL     1       2.596  -1.142   0.986  1.00  0.00     0.116 C 
ATOM     29  C   UNL     1       3.590  -3.118   1.928  1.00  0.00     0.116 C 
ATOM     30  C   UNL     1       4.114  -0.954   1.068  1.00  0.00     0.023 C 
ATOM     31  C   UNL     1       4.526  -1.935   2.148  1.00  0.00     0.023 C 
ENDBRANCH  12  27
ENDBRANCH   4   7
ENDBRANCH   2   3
ENDBRANCH   1   2
BRANCH   1  32
ATOM     32  C   UNL     1      -2.404  -6.872  -5.355  1.00  0.00     0.002 C 
BRANCH  32  33
ATOM     33  C   UNL     1      -1.727  -8.246  -5.288  1.00  0.00     0.002 C 
BRANCH  33  34
ATOM     34  C   UNL     1      -2.421  -9.386  -4.548  1.00  0.00     0.021 C 
BRANCH  34  35
ATOM     35  C   UNL     1      -3.911  -9.547  -4.786  1.00  0.00     0.116 C 
BRANCH  35  36
ATOM     36  N   UNL     1      -4.253  -9.932  -6.144  1.00  0.00    -0.352 N 
ATOM     37  C   UNL     1      -5.245 -10.790  -6.536  1.00  0.00     0.251 C 
ATOM     38  H   UNL     1      -3.712  -9.531  -6.862  1.00  0.00     0.163 HD
ATOM     39  O   UNL     1      -5.364 -11.117  -7.728  1.00  0.00    -0.269 OA
BRANCH  37  40
ATOM     40  C   UNL     1      -6.160 -11.362  -5.529  1.00  0.00     0.039 A 
ATOM     41  C   UNL     1      -6.394 -12.739  -5.524  1.00  0.00     0.014 A 
ATOM     42  C   UNL     1      -6.765 -10.543  -4.569  1.00  0.00     0.014 A 
ATOM     43  C   UNL     1      -7.204 -13.299  -4.535  1.00  0.00     0.010 A 
ATOM     44  C   UNL     1      -7.502 -11.112  -3.535  1.00  0.00     0.010 A 
ATOM     45  C   UNL     1      -7.750 -12.492  -3.521  1.00  0.00    -0.014 A 
BRANCH  45  46
ATOM     46  C   UNL     1      -8.633 -13.072  -2.478  1.00  0.00     0.031 A 
ATOM     47  C   UNL     1     -10.079 -12.658  -2.412  1.00  0.00     0.074 A 
ATOM     48  C   UNL     1      -8.135 -13.944  -1.580  1.00  0.00     0.049 A 
ATOM     49  N   UNL     1     -11.012 -13.030  -1.572  1.00  0.00    -0.248 NA
ATOM     50  C   UNL     1     -10.531 -11.672  -3.407  1.00  0.00     0.031 C 
ATOM     51  C   UNL     1      -6.741 -14.385  -1.513  1.00  0.00     0.029 A 
ATOM     52  N   UNL     1      -8.746 -14.617  -0.552  1.00  0.00    -0.354 N 
ATOM     53  C   UNL     1     -12.149 -12.320  -1.934  1.00  0.00     0.074 A 
ATOM     54  C   UNL     1     -11.775 -11.443  -3.020  1.00  0.00     0.031 C 
ATOM     55  C   UNL     1      -6.612 -15.282  -0.521  1.00  0.00     0.029 A 
ATOM     56  C   UNL     1      -7.903 -15.454   0.138  1.00  0.00     0.049 A 
ATOM     57  H   UNL     1      -9.699 -14.509  -0.329  1.00  0.00     0.167 HD
ATOM     58  C   UNL     1     -13.403 -12.414  -1.430  1.00  0.00     0.037 A 
ATOM     59  C   UNL     1      -8.150 -16.271   1.179  1.00  0.00     0.037 A 
ATOM     60  C   UNL     1     -13.776 -13.307  -0.365  1.00  0.00     0.049 A 
ATOM     61  C   UNL     1      -9.552 -16.355   1.724  1.00  0.00     0.074 A 
ATOM     62  C   UNL     1     -15.024 -13.509   0.197  1.00  0.00     0.029 A 
ATOM     63  N   UNL     1     -12.896 -14.152   0.297  1.00  0.00    -0.354 N 
ATOM     64  N   UNL     1     -10.633 -15.725   1.333  1.00  0.00    -0.248 NA
ATOM     65  C   UNL     1      -9.770 -17.277   2.847  1.00  0.00     0.031 C 
ATOM     66  C   UNL     1     -14.892 -14.446   1.227  1.00  0.00     0.029 A 
ATOM     67  C   UNL     1     -13.573 -14.868   1.270  1.00  0.00     0.049 A 
ATOM     68  H   UNL     1     -11.934 -14.230   0.103  1.00  0.00     0.167 HD
ATOM     69  C   UNL     1     -11.664 -16.200   2.133  1.00  0.00     0.074 A 
ATOM     70  C   UNL     1     -11.080 -17.182   3.023  1.00  0.00     0.031 C 
ATOM     71  C   UNL     1     -12.976 -15.856   2.132  1.00  0.00     0.037 A 
BRANCH  58  72
ATOM     72  C   UNL     1     -14.461 -11.536  -2.034  1.00  0.00     0.064 A 
ATOM     73  C   UNL     1     -14.922 -11.737  -3.345  1.00  0.00     0.173 A 
ATOM     74  C   UNL     1     -15.041 -10.498  -1.289  1.00  0.00     0.173 A 
ATOM     75  F   UNL     1     -14.393 -12.707  -4.106  1.00  0.00    -0.203 F 
ATOM     76  C   UNL     1     -15.899 -10.912  -3.897  1.00  0.00     0.198 A 
ATOM     77  C   UNL     1     -16.041  -9.696  -1.833  1.00  0.00     0.198 A 
ATOM     78  F   UNL     1     -14.642 -10.264  -0.030  1.00  0.00    -0.203 F 
ATOM     79  F   UNL     1     -16.282 -11.089  -5.170  1.00  0.00    -0.200 F 
ATOM     80  C   UNL     1     -16.463  -9.898  -3.139  1.00  0.00     0.200 A 
ATOM     81  F   UNL     1     -16.595  -8.725  -1.095  1.00  0.00    -0.200 F 
ATOM     82  F   UNL     1     -17.408  -9.109  -3.669  1.00  0.00    -0.200 F 
ENDBRANCH  58  72
BRANCH  59  83
ATOM     83  C   UNL     1      -7.061 -17.105   1.752  1.00  0.00     0.064 A 
ATOM     84  C   UNL     1      -7.077 -18.501   1.620  1.00  0.00     0.173 A 
ATOM     85  C   UNL     1      -5.994 -16.531   2.459  1.00  0.00     0.173 A 
ATOM     86  F   UNL     1      -8.085 -19.100   0.969  1.00  0.00    -0.203 F 
ATOM     87  C   UNL     1      -6.085 -19.293   2.196  1.00  0.00     0.198 A 
ATOM     88  C   UNL     1      -4.986 -17.322   3.010  1.00  0.00     0.198 A 
ATOM     89  F   UNL     1      -5.927 -15.201   2.611  1.00  0.00    -0.203 F 
ATOM     90  F   UNL     1      -6.156 -20.627   2.101  1.00  0.00    -0.200 F 
ATOM     91  C   UNL     1      -5.038 -18.702   2.887  1.00  0.00     0.200 A 
ATOM     92  F   UNL     1      -3.969 -16.745   3.664  1.00  0.00    -0.200 F 
ATOM     93  F   UNL     1      -4.085 -19.462   3.443  1.00  0.00    -0.200 F 
ENDBRANCH  59  83
BRANCH  71  94
ATOM     94  C   UNL     1     -13.878 -16.586   3.085  1.00  0.00     0.064 A 
ATOM     95  C   UNL     1     -13.817 -16.377   4.471  1.00  0.00     0.173 A 
ATOM     96  C   UNL     1     -14.839 -17.485   2.598  1.00  0.00     0.173 A 
ATOM     97  F   UNL     1     -12.906 -15.537   4.987  1.00  0.00    -0.203 F 
ATOM     98  C   UNL     1     -14.662 -17.067   5.336  1.00  0.00     0.198 A 
ATOM     99  C   UNL     1     -15.705 -18.147   3.463  1.00  0.00     0.198 A 
ATOM    100  F   UNL     1     -14.945 -17.713   1.280  1.00  0.00    -0.203 F 
ATOM    101  F   UNL     1     -14.547 -16.894   6.660  1.00  0.00    -0.200 F 
ATOM    102  C   UNL     1     -15.609 -17.945   4.831  1.00  0.00     0.200 A 
ATOM    103  F   UNL     1     -16.630 -18.983   2.972  1.00  0.00    -0.200 F 
ATOM    104  F   UNL     1     -16.424 -18.605   5.665  1.00  0.00    -0.200 F 
ENDBRANCH  71  94
ENDBRANCH  45  46
ENDBRANCH  37  40
ENDBRANCH  35  36
ENDBRANCH  34  35
ENDBRANCH  33  34
ENDBRANCH  32  33
ENDBRANCH   1  32
TORSDOF 19
