REMARK SMILES CC[NH2+][C@@]1(C(=O)NCCCCCCNC(=O)c2ccc(-c3c4nc(c(-c5c(F)c(F)c(F)c(F)c5F)c5ccc([nH]5)c(-c5c(F)c(F)c(F)c(F)c5F)c5nc(c(-c6c(F)c(F)c(F)c(F)c6F)c6ccc3[nH]6)C=C5)C=C4)cc2)CC[C@@H](Oc2cccc(OC)c2)C1
REMARK SMILES IDX 10 1 9 2 8 3 7 4 5 5 6 6 4 8 80 9 92 10 81 11 82 12 3 13
REMARK SMILES IDX 2 16 1 17 83 18 84 19 85 20 91 21 86 22 88 23 87 24 89 25
REMARK SMILES IDX 90 26 11 27 12 28 13 29 14 30 15 31 16 33 17 34 18 35 79 36
REMARK SMILES IDX 19 37 78 38 20 39 21 40 22 41 72 42 23 43 77 44 71 45 73 46
REMARK SMILES IDX 24 47 76 48 70 49 69 50 25 52 57 53 37 54 56 55 38 56 41 57
REMARK SMILES IDX 55 58 74 59 39 60 40 61 54 63 75 64 42 65 26 66 27 67 35 68
REMARK SMILES IDX 28 69 29 70 33 71 36 72 30 73 31 74 34 75 32 76 58 77 59 78
REMARK SMILES IDX 67 79 60 80 61 81 65 82 68 83 62 84 63 85 66 86 64 87 43 88
REMARK SMILES IDX 44 89 52 90 45 91 46 92 50 93 53 94 47 95 48 96 51 97 49 98
REMARK H PARENT 7 7 3 14 3 15 14 32 73 51 41 62
REMARK Flexibility Score: inf
ROOT
ATOM      1  C   UNL     1      -3.586   6.556   1.371  1.00  0.00     0.002 C 
ENDROOT
BRANCH   1   2
ATOM      2  C   UNL     1      -2.733   6.342   0.117  1.00  0.00     0.021 C 
BRANCH   2   3
ATOM      3  C   UNL     1      -1.264   6.106   0.440  1.00  0.00     0.116 C 
BRANCH   3   4
ATOM      4  N   UNL     1      -1.057   4.773   0.917  1.00  0.00    -0.351 N 
ATOM      5  C   UNL     1      -0.399   3.685   0.460  1.00  0.00     0.281 C 
ATOM      6  O   UNL     1      -0.554   2.736   1.237  1.00  0.00    -0.268 OA
ATOM      7  H   UNL     1      -1.498   4.610   1.782  1.00  0.00     0.163 HD
BRANCH   5   8
ATOM      8  C   UNL     1       0.498   3.637  -0.860  1.00  0.00     0.179 C 
ATOM      9  C   UNL     1       1.622   4.699  -0.780  1.00  0.00     0.083 C 
ATOM     10  C   UNL     1      -0.258   3.966  -2.173  1.00  0.00     0.124 C 
ATOM     11  C   UNL     1       1.338   5.811  -1.788  1.00  0.00     0.052 C 
ATOM     12  C   UNL     1       0.089   5.406  -2.583  1.00  0.00     0.180 C 
BRANCH   8  13
ATOM     13  N   UNL     1       1.155   2.296  -1.106  1.00  0.00    -0.334 N 
ATOM     14  H   UNL     1       0.947   2.033  -2.070  1.00  0.00     0.347 HD
ATOM     15  H   UNL     1       2.136   2.457  -0.882  1.00  0.00     0.347 HD
BRANCH  13  16
ATOM     16  C   UNL     1       0.782   1.162  -0.262  1.00  0.00     0.257 C 
ATOM     17  C   UNL     1       1.481  -0.117  -0.699  1.00  0.00     0.071 C 
ENDBRANCH  13  16
ENDBRANCH   8  13
BRANCH  12  18
ATOM     18  O   UNL     1       0.054   5.663  -3.997  1.00  0.00    -0.490 OA
BRANCH  18  19
ATOM     19  C   UNL     1       1.264   5.630  -4.622  1.00  0.00     0.123 A 
ATOM     20  C   UNL     1       1.931   6.822  -4.903  1.00  0.00     0.047 A 
ATOM     21  C   UNL     1       1.806   4.404  -4.984  1.00  0.00     0.092 A 
ATOM     22  C   UNL     1       3.198   6.772  -5.482  1.00  0.00     0.008 A 
ATOM     23  C   UNL     1       3.076   4.347  -5.548  1.00  0.00     0.122 A 
ATOM     24  C   UNL     1       3.771   5.535  -5.794  1.00  0.00     0.046 A 
BRANCH  23  25
ATOM     25  O   UNL     1       3.730   3.194  -5.890  1.00  0.00    -0.497 OA
ATOM     26  C   UNL     1       3.095   1.981  -5.490  1.00  0.00     0.278 C 
ENDBRANCH  23  25
ENDBRANCH  18  19
ENDBRANCH  12  18
ENDBRANCH   5   8
ENDBRANCH   3   4
ENDBRANCH   2   3
ENDBRANCH   1   2
BRANCH   1  27
ATOM     27  C   UNL     1      -3.052   7.636   2.321  1.00  0.00     0.002 C 
BRANCH  27  28
ATOM     28  C   UNL     1      -2.724   8.970   1.645  1.00  0.00     0.021 C 
BRANCH  28  29
ATOM     29  C   UNL     1      -3.901   9.585   0.904  1.00  0.00     0.116 C 
BRANCH  29  30
ATOM     30  N   UNL     1      -5.012   9.854   1.801  1.00  0.00    -0.352 N 
ATOM     31  C   UNL     1      -5.679  11.037   2.003  1.00  0.00     0.251 C 
ATOM     32  H   UNL     1      -5.327   9.088   2.334  1.00  0.00     0.163 HD
ATOM     33  O   UNL     1      -6.439  11.183   2.943  1.00  0.00    -0.269 OA
BRANCH  31  34
ATOM     34  C   UNL     1      -5.442  12.137   1.049  1.00  0.00     0.039 A 
ATOM     35  C   UNL     1      -5.120  13.405   1.536  1.00  0.00     0.014 A 
ATOM     36  C   UNL     1      -5.504  11.888  -0.325  1.00  0.00     0.014 A 
ATOM     37  C   UNL     1      -4.809  14.423   0.635  1.00  0.00     0.010 A 
ATOM     38  C   UNL     1      -5.122  12.880  -1.215  1.00  0.00     0.010 A 
ATOM     39  C   UNL     1      -4.781  14.158  -0.744  1.00  0.00    -0.014 A 
BRANCH  39  40
ATOM     40  C   UNL     1      -4.435  15.202  -1.736  1.00  0.00     0.031 A 
ATOM     41  C   UNL     1      -5.470  15.628  -2.738  1.00  0.00     0.074 A 
ATOM     42  C   UNL     1      -3.178  15.680  -1.802  1.00  0.00     0.049 A 
ATOM     43  N   UNL     1      -5.337  16.377  -3.801  1.00  0.00    -0.248 NA
ATOM     44  C   UNL     1      -6.832  15.108  -2.534  1.00  0.00     0.031 C 
ATOM     45  C   UNL     1      -2.086  15.321  -0.897  1.00  0.00     0.029 A 
ATOM     46  N   UNL     1      -2.602  16.552  -2.691  1.00  0.00    -0.354 N 
ATOM     47  C   UNL     1      -6.587  16.395  -4.405  1.00  0.00     0.074 A 
ATOM     48  C   UNL     1      -7.453  15.544  -3.619  1.00  0.00     0.031 C 
ATOM     49  C   UNL     1      -0.973  15.971  -1.273  1.00  0.00     0.029 A 
ATOM     50  C   UNL     1      -1.260  16.750  -2.474  1.00  0.00     0.049 A 
ATOM     51  H   UNL     1      -3.102  16.994  -3.414  1.00  0.00     0.167 HD
ATOM     52  C   UNL     1      -6.978  17.076  -5.507  1.00  0.00     0.037 A 
ATOM     53  C   UNL     1      -0.361  17.461  -3.181  1.00  0.00     0.037 A 
ATOM     54  C   UNL     1      -6.114  17.942  -6.262  1.00  0.00     0.049 A 
ATOM     55  C   UNL     1      -0.817  18.193  -4.416  1.00  0.00     0.074 A 
ATOM     56  C   UNL     1      -6.423  18.721  -7.363  1.00  0.00     0.029 A 
ATOM     57  N   UNL     1      -4.768  18.143  -5.991  1.00  0.00    -0.354 N 
ATOM     58  N   UNL     1      -2.011  18.244  -4.954  1.00  0.00    -0.248 NA
ATOM     59  C   UNL     1       0.200  18.967  -5.143  1.00  0.00     0.031 C 
ATOM     60  C   UNL     1      -5.252  19.355  -7.789  1.00  0.00     0.029 A 
ATOM     61  C   UNL     1      -4.228  19.019  -6.917  1.00  0.00     0.049 A 
ATOM     62  H   UNL     1      -4.272  17.725  -5.251  1.00  0.00     0.167 HD
ATOM     63  C   UNL     1      -1.901  19.084  -6.053  1.00  0.00     0.074 A 
ATOM     64  C   UNL     1      -0.522  19.521  -6.108  1.00  0.00     0.031 C 
ATOM     65  C   UNL     1      -2.858  19.465  -6.934  1.00  0.00     0.037 A 
BRANCH  52  66
ATOM     66  C   UNL     1      -8.398  16.907  -5.963  1.00  0.00     0.064 A 
ATOM     67  C   UNL     1      -9.476  17.415  -5.221  1.00  0.00     0.173 A 
ATOM     68  C   UNL     1      -8.683  16.259  -7.174  1.00  0.00     0.173 A 
ATOM     69  F   UNL     1      -9.259  18.033  -4.050  1.00  0.00    -0.203 F 
ATOM     70  C   UNL     1     -10.787  17.252  -5.660  1.00  0.00     0.198 A 
ATOM     71  C   UNL     1      -9.994  16.128  -7.626  1.00  0.00     0.198 A 
ATOM     72  F   UNL     1      -7.690  15.758  -7.924  1.00  0.00    -0.203 F 
ATOM     73  F   UNL     1     -11.803  17.698  -4.908  1.00  0.00    -0.200 F 
ATOM     74  C   UNL     1     -11.045  16.616  -6.865  1.00  0.00     0.200 A 
ATOM     75  F   UNL     1     -10.239  15.525  -8.798  1.00  0.00    -0.200 F 
ATOM     76  F   UNL     1     -12.307  16.468  -7.290  1.00  0.00    -0.200 F 
ENDBRANCH  52  66
BRANCH  53  77
ATOM     77  C   UNL     1       1.055  17.524  -2.734  1.00  0.00     0.064 A 
ATOM     78  C   UNL     1       1.600  18.719  -2.242  1.00  0.00     0.173 A 
ATOM     79  C   UNL     1       1.893  16.401  -2.790  1.00  0.00     0.173 A 
ATOM     80  F   UNL     1       0.844  19.825  -2.185  1.00  0.00    -0.203 F 
ATOM     81  C   UNL     1       2.933  18.793  -1.844  1.00  0.00     0.198 A 
ATOM     82  C   UNL     1       3.218  16.468  -2.364  1.00  0.00     0.198 A 
ATOM     83  F   UNL     1       1.420  15.232  -3.246  1.00  0.00    -0.203 F 
ATOM     84  F   UNL     1       3.440  19.959  -1.421  1.00  0.00    -0.200 F 
ATOM     85  C   UNL     1       3.740  17.666  -1.900  1.00  0.00     0.200 A 
ATOM     86  F   UNL     1       3.989  15.373  -2.405  1.00  0.00    -0.200 F 
ATOM     87  F   UNL     1       5.021  17.736  -1.514  1.00  0.00    -0.200 F 
ENDBRANCH  53  77
BRANCH  65  88
ATOM     88  C   UNL     1      -2.475  20.450  -7.998  1.00  0.00     0.064 A 
ATOM     89  C   UNL     1      -1.692  20.082  -9.101  1.00  0.00     0.173 A 
ATOM     90  C   UNL     1      -2.979  21.760  -7.955  1.00  0.00     0.173 A 
ATOM     91  F   UNL     1      -1.175  18.847  -9.180  1.00  0.00    -0.203 F 
ATOM     92  C   UNL     1      -1.420  20.993 -10.118  1.00  0.00     0.198 A 
ATOM     93  C   UNL     1      -2.730  22.658  -8.987  1.00  0.00     0.198 A 
ATOM     94  F   UNL     1      -3.739  22.157  -6.923  1.00  0.00    -0.203 F 
ATOM     95  F   UNL     1      -0.645  20.631 -11.150  1.00  0.00    -0.200 F 
ATOM     96  C   UNL     1      -1.949  22.275 -10.067  1.00  0.00     0.200 A 
ATOM     97  F   UNL     1      -3.256  23.890  -8.943  1.00  0.00    -0.200 F 
ATOM     98  F   UNL     1      -1.705  23.142 -11.059  1.00  0.00    -0.200 F 
ENDBRANCH  65  88
ENDBRANCH  39  40
ENDBRANCH  31  34
ENDBRANCH  29  30
ENDBRANCH  28  29
ENDBRANCH  27  28
ENDBRANCH   1  27
TORSDOF 18
