REMARK SMILES CCCCNC(=O)c1cnn([C@@H](C)C(=O)NCCCCCCNC(=O)c2ccc(-c3c4nc(c(-c5c(F)c(F)c(F)c(F)c5F)c5ccc([nH]5)c(-c5c(F)c(F)c(F)c(F)c5F)c5nc(c(-c6c(F)c(F)c(F)c(F)c6F)c6ccc3[nH]6)C=C5)C=C4)cc2)c1
REMARK SMILES IDX 18 1 17 2 16 3 14 4 15 5 12 7 13 8 11 9 8 10 9 11 89 12
REMARK SMILES IDX 10 13 6 14 5 15 7 17 4 18 3 19 2 20 1 21 19 22 20 23 21 24
REMARK SMILES IDX 22 25 23 26 24 27 25 29 26 30 27 31 88 32 28 33 87 34 29 35
REMARK SMILES IDX 30 36 31 37 81 38 32 39 86 40 80 41 82 42 33 43 85 44 79 45
REMARK SMILES IDX 78 46 34 48 66 49 46 50 65 51 47 52 50 53 64 54 83 55 48 56
REMARK SMILES IDX 49 57 63 59 84 60 51 61 35 62 36 63 44 64 37 65 38 66 42 67
REMARK SMILES IDX 45 68 39 69 40 70 43 71 41 72 67 73 68 74 76 75 69 76 70 77
REMARK SMILES IDX 74 78 77 79 71 80 72 81 75 82 73 83 52 84 53 85 61 86 54 87
REMARK SMILES IDX 55 88 59 89 62 90 56 91 57 92 60 93 58 94
REMARK H PARENT 16 6 5 16 23 28 82 47 50 58
REMARK Flexibility Score: inf
ROOT
ATOM      1  C   UNL     1       1.620   7.462  -4.895  1.00  0.00     0.021 C 
ENDROOT
BRANCH   1   2
ATOM      2  C   UNL     1       1.817   8.504  -3.789  1.00  0.00     0.116 C 
BRANCH   2   3
ATOM      3  N   UNL     1       0.640   9.339  -3.622  1.00  0.00    -0.354 N 
ATOM      4  C   UNL     1      -0.312   9.354  -2.646  1.00  0.00     0.244 C 
ATOM      5  O   UNL     1      -1.286  10.093  -2.841  1.00  0.00    -0.273 OA
ATOM      6  H   UNL     1       0.508  10.007  -4.333  1.00  0.00     0.163 HD
BRANCH   4   7
ATOM      7  C   UNL     1      -0.203   8.578  -1.335  1.00  0.00     0.193 C 
ATOM      8  C   UNL     1       1.017   8.961  -0.499  1.00  0.00     0.044 C 
BRANCH   7   9
ATOM      9  N   UNL     1      -0.382   7.142  -1.511  1.00  0.00    -0.260 N 
ATOM     10  C   UNL     1      -1.062   5.052  -1.341  1.00  0.00     0.077 A 
ATOM     11  C   UNL     1      -0.021   5.207  -2.270  1.00  0.00     0.149 A 
ATOM     12  C   UNL     1      -1.323   6.342  -0.916  1.00  0.00     0.123 A 
ATOM     13  N   UNL     1       0.475   6.437  -2.268  1.00  0.00    -0.180 NA
BRANCH  10  14
ATOM     14  C   UNL     1      -1.732   3.836  -0.940  1.00  0.00     0.254 C 
ATOM     15  N   UNL     1      -0.952   2.718  -0.734  1.00  0.00    -0.352 N 
ATOM     16  H   UNL     1      -1.446   1.872  -0.641  1.00  0.00     0.163 HD
ATOM     17  O   UNL     1      -2.940   3.772  -0.771  1.00  0.00    -0.269 OA
BRANCH  15  18
ATOM     18  C   UNL     1       0.496   2.608  -0.634  1.00  0.00     0.116 C 
BRANCH  18  19
ATOM     19  C   UNL     1       0.955   2.173   0.754  1.00  0.00     0.021 C 
BRANCH  19  20
ATOM     20  C   UNL     1       0.526   0.763   1.154  1.00  0.00    -0.002 C 
ATOM     21  C   UNL     1       1.046  -0.311   0.212  1.00  0.00     0.004 C 
ENDBRANCH  19  20
ENDBRANCH  18  19
ENDBRANCH  15  18
ENDBRANCH  10  14
ENDBRANCH   7   9
ENDBRANCH   4   7
ENDBRANCH   2   3
ENDBRANCH   1   2
BRANCH   1  22
ATOM     22  C   UNL     1       1.736   8.024  -6.312  1.00  0.00     0.002 C 
BRANCH  22  23
ATOM     23  C   UNL     1       3.022   8.812  -6.600  1.00  0.00     0.002 C 
BRANCH  23  24
ATOM     24  C   UNL     1       4.340   8.103  -6.253  1.00  0.00     0.021 C 
BRANCH  24  25
ATOM     25  C   UNL     1       4.613   6.891  -7.126  1.00  0.00     0.116 C 
BRANCH  25  26
ATOM     26  N   UNL     1       4.821   7.258  -8.529  1.00  0.00    -0.352 N 
ATOM     27  C   UNL     1       5.108   6.439  -9.601  1.00  0.00     0.251 C 
ATOM     28  H   UNL     1       4.745   8.218  -8.734  1.00  0.00     0.163 HD
ATOM     29  O   UNL     1       5.587   6.885 -10.635  1.00  0.00    -0.269 OA
BRANCH  27  30
ATOM     30  C   UNL     1       4.806   5.005  -9.482  1.00  0.00     0.039 A 
ATOM     31  C   UNL     1       5.656   4.019  -9.996  1.00  0.00     0.014 A 
ATOM     32  C   UNL     1       3.639   4.663  -8.811  1.00  0.00     0.014 A 
ATOM     33  C   UNL     1       5.344   2.681  -9.769  1.00  0.00     0.010 A 
ATOM     34  C   UNL     1       3.448   3.374  -8.413  1.00  0.00     0.010 A 
ATOM     35  C   UNL     1       4.237   2.373  -8.969  1.00  0.00    -0.014 A 
BRANCH  35  36
ATOM     36  C   UNL     1       3.895   1.007  -8.595  1.00  0.00     0.031 A 
ATOM     37  C   UNL     1       4.927   0.320  -7.767  1.00  0.00     0.074 A 
ATOM     38  C   UNL     1       2.618   0.577  -8.735  1.00  0.00     0.049 A 
ATOM     39  N   UNL     1       5.521  -0.803  -8.000  1.00  0.00    -0.248 NA
ATOM     40  C   UNL     1       5.460   1.033  -6.590  1.00  0.00     0.031 C 
ATOM     41  C   UNL     1       1.465   1.333  -9.252  1.00  0.00     0.029 A 
ATOM     42  N   UNL     1       2.036  -0.575  -8.306  1.00  0.00    -0.354 N 
ATOM     43  C   UNL     1       6.353  -1.035  -6.904  1.00  0.00     0.074 A 
ATOM     44  C   UNL     1       6.418   0.202  -6.176  1.00  0.00     0.031 C 
ATOM     45  C   UNL     1       0.315   0.733  -8.876  1.00  0.00     0.029 A 
ATOM     46  C   UNL     1       0.643  -0.530  -8.249  1.00  0.00     0.049 A 
ATOM     47  H   UNL     1       2.555  -1.374  -8.056  1.00  0.00     0.167 HD
ATOM     48  C   UNL     1       6.703  -2.302  -6.547  1.00  0.00     0.037 A 
ATOM     49  C   UNL     1      -0.169  -1.453  -7.674  1.00  0.00     0.037 A 
ATOM     50  C   UNL     1       6.469  -3.220  -7.633  1.00  0.00     0.049 A 
ATOM     51  C   UNL     1       0.634  -2.690  -7.510  1.00  0.00     0.074 A 
ATOM     52  C   UNL     1       6.965  -3.356  -8.914  1.00  0.00     0.029 A 
ATOM     53  N   UNL     1       5.314  -3.960  -7.596  1.00  0.00    -0.354 N 
ATOM     54  N   UNL     1       1.082  -3.397  -8.511  1.00  0.00    -0.248 NA
ATOM     55  C   UNL     1       1.351  -2.854  -6.254  1.00  0.00     0.031 C 
ATOM     56  C   UNL     1       5.846  -3.761  -9.699  1.00  0.00     0.029 A 
ATOM     57  C   UNL     1       4.755  -3.927  -8.845  1.00  0.00     0.049 A 
ATOM     58  H   UNL     1       4.952  -4.431  -6.811  1.00  0.00     0.167 HD
ATOM     59  C   UNL     1       2.370  -3.755  -8.139  1.00  0.00     0.074 A 
ATOM     60  C   UNL     1       2.456  -3.448  -6.713  1.00  0.00     0.031 C 
ATOM     61  C   UNL     1       3.332  -3.982  -9.082  1.00  0.00     0.037 A 
BRANCH  48  62
ATOM     62  C   UNL     1       6.859  -2.787  -5.120  1.00  0.00     0.064 A 
ATOM     63  C   UNL     1       7.271  -4.119  -4.900  1.00  0.00     0.173 A 
ATOM     64  C   UNL     1       6.320  -2.129  -3.993  1.00  0.00     0.173 A 
ATOM     65  F   UNL     1       7.799  -4.845  -5.897  1.00  0.00    -0.203 F 
ATOM     66  C   UNL     1       7.056  -4.770  -3.683  1.00  0.00     0.198 A 
ATOM     67  C   UNL     1       6.156  -2.767  -2.764  1.00  0.00     0.198 A 
ATOM     68  F   UNL     1       5.826  -0.889  -4.050  1.00  0.00    -0.203 F 
ATOM     69  F   UNL     1       7.333  -6.076  -3.569  1.00  0.00    -0.200 F 
ATOM     70  C   UNL     1       6.487  -4.097  -2.619  1.00  0.00     0.200 A 
ATOM     71  F   UNL     1       5.589  -2.100  -1.748  1.00  0.00    -0.200 F 
ATOM     72  F   UNL     1       6.212  -4.736  -1.475  1.00  0.00    -0.200 F 
ENDBRANCH  48  62
BRANCH  49  73
ATOM     73  C   UNL     1      -1.446  -1.229  -6.953  1.00  0.00     0.064 A 
ATOM     74  C   UNL     1      -2.350  -2.280  -6.726  1.00  0.00     0.173 A 
ATOM     75  C   UNL     1      -1.676  -0.041  -6.231  1.00  0.00     0.173 A 
ATOM     76  F   UNL     1      -2.170  -3.464  -7.329  1.00  0.00    -0.203 F 
ATOM     77  C   UNL     1      -3.411  -2.154  -5.820  1.00  0.00     0.198 A 
ATOM     78  C   UNL     1      -2.736   0.085  -5.331  1.00  0.00     0.198 A 
ATOM     79  F   UNL     1      -0.817   0.985  -6.310  1.00  0.00    -0.203 F 
ATOM     80  F   UNL     1      -4.218  -3.198  -5.585  1.00  0.00    -0.200 F 
ATOM     81  C   UNL     1      -3.598  -0.975  -5.118  1.00  0.00     0.200 A 
ATOM     82  F   UNL     1      -2.873   1.214  -4.622  1.00  0.00    -0.200 F 
ATOM     83  F   UNL     1      -4.574  -0.876  -4.204  1.00  0.00    -0.200 F 
ENDBRANCH  49  73
BRANCH  61  84
ATOM     84  C   UNL     1       2.901  -4.077 -10.520  1.00  0.00     0.064 A 
ATOM     85  C   UNL     1       2.371  -3.006 -11.260  1.00  0.00     0.173 A 
ATOM     86  C   UNL     1       3.209  -5.251 -11.219  1.00  0.00     0.173 A 
ATOM     87  F   UNL     1       2.135  -1.821 -10.685  1.00  0.00    -0.203 F 
ATOM     88  C   UNL     1       2.138  -3.116 -12.630  1.00  0.00     0.198 A 
ATOM     89  C   UNL     1       3.010  -5.347 -12.593  1.00  0.00     0.198 A 
ATOM     90  F   UNL     1       3.767  -6.287 -10.574  1.00  0.00    -0.203 F 
ATOM     91  F   UNL     1       1.634  -2.078 -13.314  1.00  0.00    -0.200 F 
ATOM     92  C   UNL     1       2.469  -4.284 -13.297  1.00  0.00     0.200 A 
ATOM     93  F   UNL     1       3.379  -6.461 -13.240  1.00  0.00    -0.200 F 
ATOM     94  F   UNL     1       2.295  -4.375 -14.623  1.00  0.00    -0.200 F 
ENDBRANCH  61  84
ENDBRANCH  35  36
ENDBRANCH  27  30
ENDBRANCH  25  26
ENDBRANCH  24  25
ENDBRANCH  23  24
ENDBRANCH  22  23
ENDBRANCH   1  22
TORSDOF 18
