REMARK SMILES O=C(CC[C@@]1(c2ccccc2)NC(=O)N(CC(=O)Nc2cccc(F)c2)C1=O)NCCCCCCNC(=O)c1ccc(-c2c3nc(c(-c4c(F)c(F)c(F)c(F)c4F)c4ccc([nH]4)c(-c4c(F)c(F)c(F)c(F)c4F)c4nc(c(-c5c(F)c(F)c(F)c(F)c5F)c5ccc2[nH]5)C=C4)C=C3)cc1
REMARK SMILES IDX 31 1 30 2 29 3 1 4 2 5 3 7 4 8 5 9 12 10 27 11 13 12 15 14
REMARK SMILES IDX 28 15 14 16 6 17 7 18 11 19 8 20 10 21 9 22 16 23 17 24
REMARK SMILES IDX 18 25 19 26 20 28 21 29 26 30 22 31 24 32 23 33 25 34 32 35
REMARK SMILES IDX 33 36 34 37 35 38 36 39 37 40 38 42 39 43 40 44 101 45 41 46
REMARK SMILES IDX 100 47 42 48 43 49 44 50 94 51 45 52 99 53 93 54 95 55 46 56
REMARK SMILES IDX 98 57 92 58 91 59 47 61 79 62 59 63 78 64 60 65 63 66 77 67
REMARK SMILES IDX 96 68 61 69 62 70 76 72 97 73 64 74 48 75 49 76 57 77 50 78
REMARK SMILES IDX 51 79 55 80 58 81 52 82 53 83 56 84 54 85 80 86 81 87 89 88
REMARK SMILES IDX 82 89 83 90 87 91 90 92 84 93 85 94 88 95 86 96 65 97 66 98
REMARK SMILES IDX 74 99 67 100 68 101 72 102 75 103 69 104 70 105 73 106
REMARK SMILES IDX 71 107
REMARK H PARENT 29 6 12 13 19 27 36 41 95 60 63 71
REMARK Flexibility Score: inf
ROOT
ATOM      1  C   UNL     1       8.192  -3.157   2.079  1.00  0.00     0.021 C 
ENDROOT
BRANCH   1   2
ATOM      2  C   UNL     1       6.762  -3.383   1.512  1.00  0.00     0.116 C 
BRANCH   2   3
ATOM      3  N   UNL     1       5.945  -2.464   0.644  1.00  0.00    -0.356 N 
ATOM      4  O   UNL     1       7.253  -1.060  -0.668  1.00  0.00    -0.275 OA
ATOM      5  C   UNL     1       6.171  -1.487  -0.295  1.00  0.00     0.220 C 
ATOM      6  H   UNL     1       4.981  -2.600   0.791  1.00  0.00     0.163 HD
BRANCH   5   7
ATOM      7  C   UNL     1       4.979  -0.735  -0.854  1.00  0.00     0.103 C 
BRANCH   7   8
ATOM      8  C   UNL     1       3.949  -0.254   0.163  1.00  0.00     0.053 C 
BRANCH   8   9
ATOM      9  C   UNL     1       4.512   0.414   1.454  1.00  0.00     0.147 C 
ATOM     10  N   UNL     1       4.907  -0.625   2.363  1.00  0.00    -0.319 N 
ATOM     11  C   UNL     1       5.947   1.025   1.213  1.00  0.00     0.261 C 
ATOM     12  C   UNL     1       6.236  -0.540   2.682  1.00  0.00     0.325 C 
ATOM     13  H   UNL     1       4.298  -1.314   2.713  1.00  0.00     0.166 HD
ATOM     14  N   UNL     1       6.895   0.150   1.717  1.00  0.00    -0.252 N 
ATOM     15  O   UNL     1       6.170   2.063   0.604  1.00  0.00    -0.271 OA
ATOM     16  O   UNL     1       6.601  -0.984   3.752  1.00  0.00    -0.248 OA
BRANCH   9  17
ATOM     17  C   UNL     1       3.474   1.288   2.186  1.00  0.00    -0.013 A 
ATOM     18  C   UNL     1       3.233   1.142   3.576  1.00  0.00     0.007 A 
ATOM     19  C   UNL     1       2.645   2.186   1.497  1.00  0.00     0.007 A 
ATOM     20  C   UNL     1       2.189   1.805   4.226  1.00  0.00     0.000 A 
ATOM     21  C   UNL     1       1.600   2.857   2.150  1.00  0.00     0.000 A 
ATOM     22  C   UNL     1       1.367   2.660   3.509  1.00  0.00     0.000 A 
ENDBRANCH   9  17
BRANCH  14  23
ATOM     23  C   UNL     1       8.377   0.171   1.415  1.00  0.00     0.230 C 
BRANCH  23  24
ATOM     24  C   UNL     1       9.499  -0.381   0.269  1.00  0.00     0.244 C 
ATOM     25  O   UNL     1      10.441   0.443   0.111  1.00  0.00    -0.273 OA
ATOM     26  N   UNL     1       9.884  -1.580  -0.315  1.00  0.00    -0.324 N 
ATOM     27  H   UNL     1      10.818  -1.473  -0.609  1.00  0.00     0.170 HD
BRANCH  26  28
ATOM     28  C   UNL     1       9.478  -2.913  -0.668  1.00  0.00     0.044 A 
ATOM     29  C   UNL     1      10.341  -3.961  -0.291  1.00  0.00     0.026 A 
ATOM     30  C   UNL     1       8.380  -3.296  -1.443  1.00  0.00     0.065 A 
ATOM     31  C   UNL     1       9.996  -5.318  -0.471  1.00  0.00     0.005 A 
ATOM     32  C   UNL     1       8.013  -4.642  -1.594  1.00  0.00     0.125 A 
ATOM     33  C   UNL     1       8.796  -5.661  -1.081  1.00  0.00     0.039 A 
ATOM     34  F   UNL     1       6.867  -4.951  -2.219  1.00  0.00    -0.207 F 
ENDBRANCH  26  28
ENDBRANCH  23  24
ENDBRANCH  14  23
ENDBRANCH   8   9
ENDBRANCH   7   8
ENDBRANCH   5   7
ENDBRANCH   2   3
ENDBRANCH   1   2
BRANCH   1  35
ATOM     35  C   UNL     1       8.590  -2.788   3.520  1.00  0.00     0.002 C 
BRANCH  35  36
ATOM     36  C   UNL     1       7.874  -3.515   4.648  1.00  0.00     0.002 C 
BRANCH  36  37
ATOM     37  C   UNL     1       8.652  -4.717   5.168  1.00  0.00     0.021 C 
BRANCH  37  38
ATOM     38  C   UNL     1      10.014  -4.391   5.772  1.00  0.00     0.116 C 
BRANCH  38  39
ATOM     39  N   UNL     1       9.972  -3.408   6.850  1.00  0.00    -0.352 N 
ATOM     40  C   UNL     1      10.727  -3.417   7.999  1.00  0.00     0.251 C 
ATOM     41  H   UNL     1       9.338  -2.663   6.744  1.00  0.00     0.163 HD
ATOM     42  O   UNL     1      10.600  -2.580   8.886  1.00  0.00    -0.269 OA
BRANCH  40  43
ATOM     43  C   UNL     1      11.702  -4.507   8.128  1.00  0.00     0.039 A 
ATOM     44  C   UNL     1      11.455  -5.539   9.035  1.00  0.00     0.014 A 
ATOM     45  C   UNL     1      12.723  -4.593   7.178  1.00  0.00     0.014 A 
ATOM     46  C   UNL     1      12.214  -6.705   8.953  1.00  0.00     0.010 A 
ATOM     47  C   UNL     1      13.421  -5.783   7.051  1.00  0.00     0.010 A 
ATOM     48  C   UNL     1      13.178  -6.844   7.942  1.00  0.00    -0.014 A 
BRANCH  48  49
ATOM     49  C   UNL     1      14.009  -8.065   7.828  1.00  0.00     0.031 A 
ATOM     50  C   UNL     1      15.491  -7.940   8.046  1.00  0.00     0.074 A 
ATOM     51  C   UNL     1      13.459  -9.236   7.455  1.00  0.00     0.049 A 
ATOM     52  N   UNL     1      16.434  -8.827   7.864  1.00  0.00    -0.248 NA
ATOM     53  C   UNL     1      15.982  -6.621   8.480  1.00  0.00     0.031 C 
ATOM     54  C   UNL     1      12.041  -9.456   7.165  1.00  0.00     0.029 A 
ATOM     55  N   UNL     1      14.035 -10.462   7.239  1.00  0.00    -0.354 N 
ATOM     56  C   UNL     1      17.624  -8.160   8.121  1.00  0.00     0.074 A 
ATOM     57  C   UNL     1      17.294  -6.785   8.415  1.00  0.00     0.031 C 
ATOM     58  C   UNL     1      11.855 -10.745   6.828  1.00  0.00     0.029 A 
ATOM     59  C   UNL     1      13.143 -11.432   6.848  1.00  0.00     0.049 A 
ATOM     60  H   UNL     1      14.998 -10.632   7.354  1.00  0.00     0.167 HD
ATOM     61  C   UNL     1      18.880  -8.661   8.140  1.00  0.00     0.037 A 
ATOM     62  C   UNL     1      13.353 -12.727   6.542  1.00  0.00     0.037 A 
ATOM     63  C   UNL     1      19.186 -10.047   7.921  1.00  0.00     0.049 A 
ATOM     64  C   UNL     1      14.757 -13.271   6.627  1.00  0.00     0.074 A 
ATOM     65  C   UNL     1      20.410 -10.683   8.000  1.00  0.00     0.029 A 
ATOM     66  N   UNL     1      18.246 -11.014   7.598  1.00  0.00    -0.354 N 
ATOM     67  N   UNL     1      15.868 -12.649   6.939  1.00  0.00    -0.248 NA
ATOM     68  C   UNL     1      14.935 -14.699   6.328  1.00  0.00     0.031 C 
ATOM     69  C   UNL     1      20.216 -12.033   7.696  1.00  0.00     0.029 A 
ATOM     70  C   UNL     1      18.865 -12.244   7.469  1.00  0.00     0.049 A 
ATOM     71  H   UNL     1      17.283 -10.850   7.478  1.00  0.00     0.167 HD
ATOM     72  C   UNL     1      16.867 -13.613   6.914  1.00  0.00     0.074 A 
ATOM     73  C   UNL     1      16.229 -14.865   6.563  1.00  0.00     0.031 C 
ATOM     74  C   UNL     1      18.193 -13.478   7.157  1.00  0.00     0.037 A 
BRANCH  61  75
ATOM     75  C   UNL     1      20.005  -7.714   8.428  1.00  0.00     0.064 A 
ATOM     76  C   UNL     1      20.188  -7.153   9.701  1.00  0.00     0.173 A 
ATOM     77  C   UNL     1      20.933  -7.389   7.428  1.00  0.00     0.173 A 
ATOM     78  F   UNL     1      19.318  -7.419  10.687  1.00  0.00    -0.203 F 
ATOM     79  C   UNL     1      21.244  -6.282   9.955  1.00  0.00     0.198 A 
ATOM     80  C   UNL     1      22.005  -6.541   7.694  1.00  0.00     0.198 A 
ATOM     81  F   UNL     1      20.804  -7.898   6.193  1.00  0.00    -0.203 F 
ATOM     82  F   UNL     1      21.370  -5.721  11.166  1.00  0.00    -0.200 F 
ATOM     83  C   UNL     1      22.156  -5.984   8.955  1.00  0.00     0.200 A 
ATOM     84  F   UNL     1      22.893  -6.263   6.729  1.00  0.00    -0.200 F 
ATOM     85  F   UNL     1      23.178  -5.154   9.204  1.00  0.00    -0.200 F 
ENDBRANCH  61  75
BRANCH  62  86
ATOM     86  C   UNL     1      12.219 -13.610   6.160  1.00  0.00     0.064 A 
ATOM     87  C   UNL     1      11.805 -14.653   7.003  1.00  0.00     0.173 A 
ATOM     88  C   UNL     1      11.548 -13.459   4.938  1.00  0.00     0.173 A 
ATOM     89  F   UNL     1      12.426 -14.851   8.175  1.00  0.00    -0.203 F 
ATOM     90  C   UNL     1      10.790 -15.530   6.624  1.00  0.00     0.198 A 
ATOM     91  C   UNL     1      10.513 -14.319   4.573  1.00  0.00     0.198 A 
ATOM     92  F   UNL     1      11.897 -12.475   4.097  1.00  0.00    -0.203 F 
ATOM     93  F   UNL     1      10.457 -16.551   7.424  1.00  0.00    -0.200 F 
ATOM     94  C   UNL     1      10.143 -15.361   5.410  1.00  0.00     0.200 A 
ATOM     95  F   UNL     1       9.881 -14.144   3.404  1.00  0.00    -0.200 F 
ATOM     96  F   UNL     1       9.171 -16.207   5.042  1.00  0.00    -0.200 F 
ENDBRANCH  62  86
BRANCH  74  97
ATOM     97  C   UNL     1      19.033 -14.719   7.113  1.00  0.00     0.064 A 
ATOM     98  C   UNL     1      19.375 -15.333   5.901  1.00  0.00     0.173 A 
ATOM     99  C   UNL     1      19.562 -15.251   8.299  1.00  0.00     0.173 A 
ATOM    100  F   UNL     1      18.882 -14.865   4.745  1.00  0.00    -0.203 F 
ATOM    101  C   UNL     1      20.206 -16.449   5.879  1.00  0.00     0.198 A 
ATOM    102  C   UNL     1      20.415 -16.349   8.270  1.00  0.00     0.198 A 
ATOM    103  F   UNL     1      19.270 -14.690   9.482  1.00  0.00    -0.203 F 
ATOM    104  F   UNL     1      20.493 -17.044   4.713  1.00  0.00    -0.200 F 
ATOM    105  C   UNL     1      20.732 -16.950   7.061  1.00  0.00     0.200 A 
ATOM    106  F   UNL     1      20.935 -16.823   9.411  1.00  0.00    -0.200 F 
ATOM    107  F   UNL     1      21.545 -18.015   7.034  1.00  0.00    -0.200 F 
ENDBRANCH  74  97
ENDBRANCH  48  49
ENDBRANCH  40  43
ENDBRANCH  38  39
ENDBRANCH  37  38
ENDBRANCH  36  37
ENDBRANCH  35  36
ENDBRANCH   1  35
TORSDOF 19
