REMARK SMILES O=C(NCCCCCCNC(=O)[C@@H]1CN(C(=O)C2(Cc3ccccc3)CCC2)CCO1)c1ccc(-c2c3nc(c(-c4c(F)c(F)c(F)c(F)c4F)c4ccc([nH]4)c(-c4c(F)c(F)c(F)c(F)c4F)c4nc(c(-c5c(F)c(F)c(F)c(F)c5F)c5ccc2[nH]5)C=C4)C=C3)cc1
REMARK SMILES IDX 7 1 6 2 5 3 4 4 3 5 1 6 2 7 32 9 33 10 94 11 34 12 93 13
REMARK SMILES IDX 35 14 36 15 37 16 87 17 38 18 92 19 86 20 88 21 39 22 91 23
REMARK SMILES IDX 85 24 84 25 40 27 72 28 52 29 71 30 53 31 56 32 70 33 89 34
REMARK SMILES IDX 54 35 55 36 69 38 90 39 57 40 41 41 42 42 50 43 43 44 44 45
REMARK SMILES IDX 48 46 51 47 45 48 46 49 49 50 47 51 73 52 74 53 82 54 75 55
REMARK SMILES IDX 76 56 80 57 83 58 77 59 78 60 81 61 79 62 58 63 59 64 67 65
REMARK SMILES IDX 60 66 61 67 65 68 68 69 62 70 63 71 66 72 64 73 8 74 9 75
REMARK SMILES IDX 10 76 11 77 12 79 13 80 14 81 31 82 15 83 30 84 29 85 16 86
REMARK SMILES IDX 17 87 18 88 26 89 28 90 27 91 19 92 20 93 21 94 25 95 22 96
REMARK SMILES IDX 24 97 23 98
REMARK H PARENT 3 8 88 26 56 37 10 78
REMARK Flexibility Score: inf
ROOT
ATOM      1  C   UNL     1       4.557   3.359   2.968  1.00  0.00     0.002 C 
ENDROOT
BRANCH   1   2
ATOM      2  C   UNL     1       3.909   3.571   1.595  1.00  0.00     0.002 C 
BRANCH   2   3
ATOM      3  C   UNL     1       4.434   2.661   0.483  1.00  0.00     0.021 C 
BRANCH   3   4
ATOM      4  C   UNL     1       4.299   1.171   0.775  1.00  0.00     0.116 C 
BRANCH   4   5
ATOM      5  N   UNL     1       2.906   0.761   0.822  1.00  0.00    -0.352 N 
ATOM      6  O   UNL     1       1.021  -0.197   0.032  1.00  0.00    -0.269 OA
ATOM      7  C   UNL     1       2.250  -0.141   0.027  1.00  0.00     0.251 C 
ATOM      8  H   UNL     1       2.359   1.190   1.520  1.00  0.00     0.163 HD
BRANCH   7   9
ATOM      9  C   UNL     1       3.023  -1.056  -0.837  1.00  0.00     0.039 A 
ATOM     10  C   UNL     1       4.138  -1.731  -0.331  1.00  0.00     0.014 A 
ATOM     11  C   UNL     1       2.592  -1.288  -2.146  1.00  0.00     0.014 A 
ATOM     12  C   UNL     1       4.868  -2.579  -1.156  1.00  0.00     0.010 A 
ATOM     13  C   UNL     1       3.284  -2.194  -2.952  1.00  0.00     0.010 A 
ATOM     14  C   UNL     1       4.425  -2.848  -2.461  1.00  0.00    -0.014 A 
BRANCH  14  15
ATOM     15  C   UNL     1       5.077  -3.927  -3.241  1.00  0.00     0.031 A 
ATOM     16  C   UNL     1       5.847  -3.633  -4.493  1.00  0.00     0.074 A 
ATOM     17  C   UNL     1       4.938  -5.194  -2.803  1.00  0.00     0.049 A 
ATOM     18  N   UNL     1       6.446  -4.469  -5.303  1.00  0.00    -0.248 NA
ATOM     19  C   UNL     1       5.958  -2.223  -4.897  1.00  0.00     0.031 C 
ATOM     20  C   UNL     1       4.185  -5.591  -1.610  1.00  0.00     0.029 A 
ATOM     21  N   UNL     1       5.413  -6.378  -3.303  1.00  0.00    -0.354 N 
ATOM     22  C   UNL     1       6.987  -3.694  -6.319  1.00  0.00     0.074 A 
ATOM     23  C   UNL     1       6.638  -2.319  -6.033  1.00  0.00     0.031 C 
ATOM     24  C   UNL     1       4.262  -6.921  -1.461  1.00  0.00     0.029 A 
ATOM     25  C   UNL     1       5.014  -7.476  -2.579  1.00  0.00     0.049 A 
ATOM     26  H   UNL     1       5.985  -6.437  -4.102  1.00  0.00     0.167 HD
ATOM     27  C   UNL     1       7.711  -4.104  -7.388  1.00  0.00     0.037 A 
ATOM     28  C   UNL     1       5.200  -8.788  -2.810  1.00  0.00     0.037 A 
ATOM     29  C   UNL     1       8.070  -5.476  -7.647  1.00  0.00     0.049 A 
ATOM     30  C   UNL     1       5.979  -9.206  -4.024  1.00  0.00     0.074 A 
ATOM     31  C   UNL     1       8.878  -5.979  -8.651  1.00  0.00     0.029 A 
ATOM     32  N   UNL     1       7.629  -6.563  -6.906  1.00  0.00    -0.354 N 
ATOM     33  N   UNL     1       6.558  -8.458  -4.931  1.00  0.00    -0.248 NA
ATOM     34  C   UNL     1       6.126 -10.650  -4.251  1.00  0.00     0.031 C 
ATOM     35  C   UNL     1       8.877  -7.374  -8.556  1.00  0.00     0.029 A 
ATOM     36  C   UNL     1       8.111  -7.738  -7.462  1.00  0.00     0.049 A 
ATOM     37  H   UNL     1       7.060  -6.508  -6.105  1.00  0.00     0.167 HD
ATOM     38  C   UNL     1       7.140  -9.336  -5.832  1.00  0.00     0.074 A 
ATOM     39  C   UNL     1       6.874 -10.674  -5.345  1.00  0.00     0.031 C 
ATOM     40  C   UNL     1       7.825  -9.060  -6.968  1.00  0.00     0.037 A 
BRANCH  27  41
ATOM     41  C   UNL     1       8.163  -3.075  -8.381  1.00  0.00     0.064 A 
ATOM     42  C   UNL     1       9.217  -2.193  -8.101  1.00  0.00     0.173 A 
ATOM     43  C   UNL     1       7.606  -3.046  -9.669  1.00  0.00     0.173 A 
ATOM     44  F   UNL     1       9.779  -2.177  -6.884  1.00  0.00    -0.203 F 
ATOM     45  C   UNL     1       9.694  -1.319  -9.075  1.00  0.00     0.198 A 
ATOM     46  C   UNL     1       8.100  -2.186 -10.646  1.00  0.00     0.198 A 
ATOM     47  F   UNL     1       6.600  -3.875  -9.988  1.00  0.00    -0.203 F 
ATOM     48  F   UNL     1      10.692  -0.473  -8.783  1.00  0.00    -0.200 F 
ATOM     49  C   UNL     1       9.143  -1.323 -10.349  1.00  0.00     0.200 A 
ATOM     50  F   UNL     1       7.575  -2.203 -11.879  1.00  0.00    -0.200 F 
ATOM     51  F   UNL     1       9.620  -0.497 -11.290  1.00  0.00    -0.200 F 
ENDBRANCH  27  41
BRANCH  28  52
ATOM     52  C   UNL     1       4.598  -9.796  -1.899  1.00  0.00     0.064 A 
ATOM     53  C   UNL     1       5.399 -10.629  -1.108  1.00  0.00     0.173 A 
ATOM     54  C   UNL     1       3.206  -9.956  -1.814  1.00  0.00     0.173 A 
ATOM     55  F   UNL     1       6.735 -10.527  -1.168  1.00  0.00    -0.203 F 
ATOM     56  C   UNL     1       4.832 -11.600  -0.285  1.00  0.00     0.198 A 
ATOM     57  C   UNL     1       2.640 -10.904  -0.966  1.00  0.00     0.198 A 
ATOM     58  F   UNL     1       2.394  -9.181  -2.548  1.00  0.00    -0.203 F 
ATOM     59  F   UNL     1       5.623 -12.420   0.421  1.00  0.00    -0.200 F 
ATOM     60  C   UNL     1       3.454 -11.733  -0.211  1.00  0.00     0.200 A 
ATOM     61  F   UNL     1       1.307 -11.016  -0.885  1.00  0.00    -0.200 F 
ATOM     62  F   UNL     1       2.910 -12.667   0.581  1.00  0.00    -0.200 F 
ENDBRANCH  28  52
BRANCH  40  63
ATOM     63  C   UNL     1       8.331 -10.230  -7.758  1.00  0.00     0.064 A 
ATOM     64  C   UNL     1       7.457 -11.044  -8.493  1.00  0.00     0.173 A 
ATOM     65  C   UNL     1       9.702 -10.521  -7.807  1.00  0.00     0.173 A 
ATOM     66  F   UNL     1       6.135 -10.818  -8.461  1.00  0.00    -0.203 F 
ATOM     67  C   UNL     1       7.936 -12.121  -9.233  1.00  0.00     0.198 A 
ATOM     68  C   UNL     1      10.181 -11.581  -8.571  1.00  0.00     0.198 A 
ATOM     69  F   UNL     1      10.578  -9.770  -7.123  1.00  0.00    -0.203 F 
ATOM     70  F   UNL     1       7.079 -12.914  -9.890  1.00  0.00    -0.200 F 
ATOM     71  C   UNL     1       9.297 -12.383  -9.278  1.00  0.00     0.200 A 
ATOM     72  F   UNL     1      11.497 -11.825  -8.624  1.00  0.00    -0.200 F 
ATOM     73  F   UNL     1       9.758 -13.416  -9.997  1.00  0.00    -0.200 F 
ENDBRANCH  40  63
ENDBRANCH  14  15
ENDBRANCH   7   9
ENDBRANCH   4   5
ENDBRANCH   3   4
ENDBRANCH   2   3
ENDBRANCH   1   2
BRANCH   1  74
ATOM     74  C   UNL     1       6.088   3.422   2.967  1.00  0.00     0.021 C 
BRANCH  74  75
ATOM     75  C   UNL     1       6.652   4.784   2.568  1.00  0.00     0.116 C 
BRANCH  75  76
ATOM     76  N   UNL     1       6.479   5.741   3.638  1.00  0.00    -0.354 N 
ATOM     77  C   UNL     1       7.414   6.318   4.450  1.00  0.00     0.250 C 
ATOM     78  H   UNL     1       5.549   6.019   3.806  1.00  0.00     0.163 HD
ATOM     79  O   UNL     1       7.002   7.052   5.350  1.00  0.00    -0.272 OA
BRANCH  77  80
ATOM     80  C   UNL     1       8.909   6.048   4.204  1.00  0.00     0.226 C 
ATOM     81  C   UNL     1       9.297   4.678   4.787  1.00  0.00     0.161 C 
ATOM     82  O   UNL     1       9.695   7.091   4.809  1.00  0.00    -0.365 OA
ATOM     83  N   UNL     1      10.743   4.436   4.684  1.00  0.00    -0.337 N 
ATOM     84  C   UNL     1      11.095   6.877   4.603  1.00  0.00     0.183 C 
ATOM     85  C   UNL     1      11.543   5.548   5.208  1.00  0.00     0.148 C 
BRANCH  83  86
ATOM     86  C   UNL     1      11.322   3.162   4.740  1.00  0.00     0.229 C 
ATOM     87  O   UNL     1      12.250   2.980   5.546  1.00  0.00    -0.274 OA
BRANCH  86  88
ATOM     88  C   UNL     1      10.863   2.015   3.743  1.00  0.00     0.053 C 
ATOM     89  C   UNL     1       9.648   1.171   4.266  1.00  0.00     0.017 C 
ATOM     90  C   UNL     1       9.982   2.321   2.484  1.00  0.00     0.017 C 
ATOM     91  C   UNL     1       9.135   1.079   2.820  1.00  0.00     0.002 C 
BRANCH  88  92
ATOM     92  C   UNL     1      12.061   1.074   3.398  1.00  0.00     0.052 C 
BRANCH  92  93
ATOM     93  C   UNL     1      12.997   1.639   2.349  1.00  0.00    -0.047 A 
ATOM     94  C   UNL     1      13.136   0.985   1.114  1.00  0.00     0.004 A 
ATOM     95  C   UNL     1      13.784   2.772   2.592  1.00  0.00     0.004 A 
ATOM     96  C   UNL     1      14.029   1.457   0.148  1.00  0.00     0.000 A 
ATOM     97  C   UNL     1      14.668   3.252   1.621  1.00  0.00     0.000 A 
ATOM     98  C   UNL     1      14.792   2.593   0.401  1.00  0.00     0.000 A 
ENDBRANCH  92  93
ENDBRANCH  88  92
ENDBRANCH  86  88
ENDBRANCH  83  86
ENDBRANCH  77  80
ENDBRANCH  75  76
ENDBRANCH  74  75
ENDBRANCH   1  74
TORSDOF 17
