REMARK SMILES CC(C)(C[NH2+]C[C@@H]1C[C@H]2CC[C@@H]1C2)C(=O)NCCCCCCNC(=O)c1ccc(-c2c3nc(c(-c4c(F)c(F)c(F)c(F)c4F)c4ccc([nH]4)c(-c4c(F)c(F)c(F)c(F)c4F)c4nc(c(-c5c(F)c(F)c(F)c(F)c5F)c5ccc2[nH]5)C=C4)C=C3)cc1
REMARK SMILES IDX 18 1 17 2 16 3 14 4 15 5 2 7 1 8 3 9 4 10 5 11 6 14 7 15
REMARK SMILES IDX 8 16 12 17 9 18 11 19 13 20 10 21 19 22 20 23 21 24 22 25
REMARK SMILES IDX 23 26 24 27 25 29 26 30 27 31 88 32 28 33 87 34 29 35 30 36
REMARK SMILES IDX 31 37 81 38 32 39 86 40 80 41 82 42 33 43 85 44 79 45 78 46
REMARK SMILES IDX 34 48 66 49 46 50 65 51 47 52 50 53 64 54 83 55 48 56 49 57
REMARK SMILES IDX 63 59 84 60 51 61 35 62 36 63 44 64 37 65 38 66 42 67 45 68
REMARK SMILES IDX 39 69 40 70 43 71 41 72 67 73 68 74 76 75 69 76 70 77 74 78
REMARK SMILES IDX 77 79 71 80 72 81 75 82 73 83 52 84 53 85 61 86 54 87 55 88
REMARK SMILES IDX 59 89 62 90 56 91 57 92 60 93 58 94
REMARK H PARENT 16 6 5 12 5 13 23 28 82 47 50 58
REMARK Flexibility Score: inf
ROOT
ATOM      1  C   UNL     1      -1.264  -5.003  -0.318  1.00  0.00     0.021 C 
ENDROOT
BRANCH   1   2
ATOM      2  C   UNL     1      -0.075  -4.386   0.416  1.00  0.00     0.116 C 
BRANCH   2   3
ATOM      3  N   UNL     1       0.821  -3.713  -0.500  1.00  0.00    -0.355 N 
ATOM      4  C   UNL     1       1.142  -2.407  -0.685  1.00  0.00     0.231 C 
ATOM      5  O   UNL     1       1.930  -2.182  -1.612  1.00  0.00    -0.274 OA
ATOM      6  H   UNL     1       1.291  -4.325  -1.112  1.00  0.00     0.163 HD
BRANCH   4   7
ATOM      7  C   UNL     1       0.654  -1.275   0.238  1.00  0.00     0.092 C 
ATOM      8  C   UNL     1       1.234   0.065  -0.282  1.00  0.00     0.027 C 
ATOM      9  C   UNL     1       1.242  -1.487   1.650  1.00  0.00     0.027 C 
BRANCH   7  10
ATOM     10  C   UNL     1      -0.884  -1.141   0.332  1.00  0.00     0.276 C 
BRANCH  10  11
ATOM     11  N   UNL     1      -1.595  -0.964  -0.940  1.00  0.00    -0.345 N 
ATOM     12  H   UNL     1      -1.300  -1.696  -1.585  1.00  0.00     0.346 HD
ATOM     13  H   UNL     1      -1.366  -0.035  -1.296  1.00  0.00     0.346 HD
BRANCH  11  14
ATOM     14  C   UNL     1      -3.057  -1.033  -0.785  1.00  0.00     0.264 C 
BRANCH  14  15
ATOM     15  C   UNL     1      -3.643   0.056   0.122  1.00  0.00     0.047 C 
ATOM     16  C   UNL     1      -5.127  -0.171   0.478  1.00  0.00     0.013 C 
ATOM     17  C   UNL     1      -3.657   1.476  -0.504  1.00  0.00    -0.002 C 
ATOM     18  C   UNL     1      -5.734   1.224   0.269  1.00  0.00    -0.010 C 
ATOM     19  C   UNL     1      -3.708   2.487   0.652  1.00  0.00     0.004 C 
ATOM     20  C   UNL     1      -5.080   1.610  -1.056  1.00  0.00     0.007 C 
ATOM     21  C   UNL     1      -5.097   2.226   1.257  1.00  0.00     0.004 C 
ENDBRANCH  14  15
ENDBRANCH  11  14
ENDBRANCH  10  11
ENDBRANCH   7  10
ENDBRANCH   4   7
ENDBRANCH   2   3
ENDBRANCH   1   2
BRANCH   1  22
ATOM     22  C   UNL     1      -0.900  -6.188  -1.222  1.00  0.00     0.002 C 
BRANCH  22  23
ATOM     23  C   UNL     1      -0.158  -7.337  -0.530  1.00  0.00     0.002 C 
BRANCH  23  24
ATOM     24  C   UNL     1      -0.838  -7.895   0.724  1.00  0.00     0.021 C 
BRANCH  24  25
ATOM     25  C   UNL     1      -2.248  -8.430   0.502  1.00  0.00     0.116 C 
BRANCH  25  26
ATOM     26  N   UNL     1      -2.269  -9.570  -0.400  1.00  0.00    -0.352 N 
ATOM     27  C   UNL     1      -2.834 -10.807  -0.228  1.00  0.00     0.251 C 
ATOM     28  H   UNL     1      -1.810  -9.434  -1.260  1.00  0.00     0.163 HD
ATOM     29  O   UNL     1      -2.596 -11.711  -1.027  1.00  0.00    -0.269 OA
BRANCH  27  30
ATOM     30  C   UNL     1      -3.716 -11.068   0.929  1.00  0.00     0.039 A 
ATOM     31  C   UNL     1      -3.560 -12.261   1.639  1.00  0.00     0.014 A 
ATOM     32  C   UNL     1      -4.708 -10.155   1.300  1.00  0.00     0.014 A 
ATOM     33  C   UNL     1      -4.363 -12.516   2.753  1.00  0.00     0.010 A 
ATOM     34  C   UNL     1      -5.463 -10.380   2.449  1.00  0.00     0.010 A 
ATOM     35  C   UNL     1      -5.301 -11.565   3.183  1.00  0.00    -0.014 A 
BRANCH  35  36
ATOM     36  C   UNL     1      -6.128 -11.796   4.394  1.00  0.00     0.031 A 
ATOM     37  C   UNL     1      -7.618 -11.949   4.275  1.00  0.00     0.074 A 
ATOM     38  C   UNL     1      -5.542 -11.809   5.607  1.00  0.00     0.049 A 
ATOM     39  N   UNL     1      -8.515 -12.091   5.219  1.00  0.00    -0.248 NA
ATOM     40  C   UNL     1      -8.179 -11.909   2.916  1.00  0.00     0.031 C 
ATOM     41  C   UNL     1      -4.112 -11.627   5.857  1.00  0.00     0.029 A 
ATOM     42  N   UNL     1      -6.080 -11.972   6.859  1.00  0.00    -0.354 N 
ATOM     43  C   UNL     1      -9.741 -12.143   4.570  1.00  0.00     0.074 A 
ATOM     44  C   UNL     1      -9.480 -11.967   3.158  1.00  0.00     0.031 C 
ATOM     45  C   UNL     1      -3.882 -11.707   7.177  1.00  0.00     0.029 A 
ATOM     46  C   UNL     1      -5.152 -11.912   7.869  1.00  0.00     0.049 A 
ATOM     47  H   UNL     1      -7.041 -12.118   7.018  1.00  0.00     0.167 HD
ATOM     48  C   UNL     1     -10.971 -12.342   5.102  1.00  0.00     0.037 A 
ATOM     49  C   UNL     1      -5.308 -12.007   9.203  1.00  0.00     0.037 A 
ATOM     50  C   UNL     1     -11.224 -12.545   6.504  1.00  0.00     0.049 A 
ATOM     51  C   UNL     1      -6.684 -12.232   9.768  1.00  0.00     0.074 A 
ATOM     52  C   UNL     1     -12.426 -12.814   7.135  1.00  0.00     0.029 A 
ATOM     53  N   UNL     1     -10.254 -12.501   7.495  1.00  0.00    -0.354 N 
ATOM     54  N   UNL     1      -7.828 -12.344   9.139  1.00  0.00    -0.248 NA
ATOM     55  C   UNL     1      -6.788 -12.352  11.229  1.00  0.00     0.031 C 
ATOM     56  C   UNL     1     -12.191 -12.892   8.512  1.00  0.00     0.029 A 
ATOM     57  C   UNL     1     -10.834 -12.720   8.735  1.00  0.00     0.049 A 
ATOM     58  H   UNL     1      -9.296 -12.339   7.341  1.00  0.00     0.167 HD
ATOM     59  C   UNL     1      -8.782 -12.576  10.120  1.00  0.00     0.074 A 
ATOM     60  C   UNL     1      -8.080 -12.602  11.387  1.00  0.00     0.031 C 
ATOM     61  C   UNL     1     -10.120 -12.751   9.985  1.00  0.00     0.037 A 
BRANCH  48  62
ATOM     62  C   UNL     1     -12.140 -12.354   4.160  1.00  0.00     0.064 A 
ATOM     63  C   UNL     1     -12.345 -13.406   3.255  1.00  0.00     0.173 A 
ATOM     64  C   UNL     1     -13.088 -11.320   4.188  1.00  0.00     0.173 A 
ATOM     65  F   UNL     1     -11.462 -14.414   3.181  1.00  0.00    -0.203 F 
ATOM     66  C   UNL     1     -13.438 -13.408   2.392  1.00  0.00     0.198 A 
ATOM     67  C   UNL     1     -14.196 -11.340   3.345  1.00  0.00     0.198 A 
ATOM     68  F   UNL     1     -12.944 -10.292   5.038  1.00  0.00    -0.203 F 
ATOM     69  F   UNL     1     -13.585 -14.399   1.502  1.00  0.00    -0.200 F 
ATOM     70  C   UNL     1     -14.366 -12.379   2.442  1.00  0.00     0.200 A 
ATOM     71  F   UNL     1     -15.099 -10.351   3.403  1.00  0.00    -0.200 F 
ATOM     72  F   UNL     1     -15.421 -12.386   1.616  1.00  0.00    -0.200 F 
ENDBRANCH  48  62
BRANCH  49  73
ATOM     73  C   UNL     1      -4.124 -11.916  10.096  1.00  0.00     0.064 A 
ATOM     74  C   UNL     1      -3.657 -13.044  10.787  1.00  0.00     0.173 A 
ATOM     75  C   UNL     1      -3.438 -10.707  10.280  1.00  0.00     0.173 A 
ATOM     76  F   UNL     1      -4.293 -14.217  10.658  1.00  0.00    -0.203 F 
ATOM     77  C   UNL     1      -2.562 -12.961  11.643  1.00  0.00     0.198 A 
ATOM     78  C   UNL     1      -2.326 -10.632  11.116  1.00  0.00     0.198 A 
ATOM     79  F   UNL     1      -3.842  -9.601   9.639  1.00  0.00    -0.203 F 
ATOM     80  F   UNL     1      -2.164 -14.043  12.325  1.00  0.00    -0.200 F 
ATOM     81  C   UNL     1      -1.893 -11.756  11.803  1.00  0.00     0.200 A 
ATOM     82  F   UNL     1      -1.675  -9.469  11.257  1.00  0.00    -0.200 F 
ATOM     83  F   UNL     1      -0.838 -11.678  12.624  1.00  0.00    -0.200 F 
ENDBRANCH  49  73
BRANCH  61  84
ATOM     84  C   UNL     1     -10.907 -13.022  11.234  1.00  0.00     0.064 A 
ATOM     85  C   UNL     1     -11.153 -12.017  12.181  1.00  0.00     0.173 A 
ATOM     86  C   UNL     1     -11.451 -14.294  11.466  1.00  0.00     0.173 A 
ATOM     87  F   UNL     1     -10.641 -10.789  12.011  1.00  0.00    -0.203 F 
ATOM     88  C   UNL     1     -11.895 -12.284  13.328  1.00  0.00     0.198 A 
ATOM     89  C   UNL     1     -12.217 -14.549  12.600  1.00  0.00     0.198 A 
ATOM     90  F   UNL     1     -11.249 -15.287  10.588  1.00  0.00    -0.203 F 
ATOM     91  F   UNL     1     -12.079 -11.322  14.243  1.00  0.00    -0.200 F 
ATOM     92  C   UNL     1     -12.432 -13.546  13.534  1.00  0.00     0.200 A 
ATOM     93  F   UNL     1     -12.745 -15.766  12.791  1.00  0.00    -0.200 F 
ATOM     94  F   UNL     1     -13.151 -13.799  14.636  1.00  0.00    -0.200 F 
ENDBRANCH  61  84
ENDBRANCH  35  36
ENDBRANCH  27  30
ENDBRANCH  25  26
ENDBRANCH  24  25
ENDBRANCH  23  24
ENDBRANCH  22  23
ENDBRANCH   1  22
TORSDOF 17
