REMARK SMILES O=C(NCCCCCCNC(=O)c1ccc(S(=O)(=O)NCC[NH+]2CCCC2)c(F)c1)c1ccc(-c2c3nc(c(-c4c(F)c(F)c(F)c(F)c4F)c4ccc([nH]4)c(-c4c(F)c(F)c(F)c(F)c4F)c4nc(c(-c5c(F)c(F)c(F)c(F)c5F)c5ccc2[nH]5)C=C4)C=C3)cc1
REMARK SMILES IDX 8 1 7 2 6 3 5 4 4 5 3 6 1 7 2 8 31 10 32 11 93 12 33 13
REMARK SMILES IDX 92 14 34 15 35 16 36 17 86 18 37 19 91 20 85 21 87 22 38 23
REMARK SMILES IDX 90 24 84 25 83 26 39 28 71 29 51 30 70 31 52 32 55 33 69 34
REMARK SMILES IDX 88 35 53 36 54 37 68 39 89 40 56 41 40 42 41 43 49 44 42 45
REMARK SMILES IDX 43 46 47 47 50 48 44 49 45 50 48 51 46 52 72 53 73 54 81 55
REMARK SMILES IDX 74 56 75 57 79 58 82 59 76 60 77 61 80 62 78 63 57 64 58 65
REMARK SMILES IDX 66 66 59 67 60 68 64 69 67 70 61 71 62 72 65 73 63 74 9 75
REMARK SMILES IDX 10 76 11 77 12 79 13 80 14 81 30 82 15 83 28 84 16 85 29 86
REMARK SMILES IDX 17 87 18 88 19 89 20 90 21 92 22 93 23 94 24 95 27 96 25 98
REMARK SMILES IDX 26 99
REMARK H PARENT 3 9 87 27 55 38 10 78 20 91 23 97
REMARK Flexibility Score: inf
ROOT
ATOM      1  C   UNL     1       6.253   4.215   1.799  1.00  0.00     0.021 C 
ENDROOT
BRANCH   1   2
ATOM      2  C   UNL     1       4.731   4.265   1.638  1.00  0.00     0.002 C 
BRANCH   2   3
ATOM      3  C   UNL     1       4.193   4.128   0.212  1.00  0.00     0.002 C 
BRANCH   3   4
ATOM      4  C   UNL     1       4.681   2.915  -0.583  1.00  0.00     0.021 C 
BRANCH   4   5
ATOM      5  C   UNL     1       4.465   1.558   0.076  1.00  0.00     0.116 C 
BRANCH   5   6
ATOM      6  N   UNL     1       3.062   1.224   0.241  1.00  0.00    -0.352 N 
ATOM      7  O   UNL     1       1.188  -0.015   0.057  1.00  0.00    -0.269 OA
ATOM      8  C   UNL     1       2.411   0.046  -0.033  1.00  0.00     0.251 C 
ATOM      9  H   UNL     1       2.496   1.945   0.600  1.00  0.00     0.163 HD
BRANCH   8  10
ATOM     10  C   UNL     1       3.171  -1.152  -0.458  1.00  0.00     0.039 A 
ATOM     11  C   UNL     1       4.341  -1.543   0.200  1.00  0.00     0.014 A 
ATOM     12  C   UNL     1       2.668  -1.930  -1.507  1.00  0.00     0.014 A 
ATOM     13  C   UNL     1       5.054  -2.653  -0.249  1.00  0.00     0.010 A 
ATOM     14  C   UNL     1       3.354  -3.075  -1.922  1.00  0.00     0.010 A 
ATOM     15  C   UNL     1       4.560  -3.438  -1.304  1.00  0.00    -0.014 A 
BRANCH  15  16
ATOM     16  C   UNL     1       5.270  -4.683  -1.685  1.00  0.00     0.031 A 
ATOM     17  C   UNL     1       6.002  -4.797  -2.989  1.00  0.00     0.074 A 
ATOM     18  C   UNL     1       5.260  -5.718  -0.822  1.00  0.00     0.049 A 
ATOM     19  N   UNL     1       6.689  -5.808  -3.461  1.00  0.00    -0.248 NA
ATOM     20  C   UNL     1       5.960  -3.631  -3.884  1.00  0.00     0.031 C 
ATOM     21  C   UNL     1       4.567  -5.728   0.467  1.00  0.00     0.029 A 
ATOM     22  N   UNL     1       5.858  -6.950  -0.889  1.00  0.00    -0.354 N 
ATOM     23  C   UNL     1       7.150  -5.407  -4.707  1.00  0.00     0.074 A 
ATOM     24  C   UNL     1       6.654  -4.065  -4.929  1.00  0.00     0.031 C 
ATOM     25  C   UNL     1       4.809  -6.893   1.086  1.00  0.00     0.029 A 
ATOM     26  C   UNL     1       5.637  -7.726   0.221  1.00  0.00     0.049 A 
ATOM     27  H   UNL     1       6.394  -7.249  -1.659  1.00  0.00     0.167 HD
ATOM     28  C   UNL     1       7.923  -6.097  -5.578  1.00  0.00     0.037 A 
ATOM     29  C   UNL     1       6.049  -8.975   0.509  1.00  0.00     0.037 A 
ATOM     30  C   UNL     1       8.434  -7.423  -5.346  1.00  0.00     0.049 A 
ATOM     31  C   UNL     1       6.895  -9.718  -0.482  1.00  0.00     0.074 A 
ATOM     32  C   UNL     1       9.268  -8.179  -6.152  1.00  0.00     0.029 A 
ATOM     33  N   UNL     1       8.157  -8.192  -4.226  1.00  0.00    -0.354 N 
ATOM     34  N   UNL     1       7.348  -9.315  -1.643  1.00  0.00    -0.248 NA
ATOM     35  C   UNL     1       7.277 -11.093  -0.129  1.00  0.00     0.031 C 
ATOM     36  C   UNL     1       9.470  -9.418  -5.535  1.00  0.00     0.029 A 
ATOM     37  C   UNL     1       8.787  -9.422  -4.331  1.00  0.00     0.049 A 
ATOM     38  H   UNL     1       7.597  -7.906  -3.468  1.00  0.00     0.167 HD
ATOM     39  C   UNL     1       8.065 -10.382  -2.162  1.00  0.00     0.074 A 
ATOM     40  C   UNL     1       8.009 -11.444  -1.179  1.00  0.00     0.031 C 
ATOM     41  C   UNL     1       8.707 -10.473  -3.351  1.00  0.00     0.037 A 
BRANCH  28  42
ATOM     42  C   UNL     1       8.280  -5.440  -6.875  1.00  0.00     0.064 A 
ATOM     43  C   UNL     1       7.673  -5.852  -8.071  1.00  0.00     0.173 A 
ATOM     44  C   UNL     1       9.294  -4.475  -6.948  1.00  0.00     0.173 A 
ATOM     45  F   UNL     1       6.702  -6.777  -8.051  1.00  0.00    -0.203 F 
ATOM     46  C   UNL     1       8.081  -5.331  -9.296  1.00  0.00     0.198 A 
ATOM     47  C   UNL     1       9.690  -3.946  -8.174  1.00  0.00     0.198 A 
ATOM     48  F   UNL     1       9.898  -4.046  -5.830  1.00  0.00    -0.203 F 
ATOM     49  F   UNL     1       7.507  -5.759 -10.429  1.00  0.00    -0.200 F 
ATOM     50  C   UNL     1       9.089  -4.380  -9.347  1.00  0.00     0.200 A 
ATOM     51  F   UNL     1      10.655  -3.017  -8.221  1.00  0.00    -0.200 F 
ATOM     52  F   UNL     1       9.484  -3.883 -10.527  1.00  0.00    -0.200 F 
ENDBRANCH  28  42
BRANCH  29  53
ATOM     53  C   UNL     1       5.662  -9.589   1.802  1.00  0.00     0.064 A 
ATOM     54  C   UNL     1       4.342  -9.994   2.047  1.00  0.00     0.173 A 
ATOM     55  C   UNL     1       6.598  -9.744   2.832  1.00  0.00     0.173 A 
ATOM     56  F   UNL     1       3.411  -9.861   1.091  1.00  0.00    -0.203 F 
ATOM     57  C   UNL     1       3.969 -10.515   3.283  1.00  0.00     0.198 A 
ATOM     58  C   UNL     1       6.229 -10.285   4.061  1.00  0.00     0.198 A 
ATOM     59  F   UNL     1       7.876  -9.386   2.635  1.00  0.00    -0.203 F 
ATOM     60  F   UNL     1       2.695 -10.866   3.503  1.00  0.00    -0.200 F 
ATOM     61  C   UNL     1       4.913 -10.662   4.288  1.00  0.00     0.200 A 
ATOM     62  F   UNL     1       7.147 -10.443   5.024  1.00  0.00    -0.200 F 
ATOM     63  F   UNL     1       4.556 -11.169   5.476  1.00  0.00    -0.200 F 
ENDBRANCH  29  53
BRANCH  41  64
ATOM     64  C   UNL     1       9.387 -11.769  -3.663  1.00  0.00     0.064 A 
ATOM     65  C   UNL     1      10.783 -11.880  -3.594  1.00  0.00     0.173 A 
ATOM     66  C   UNL     1       8.654 -12.886  -4.085  1.00  0.00     0.173 A 
ATOM     67  F   UNL     1      11.525 -10.835  -3.198  1.00  0.00    -0.203 F 
ATOM     68  C   UNL     1      11.422 -13.065  -3.946  1.00  0.00     0.198 A 
ATOM     69  C   UNL     1       9.295 -14.075  -4.420  1.00  0.00     0.198 A 
ATOM     70  F   UNL     1       7.315 -12.829  -4.152  1.00  0.00    -0.203 F 
ATOM     71  F   UNL     1      12.759 -13.145  -3.891  1.00  0.00    -0.200 F 
ATOM     72  C   UNL     1      10.678 -14.161  -4.356  1.00  0.00     0.200 A 
ATOM     73  F   UNL     1       8.574 -15.140  -4.796  1.00  0.00    -0.200 F 
ATOM     74  F   UNL     1      11.295 -15.305  -4.686  1.00  0.00    -0.200 F 
ENDBRANCH  41  64
ENDBRANCH  15  16
ENDBRANCH   8  10
ENDBRANCH   5   6
ENDBRANCH   4   5
ENDBRANCH   3   4
ENDBRANCH   2   3
ENDBRANCH   1   2
BRANCH   1  75
ATOM     75  C   UNL     1       7.058   5.171   0.921  1.00  0.00     0.116 C 
BRANCH  75  76
ATOM     76  N   UNL     1       6.722   6.568   1.134  1.00  0.00    -0.352 N 
ATOM     77  C   UNL     1       7.547   7.658   1.267  1.00  0.00     0.251 C 
ATOM     78  H   UNL     1       5.758   6.763   1.192  1.00  0.00     0.163 HD
ATOM     79  O   UNL     1       7.080   8.760   1.533  1.00  0.00    -0.269 OA
BRANCH  77  80
ATOM     80  C   UNL     1       9.012   7.501   1.142  1.00  0.00     0.042 A 
ATOM     81  C   UNL     1       9.585   6.828   0.060  1.00  0.00     0.015 A 
ATOM     82  C   UNL     1       9.823   8.037   2.147  1.00  0.00     0.054 A 
ATOM     83  C   UNL     1      10.956   6.571   0.059  1.00  0.00     0.026 A 
ATOM     84  C   UNL     1      11.197   7.803   2.125  1.00  0.00     0.144 A 
ATOM     85  C   UNL     1      11.756   7.031   1.116  1.00  0.00     0.118 A 
ATOM     86  F   UNL     1      11.927   8.305   3.128  1.00  0.00    -0.205 F 
BRANCH  85  87
ATOM     87  S   UNL     1      13.416   6.435   1.178  1.00  0.00     0.243 S 
ATOM     88  O   UNL     1      13.341   5.011   0.935  1.00  0.00    -0.207 OA
ATOM     89  O   UNL     1      14.200   7.303   0.326  1.00  0.00    -0.207 OA
BRANCH  87  90
ATOM     90  N   UNL     1      13.977   6.651   2.736  1.00  0.00    -0.205 NA
ATOM     91  H   UNL     1      13.831   7.635   2.965  1.00  0.00     0.141 HD
BRANCH  90  92
ATOM     92  C   UNL     1      13.413   5.872   3.848  1.00  0.00     0.160 C 
BRANCH  92  93
ATOM     93  C   UNL     1      14.090   4.504   4.030  1.00  0.00     0.278 C 
BRANCH  93  94
ATOM     94  N   UNL     1      15.561   4.490   3.892  1.00  0.00    -0.334 N 
ATOM     95  C   UNL     1      16.073   3.124   4.115  1.00  0.00     0.262 C 
ATOM     96  C   UNL     1      16.268   5.301   4.893  1.00  0.00     0.262 C 
ATOM     97  H   UNL     1      15.730   4.860   2.957  1.00  0.00     0.348 HD
ATOM     98  C   UNL     1      16.216   2.994   5.624  1.00  0.00     0.067 C 
ATOM     99  C   UNL     1      16.521   4.406   6.098  1.00  0.00     0.067 C 
ENDBRANCH  93  94
ENDBRANCH  92  93
ENDBRANCH  90  92
ENDBRANCH  87  90
ENDBRANCH  85  87
ENDBRANCH  77  80
ENDBRANCH  75  76
ENDBRANCH   1  75
TORSDOF 18
