REMARK SMILES O=C(NCCCCCCNC(=O)c1nnn(-c2ccc(C(F)(F)F)cc2)c1-c1cccc(Cl)c1)c1ccc(-c2c3nc(c(-c4c(F)c(F)c(F)c(F)c4F)c4ccc([nH]4)c(-c4c(F)c(F)c(F)c(F)c4F)c4nc(c(-c5c(F)c(F)c(F)c(F)c5F)c5ccc2[nH]5)C=C4)C=C3)cc1
REMARK SMILES IDX 6 1 5 2 4 3 3 4 1 5 2 6 35 8 36 9 97 10 37 11 96 12 38 13
REMARK SMILES IDX 39 14 40 15 90 16 41 17 95 18 89 19 91 20 42 21 94 22 88 23
REMARK SMILES IDX 87 24 43 26 75 27 55 28 74 29 56 30 59 31 73 32 92 33 57 34
REMARK SMILES IDX 58 35 72 37 93 38 60 39 44 40 45 41 53 42 46 43 47 44 51 45
REMARK SMILES IDX 54 46 48 47 49 48 52 49 50 50 76 51 77 52 85 53 78 54 79 55
REMARK SMILES IDX 83 56 86 57 80 58 81 59 84 60 82 61 61 62 62 63 70 64 63 65
REMARK SMILES IDX 64 66 68 67 71 68 65 69 66 70 69 71 67 72 7 73 8 74 9 75
REMARK SMILES IDX 10 76 11 77 12 79 13 80 14 81 27 82 15 83 16 84 28 85 29 86
REMARK SMILES IDX 34 87 30 88 32 89 31 90 33 91 17 92 18 93 26 94 19 95 25 96
REMARK SMILES IDX 20 97 21 98 22 99 23 100 24 101
REMARK H PARENT 3 7 91 25 59 36 10 78
REMARK Flexibility Score: inf
ROOT
ATOM      1  C   UNL     1       4.339  -2.060  -2.993  1.00  0.00     0.002 C 
ENDROOT
BRANCH   1   2
ATOM      2  C   UNL     1       4.875  -1.657  -1.614  1.00  0.00     0.021 C 
BRANCH   2   3
ATOM      3  C   UNL     1       4.749  -0.168  -1.283  1.00  0.00     0.116 C 
BRANCH   3   4
ATOM      4  N   UNL     1       3.395   0.338  -1.302  1.00  0.00    -0.352 N 
ATOM      5  O   UNL     1       1.353   0.964  -0.727  1.00  0.00    -0.269 OA
ATOM      6  C   UNL     1       2.358   0.321  -0.416  1.00  0.00     0.251 C 
ATOM      7  H   UNL     1       3.171   0.797  -2.144  1.00  0.00     0.163 HD
BRANCH   6   8
ATOM      8  C   UNL     1       2.339  -0.473   0.839  1.00  0.00     0.039 A 
ATOM      9  C   UNL     1       3.452  -1.047   1.457  1.00  0.00     0.014 A 
ATOM     10  C   UNL     1       1.071  -0.674   1.411  1.00  0.00     0.014 A 
ATOM     11  C   UNL     1       3.299  -1.901   2.541  1.00  0.00     0.010 A 
ATOM     12  C   UNL     1       0.913  -1.496   2.516  1.00  0.00     0.010 A 
ATOM     13  C   UNL     1       2.025  -2.150   3.044  1.00  0.00    -0.014 A 
BRANCH  13  14
ATOM     14  C   UNL     1       1.899  -3.056   4.178  1.00  0.00     0.031 A 
ATOM     15  C   UNL     1       2.466  -2.576   5.477  1.00  0.00     0.074 A 
ATOM     16  C   UNL     1       1.153  -4.174   4.087  1.00  0.00     0.049 A 
ATOM     17  N   UNL     1       3.227  -3.203   6.320  1.00  0.00    -0.248 NA
ATOM     18  C   UNL     1       2.172  -1.185   5.862  1.00  0.00     0.031 C 
ATOM     19  C   UNL     1       0.312  -4.601   2.963  1.00  0.00     0.029 A 
ATOM     20  N   UNL     1       0.880  -5.099   5.046  1.00  0.00    -0.354 N 
ATOM     21  C   UNL     1       3.384  -2.343   7.410  1.00  0.00     0.074 A 
ATOM     22  C   UNL     1       2.797  -1.084   7.034  1.00  0.00     0.031 C 
ATOM     23  C   UNL     1      -0.549  -5.549   3.392  1.00  0.00     0.029 A 
ATOM     24  C   UNL     1      -0.237  -5.872   4.773  1.00  0.00     0.049 A 
ATOM     25  H   UNL     1       1.426  -5.210   5.858  1.00  0.00     0.167 HD
ATOM     26  C   UNL     1       3.823  -2.767   8.627  1.00  0.00     0.037 A 
ATOM     27  C   UNL     1      -0.921  -6.636   5.657  1.00  0.00     0.037 A 
ATOM     28  C   UNL     1       4.561  -3.994   8.544  1.00  0.00     0.049 A 
ATOM     29  C   UNL     1      -0.042  -6.877   6.827  1.00  0.00     0.074 A 
ATOM     30  C   UNL     1       5.736  -4.381   7.931  1.00  0.00     0.029 A 
ATOM     31  N   UNL     1       3.952  -5.162   8.925  1.00  0.00    -0.354 N 
ATOM     32  N   UNL     1       1.044  -7.600   6.792  1.00  0.00    -0.248 NA
ATOM     33  C   UNL     1      -0.144  -5.957   7.950  1.00  0.00     0.031 C 
ATOM     34  C   UNL     1       5.516  -5.731   7.528  1.00  0.00     0.029 A 
ATOM     35  C   UNL     1       4.232  -6.080   7.946  1.00  0.00     0.049 A 
ATOM     36  H   UNL     1       3.419  -5.312   9.739  1.00  0.00     0.167 HD
ATOM     37  C   UNL     1       1.929  -6.951   7.641  1.00  0.00     0.074 A 
ATOM     38  C   UNL     1       1.114  -6.003   8.393  1.00  0.00     0.031 C 
ATOM     39  C   UNL     1       3.279  -7.046   7.460  1.00  0.00     0.037 A 
BRANCH  26  40
ATOM     40  C   UNL     1       3.315  -2.217   9.935  1.00  0.00     0.064 A 
ATOM     41  C   UNL     1       3.978  -2.533  11.137  1.00  0.00     0.173 A 
ATOM     42  C   UNL     1       2.034  -1.640  10.076  1.00  0.00     0.173 A 
ATOM     43  F   UNL     1       5.187  -3.114  11.118  1.00  0.00    -0.203 F 
ATOM     44  C   UNL     1       3.374  -2.340  12.384  1.00  0.00     0.198 A 
ATOM     45  C   UNL     1       1.457  -1.401  11.322  1.00  0.00     0.198 A 
ATOM     46  F   UNL     1       1.252  -1.391   9.018  1.00  0.00    -0.203 F 
ATOM     47  F   UNL     1       3.992  -2.763  13.495  1.00  0.00    -0.200 F 
ATOM     48  C   UNL     1       2.113  -1.778  12.474  1.00  0.00     0.200 A 
ATOM     49  F   UNL     1       0.226  -0.875  11.388  1.00  0.00    -0.200 F 
ATOM     50  F   UNL     1       1.510  -1.648  13.663  1.00  0.00    -0.200 F 
ENDBRANCH  26  40
BRANCH  27  51
ATOM     51  C   UNL     1      -2.386  -6.850   5.691  1.00  0.00     0.064 A 
ATOM     52  C   UNL     1      -2.950  -7.927   6.390  1.00  0.00     0.173 A 
ATOM     53  C   UNL     1      -3.280  -5.858   5.238  1.00  0.00     0.173 A 
ATOM     54  F   UNL     1      -2.163  -8.882   6.906  1.00  0.00    -0.203 F 
ATOM     55  C   UNL     1      -4.328  -8.006   6.622  1.00  0.00     0.198 A 
ATOM     56  C   UNL     1      -4.654  -5.945   5.457  1.00  0.00     0.198 A 
ATOM     57  F   UNL     1      -2.830  -4.739   4.653  1.00  0.00    -0.203 F 
ATOM     58  F   UNL     1      -4.828  -9.022   7.338  1.00  0.00    -0.200 F 
ATOM     59  C   UNL     1      -5.178  -7.014   6.157  1.00  0.00     0.200 A 
ATOM     60  F   UNL     1      -5.457  -4.958   5.035  1.00  0.00    -0.200 F 
ATOM     61  F   UNL     1      -6.491  -7.066   6.420  1.00  0.00    -0.200 F 
ENDBRANCH  27  51
BRANCH  39  62
ATOM     62  C   UNL     1       3.778  -8.045   6.457  1.00  0.00     0.064 A 
ATOM     63  C   UNL     1       3.520  -7.944   5.079  1.00  0.00     0.173 A 
ATOM     64  C   UNL     1       4.670  -9.040   6.874  1.00  0.00     0.173 A 
ATOM     65  F   UNL     1       2.776  -6.945   4.590  1.00  0.00    -0.203 F 
ATOM     66  C   UNL     1       4.087  -8.832   4.168  1.00  0.00     0.198 A 
ATOM     67  C   UNL     1       5.264  -9.904   5.957  1.00  0.00     0.198 A 
ATOM     68  F   UNL     1       5.010  -9.138   8.169  1.00  0.00    -0.203 F 
ATOM     69  F   UNL     1       3.818  -8.714   2.858  1.00  0.00    -0.200 F 
ATOM     70  C   UNL     1       4.963  -9.808   4.607  1.00  0.00     0.200 A 
ATOM     71  F   UNL     1       6.157 -10.810   6.378  1.00  0.00    -0.200 F 
ATOM     72  F   UNL     1       5.547 -10.633   3.727  1.00  0.00    -0.200 F 
ENDBRANCH  39  62
ENDBRANCH  13  14
ENDBRANCH   6   8
ENDBRANCH   3   4
ENDBRANCH   2   3
ENDBRANCH   1   2
BRANCH   1  73
ATOM     73  C   UNL     1       4.785  -1.179  -4.164  1.00  0.00     0.002 C 
BRANCH  73  74
ATOM     74  C   UNL     1       6.294  -0.953  -4.288  1.00  0.00     0.021 C 
BRANCH  74  75
ATOM     75  C   UNL     1       7.104  -2.219  -4.524  1.00  0.00     0.116 C 
BRANCH  75  76
ATOM     76  N   UNL     1       6.901  -2.759  -5.851  1.00  0.00    -0.351 N 
ATOM     77  C   UNL     1       7.851  -3.184  -6.760  1.00  0.00     0.274 C 
ATOM     78  H   UNL     1       5.964  -2.834  -6.144  1.00  0.00     0.163 HD
ATOM     79  O   UNL     1       7.502  -3.510  -7.877  1.00  0.00    -0.267 OA
BRANCH  77  80
ATOM     80  C   UNL     1       9.241  -3.231  -6.324  1.00  0.00     0.178 A 
ATOM     81  N   UNL     1      10.206  -2.438  -6.891  1.00  0.00    -0.124 NA
ATOM     82  C   UNL     1       9.794  -3.957  -5.278  1.00  0.00     0.108 A 
ATOM     83  N   UNL     1      11.327  -2.591  -6.200  1.00  0.00    -0.061 NA
ATOM     84  N   UNL     1      11.138  -3.594  -5.314  1.00  0.00    -0.212 N 
BRANCH  82  85
ATOM     85  C   UNL     1       9.169  -4.760  -4.225  1.00  0.00     0.004 A 
ATOM     86  C   UNL     1       9.332  -4.388  -2.877  1.00  0.00     0.010 A 
ATOM     87  C   UNL     1       8.399  -5.884  -4.532  1.00  0.00     0.031 A 
ATOM     88  C   UNL     1       8.767  -5.145  -1.851  1.00  0.00     0.002 A 
ATOM     89  C   UNL     1       7.835  -6.637  -3.499  1.00  0.00     0.041 A 
ATOM     90  C   UNL     1       8.020  -6.276  -2.164  1.00  0.00     0.020 A 
ATOM     91  Cl  UNL     1       6.906  -8.035  -3.876  1.00  0.00    -0.084 Cl
ENDBRANCH  82  85
BRANCH  84  92
ATOM     92  C   UNL     1      12.183  -4.066  -4.486  1.00  0.00     0.067 A 
ATOM     93  C   UNL     1      13.117  -3.163  -3.970  1.00  0.00     0.029 A 
ATOM     94  C   UNL     1      12.211  -5.412  -4.098  1.00  0.00     0.029 A 
ATOM     95  C   UNL     1      14.005  -3.592  -2.979  1.00  0.00     0.015 A 
ATOM     96  C   UNL     1      13.115  -5.839  -3.129  1.00  0.00     0.015 A 
ATOM     97  C   UNL     1      13.998  -4.927  -2.534  1.00  0.00     0.056 A 
BRANCH  97  98
ATOM     98  C   UNL     1      14.904  -5.359  -1.407  1.00  0.00     0.416 C 
ATOM     99  F   UNL     1      16.217  -5.114  -1.664  1.00  0.00    -0.166 F 
ATOM    100  F   UNL     1      14.619  -4.709  -0.244  1.00  0.00    -0.166 F 
ATOM    101  F   UNL     1      14.817  -6.688  -1.119  1.00  0.00    -0.166 F 
ENDBRANCH  97  98
ENDBRANCH  84  92
ENDBRANCH  77  80
ENDBRANCH  75  76
ENDBRANCH  74  75
ENDBRANCH  73  74
ENDBRANCH   1  73
TORSDOF 16
