REMARK SMILES CCOC(=O)c1ccc(NC(=O)[C@H]2CC(C)=C(C)C[C@@H]2C(=O)NCCCCCCNC(=O)c2ccc(-c3c4nc(c(-c5c(F)c(F)c(F)c(F)c5F)c5ccc([nH]5)c(-c5c(F)c(F)c(F)c(F)c5F)c5nc(c(-c6c(F)c(F)c(F)c(F)c6F)c6ccc3[nH]6)C=C5)C=C4)cc2)cc1
REMARK SMILES IDX 25 1 24 2 23 3 21 4 22 5 20 7 13 8 14 9 15 10 19 11 16 12
REMARK SMILES IDX 17 13 18 14 11 15 10 16 12 18 9 19 6 20 7 21 97 22 8 23
REMARK SMILES IDX 96 24 4 25 5 26 3 27 2 28 1 29 26 30 27 31 28 32 29 33 30 34
REMARK SMILES IDX 31 35 32 37 33 38 34 39 95 40 35 41 94 42 36 43 37 44 38 45
REMARK SMILES IDX 88 46 39 47 93 48 87 49 89 50 40 51 92 52 86 53 85 54 41 56
REMARK SMILES IDX 73 57 53 58 72 59 54 60 57 61 71 62 90 63 55 64 56 65 70 67
REMARK SMILES IDX 91 68 58 69 42 70 43 71 51 72 44 73 45 74 49 75 52 76 46 77
REMARK SMILES IDX 47 78 50 79 48 80 74 81 75 82 83 83 76 84 77 85 81 86 84 87
REMARK SMILES IDX 78 88 79 89 82 90 80 91 59 92 60 93 68 94 61 95 62 96 66 97
REMARK SMILES IDX 69 98 63 99 64 100 67 101 65 102
REMARK H PARENT 23 6 10 17 30 36 89 55 57 66
REMARK Flexibility Score: inf
ROOT
ATOM      1  C   UNL     1       9.144   8.729  -1.562  1.00  0.00     0.021 C 
ENDROOT
BRANCH   1   2
ATOM      2  C   UNL     1       7.751   9.197  -1.982  1.00  0.00     0.116 C 
BRANCH   2   3
ATOM      3  N   UNL     1       7.214   8.367  -3.034  1.00  0.00    -0.356 N 
ATOM      4  C   UNL     1       6.454   7.256  -3.078  1.00  0.00     0.224 C 
ATOM      5  O   UNL     1       6.215   6.870  -4.234  1.00  0.00    -0.275 OA
ATOM      6  H   UNL     1       7.461   8.689  -3.931  1.00  0.00     0.163 HD
BRANCH   4   7
ATOM      7  C   UNL     1       5.795   6.503  -1.895  1.00  0.00     0.095 C 
ATOM      8  C   UNL     1       6.202   6.770  -0.439  1.00  0.00     0.095 C 
ATOM      9  C   UNL     1       6.658   5.604   0.453  1.00  0.00     0.045 C 
ATOM     10  C   UNL     1       6.430   4.201  -0.026  1.00  0.00    -0.074 C 
ATOM     11  C   UNL     1       5.823   5.005  -2.314  1.00  0.00     0.045 C 
ATOM     12  C   UNL     1       6.756   3.154   1.012  1.00  0.00     0.039 C 
ATOM     13  C   UNL     1       6.020   3.931  -1.278  1.00  0.00    -0.074 C 
ATOM     14  C   UNL     1       5.765   2.533  -1.788  1.00  0.00     0.039 C 
BRANCH   8  15
ATOM     15  C   UNL     1       5.208   7.701   0.297  1.00  0.00     0.228 C 
ATOM     16  N   UNL     1       4.094   7.314   0.974  1.00  0.00    -0.326 N 
ATOM     17  H   UNL     1       3.676   8.045   1.484  1.00  0.00     0.169 HD
ATOM     18  O   UNL     1       5.462   8.912   0.373  1.00  0.00    -0.274 OA
BRANCH  16  19
ATOM     19  C   UNL     1       3.417   6.099   1.100  1.00  0.00     0.041 A 
ATOM     20  C   UNL     1       2.276   3.603   1.562  1.00  0.00     0.060 A 
ATOM     21  C   UNL     1       2.725   3.931   0.286  1.00  0.00     0.018 A 
ATOM     22  C   UNL     1       2.293   4.547   2.587  1.00  0.00     0.018 A 
ATOM     23  C   UNL     1       3.277   5.190   0.060  1.00  0.00     0.027 A 
ATOM     24  C   UNL     1       2.839   5.809   2.343  1.00  0.00     0.027 A 
BRANCH  20  25
ATOM     25  C   UNL     1       1.892   2.217   1.847  1.00  0.00     0.338 C 
ATOM     26  O   UNL     1       2.571   1.461   2.517  1.00  0.00    -0.246 OA
BRANCH  25  27
ATOM     27  O   UNL     1       0.730   1.956   1.209  1.00  0.00    -0.462 OA
BRANCH  27  28
ATOM     28  C   UNL     1       0.315   0.584   1.249  1.00  0.00     0.230 C 
ATOM     29  C   UNL     1       0.852  -0.120   0.017  1.00  0.00     0.049 C 
ENDBRANCH  27  28
ENDBRANCH  25  27
ENDBRANCH  20  25
ENDBRANCH  16  19
ENDBRANCH   8  15
ENDBRANCH   4   7
ENDBRANCH   2   3
ENDBRANCH   1   2
BRANCH   1  30
ATOM     30  C   UNL     1      10.255   9.207  -2.503  1.00  0.00     0.002 C 
BRANCH  30  31
ATOM     31  C   UNL     1      10.370  10.730  -2.642  1.00  0.00     0.002 C 
BRANCH  31  32
ATOM     32  C   UNL     1      10.477  11.495  -1.318  1.00  0.00     0.021 C 
BRANCH  32  33
ATOM     33  C   UNL     1      11.679  11.108  -0.461  1.00  0.00     0.116 C 
BRANCH  33  34
ATOM     34  N   UNL     1      12.930  11.374  -1.151  1.00  0.00    -0.352 N 
ATOM     35  C   UNL     1      13.979  12.176  -0.789  1.00  0.00     0.251 C 
ATOM     36  H   UNL     1      13.041  10.905  -2.009  1.00  0.00     0.163 HD
ATOM     37  O   UNL     1      14.829  12.482  -1.619  1.00  0.00    -0.269 OA
BRANCH  35  38
ATOM     38  C   UNL     1      14.098  12.676   0.597  1.00  0.00     0.039 A 
ATOM     39  C   UNL     1      14.546  13.984   0.799  1.00  0.00     0.014 A 
ATOM     40  C   UNL     1      13.836  11.847   1.693  1.00  0.00     0.014 A 
ATOM     41  C   UNL     1      14.706  14.469   2.096  1.00  0.00     0.010 A 
ATOM     42  C   UNL     1      13.931  12.353   2.988  1.00  0.00     0.010 A 
ATOM     43  C   UNL     1      14.384  13.662   3.201  1.00  0.00    -0.014 A 
BRANCH  43  44
ATOM     44  C   UNL     1      14.521  14.195   4.577  1.00  0.00     0.031 A 
ATOM     45  C   UNL     1      15.552  13.643   5.518  1.00  0.00     0.074 A 
ATOM     46  C   UNL     1      13.683  15.165   4.988  1.00  0.00     0.049 A 
ATOM     47  N   UNL     1      15.855  14.029   6.732  1.00  0.00    -0.248 NA
ATOM     48  C   UNL     1      16.324  12.484   5.048  1.00  0.00     0.031 C 
ATOM     49  C   UNL     1      12.585  15.719   4.196  1.00  0.00     0.029 A 
ATOM     50  N   UNL     1      13.624  15.855   6.171  1.00  0.00    -0.354 N 
ATOM     51  C   UNL     1      16.843  13.158   7.172  1.00  0.00     0.074 A 
ATOM     52  C   UNL     1      17.048  12.189   6.117  1.00  0.00     0.031 C 
ATOM     53  C   UNL     1      11.977  16.683   4.904  1.00  0.00     0.029 A 
ATOM     54  C   UNL     1      12.636  16.806   6.201  1.00  0.00     0.049 A 
ATOM     55  H   UNL     1      14.233  15.685   6.926  1.00  0.00     0.167 HD
ATOM     56  C   UNL     1      17.531  13.180   8.339  1.00  0.00     0.037 A 
ATOM     57  C   UNL     1      12.308  17.690   7.161  1.00  0.00     0.037 A 
ATOM     58  C   UNL     1      17.333  14.162   9.375  1.00  0.00     0.049 A 
ATOM     59  C   UNL     1      13.130  17.745   8.417  1.00  0.00     0.074 A 
ATOM     60  C   UNL     1      18.033  14.326  10.557  1.00  0.00     0.029 A 
ATOM     61  N   UNL     1      16.353  15.144   9.352  1.00  0.00    -0.354 N 
ATOM     62  N   UNL     1      14.136  16.987   8.780  1.00  0.00    -0.248 NA
ATOM     63  C   UNL     1      12.786  18.794   9.385  1.00  0.00     0.031 C 
ATOM     64  C   UNL     1      17.449  15.380  11.270  1.00  0.00     0.029 A 
ATOM     65  C   UNL     1      16.415  15.905  10.510  1.00  0.00     0.049 A 
ATOM     66  H   UNL     1      15.709  15.282   8.621  1.00  0.00     0.167 HD
ATOM     67  C   UNL     1      14.557  17.474  10.009  1.00  0.00     0.074 A 
ATOM     68  C   UNL     1      13.710  18.609  10.318  1.00  0.00     0.031 C 
ATOM     69  C   UNL     1      15.554  17.021  10.810  1.00  0.00     0.037 A 
BRANCH  56  70
ATOM     70  C   UNL     1      18.558  12.105   8.553  1.00  0.00     0.064 A 
ATOM     71  C   UNL     1      19.744  12.057   7.803  1.00  0.00     0.173 A 
ATOM     72  C   UNL     1      18.358  11.113   9.524  1.00  0.00     0.173 A 
ATOM     73  F   UNL     1      19.980  12.975   6.854  1.00  0.00    -0.203 F 
ATOM     74  C   UNL     1      20.670  11.034   7.989  1.00  0.00     0.198 A 
ATOM     75  C   UNL     1      19.302  10.108   9.729  1.00  0.00     0.198 A 
ATOM     76  F   UNL     1      17.246  11.113  10.274  1.00  0.00    -0.203 F 
ATOM     77  F   UNL     1      21.765  10.975   7.218  1.00  0.00    -0.200 F 
ATOM     78  C   UNL     1      20.451  10.063   8.954  1.00  0.00     0.200 A 
ATOM     79  F   UNL     1      19.093   9.177  10.670  1.00  0.00    -0.200 F 
ATOM     80  F   UNL     1      21.341   9.077   9.130  1.00  0.00    -0.200 F 
ENDBRANCH  56  70
BRANCH  57  81
ATOM     81  C   UNL     1      11.183  18.629   6.927  1.00  0.00     0.064 A 
ATOM     82  C   UNL     1      11.419  19.982   6.650  1.00  0.00     0.173 A 
ATOM     83  C   UNL     1       9.854  18.181   6.924  1.00  0.00     0.173 A 
ATOM     84  F   UNL     1      12.673  20.457   6.656  1.00  0.00    -0.203 F 
ATOM     85  C   UNL     1      10.367  20.855   6.385  1.00  0.00     0.198 A 
ATOM     86  C   UNL     1       8.805  19.051   6.636  1.00  0.00     0.198 A 
ATOM     87  F   UNL     1       9.579  16.893   7.173  1.00  0.00    -0.203 F 
ATOM     88  F   UNL     1      10.618  22.150   6.147  1.00  0.00    -0.200 F 
ATOM     89  C   UNL     1       9.061  20.387   6.370  1.00  0.00     0.200 A 
ATOM     90  F   UNL     1       7.546  18.591   6.606  1.00  0.00    -0.200 F 
ATOM     91  F   UNL     1       8.051  21.224   6.099  1.00  0.00    -0.200 F 
ENDBRANCH  57  81
BRANCH  69  92
ATOM     92  C   UNL     1      15.782  17.763  12.095  1.00  0.00     0.064 A 
ATOM     93  C   UNL     1      14.873  17.681  13.161  1.00  0.00     0.173 A 
ATOM     94  C   UNL     1      16.927  18.555  12.266  1.00  0.00     0.173 A 
ATOM     95  F   UNL     1      13.755  16.948  13.040  1.00  0.00    -0.203 F 
ATOM     96  C   UNL     1      15.085  18.394  14.338  1.00  0.00     0.198 A 
ATOM     97  C   UNL     1      17.150  19.243  13.456  1.00  0.00     0.198 A 
ATOM     98  F   UNL     1      17.830  18.661  11.280  1.00  0.00    -0.203 F 
ATOM     99  F   UNL     1      14.175  18.346  15.320  1.00  0.00    -0.200 F 
ATOM    100  C   UNL     1      16.224  19.170  14.486  1.00  0.00     0.200 A 
ATOM    101  F   UNL     1      18.257  19.984  13.602  1.00  0.00    -0.200 F 
ATOM    102  F   UNL     1      16.425  19.857  15.619  1.00  0.00    -0.200 F 
ENDBRANCH  69  92
ENDBRANCH  43  44
ENDBRANCH  35  38
ENDBRANCH  33  34
ENDBRANCH  32  33
ENDBRANCH  31  32
ENDBRANCH  30  31
ENDBRANCH   1  30
TORSDOF 18
