REMARK SMILES COc1ccc([C@@H]2C3=C(C[C@@H](c4ccccc4)CC3=O)Nc3ccccc3N2C(=O)CCC(=O)NCCCCCCNC(=O)c2ccc(-c3c4nc(c(-c5c(F)c(F)c(F)c(F)c5F)c5ccc([nH]5)c(-c5c(F)c(F)c(F)c(F)c5F)c5nc(c(-c6c(F)c(F)c(F)c(F)c6F)c6ccc3[nH]6)C=C5)C=C4)cc2)cc1
REMARK SMILES IDX 36 1 35 2 33 3 34 4 32 6 31 7 29 8 30 9 28 10 7 11 6 13 3 14
REMARK SMILES IDX 4 15 109 16 5 17 108 18 2 19 1 20 27 21 22 22 26 23 23 24
REMARK SMILES IDX 25 25 24 26 21 27 9 29 8 30 10 31 19 32 11 34 18 35 20 36
REMARK SMILES IDX 12 37 13 38 17 39 14 40 16 41 15 42 37 43 38 44 39 45 40 46
REMARK SMILES IDX 41 47 42 48 43 49 44 51 45 52 46 53 107 54 47 55 106 56
REMARK SMILES IDX 48 57 49 58 50 59 100 60 51 61 105 62 99 63 101 64 52 65
REMARK SMILES IDX 104 66 98 67 97 68 53 70 85 71 65 72 84 73 66 74 69 75 83 76
REMARK SMILES IDX 102 77 67 78 68 79 82 81 103 82 70 83 54 84 55 85 63 86
REMARK SMILES IDX 56 87 57 88 61 89 64 90 58 91 59 92 62 93 60 94 86 95 87 96
REMARK SMILES IDX 95 97 88 98 89 99 93 100 96 101 90 102 91 103 94 104 92 105
REMARK SMILES IDX 71 106 72 107 80 108 73 109 74 110 78 111 81 112 75 113
REMARK SMILES IDX 76 114 79 115 77 116
REMARK H PARENT 35 5 21 28 42 50 101 69 69 80
REMARK Flexibility Score: 90.00
ROOT
ATOM      1  C   UNL     1      -0.044   4.310  -0.452  1.00  0.00     0.116 C 
ENDROOT
BRANCH   1   2
ATOM      2  N   UNL     1       0.147   5.458   0.414  1.00  0.00    -0.356 N 
ATOM      3  C   UNL     1      -0.248   6.750   0.265  1.00  0.00     0.220 C 
ATOM      4  O   UNL     1      -0.110   7.518   1.218  1.00  0.00    -0.275 OA
ATOM      5  H   UNL     1       0.642   5.271   1.244  1.00  0.00     0.163 HD
BRANCH   3   6
ATOM      6  C   UNL     1      -0.817   7.227  -1.049  1.00  0.00     0.110 C 
BRANCH   6   7
ATOM      7  C   UNL     1       0.082   8.302  -1.646  1.00  0.00     0.110 C 
BRANCH   7   8
ATOM      8  C   UNL     1       1.320   7.707  -2.327  1.00  0.00     0.228 C 
ATOM      9  O   UNL     1       1.162   7.077  -3.379  1.00  0.00    -0.274 OA
BRANCH   8  10
ATOM     10  N   UNL     1       2.584   7.904  -1.748  1.00  0.00    -0.298 N 
BRANCH  10  11
ATOM     11  C   UNL     1       3.790   7.675  -2.609  1.00  0.00     0.156 CG0
ATOM     12  G   UNL     1       4.266   8.940  -3.340  1.00  0.00     0.000 G0
BRANCH  11  13
ATOM     13  C   UNL     1       4.939   6.801  -2.096  1.00  0.00    -0.020 A 
ATOM     14  C   UNL     1       7.530   5.918  -1.498  1.00  0.00     0.118 A 
ATOM     15  C   UNL     1       6.690   6.343  -0.476  1.00  0.00     0.047 A 
ATOM     16  C   UNL     1       7.035   5.756  -2.785  1.00  0.00     0.047 A 
ATOM     17  C   UNL     1       5.398   6.786  -0.775  1.00  0.00     0.010 A 
ATOM     18  C   UNL     1       5.744   6.185  -3.081  1.00  0.00     0.010 A 
BRANCH  14  19
ATOM     19  O   UNL     1       8.852   5.733  -1.197  1.00  0.00    -0.497 OA
ATOM     20  C   UNL     1       9.688   6.473  -2.096  1.00  0.00     0.278 C 
ENDBRANCH  14  19
ENDBRANCH  11  13
ENDBRANCH  10  11
BRANCH  10  21
ATOM     21  C   UNL     1       2.740   8.927  -0.781  1.00  0.00     0.068 A 
ATOM     22  C   UNL     1       2.815  10.257  -1.235  1.00  0.00     0.062 A 
ATOM     23  C   UNL     1       2.839   8.611   0.572  1.00  0.00     0.028 A 
ATOM     24  C   UNL     1       3.223  11.235  -0.327  1.00  0.00     0.028 A 
ATOM     25  C   UNL     1       3.203   9.604   1.474  1.00  0.00     0.002 A 
ATOM     26  C   UNL     1       3.441  10.901   1.016  1.00  0.00     0.002 A 
BRANCH  22  27
ATOM     27  N   UNL     1       2.642  10.548  -2.612  1.00  0.00    -0.357 N 
ATOM     28  H   UNL     1       1.899  11.127  -2.897  1.00  0.00     0.166 HD
BRANCH  27  29
ATOM     29  C   UNL     1       3.506  10.028  -3.561  1.00  0.00     0.025 C 
ATOM     30  C   UNL     1       4.266   8.940  -3.340  1.00  0.00     0.042 CG0
ATOM     31  C   UNL     1       3.799  10.809  -4.820  1.00  0.00     0.063 C 
ATOM     32  C   UNL     1       5.667   9.483  -3.172  1.00  0.00     0.163 C 
ATOM     33  G   UNL     1       3.790   7.675  -2.609  1.00  0.00     0.000 G0
ATOM     34  C   UNL     1       5.214  11.401  -4.828  1.00  0.00     0.033 C 
ATOM     35  C   UNL     1       6.231  10.430  -4.214  1.00  0.00     0.089 C 
ATOM     36  O   UNL     1       6.363   9.203  -2.198  1.00  0.00    -0.294 OA
BRANCH  34  37
ATOM     37  C   UNL     1       5.309  12.834  -4.309  1.00  0.00    -0.044 A 
ATOM     38  C   UNL     1       4.310  13.440  -3.536  1.00  0.00     0.004 A 
ATOM     39  C   UNL     1       6.392  13.635  -4.706  1.00  0.00     0.004 A 
ATOM     40  C   UNL     1       4.350  14.796  -3.211  1.00  0.00     0.000 A 
ATOM     41  C   UNL     1       6.438  14.995  -4.382  1.00  0.00     0.000 A 
ATOM     42  C   UNL     1       5.410  15.578  -3.646  1.00  0.00     0.000 A 
ENDBRANCH  34  37
ENDBRANCH  27  29
ENDBRANCH  22  27
ENDBRANCH  10  21
ENDBRANCH   8  10
ENDBRANCH   7   8
ENDBRANCH   6   7
ENDBRANCH   3   6
ENDBRANCH   1   2
BRANCH   1  43
ATOM     43  C   UNL     1       0.931   4.211  -1.623  1.00  0.00     0.021 C 
BRANCH  43  44
ATOM     44  C   UNL     1       2.411   4.402  -1.270  1.00  0.00     0.002 C 
BRANCH  44  45
ATOM     45  C   UNL     1       3.233   3.124  -1.085  1.00  0.00     0.002 C 
BRANCH  45  46
ATOM     46  C   UNL     1       3.316   2.205  -2.308  1.00  0.00     0.021 C 
BRANCH  46  47
ATOM     47  C   UNL     1       3.872   2.839  -3.580  1.00  0.00     0.116 C 
BRANCH  47  48
ATOM     48  N   UNL     1       5.322   2.983  -3.567  1.00  0.00    -0.352 N 
ATOM     49  C   UNL     1       6.228   2.637  -4.543  1.00  0.00     0.251 C 
ATOM     50  H   UNL     1       5.704   3.382  -2.752  1.00  0.00     0.163 HD
ATOM     51  O   UNL     1       7.433   2.832  -4.415  1.00  0.00    -0.269 OA
BRANCH  49  52
ATOM     52  C   UNL     1       5.731   1.956  -5.749  1.00  0.00     0.039 A 
ATOM     53  C   UNL     1       6.138   0.639  -5.976  1.00  0.00     0.014 A 
ATOM     54  C   UNL     1       4.771   2.565  -6.561  1.00  0.00     0.014 A 
ATOM     55  C   UNL     1       5.493  -0.115  -6.954  1.00  0.00     0.010 A 
ATOM     56  C   UNL     1       4.091   1.794  -7.497  1.00  0.00     0.010 A 
ATOM     57  C   UNL     1       4.424   0.440  -7.675  1.00  0.00    -0.014 A 
BRANCH  57  58
ATOM     58  C   UNL     1       3.596  -0.396  -8.577  1.00  0.00     0.031 A 
ATOM     59  C   UNL     1       3.595  -0.127 -10.051  1.00  0.00     0.074 A 
ATOM     60  C   UNL     1       2.778  -1.328  -8.048  1.00  0.00     0.049 A 
ATOM     61  N   UNL     1       2.845  -0.651 -10.986  1.00  0.00    -0.248 NA
ATOM     62  C   UNL     1       4.544   0.887 -10.536  1.00  0.00     0.031 C 
ATOM     63  C   UNL     1       2.664  -1.645  -6.622  1.00  0.00     0.029 A 
ATOM     64  N   UNL     1       1.867  -2.164  -8.645  1.00  0.00    -0.354 N 
ATOM     65  C   UNL     1       3.212  -0.013 -12.162  1.00  0.00     0.074 A 
ATOM     66  C   UNL     1       4.231   0.956 -11.822  1.00  0.00     0.031 C 
ATOM     67  C   UNL     1       1.741  -2.606  -6.456  1.00  0.00     0.029 A 
ATOM     68  C   UNL     1       1.169  -2.945  -7.754  1.00  0.00     0.049 A 
ATOM     69  H   UNL     1       1.726  -2.201  -9.618  1.00  0.00     0.167 HD
ATOM     70  C   UNL     1       2.745  -0.229 -13.413  1.00  0.00     0.037 A 
ATOM     71  C   UNL     1       0.167  -3.821  -7.963  1.00  0.00     0.037 A 
ATOM     72  C   UNL     1       1.760  -1.222 -13.747  1.00  0.00     0.049 A 
ATOM     73  C   UNL     1      -0.316  -4.053  -9.371  1.00  0.00     0.074 A 
ATOM     74  C   UNL     1       1.270  -1.565 -14.995  1.00  0.00     0.029 A 
ATOM     75  N   UNL     1       1.116  -2.035 -12.825  1.00  0.00    -0.354 N 
ATOM     76  N   UNL     1       0.087  -3.493 -10.485  1.00  0.00    -0.248 NA
ATOM     77  C   UNL     1      -1.390  -5.040  -9.552  1.00  0.00     0.031 C 
ATOM     78  C   UNL     1       0.303  -2.560 -14.825  1.00  0.00     0.029 A 
ATOM     79  C   UNL     1       0.222  -2.868 -13.476  1.00  0.00     0.049 A 
ATOM     80  H   UNL     1       1.272  -2.021 -11.853  1.00  0.00     0.167 HD
ATOM     81  C   UNL     1      -0.653  -4.084 -11.499  1.00  0.00     0.074 A 
ATOM     82  C   UNL     1      -1.528  -5.050 -10.870  1.00  0.00     0.031 C 
ATOM     83  C   UNL     1      -0.614  -3.846 -12.832  1.00  0.00     0.037 A 
BRANCH  70  84
ATOM     84  C   UNL     1       3.291   0.621 -14.520  1.00  0.00     0.064 A 
ATOM     85  C   UNL     1       4.593   0.444 -15.008  1.00  0.00     0.173 A 
ATOM     86  C   UNL     1       2.480   1.583 -15.140  1.00  0.00     0.173 A 
ATOM     87  F   UNL     1       5.411  -0.455 -14.440  1.00  0.00    -0.203 F 
ATOM     88  C   UNL     1       5.070   1.211 -16.068  1.00  0.00     0.198 A 
ATOM     89  C   UNL     1       2.951   2.330 -16.216  1.00  0.00     0.198 A 
ATOM     90  F   UNL     1       1.225   1.788 -14.712  1.00  0.00    -0.203 F 
ATOM     91  F   UNL     1       6.329   1.048 -16.497  1.00  0.00    -0.200 F 
ATOM     92  C   UNL     1       4.246   2.146 -16.676  1.00  0.00     0.200 A 
ATOM     93  F   UNL     1       2.151   3.227 -16.809  1.00  0.00    -0.200 F 
ATOM     94  F   UNL     1       4.703   2.874 -17.705  1.00  0.00    -0.200 F 
ENDBRANCH  70  84
BRANCH  71  95
ATOM     95  C   UNL     1      -0.450  -4.547  -6.822  1.00  0.00     0.064 A 
ATOM     96  C   UNL     1      -0.281  -5.931  -6.672  1.00  0.00     0.173 A 
ATOM     97  C   UNL     1      -1.246  -3.882  -5.878  1.00  0.00     0.173 A 
ATOM     98  F   UNL     1       0.455  -6.615  -7.560  1.00  0.00    -0.203 F 
ATOM     99  C   UNL     1      -0.911  -6.627  -5.641  1.00  0.00     0.198 A 
ATOM    100  C   UNL     1      -1.852  -4.575  -4.831  1.00  0.00     0.198 A 
ATOM    101  F   UNL     1      -1.436  -2.558  -5.972  1.00  0.00    -0.203 F 
ATOM    102  F   UNL     1      -0.780  -7.958  -5.557  1.00  0.00    -0.200 F 
ATOM    103  C   UNL     1      -1.694  -5.948  -4.720  1.00  0.00     0.200 A 
ATOM    104  F   UNL     1      -2.598  -3.913  -3.936  1.00  0.00    -0.200 F 
ATOM    105  F   UNL     1      -2.305  -6.618  -3.734  1.00  0.00    -0.200 F 
ENDBRANCH  71  95
BRANCH  83 106
ATOM    106  C   UNL     1      -1.496  -4.681 -13.710  1.00  0.00     0.064 A 
ATOM    107  C   UNL     1      -2.879  -4.464 -13.782  1.00  0.00     0.173 A 
ATOM    108  C   UNL     1      -0.936  -5.660 -14.544  1.00  0.00     0.173 A 
ATOM    109  F   UNL     1      -3.460  -3.548 -12.993  1.00  0.00    -0.203 F 
ATOM    110  C   UNL     1      -3.673  -5.207 -14.651  1.00  0.00     0.198 A 
ATOM    111  C   UNL     1      -1.729  -6.383 -15.430  1.00  0.00     0.198 A 
ATOM    112  F   UNL     1       0.384  -5.899 -14.515  1.00  0.00    -0.203 F 
ATOM    113  F   UNL     1      -4.997  -5.006 -14.682  1.00  0.00    -0.200 F 
ATOM    114  C   UNL     1      -3.096  -6.158 -15.480  1.00  0.00     0.200 A 
ATOM    115  F   UNL     1      -1.169  -7.292 -16.240  1.00  0.00    -0.200 F 
ATOM    116  F   UNL     1      -3.860  -6.861 -16.327  1.00  0.00    -0.200 F 
ENDBRANCH  83 106
ENDBRANCH  57  58
ENDBRANCH  49  52
ENDBRANCH  47  48
ENDBRANCH  46  47
ENDBRANCH  45  46
ENDBRANCH  44  45
ENDBRANCH  43  44
ENDBRANCH   1  43
TORSDOF 19
