REMARK SMILES COc1ccc2c(c1)[C@H]([NH2+][C@H]1CCC[C@H](C(=O)NCCCCCCNC(=O)c3ccc(-c4c5nc(c(-c6c(F)c(F)c(F)c(F)c6F)c6ccc([nH]6)c(-c6c(F)c(F)c(F)c(F)c6F)c6nc(c(-c7c(F)c(F)c(F)c(F)c7F)c7ccc4[nH]7)C=C6)C=C5)cc3)C1)CC2
REMARK SMILES IDX 21 1 20 2 19 3 18 4 16 5 17 6 15 8 11 9 12 10 91 11 13 12
REMARK SMILES IDX 14 13 10 14 9 17 3 18 4 19 8 20 5 21 7 22 6 23 93 24 92 25
REMARK SMILES IDX 2 26 1 27 22 28 23 29 24 30 25 31 26 32 27 34 28 35 29 36
REMARK SMILES IDX 90 37 30 38 89 39 31 40 32 41 33 42 83 43 34 44 88 45 82 46
REMARK SMILES IDX 84 47 35 48 87 49 81 50 80 51 36 53 68 54 48 55 67 56 49 57
REMARK SMILES IDX 52 58 66 59 85 60 50 61 51 62 65 64 86 65 53 66 37 67 38 68
REMARK SMILES IDX 46 69 39 70 40 71 44 72 47 73 41 74 42 75 45 76 43 77 69 78
REMARK SMILES IDX 70 79 78 80 71 81 72 82 76 83 79 84 73 85 74 86 77 87 75 88
REMARK SMILES IDX 54 89 55 90 63 91 56 92 57 93 61 94 64 95 58 96 59 97 62 98
REMARK SMILES IDX 60 99
REMARK H PARENT 18 7 10 15 10 16 25 33 84 52 52 63
REMARK Flexibility Score: inf
ROOT
ATOM      1  C   UNL     1      -1.650  13.527  -4.296  1.00  0.00     0.002 C 
ENDROOT
BRANCH   1   2
ATOM      2  C   UNL     1      -2.413  12.574  -3.372  1.00  0.00     0.021 C 
BRANCH   2   3
ATOM      3  C   UNL     1      -1.801  11.179  -3.276  1.00  0.00     0.116 C 
BRANCH   3   4
ATOM      4  N   UNL     1      -0.525  11.212  -2.587  1.00  0.00    -0.356 N 
ATOM      5  C   UNL     1      -0.127  10.641  -1.419  1.00  0.00     0.223 C 
ATOM      6  O   UNL     1       1.011  10.890  -1.017  1.00  0.00    -0.275 OA
ATOM      7  H   UNL     1       0.172  11.738  -3.043  1.00  0.00     0.163 HD
BRANCH   5   8
ATOM      8  C   UNL     1      -1.044   9.711  -0.635  1.00  0.00     0.084 C 
ATOM      9  C   UNL     1      -2.420   7.545  -0.826  1.00  0.00     0.183 C 
ATOM     10  C   UNL     1      -3.664   8.391  -0.534  1.00  0.00     0.065 C 
ATOM     11  C   UNL     1      -1.341   8.438  -1.450  1.00  0.00     0.078 C 
ATOM     12  C   UNL     1      -3.376   9.535   0.432  1.00  0.00     0.007 C 
ATOM     13  C   UNL     1      -2.268  10.452  -0.073  1.00  0.00     0.014 C 
BRANCH   9  14
ATOM     14  N   UNL     1      -1.832   6.890   0.335  1.00  0.00    -0.338 N 
ATOM     15  H   UNL     1      -0.938   6.492   0.049  1.00  0.00     0.347 HD
ATOM     16  H   UNL     1      -1.761   7.614   1.050  1.00  0.00     0.347 HD
BRANCH  14  17
ATOM     17  C   UNL     1      -2.617   5.827   0.939  1.00  0.00     0.214 C 
ATOM     18  C   UNL     1       0.140   3.405   2.068  1.00  0.00     0.119 A 
ATOM     19  C   UNL     1      -0.435   3.014   3.288  1.00  0.00     0.047 A 
ATOM     20  C   UNL     1      -0.507   4.335   1.253  1.00  0.00     0.056 A 
ATOM     21  C   UNL     1      -1.675   3.526   3.691  1.00  0.00     0.008 A 
ATOM     22  C   UNL     1      -1.730   4.846   1.662  1.00  0.00     0.016 A 
ATOM     23  C   UNL     1      -2.309   4.441   2.869  1.00  0.00    -0.038 A 
ATOM     24  C   UNL     1      -3.632   5.106   3.072  1.00  0.00     0.042 C 
ATOM     25  C   UNL     1      -3.506   6.297   2.112  1.00  0.00     0.075 C 
BRANCH  18  26
ATOM     26  O   UNL     1       1.359   2.975   1.615  1.00  0.00    -0.497 OA
ATOM     27  C   UNL     1       1.642   1.608   1.885  1.00  0.00     0.278 C 
ENDBRANCH  18  26
ENDBRANCH  14  17
ENDBRANCH   9  14
ENDBRANCH   5   8
ENDBRANCH   3   4
ENDBRANCH   2   3
ENDBRANCH   1   2
BRANCH   1  28
ATOM     28  C   UNL     1      -1.462  13.022  -5.731  1.00  0.00     0.002 C 
BRANCH  28  29
ATOM     29  C   UNL     1      -2.748  12.590  -6.440  1.00  0.00     0.021 C 
BRANCH  29  30
ATOM     30  C   UNL     1      -3.826  13.665  -6.509  1.00  0.00     0.116 C 
BRANCH  30  31
ATOM     31  N   UNL     1      -3.392  14.830  -7.261  1.00  0.00    -0.352 N 
ATOM     32  C   UNL     1      -4.005  15.460  -8.312  1.00  0.00     0.251 C 
ATOM     33  H   UNL     1      -2.536  15.223  -6.974  1.00  0.00     0.163 HD
ATOM     34  O   UNL     1      -3.405  16.323  -8.954  1.00  0.00    -0.269 OA
BRANCH  32  35
ATOM     35  C   UNL     1      -5.383  15.090  -8.691  1.00  0.00     0.039 A 
ATOM     36  C   UNL     1      -5.684  14.903 -10.043  1.00  0.00     0.014 A 
ATOM     37  C   UNL     1      -6.376  14.935  -7.720  1.00  0.00     0.014 A 
ATOM     38  C   UNL     1      -6.969  14.507 -10.416  1.00  0.00     0.010 A 
ATOM     39  C   UNL     1      -7.636  14.472  -8.087  1.00  0.00     0.010 A 
ATOM     40  C   UNL     1      -7.947  14.258  -9.439  1.00  0.00    -0.014 A 
BRANCH  40  41
ATOM     41  C   UNL     1      -9.300  13.778  -9.813  1.00  0.00     0.031 A 
ATOM     42  C   UNL     1     -10.506  14.636  -9.547  1.00  0.00     0.074 A 
ATOM     43  C   UNL     1      -9.449  12.545 -10.333  1.00  0.00     0.049 A 
ATOM     44  N   UNL     1     -11.772  14.369  -9.744  1.00  0.00    -0.248 NA
ATOM     45  C   UNL     1     -10.257  15.961  -8.958  1.00  0.00     0.031 C 
ATOM     46  C   UNL     1      -8.361  11.602 -10.596  1.00  0.00     0.029 A 
ATOM     47  N   UNL     1     -10.577  11.868 -10.725  1.00  0.00    -0.354 N 
ATOM     48  C   UNL     1     -12.468  15.480  -9.287  1.00  0.00     0.074 A 
ATOM     49  C   UNL     1     -11.489  16.405  -8.758  1.00  0.00     0.031 C 
ATOM     50  C   UNL     1      -8.870  10.481 -11.130  1.00  0.00     0.029 A 
ATOM     51  C   UNL     1     -10.322  10.609 -11.210  1.00  0.00     0.049 A 
ATOM     52  H   UNL     1     -11.482  12.250 -10.665  1.00  0.00     0.167 HD
ATOM     53  C   UNL     1     -13.801  15.717  -9.326  1.00  0.00     0.037 A 
ATOM     54  C   UNL     1     -11.167   9.663 -11.662  1.00  0.00     0.037 A 
ATOM     55  C   UNL     1     -14.768  14.807  -9.882  1.00  0.00     0.049 A 
ATOM     56  C   UNL     1     -12.644   9.949 -11.687  1.00  0.00     0.074 A 
ATOM     57  C   UNL     1     -16.132  14.984 -10.034  1.00  0.00     0.029 A 
ATOM     58  N   UNL     1     -14.472  13.544 -10.373  1.00  0.00    -0.354 N 
ATOM     59  N   UNL     1     -13.284  11.033 -11.322  1.00  0.00    -0.248 NA
ATOM     60  C   UNL     1     -13.516   8.880 -12.193  1.00  0.00     0.031 C 
ATOM     61  C   UNL     1     -16.669  13.809 -10.570  1.00  0.00     0.029 A 
ATOM     62  C   UNL     1     -15.632  12.919 -10.803  1.00  0.00     0.049 A 
ATOM     63  H   UNL     1     -13.571  13.149 -10.411  1.00  0.00     0.167 HD
ATOM     64  C   UNL     1     -14.626  10.791 -11.583  1.00  0.00     0.074 A 
ATOM     65  C   UNL     1     -14.707   9.460 -12.149  1.00  0.00     0.031 C 
ATOM     66  C   UNL     1     -15.695  11.598 -11.373  1.00  0.00     0.037 A 
BRANCH  53  67
ATOM     67  C   UNL     1     -14.295  17.013  -8.750  1.00  0.00     0.064 A 
ATOM     68  C   UNL     1     -14.031  18.245  -9.370  1.00  0.00     0.173 A 
ATOM     69  C   UNL     1     -15.073  17.021  -7.583  1.00  0.00     0.173 A 
ATOM     70  F   UNL     1     -13.283  18.295 -10.482  1.00  0.00    -0.203 F 
ATOM     71  C   UNL     1     -14.501  19.437  -8.824  1.00  0.00     0.198 A 
ATOM     72  C   UNL     1     -15.568  18.212  -7.058  1.00  0.00     0.198 A 
ATOM     73  F   UNL     1     -15.361  15.872  -6.953  1.00  0.00    -0.203 F 
ATOM     74  F   UNL     1     -14.193  20.605  -9.405  1.00  0.00    -0.200 F 
ATOM     75  C   UNL     1     -15.275  19.419  -7.674  1.00  0.00     0.200 A 
ATOM     76  F   UNL     1     -16.328  18.192  -5.954  1.00  0.00    -0.200 F 
ATOM     77  F   UNL     1     -15.733  20.567  -7.155  1.00  0.00    -0.200 F 
ENDBRANCH  53  67
BRANCH  54  78
ATOM     78  C   UNL     1     -10.635   8.366 -12.156  1.00  0.00     0.064 A 
ATOM     79  C   UNL     1     -10.697   8.036 -13.517  1.00  0.00     0.173 A 
ATOM     80  C   UNL     1     -10.064   7.428 -11.283  1.00  0.00     0.173 A 
ATOM     81  F   UNL     1     -11.254   8.892 -14.387  1.00  0.00    -0.203 F 
ATOM     82  C   UNL     1     -10.228   6.811 -13.984  1.00  0.00     0.198 A 
ATOM     83  C   UNL     1      -9.568   6.215 -11.755  1.00  0.00     0.198 A 
ATOM     84  F   UNL     1      -9.976   7.697  -9.972  1.00  0.00    -0.203 F 
ATOM     85  F   UNL     1     -10.343   6.502 -15.283  1.00  0.00    -0.200 F 
ATOM     86  C   UNL     1      -9.658   5.903 -13.104  1.00  0.00     0.200 A 
ATOM     87  F   UNL     1      -9.006   5.346 -10.903  1.00  0.00    -0.200 F 
ATOM     88  F   UNL     1      -9.204   4.725 -13.553  1.00  0.00    -0.200 F 
ENDBRANCH  54  78
BRANCH  66  89
ATOM     89  C   UNL     1     -17.040  11.081 -11.794  1.00  0.00     0.064 A 
ATOM     90  C   UNL     1     -17.688  10.053 -11.093  1.00  0.00     0.173 A 
ATOM     91  C   UNL     1     -17.707  11.650 -12.890  1.00  0.00     0.173 A 
ATOM     92  F   UNL     1     -17.086   9.466 -10.047  1.00  0.00    -0.203 F 
ATOM     93  C   UNL     1     -18.942   9.597 -11.490  1.00  0.00     0.198 A 
ATOM     94  C   UNL     1     -18.974  11.213 -13.264  1.00  0.00     0.198 A 
ATOM     95  F   UNL     1     -17.134  12.641 -13.590  1.00  0.00    -0.203 F 
ATOM     96  F   UNL     1     -19.520   8.580 -10.835  1.00  0.00    -0.200 F 
ATOM     97  C   UNL     1     -19.587  10.181 -12.569  1.00  0.00     0.200 A 
ATOM     98  F   UNL     1     -19.601  11.789 -14.299  1.00  0.00    -0.200 F 
ATOM     99  F   UNL     1     -20.797   9.746 -12.945  1.00  0.00    -0.200 F 
ENDBRANCH  66  89
ENDBRANCH  40  41
ENDBRANCH  32  35
ENDBRANCH  30  31
ENDBRANCH  29  30
ENDBRANCH  28  29
ENDBRANCH   1  28
TORSDOF 16
