REMARK SMILES CC[C@H]1CC[C@](Cc2cccnc2)(C(=O)NCCCCCCNC(=O)c2ccc(-c3c4nc(c(-c5c(F)c(F)c(F)c(F)c5F)c5ccc([nH]5)c(-c5c(F)c(F)c(F)c(F)c5F)c5nc(c(-c6c(F)c(F)c(F)c(F)c6F)c6ccc3[nH]6)C=C5)C=C4)cc2)C1
REMARK SMILES IDX 19 1 18 2 17 3 16 4 14 5 15 6 6 8 3 9 4 10 89 11 5 12 2 13
REMARK SMILES IDX 1 14 7 15 8 16 9 17 13 18 10 19 12 20 11 21 20 22 21 23
REMARK SMILES IDX 22 24 23 25 24 26 25 28 26 29 27 30 88 31 28 32 87 33 29 34
REMARK SMILES IDX 30 35 31 36 81 37 32 38 86 39 80 40 82 41 33 42 85 43 79 44
REMARK SMILES IDX 78 45 34 47 66 48 46 49 65 50 47 51 50 52 64 53 83 54 48 55
REMARK SMILES IDX 49 56 63 58 84 59 51 60 35 61 36 62 44 63 37 64 38 65 42 66
REMARK SMILES IDX 45 67 39 68 40 69 43 70 41 71 67 72 68 73 76 74 69 75 70 76
REMARK SMILES IDX 74 77 77 78 71 79 72 80 75 81 73 82 52 83 53 84 61 85 54 86
REMARK SMILES IDX 55 87 59 88 62 89 56 90 57 91 60 92 58 93
REMARK H PARENT 16 7 23 27 82 46 50 57
REMARK Flexibility Score: inf
ROOT
ATOM      1  C   UNL     1       5.964   7.133   2.277  1.00  0.00     0.002 C 
ENDROOT
BRANCH   1   2
ATOM      2  C   UNL     1       4.888   6.268   2.936  1.00  0.00     0.021 C 
BRANCH   2   3
ATOM      3  C   UNL     1       3.617   6.115   2.095  1.00  0.00     0.116 C 
BRANCH   3   4
ATOM      4  N   UNL     1       3.821   5.151   1.027  1.00  0.00    -0.356 N 
ATOM      5  C   UNL     1       3.448   3.843   0.901  1.00  0.00     0.226 C 
ATOM      6  O   UNL     1       3.900   3.244  -0.077  1.00  0.00    -0.274 OA
ATOM      7  H   UNL     1       4.318   5.505   0.254  1.00  0.00     0.163 HD
BRANCH   5   8
ATOM      8  C   UNL     1       2.517   3.161   1.942  1.00  0.00     0.054 C 
ATOM      9  C   UNL     1       0.586   1.623   1.503  1.00  0.00    -0.010 C 
ATOM     10  C   UNL     1       0.162   3.053   1.218  1.00  0.00     0.005 C 
ATOM     11  C   UNL     1       2.122   1.726   1.466  1.00  0.00     0.021 C 
ATOM     12  C   UNL     1       1.172   3.929   1.955  1.00  0.00     0.017 C 
BRANCH   9  13
ATOM     13  C   UNL     1       0.028   0.955   2.777  1.00  0.00     0.000 C 
ATOM     14  C   UNL     1      -0.843   1.792   3.702  1.00  0.00     0.004 C 
ENDBRANCH   9  13
BRANCH   8  15
ATOM     15  C   UNL     1       3.307   3.102   3.284  1.00  0.00     0.054 C 
BRANCH  15  16
ATOM     16  C   UNL     1       2.686   2.494   4.513  1.00  0.00    -0.029 A 
ATOM     17  C   UNL     1       2.891   1.155   4.852  1.00  0.00     0.007 A 
ATOM     18  C   UNL     1       1.933   3.263   5.397  1.00  0.00     0.114 A 
ATOM     19  C   UNL     1       2.287   0.629   5.990  1.00  0.00     0.020 A 
ATOM     20  N   UNL     1       1.343   2.784   6.514  1.00  0.00    -0.264 NA
ATOM     21  C   UNL     1       1.522   1.472   6.777  1.00  0.00     0.111 A 
ENDBRANCH  15  16
ENDBRANCH   8  15
ENDBRANCH   5   8
ENDBRANCH   3   4
ENDBRANCH   2   3
ENDBRANCH   1   2
BRANCH   1  22
ATOM     22  C   UNL     1       5.559   8.592   2.051  1.00  0.00     0.002 C 
BRANCH  22  23
ATOM     23  C   UNL     1       5.078   9.327   3.305  1.00  0.00     0.021 C 
BRANCH  23  24
ATOM     24  C   UNL     1       6.103   9.374   4.434  1.00  0.00     0.116 C 
BRANCH  24  25
ATOM     25  N   UNL     1       7.289  10.127   4.053  1.00  0.00    -0.352 N 
ATOM     26  C   UNL     1       7.776  11.304   4.567  1.00  0.00     0.251 C 
ATOM     27  H   UNL     1       7.819   9.736   3.321  1.00  0.00     0.163 HD
ATOM     28  O   UNL     1       8.648  11.929   3.977  1.00  0.00    -0.269 OA
BRANCH  26  29
ATOM     29  C   UNL     1       7.223  11.823   5.834  1.00  0.00     0.039 A 
ATOM     30  C   UNL     1       6.847  13.166   5.912  1.00  0.00     0.014 A 
ATOM     31  C   UNL     1       7.061  10.977   6.934  1.00  0.00     0.014 A 
ATOM     32  C   UNL     1       6.226  13.640   7.069  1.00  0.00     0.010 A 
ATOM     33  C   UNL     1       6.380  11.432   8.058  1.00  0.00     0.010 A 
ATOM     34  C   UNL     1       5.943  12.764   8.130  1.00  0.00    -0.014 A 
BRANCH  34  35
ATOM     35  C   UNL     1       5.154  13.204   9.308  1.00  0.00     0.031 A 
ATOM     36  C   UNL     1       5.774  13.211  10.675  1.00  0.00     0.074 A 
ATOM     37  C   UNL     1       3.852  13.511   9.152  1.00  0.00     0.049 A 
ATOM     38  N   UNL     1       5.217  13.455  11.835  1.00  0.00    -0.248 NA
ATOM     39  C   UNL     1       7.204  12.876  10.752  1.00  0.00     0.031 C 
ATOM     40  C   UNL     1       3.130  13.509   7.878  1.00  0.00     0.029 A 
ATOM     41  N   UNL     1       2.898  13.867  10.073  1.00  0.00    -0.354 N 
ATOM     42  C   UNL     1       6.224  13.296  12.777  1.00  0.00     0.074 A 
ATOM     43  C   UNL     1       7.412  12.883  12.060  1.00  0.00     0.031 C 
ATOM     44  C   UNL     1       1.854  13.862   8.095  1.00  0.00     0.029 A 
ATOM     45  C   UNL     1       1.653  14.064   9.527  1.00  0.00     0.049 A 
ATOM     46  H   UNL     1       3.088  13.971  11.033  1.00  0.00     0.167 HD
ATOM     47  C   UNL     1       6.165  13.496  14.115  1.00  0.00     0.037 A 
ATOM     48  C   UNL     1       0.476  14.352  10.116  1.00  0.00     0.037 A 
ATOM     49  C   UNL     1       4.980  13.912  14.819  1.00  0.00     0.049 A 
ATOM     50  C   UNL     1       0.426  14.509  11.612  1.00  0.00     0.074 A 
ATOM     51  C   UNL     1       4.832  14.199  16.164  1.00  0.00     0.029 A 
ATOM     52  N   UNL     1       3.734  14.088  14.233  1.00  0.00    -0.354 N 
ATOM     53  N   UNL     1       1.399  14.430  12.486  1.00  0.00    -0.248 NA
ATOM     54  C   UNL     1      -0.889  14.791  12.204  1.00  0.00     0.031 C 
ATOM     55  C   UNL     1       3.485  14.486  16.405  1.00  0.00     0.029 A 
ATOM     56  C   UNL     1       2.803  14.438  15.199  1.00  0.00     0.049 A 
ATOM     57  H   UNL     1       3.540  13.981  13.274  1.00  0.00     0.167 HD
ATOM     58  C   UNL     1       0.822  14.672  13.725  1.00  0.00     0.074 A 
ATOM     59  C   UNL     1      -0.585  14.921  13.488  1.00  0.00     0.031 C 
ATOM     60  C   UNL     1       1.405  14.683  14.948  1.00  0.00     0.037 A 
BRANCH  47  61
ATOM     61  C   UNL     1       7.418  13.259  14.909  1.00  0.00     0.064 A 
ATOM     62  C   UNL     1       8.538  14.096  14.788  1.00  0.00     0.173 A 
ATOM     63  C   UNL     1       7.489  12.201  15.829  1.00  0.00     0.173 A 
ATOM     64  F   UNL     1       8.527  15.117  13.918  1.00  0.00    -0.203 F 
ATOM     65  C   UNL     1       9.692  13.864  15.532  1.00  0.00     0.198 A 
ATOM     66  C   UNL     1       8.632  11.992  16.596  1.00  0.00     0.198 A 
ATOM     67  F   UNL     1       6.445  11.374  15.992  1.00  0.00    -0.203 F 
ATOM     68  F   UNL     1      10.767  14.645  15.359  1.00  0.00    -0.200 F 
ATOM     69  C   UNL     1       9.735  12.817  16.441  1.00  0.00     0.200 A 
ATOM     70  F   UNL     1       8.666  10.990  17.485  1.00  0.00    -0.200 F 
ATOM     71  F   UNL     1      10.844  12.599  17.161  1.00  0.00    -0.200 F 
ENDBRANCH  47  61
BRANCH  48  72
ATOM     72  C   UNL     1      -0.750  14.509   9.290  1.00  0.00     0.064 A 
ATOM     73  C   UNL     1      -1.374  15.757   9.160  1.00  0.00     0.173 A 
ATOM     74  C   UNL     1      -1.324  13.421   8.616  1.00  0.00     0.173 A 
ATOM     75  F   UNL     1      -0.875  16.824   9.802  1.00  0.00    -0.203 F 
ATOM     76  C   UNL     1      -2.535  15.907   8.405  1.00  0.00     0.198 A 
ATOM     77  C   UNL     1      -2.467  13.578   7.834  1.00  0.00     0.198 A 
ATOM     78  F   UNL     1      -0.764  12.205   8.702  1.00  0.00    -0.203 F 
ATOM     79  F   UNL     1      -3.137  17.103   8.336  1.00  0.00    -0.200 F 
ATOM     80  C   UNL     1      -3.076  14.820   7.737  1.00  0.00     0.200 A 
ATOM     81  F   UNL     1      -2.976  12.528   7.177  1.00  0.00    -0.200 F 
ATOM     82  F   UNL     1      -4.189  14.966   7.005  1.00  0.00    -0.200 F 
ENDBRANCH  48  72
BRANCH  60  83
ATOM     83  C   UNL     1       0.529  14.989  16.129  1.00  0.00     0.064 A 
ATOM     84  C   UNL     1      -0.418  14.067  16.599  1.00  0.00     0.173 A 
ATOM     85  C   UNL     1       0.681  16.192  16.836  1.00  0.00     0.173 A 
ATOM     86  F   UNL     1      -0.615  12.911  15.948  1.00  0.00    -0.203 F 
ATOM     87  C   UNL     1      -1.190  14.345  17.724  1.00  0.00     0.198 A 
ATOM     88  C   UNL     1      -0.069  16.452  17.979  1.00  0.00     0.198 A 
ATOM     89  F   UNL     1       1.577  17.105  16.432  1.00  0.00    -0.203 F 
ATOM     90  F   UNL     1      -2.117  13.466  18.131  1.00  0.00    -0.200 F 
ATOM     91  C   UNL     1      -1.008  15.531  18.419  1.00  0.00     0.200 A 
ATOM     92  F   UNL     1       0.120  17.591  18.659  1.00  0.00    -0.200 F 
ATOM     93  F   UNL     1      -1.740  15.788  19.512  1.00  0.00    -0.200 F 
ENDBRANCH  60  83
ENDBRANCH  34  35
ENDBRANCH  26  29
ENDBRANCH  24  25
ENDBRANCH  23  24
ENDBRANCH  22  23
ENDBRANCH   1  22
TORSDOF 16
