REMARK SMILES CC[C@@H](C)SCc1cc(F)cc(/C=C/C(=O)NCCCCCCNC(=O)c2ccc(-c3c4nc(c(-c5c(F)c(F)c(F)c(F)c5F)c5ccc([nH]5)c(-c5c(F)c(F)c(F)c(F)c5F)c5nc(c(-c6c(F)c(F)c(F)c(F)c6F)c6ccc3[nH]6)C=C5)C=C4)cc2)c1
REMARK SMILES IDX 19 1 18 2 17 3 15 4 16 5 14 7 13 8 12 9 7 10 8 11 90 12 9 13
REMARK SMILES IDX 10 14 11 15 6 16 5 17 3 18 4 19 2 20 1 21 20 22 21 23 22 24
REMARK SMILES IDX 23 25 24 26 25 27 26 29 27 30 28 31 89 32 29 33 88 34 30 35
REMARK SMILES IDX 31 36 32 37 82 38 33 39 87 40 81 41 83 42 34 43 86 44 80 45
REMARK SMILES IDX 79 46 35 48 67 49 47 50 66 51 48 52 51 53 65 54 84 55 49 56
REMARK SMILES IDX 50 57 64 59 85 60 52 61 36 62 37 63 45 64 38 65 39 66 43 67
REMARK SMILES IDX 46 68 40 69 41 70 44 71 42 72 68 73 69 74 77 75 70 76 71 77
REMARK SMILES IDX 75 78 78 79 72 80 73 81 76 82 74 83 53 84 54 85 62 86 55 87
REMARK SMILES IDX 56 88 60 89 63 90 57 91 58 92 61 93 59 94
REMARK H PARENT 17 6 24 28 83 47 51 58
REMARK Flexibility Score: inf
ROOT
ATOM      1  C   UNL     1       2.386   6.365   5.310  1.00  0.00     0.021 C 
ENDROOT
BRANCH   1   2
ATOM      2  C   UNL     1       0.952   6.660   5.755  1.00  0.00     0.116 C 
BRANCH   2   3
ATOM      3  N   UNL     1       0.388   7.753   4.981  1.00  0.00    -0.353 N 
ATOM      4  C   UNL     1      -0.711   7.819   4.184  1.00  0.00     0.243 C 
ATOM      5  O   UNL     1      -1.050   8.899   3.705  1.00  0.00    -0.270 OA
ATOM      6  H   UNL     1       0.891   8.597   5.047  1.00  0.00     0.163 HD
BRANCH   4   7
ATOM      7  C   UNL     1      -1.552   6.627   3.940  1.00  0.00     0.072 C 
ATOM      8  C   UNL     1      -1.050   5.434   3.601  1.00  0.00     0.014 C 
BRANCH   8   9
ATOM      9  C   UNL     1      -1.850   4.238   3.326  1.00  0.00    -0.022 A 
ATOM     10  C   UNL     1      -1.938   1.792   3.413  1.00  0.00    -0.035 A 
ATOM     11  C   UNL     1      -3.053   1.825   2.566  1.00  0.00     0.043 A 
ATOM     12  C   UNL     1      -1.396   3.015   3.843  1.00  0.00     0.013 A 
ATOM     13  C   UNL     1      -3.548   3.045   2.111  1.00  0.00     0.124 A 
ATOM     14  F   UNL     1      -4.596   3.054   1.277  1.00  0.00    -0.207 F 
ATOM     15  C   UNL     1      -2.945   4.248   2.463  1.00  0.00     0.047 A 
BRANCH  10  16
ATOM     16  C   UNL     1      -1.351   0.469   3.837  1.00  0.00     0.105 C 
BRANCH  16  17
ATOM     17  S   UNL     1       0.476   0.402   3.943  1.00  0.00    -0.154 SA
BRANCH  17  18
ATOM     18  C   UNL     1       1.041   0.672   2.204  1.00  0.00     0.043 C 
ATOM     19  C   UNL     1       0.882   2.117   1.737  1.00  0.00     0.019 C 
BRANCH  18  20
ATOM     20  C   UNL     1       0.448  -0.353   1.227  1.00  0.00     0.011 C 
ATOM     21  C   UNL     1       1.023  -0.224  -0.179  1.00  0.00     0.005 C 
ENDBRANCH  18  20
ENDBRANCH  17  18
ENDBRANCH  16  17
ENDBRANCH  10  16
ENDBRANCH   8   9
ENDBRANCH   4   7
ENDBRANCH   2   3
ENDBRANCH   1   2
BRANCH   1  22
ATOM     22  C   UNL     1       3.416   7.370   5.843  1.00  0.00     0.002 C 
BRANCH  22  23
ATOM     23  C   UNL     1       3.548   7.416   7.371  1.00  0.00     0.002 C 
BRANCH  23  24
ATOM     24  C   UNL     1       3.858   6.073   8.040  1.00  0.00     0.021 C 
BRANCH  24  25
ATOM     25  C   UNL     1       5.170   5.430   7.598  1.00  0.00     0.116 C 
BRANCH  25  26
ATOM     26  N   UNL     1       6.322   6.235   7.970  1.00  0.00    -0.352 N 
ATOM     27  C   UNL     1       7.446   5.882   8.672  1.00  0.00     0.251 C 
ATOM     28  H   UNL     1       6.291   7.174   7.673  1.00  0.00     0.163 HD
ATOM     29  O   UNL     1       8.219   6.747   9.072  1.00  0.00    -0.269 OA
BRANCH  27  30
ATOM     30  C   UNL     1       7.725   4.459   8.963  1.00  0.00     0.039 A 
ATOM     31  C   UNL     1       8.179   4.111  10.238  1.00  0.00     0.014 A 
ATOM     32  C   UNL     1       7.572   3.477   7.980  1.00  0.00     0.014 A 
ATOM     33  C   UNL     1       8.429   2.772  10.542  1.00  0.00     0.010 A 
ATOM     34  C   UNL     1       7.759   2.135   8.303  1.00  0.00     0.010 A 
ATOM     35  C   UNL     1       8.192   1.770   9.586  1.00  0.00    -0.014 A 
BRANCH  35  36
ATOM     36  C   UNL     1       8.382   0.337   9.924  1.00  0.00     0.031 A 
ATOM     37  C   UNL     1       9.454  -0.471   9.249  1.00  0.00     0.074 A 
ATOM     38  C   UNL     1       7.555  -0.246  10.813  1.00  0.00     0.049 A 
ATOM     39  N   UNL     1       9.748  -1.739   9.395  1.00  0.00    -0.248 NA
ATOM     40  C   UNL     1      10.293   0.229   8.264  1.00  0.00     0.031 C 
ATOM     41  C   UNL     1       6.449   0.422  11.498  1.00  0.00     0.029 A 
ATOM     42  N   UNL     1       7.516  -1.532  11.293  1.00  0.00    -0.354 N 
ATOM     43  C   UNL     1      10.797  -1.987   8.521  1.00  0.00     0.074 A 
ATOM     44  C   UNL     1      11.056  -0.754   7.809  1.00  0.00     0.031 C 
ATOM     45  C   UNL     1       5.860  -0.447  12.334  1.00  0.00     0.029 A 
ATOM     46  C   UNL     1       6.524  -1.742  12.218  1.00  0.00     0.049 A 
ATOM     47  H   UNL     1       8.139  -2.236  11.001  1.00  0.00     0.167 HD
ATOM     48  C   UNL     1      11.497  -3.133   8.347  1.00  0.00     0.037 A 
ATOM     49  C   UNL     1       6.187  -2.854  12.899  1.00  0.00     0.037 A 
ATOM     50  C   UNL     1      11.253  -4.350   9.077  1.00  0.00     0.049 A 
ATOM     51  C   UNL     1       6.979  -4.115  12.686  1.00  0.00     0.074 A 
ATOM     52  C   UNL     1      11.947  -5.546   9.013  1.00  0.00     0.029 A 
ATOM     53  N   UNL     1      10.236  -4.527  10.004  1.00  0.00    -0.354 N 
ATOM     54  N   UNL     1       8.005  -4.322  11.898  1.00  0.00    -0.248 NA
ATOM     55  C   UNL     1       6.568  -5.295  13.460  1.00  0.00     0.031 C 
ATOM     56  C   UNL     1      11.323  -6.460   9.868  1.00  0.00     0.029 A 
ATOM     57  C   UNL     1      10.271  -5.819  10.502  1.00  0.00     0.049 A 
ATOM     58  H   UNL     1       9.587  -3.836  10.269  1.00  0.00     0.167 HD
ATOM     59  C   UNL     1       8.372  -5.646  12.089  1.00  0.00     0.074 A 
ATOM     60  C   UNL     1       7.472  -6.189  13.085  1.00  0.00     0.031 C 
ATOM     61  C   UNL     1       9.364  -6.348  11.489  1.00  0.00     0.037 A 
BRANCH  48  62
ATOM     62  C   UNL     1      12.610  -3.129   7.340  1.00  0.00     0.064 A 
ATOM     63  C   UNL     1      12.507  -3.881   6.160  1.00  0.00     0.173 A 
ATOM     64  C   UNL     1      13.808  -2.439   7.577  1.00  0.00     0.173 A 
ATOM     65  F   UNL     1      11.386  -4.564   5.888  1.00  0.00    -0.203 F 
ATOM     66  C   UNL     1      13.569  -3.951   5.261  1.00  0.00     0.198 A 
ATOM     67  C   UNL     1      14.857  -2.489   6.663  1.00  0.00     0.198 A 
ATOM     68  F   UNL     1      13.952  -1.698   8.686  1.00  0.00    -0.203 F 
ATOM     69  F   UNL     1      13.460  -4.700   4.155  1.00  0.00    -0.200 F 
ATOM     70  C   UNL     1      14.740  -3.252   5.511  1.00  0.00     0.200 A 
ATOM     71  F   UNL     1      15.979  -1.794   6.895  1.00  0.00    -0.200 F 
ATOM     72  F   UNL     1      15.757  -3.313   4.640  1.00  0.00    -0.200 F 
ENDBRANCH  48  62
BRANCH  49  73
ATOM     73  C   UNL     1       5.069  -2.805  13.876  1.00  0.00     0.064 A 
ATOM     74  C   UNL     1       3.737  -2.668  13.457  1.00  0.00     0.173 A 
ATOM     75  C   UNL     1       5.318  -2.861  15.254  1.00  0.00     0.173 A 
ATOM     76  F   UNL     1       3.447  -2.604  12.150  1.00  0.00    -0.203 F 
ATOM     77  C   UNL     1       2.700  -2.569  14.382  1.00  0.00     0.198 A 
ATOM     78  C   UNL     1       4.278  -2.788  16.177  1.00  0.00     0.198 A 
ATOM     79  F   UNL     1       6.574  -3.012  15.701  1.00  0.00    -0.203 F 
ATOM     80  F   UNL     1       1.440  -2.403  13.957  1.00  0.00    -0.200 F 
ATOM     81  C   UNL     1       2.970  -2.633  15.741  1.00  0.00     0.200 A 
ATOM     82  F   UNL     1       4.541  -2.874  17.488  1.00  0.00    -0.200 F 
ATOM     83  F   UNL     1       1.971  -2.548  16.629  1.00  0.00    -0.200 F 
ENDBRANCH  49  73
BRANCH  61  84
ATOM     84  C   UNL     1       9.537  -7.783  11.893  1.00  0.00     0.064 A 
ATOM     85  C   UNL     1      10.658  -8.186  12.635  1.00  0.00     0.173 A 
ATOM     86  C   UNL     1       8.625  -8.770  11.491  1.00  0.00     0.173 A 
ATOM     87  F   UNL     1      11.563  -7.281  13.037  1.00  0.00    -0.203 F 
ATOM     88  C   UNL     1      10.864  -9.526  12.950  1.00  0.00     0.198 A 
ATOM     89  C   UNL     1       8.820 -10.105  11.832  1.00  0.00     0.198 A 
ATOM     90  F   UNL     1       7.531  -8.433  10.791  1.00  0.00    -0.203 F 
ATOM     91  F   UNL     1      11.958  -9.891  13.633  1.00  0.00    -0.200 F 
ATOM     92  C   UNL     1       9.944 -10.483  12.553  1.00  0.00     0.200 A 
ATOM     93  F   UNL     1       7.917 -11.026  11.469  1.00  0.00    -0.200 F 
ATOM     94  F   UNL     1      10.137 -11.771  12.868  1.00  0.00    -0.200 F 
ENDBRANCH  61  84
ENDBRANCH  35  36
ENDBRANCH  27  30
ENDBRANCH  25  26
ENDBRANCH  24  25
ENDBRANCH  23  24
ENDBRANCH  22  23
ENDBRANCH   1  22
TORSDOF 18
