REMARK SMILES O=C(NCCCCCCNC(=O)c1cc(NC(=O)c2ccc(F)cc2)ccc1N1CCCN(c2ccc(Cl)nn2)CC1)c1ccc(-c2c3nc(c(-c4c(F)c(F)c(F)c(F)c4F)c4ccc([nH]4)c(-c4c(F)c(F)c(F)c(F)c4F)c4nc(c(-c5c(F)c(F)c(F)c(F)c5F)c5ccc2[nH]5)C=C4)C=C3)cc1
REMARK SMILES IDX 8 1 7 2 6 3 5 4 4 5 3 6 1 7 2 8 43 10 44 11 105 12 45 13
REMARK SMILES IDX 104 14 46 15 47 16 48 17 98 18 49 19 103 20 97 21 99 22
REMARK SMILES IDX 50 23 102 24 96 25 95 26 51 28 83 29 63 30 82 31 64 32 67 33
REMARK SMILES IDX 81 34 100 35 65 36 66 37 80 39 101 40 68 41 52 42 53 43
REMARK SMILES IDX 61 44 54 45 55 46 59 47 62 48 56 49 57 50 60 51 58 52 84 53
REMARK SMILES IDX 85 54 93 55 86 56 87 57 91 58 94 59 88 60 89 61 92 62 90 63
REMARK SMILES IDX 69 64 70 65 78 66 71 67 72 68 76 69 79 70 73 71 74 72 77 73
REMARK SMILES IDX 75 74 9 75 10 76 11 77 12 79 13 80 14 81 28 82 15 83 27 84
REMARK SMILES IDX 26 85 29 86 30 87 31 88 42 90 41 91 33 92 32 93 34 95 35 96
REMARK SMILES IDX 40 97 36 98 39 99 37 100 38 101 16 102 17 103 18 105 19 106
REMARK SMILES IDX 20 107 25 108 21 109 24 110 22 111 23 112
REMARK H PARENT 3 9 99 27 67 38 10 78 16 104
REMARK Flexibility Score: 90.00
ROOT
ATOM      1  C   UNL     1       6.002   2.762   3.643  1.00  0.00     0.021 C 
ENDROOT
BRANCH   1   2
ATOM      2  C   UNL     1       4.505   2.941   3.366  1.00  0.00     0.002 C 
BRANCH   2   3
ATOM      3  C   UNL     1       4.130   3.422   1.959  1.00  0.00     0.002 C 
BRANCH   3   4
ATOM      4  C   UNL     1       4.677   2.586   0.804  1.00  0.00     0.021 C 
BRANCH   4   5
ATOM      5  C   UNL     1       4.356   1.102   0.872  1.00  0.00     0.116 C 
BRANCH   5   6
ATOM      6  N   UNL     1       2.930   0.840   0.809  1.00  0.00    -0.352 N 
ATOM      7  O   UNL     1       1.016   0.030  -0.070  1.00  0.00    -0.269 OA
ATOM      8  C   UNL     1       2.239   0.011  -0.041  1.00  0.00     0.251 C 
ATOM      9  H   UNL     1       2.381   1.324   1.468  1.00  0.00     0.163 HD
BRANCH   8  10
ATOM     10  C   UNL     1       2.988  -0.899  -0.934  1.00  0.00     0.039 A 
ATOM     11  C   UNL     1       4.069  -1.638  -0.447  1.00  0.00     0.014 A 
ATOM     12  C   UNL     1       2.584  -1.035  -2.265  1.00  0.00     0.014 A 
ATOM     13  C   UNL     1       4.812  -2.431  -1.311  1.00  0.00     0.010 A 
ATOM     14  C   UNL     1       3.276  -1.904  -3.112  1.00  0.00     0.010 A 
ATOM     15  C   UNL     1       4.395  -2.607  -2.640  1.00  0.00    -0.014 A 
BRANCH  15  16
ATOM     16  C   UNL     1       5.050  -3.648  -3.469  1.00  0.00     0.031 A 
ATOM     17  C   UNL     1       5.822  -3.298  -4.705  1.00  0.00     0.074 A 
ATOM     18  C   UNL     1       4.913  -4.932  -3.083  1.00  0.00     0.049 A 
ATOM     19  N   UNL     1       6.417  -4.099  -5.553  1.00  0.00    -0.248 NA
ATOM     20  C   UNL     1       5.943  -1.871  -5.042  1.00  0.00     0.031 C 
ATOM     21  C   UNL     1       4.163  -5.380  -1.905  1.00  0.00     0.029 A 
ATOM     22  N   UNL     1       5.389  -6.095  -3.631  1.00  0.00    -0.354 N 
ATOM     23  C   UNL     1       6.962  -3.281  -6.533  1.00  0.00     0.074 A 
ATOM     24  C   UNL     1       6.621  -1.918  -6.183  1.00  0.00     0.031 C 
ATOM     25  C   UNL     1       4.246  -6.714  -1.808  1.00  0.00     0.029 A 
ATOM     26  C   UNL     1       4.987  -7.222  -2.954  1.00  0.00     0.049 A 
ATOM     27  H   UNL     1       5.963  -6.121  -4.431  1.00  0.00     0.167 HD
ATOM     28  C   UNL     1       7.678  -3.647  -7.623  1.00  0.00     0.037 A 
ATOM     29  C   UNL     1       5.154  -8.524  -3.248  1.00  0.00     0.037 A 
ATOM     30  C   UNL     1       8.022  -5.009  -7.946  1.00  0.00     0.049 A 
ATOM     31  C   UNL     1       5.917  -8.889  -4.489  1.00  0.00     0.074 A 
ATOM     32  C   UNL     1       8.815  -5.473  -8.981  1.00  0.00     0.029 A 
ATOM     33  N   UNL     1       7.578  -6.125  -7.252  1.00  0.00    -0.354 N 
ATOM     34  N   UNL     1       6.501  -8.104  -5.361  1.00  0.00    -0.248 NA
ATOM     35  C   UNL     1       6.039 -10.321  -4.793  1.00  0.00     0.031 C 
ATOM     36  C   UNL     1       8.792  -6.870  -8.957  1.00  0.00     0.029 A 
ATOM     37  C   UNL     1       8.037  -7.278  -7.870  1.00  0.00     0.049 A 
ATOM     38  H   UNL     1       7.020  -6.102  -6.441  1.00  0.00     0.167 HD
ATOM     39  C   UNL     1       7.065  -8.943  -6.309  1.00  0.00     0.074 A 
ATOM     40  C   UNL     1       6.786 -10.299  -5.887  1.00  0.00     0.031 C 
ATOM     41  C   UNL     1       7.744  -8.620  -7.436  1.00  0.00     0.037 A 
BRANCH  28  42
ATOM     42  C   UNL     1       8.131  -2.578  -8.575  1.00  0.00     0.064 A 
ATOM     43  C   UNL     1       9.177  -1.700  -8.259  1.00  0.00     0.173 A 
ATOM     44  C   UNL     1       7.585  -2.512  -9.867  1.00  0.00     0.173 A 
ATOM     45  F   UNL     1       9.729  -1.718  -7.036  1.00  0.00    -0.203 F 
ATOM     46  C   UNL     1       9.658  -0.793  -9.201  1.00  0.00     0.198 A 
ATOM     47  C   UNL     1       8.086  -1.622 -10.814  1.00  0.00     0.198 A 
ATOM     48  F   UNL     1       6.588  -3.336 -10.223  1.00  0.00    -0.203 F 
ATOM     49  F   UNL     1      10.649   0.048  -8.873  1.00  0.00    -0.200 F 
ATOM     50  C   UNL     1       9.121  -0.763 -10.480  1.00  0.00     0.200 A 
ATOM     51  F   UNL     1       7.577  -1.608 -12.053  1.00  0.00    -0.200 F 
ATOM     52  F   UNL     1       9.606   0.090 -11.393  1.00  0.00    -0.200 F 
ENDBRANCH  28  42
BRANCH  29  53
ATOM     53  C   UNL     1       4.540  -9.569  -2.388  1.00  0.00     0.064 A 
ATOM     54  C   UNL     1       5.331 -10.480  -1.675  1.00  0.00     0.173 A 
ATOM     55  C   UNL     1       3.146  -9.695  -2.283  1.00  0.00     0.173 A 
ATOM     56  F   UNL     1       6.668 -10.412  -1.755  1.00  0.00    -0.203 F 
ATOM     57  C   UNL     1       4.751 -11.498  -0.921  1.00  0.00     0.198 A 
ATOM     58  C   UNL     1       2.568 -10.688  -1.496  1.00  0.00     0.198 A 
ATOM     59  F   UNL     1       2.342  -8.844  -2.938  1.00  0.00    -0.203 F 
ATOM     60  F   UNL     1       5.531 -12.396  -0.302  1.00  0.00    -0.200 F 
ATOM     61  C   UNL     1       3.371 -11.598  -0.828  1.00  0.00     0.200 A 
ATOM     62  F   UNL     1       1.234 -10.766  -1.393  1.00  0.00    -0.200 F 
ATOM     63  F   UNL     1       2.815 -12.578  -0.103  1.00  0.00    -0.200 F 
ENDBRANCH  29  53
BRANCH  41  64
ATOM     64  C   UNL     1       8.237  -9.755  -8.285  1.00  0.00     0.064 A 
ATOM     65  C   UNL     1       7.352 -10.545  -9.033  1.00  0.00     0.173 A 
ATOM     66  C   UNL     1       9.609 -10.030  -8.381  1.00  0.00     0.173 A 
ATOM     67  F   UNL     1       6.029 -10.334  -8.958  1.00  0.00    -0.203 F 
ATOM     68  C   UNL     1       7.822 -11.585  -9.830  1.00  0.00     0.198 A 
ATOM     69  C   UNL     1      10.078 -11.049  -9.206  1.00  0.00     0.198 A 
ATOM     70  F   UNL     1      10.496  -9.301  -7.688  1.00  0.00    -0.203 F 
ATOM     71  F   UNL     1       6.955 -12.359 -10.497  1.00  0.00    -0.200 F 
ATOM     72  C   UNL     1       9.184 -11.829  -9.924  1.00  0.00     0.200 A 
ATOM     73  F   UNL     1      11.395 -11.274  -9.307  1.00  0.00    -0.200 F 
ATOM     74  F   UNL     1       9.635 -12.823 -10.701  1.00  0.00    -0.200 F 
ENDBRANCH  41  64
ENDBRANCH  15  16
ENDBRANCH   8  10
ENDBRANCH   5   6
ENDBRANCH   4   5
ENDBRANCH   3   4
ENDBRANCH   2   3
ENDBRANCH   1   2
BRANCH   1  75
ATOM     75  C   UNL     1       6.861   3.982   3.338  1.00  0.00     0.116 C 
BRANCH  75  76
ATOM     76  N   UNL     1       6.544   5.151   4.122  1.00  0.00    -0.352 N 
ATOM     77  C   UNL     1       7.350   6.234   4.378  1.00  0.00     0.253 C 
ATOM     78  H   UNL     1       5.644   5.176   4.520  1.00  0.00     0.163 HD
ATOM     79  O   UNL     1       6.887   7.205   4.973  1.00  0.00    -0.269 OA
BRANCH  77  80
ATOM     80  C   UNL     1       8.802   6.195   4.059  1.00  0.00     0.065 A 
ATOM     81  C   UNL     1       9.602   6.310   5.212  1.00  0.00     0.042 A 
ATOM     82  C   UNL     1       9.378   5.988   2.790  1.00  0.00     0.050 A 
ATOM     83  C   UNL     1      10.966   6.062   5.187  1.00  0.00     0.042 A 
ATOM     84  C   UNL     1      10.775   5.801   2.776  1.00  0.00     0.029 A 
ATOM     85  C   UNL     1      11.554   5.823   3.947  1.00  0.00     0.028 A 
BRANCH  82  86
ATOM     86  N   UNL     1       8.693   5.993   1.579  1.00  0.00    -0.369 N 
BRANCH  86  87
ATOM     87  C   UNL     1       7.596   6.941   1.339  1.00  0.00     0.118 C 
BRANCH  87  88
ATOM     88  C   UNL     1       7.986   8.063   0.380  1.00  0.00     0.043 CG0
ATOM     89  G   UNL     1       8.524   7.644  -0.986  1.00  0.00     0.000 G0
ENDBRANCH  87  88
ENDBRANCH  86  87
BRANCH  86  90
ATOM     90  C   UNL     1       8.835   4.846   0.656  1.00  0.00     0.138 C 
BRANCH  90  91
ATOM     91  C   UNL     1       9.090   5.226  -0.809  1.00  0.00     0.139 C 
BRANCH  91  92
ATOM     92  N   UNL     1       8.186   6.265  -1.297  1.00  0.00    -0.353 N 
BRANCH  92  93
ATOM     93  C   UNL     1       8.524   7.644  -0.986  1.00  0.00     0.120 CG0
ATOM     94  G   UNL     1       7.986   8.063   0.380  1.00  0.00     0.000 G0
ENDBRANCH  92  93
BRANCH  92  95
ATOM     95  C   UNL     1       7.156   5.991  -2.165  1.00  0.00     0.151 A 
ATOM     96  C   UNL     1       6.184   5.046  -1.853  1.00  0.00     0.052 A 
ATOM     97  N   UNL     1       7.063   6.662  -3.333  1.00  0.00    -0.131 NA
ATOM     98  C   UNL     1       5.138   4.791  -2.739  1.00  0.00     0.047 A 
ATOM     99  N   UNL     1       6.053   6.396  -4.237  1.00  0.00    -0.137 NA
ATOM    100  C   UNL     1       5.122   5.481  -3.929  1.00  0.00     0.151 A 
ATOM    101  Cl  UNL     1       3.912   5.217  -5.107  1.00  0.00    -0.060 Cl
ENDBRANCH  92  95
ENDBRANCH  91  92
ENDBRANCH  90  91
ENDBRANCH  86  90
ENDBRANCH  82  86
BRANCH  83 102
ATOM    102  N   UNL     1      11.792   6.046   6.330  1.00  0.00    -0.322 N 
ATOM    103  C   UNL     1      11.503   6.037   7.681  1.00  0.00     0.255 C 
ATOM    104  H   UNL     1      12.756   6.042   6.127  1.00  0.00     0.170 HD
ATOM    105  O   UNL     1      12.395   6.217   8.507  1.00  0.00    -0.269 OA
BRANCH 103 106
ATOM    106  C   UNL     1      10.137   5.763   8.171  1.00  0.00     0.040 A 
ATOM    107  C   UNL     1       9.486   6.743   8.931  1.00  0.00     0.017 A 
ATOM    108  C   UNL     1       9.479   4.575   7.820  1.00  0.00     0.017 A 
ATOM    109  C   UNL     1       8.143   6.569   9.268  1.00  0.00     0.040 A 
ATOM    110  C   UNL     1       8.133   4.412   8.155  1.00  0.00     0.040 A 
ATOM    111  C   UNL     1       7.476   5.415   8.863  1.00  0.00     0.123 A 
ATOM    112  F   UNL     1       6.176   5.270   9.150  1.00  0.00    -0.207 F 
ENDBRANCH 103 106
ENDBRANCH  83 102
ENDBRANCH  77  80
ENDBRANCH  75  76
ENDBRANCH   1  75
TORSDOF 17
