REMARK SMILES [NH3+][C@H](CC[S@@](=O)[O-])C(=O)NCCCCCCNC(=O)c1ccc(-c2c3nc(c(-c4c(F)c(F)c(F)c(F)c4F)c4ccc([nH]4)c(-c4c(F)c(F)c(F)c(F)c4F)c4nc(c(-c5c(F)c(F)c(F)c(F)c5F)c5ccc2[nH]5)C=C4)C=C3)cc1
REMARK SMILES IDX 13 1 12 2 11 3 10 4 8 5 9 6 2 8 1 9 3 13 4 14 5 15 6 16 7 17
REMARK SMILES IDX 14 18 15 19 16 20 17 21 18 22 19 24 20 25 21 26 82 27 22 28
REMARK SMILES IDX 81 29 23 30 24 31 25 32 75 33 26 34 80 35 74 36 76 37 27 38
REMARK SMILES IDX 79 39 73 40 72 41 28 43 60 44 40 45 59 46 41 47 44 48 58 49
REMARK SMILES IDX 77 50 42 51 43 52 57 54 78 55 45 56 29 57 30 58 38 59 31 60
REMARK SMILES IDX 32 61 36 62 39 63 33 64 34 65 37 66 35 67 61 68 62 69 70 70
REMARK SMILES IDX 63 71 64 72 68 73 71 74 65 75 66 76 69 77 67 78 46 79 47 80
REMARK SMILES IDX 55 81 48 82 49 83 53 84 56 85 50 86 51 87 54 88 52 89
REMARK H PARENT 10 7 1 10 1 11 1 12 17 23 76 42 44 53
REMARK Flexibility Score: inf
ROOT
ATOM      1  C   UNL     1      -3.642  -1.954   1.904  1.00  0.00     0.002 C 
ENDROOT
BRANCH   1   2
ATOM      2  C   UNL     1      -2.212  -1.538   1.558  1.00  0.00     0.021 C 
BRANCH   2   3
ATOM      3  C   UNL     1      -1.827  -1.790   0.094  1.00  0.00     0.116 C 
BRANCH   3   4
ATOM      4  N   UNL     1      -1.847  -0.549  -0.651  1.00  0.00    -0.351 N 
ATOM      5  C   UNL     1      -0.873   0.162  -1.278  1.00  0.00     0.278 C 
ATOM      6  O   UNL     1      -1.211   1.262  -1.733  1.00  0.00    -0.268 OA
ATOM      7  H   UNL     1      -2.741  -0.140  -0.717  1.00  0.00     0.163 HD
BRANCH   5   8
ATOM      8  C   UNL     1       0.599  -0.299  -1.415  1.00  0.00     0.271 C 
BRANCH   8   9
ATOM      9  N   UNL     1       0.718  -1.653  -1.975  1.00  0.00    -0.347 N 
ATOM     10  H   UNL     1       0.068  -1.757  -2.754  1.00  0.00     0.345 HD
ATOM     11  H   UNL     1       0.498  -2.339  -1.254  1.00  0.00     0.345 HD
ATOM     12  H   UNL     1       1.671  -1.801  -2.306  1.00  0.00     0.345 HD
ENDBRANCH   8   9
BRANCH   8  13
ATOM     13  C   UNL     1       1.518   0.030  -0.222  1.00  0.00     0.088 C 
BRANCH  13  14
ATOM     14  C   UNL     1       1.299  -0.660   1.117  1.00  0.00     0.096 C 
BRANCH  14  15
ATOM     15  S   UNL     1       2.215  -2.217   1.372  1.00  0.00    -0.055 S 
ATOM     16  O   UNL     1       1.722  -2.828   2.648  1.00  0.00    -0.275 OA
ATOM     17  O   UNL     1       1.462  -3.050   0.232  1.00  0.00    -0.772 OA
ENDBRANCH  14  15
ENDBRANCH  13  14
ENDBRANCH   8  13
ENDBRANCH   5   8
ENDBRANCH   3   4
ENDBRANCH   2   3
ENDBRANCH   1   2
BRANCH   1  18
ATOM     18  C   UNL     1      -3.888  -3.466   1.889  1.00  0.00     0.002 C 
BRANCH  18  19
ATOM     19  C   UNL     1      -2.979  -4.298   2.803  1.00  0.00     0.021 C 
BRANCH  19  20
ATOM     20  C   UNL     1      -2.960  -3.876   4.271  1.00  0.00     0.116 C 
BRANCH  20  21
ATOM     21  N   UNL     1      -4.286  -3.897   4.867  1.00  0.00    -0.352 N 
ATOM     22  C   UNL     1      -4.783  -4.621   5.917  1.00  0.00     0.251 C 
ATOM     23  H   UNL     1      -4.935  -3.289   4.444  1.00  0.00     0.163 HD
ATOM     24  O   UNL     1      -5.997  -4.630   6.124  1.00  0.00    -0.269 OA
BRANCH  22  25
ATOM     25  C   UNL     1      -3.893  -5.401   6.803  1.00  0.00     0.039 A 
ATOM     26  C   UNL     1      -4.328  -6.655   7.247  1.00  0.00     0.014 A 
ATOM     27  C   UNL     1      -2.672  -4.891   7.254  1.00  0.00     0.014 A 
ATOM     28  C   UNL     1      -3.522  -7.413   8.099  1.00  0.00     0.010 A 
ATOM     29  C   UNL     1      -1.838  -5.676   8.053  1.00  0.00     0.010 A 
ATOM     30  C   UNL     1      -2.259  -6.941   8.489  1.00  0.00    -0.014 A 
BRANCH  30  31
ATOM     31  C   UNL     1      -1.373  -7.773   9.343  1.00  0.00     0.031 A 
ATOM     32  C   UNL     1      -1.035  -7.348  10.744  1.00  0.00     0.074 A 
ATOM     33  C   UNL     1      -0.842  -8.902   8.836  1.00  0.00     0.049 A 
ATOM     34  N   UNL     1      -0.294  -7.957  11.637  1.00  0.00    -0.248 NA
ATOM     35  C   UNL     1      -1.580  -6.060  11.196  1.00  0.00     0.031 C 
ATOM     36  C   UNL     1      -1.050  -9.393   7.473  1.00  0.00     0.029 A 
ATOM     37  N   UNL     1      -0.022  -9.842   9.408  1.00  0.00    -0.354 N 
ATOM     38  C   UNL     1      -0.272  -7.121  12.746  1.00  0.00     0.074 A 
ATOM     39  C   UNL     1      -1.036  -5.942  12.398  1.00  0.00     0.031 C 
ATOM     40  C   UNL     1      -0.406 -10.561   7.325  1.00  0.00     0.029 A 
ATOM     41  C   UNL     1       0.280 -10.888   8.571  1.00  0.00     0.049 A 
ATOM     42  H   UNL     1       0.316  -9.774  10.329  1.00  0.00     0.167 HD
ATOM     43  C   UNL     1       0.315  -7.327  13.950  1.00  0.00     0.037 A 
ATOM     44  C   UNL     1       1.020 -11.991   8.788  1.00  0.00     0.037 A 
ATOM     45  C   UNL     1       1.050  -8.514  14.303  1.00  0.00     0.049 A 
ATOM     46  C   UNL     1       1.647 -12.203  10.138  1.00  0.00     0.074 A 
ATOM     47  C   UNL     1       1.608  -8.856  15.523  1.00  0.00     0.029 A 
ATOM     48  N   UNL     1       1.337  -9.554  13.429  1.00  0.00    -0.354 N 
ATOM     49  N   UNL     1       1.585 -11.448  11.207  1.00  0.00    -0.248 NA
ATOM     50  C   UNL     1       2.439 -13.428  10.310  1.00  0.00     0.031 C 
ATOM     51  C   UNL     1       2.272 -10.079  15.375  1.00  0.00     0.029 A 
ATOM     52  C   UNL     1       2.088 -10.524  14.075  1.00  0.00     0.049 A 
ATOM     53  H   UNL     1       1.049  -9.596  12.489  1.00  0.00     0.167 HD
ATOM     54  C   UNL     1       2.310 -12.114  12.186  1.00  0.00     0.074 A 
ATOM     55  C   UNL     1       2.785 -13.345  11.587  1.00  0.00     0.031 C 
ATOM     56  C   UNL     1       2.561 -11.740  13.465  1.00  0.00     0.037 A 
BRANCH  43  57
ATOM     57  C   UNL     1       0.187  -6.239  14.977  1.00  0.00     0.064 A 
ATOM     58  C   UNL     1      -1.037  -5.954  15.603  1.00  0.00     0.173 A 
ATOM     59  C   UNL     1       1.309  -5.490  15.362  1.00  0.00     0.173 A 
ATOM     60  F   UNL     1      -2.142  -6.635  15.265  1.00  0.00    -0.203 F 
ATOM     61  C   UNL     1      -1.139  -4.937  16.548  1.00  0.00     0.198 A 
ATOM     62  C   UNL     1       1.209  -4.493  16.329  1.00  0.00     0.198 A 
ATOM     63  F   UNL     1       2.505  -5.726  14.802  1.00  0.00    -0.203 F 
ATOM     64  F   UNL     1      -2.329  -4.648  17.093  1.00  0.00    -0.200 F 
ATOM     65  C   UNL     1      -0.016  -4.211  16.915  1.00  0.00     0.200 A 
ATOM     66  F   UNL     1       2.298  -3.800  16.692  1.00  0.00    -0.200 F 
ATOM     67  F   UNL     1      -0.116  -3.234  17.827  1.00  0.00    -0.200 F 
ENDBRANCH  43  57
BRANCH  44  68
ATOM     68  C   UNL     1       1.164 -13.007   7.714  1.00  0.00     0.064 A 
ATOM     69  C   UNL     1       0.524 -14.250   7.817  1.00  0.00     0.173 A 
ATOM     70  C   UNL     1       1.930 -12.758   6.567  1.00  0.00     0.173 A 
ATOM     71  F   UNL     1      -0.203 -14.540   8.906  1.00  0.00    -0.203 F 
ATOM     72  C   UNL     1       0.658 -15.213   6.820  1.00  0.00     0.198 A 
ATOM     73  C   UNL     1       2.043 -13.712   5.559  1.00  0.00     0.198 A 
ATOM     74  F   UNL     1       2.558 -11.582   6.420  1.00  0.00    -0.203 F 
ATOM     75  F   UNL     1       0.068 -16.407   6.961  1.00  0.00    -0.200 F 
ATOM     76  C   UNL     1       1.413 -14.941   5.688  1.00  0.00     0.200 A 
ATOM     77  F   UNL     1       2.762 -13.441   4.460  1.00  0.00    -0.200 F 
ATOM     78  F   UNL     1       1.537 -15.865   4.726  1.00  0.00    -0.200 F 
ENDBRANCH  44  68
BRANCH  56  79
ATOM     79  C   UNL     1       3.371 -12.685  14.303  1.00  0.00     0.064 A 
ATOM     80  C   UNL     1       4.744 -12.871  14.081  1.00  0.00     0.173 A 
ATOM     81  C   UNL     1       2.770 -13.408  15.344  1.00  0.00     0.173 A 
ATOM     82  F   UNL     1       5.361 -12.217  13.086  1.00  0.00    -0.203 F 
ATOM     83  C   UNL     1       5.477 -13.773  14.848  1.00  0.00     0.198 A 
ATOM     84  C   UNL     1       3.513 -14.286  16.129  1.00  0.00     0.198 A 
ATOM     85  F   UNL     1       1.461 -13.263  15.602  1.00  0.00    -0.203 F 
ATOM     86  F   UNL     1       6.774 -13.977  14.580  1.00  0.00    -0.200 F 
ATOM     87  C   UNL     1       4.862 -14.475  15.874  1.00  0.00     0.200 A 
ATOM     88  F   UNL     1       2.920 -14.956  17.127  1.00  0.00    -0.200 F 
ATOM     89  F   UNL     1       5.569 -15.344  16.610  1.00  0.00    -0.200 F 
ENDBRANCH  56  79
ENDBRANCH  30  31
ENDBRANCH  22  25
ENDBRANCH  20  21
ENDBRANCH  19  20
ENDBRANCH  18  19
ENDBRANCH   1  18
TORSDOF 17
