REMARK SMILES COc1ccc2[nH]c(C(=O)c3cc(C)ccn3)c(CC(=O)NCCCCCCNC(=O)c3ccc(-c4c5nc(c(-c6c(F)c(F)c(F)c(F)c6F)c6ccc([nH]6)c(-c6c(F)c(F)c(F)c(F)c6F)c6nc(c(-c7c(F)c(F)c(F)c(F)c7F)c7ccc4[nH]7)C=C6)C=C5)cc3)c2c1
REMARK SMILES IDX 25 1 24 2 23 3 22 4 20 5 21 6 19 8 18 9 3 10 4 11 96 12 5 13
REMARK SMILES IDX 95 14 6 15 7 16 8 17 2 19 1 20 9 21 10 22 11 23 12 24 17 25
REMARK SMILES IDX 13 26 16 27 14 28 15 29 26 30 27 31 28 32 29 33 30 34 31 36
REMARK SMILES IDX 32 37 33 38 94 39 34 40 93 41 35 42 36 43 37 44 87 45 38 46
REMARK SMILES IDX 92 47 86 48 88 49 39 50 91 51 85 52 84 53 40 55 72 56 52 57
REMARK SMILES IDX 71 58 53 59 56 60 70 61 89 62 54 63 55 64 69 66 90 67 57 68
REMARK SMILES IDX 41 69 42 70 50 71 43 72 44 73 48 74 51 75 45 76 46 77 49 78
REMARK SMILES IDX 47 79 73 80 74 81 82 82 75 83 76 84 80 85 83 86 77 87 78 88
REMARK SMILES IDX 81 89 79 90 58 91 59 92 67 93 60 94 61 95 65 96 68 97 62 98
REMARK SMILES IDX 63 99 66 100 64 101
REMARK H PARENT 22 7 7 18 29 35 88 54 56 65
REMARK Flexibility Score: inf
ROOT
ATOM      1  C   UNL     1      -1.564  -2.387  -6.990  1.00  0.00     0.002 C 
ENDROOT
BRANCH   1   2
ATOM      2  C   UNL     1      -1.005  -2.663  -5.588  1.00  0.00     0.021 C 
BRANCH   2   3
ATOM      3  C   UNL     1      -2.060  -3.046  -4.551  1.00  0.00     0.116 C 
BRANCH   3   4
ATOM      4  N   UNL     1      -2.640  -4.344  -4.814  1.00  0.00    -0.356 N 
ATOM      5  C   UNL     1      -2.506  -5.521  -4.135  1.00  0.00     0.224 C 
ATOM      6  O   UNL     1      -3.259  -6.441  -4.468  1.00  0.00    -0.275 OA
ATOM      7  H   UNL     1      -3.222  -4.386  -5.607  1.00  0.00     0.163 HD
BRANCH   5   8
ATOM      8  C   UNL     1      -1.583  -5.650  -2.928  1.00  0.00     0.138 C 
BRANCH   8   9
ATOM      9  C   UNL     1      -0.143  -5.269  -3.158  1.00  0.00    -0.002 A 
ATOM     10  C   UNL     1       1.080  -2.262  -1.111  1.00  0.00     0.119 A 
ATOM     11  C   UNL     1       2.350  -2.209  -1.680  1.00  0.00     0.048 A 
ATOM     12  C   UNL     1       0.185  -3.268  -1.494  1.00  0.00     0.057 A 
ATOM     13  C   UNL     1       2.745  -3.137  -2.654  1.00  0.00     0.030 A 
ATOM     14  C   UNL     1       0.545  -4.198  -2.492  1.00  0.00     0.008 A 
ATOM     15  C   UNL     1       1.819  -4.113  -3.040  1.00  0.00     0.046 A 
ATOM     16  N   UNL     1       1.926  -5.124  -3.963  1.00  0.00    -0.352 N 
ATOM     17  C   UNL     1       0.779  -5.891  -4.001  1.00  0.00     0.093 A 
ATOM     18  H   UNL     1       2.719  -5.282  -4.525  1.00  0.00     0.167 HD
BRANCH  10  19
ATOM     19  O   UNL     1       0.599  -1.406  -0.157  1.00  0.00    -0.497 OA
ATOM     20  C   UNL     1       1.214  -0.125  -0.098  1.00  0.00     0.278 C 
ENDBRANCH  10  19
BRANCH  17  21
ATOM     21  C   UNL     1       0.605  -7.100  -4.800  1.00  0.00     0.227 C 
ATOM     22  O   UNL     1      -0.422  -7.778  -4.787  1.00  0.00    -0.285 OA
BRANCH  21  23
ATOM     23  C   UNL     1       1.738  -7.586  -5.628  1.00  0.00     0.113 A 
ATOM     24  C   UNL     1       2.881  -8.083  -5.007  1.00  0.00     0.036 A 
ATOM     25  N   UNL     1       1.575  -7.515  -6.973  1.00  0.00    -0.253 NA
ATOM     26  C   UNL     1       3.925  -8.540  -5.813  1.00  0.00    -0.047 A 
ATOM     27  C   UNL     1       2.582  -8.000  -7.726  1.00  0.00     0.112 A 
ATOM     28  C   UNL     1       5.189  -9.083  -5.217  1.00  0.00     0.044 C 
ATOM     29  C   UNL     1       3.761  -8.508  -7.201  1.00  0.00     0.023 A 
ENDBRANCH  21  23
ENDBRANCH  17  21
ENDBRANCH   8   9
ENDBRANCH   5   8
ENDBRANCH   3   4
ENDBRANCH   2   3
ENDBRANCH   1   2
BRANCH   1  30
ATOM     30  C   UNL     1      -2.655  -1.312  -7.069  1.00  0.00     0.002 C 
BRANCH  30  31
ATOM     31  C   UNL     1      -2.293   0.042  -6.451  1.00  0.00     0.021 C 
BRANCH  31  32
ATOM     32  C   UNL     1      -1.091   0.739  -7.080  1.00  0.00     0.116 C 
BRANCH  32  33
ATOM     33  N   UNL     1      -1.332   1.116  -8.462  1.00  0.00    -0.352 N 
ATOM     34  C   UNL     1      -1.086   2.303  -9.102  1.00  0.00     0.251 C 
ATOM     35  H   UNL     1      -1.731   0.413  -9.024  1.00  0.00     0.163 HD
ATOM     36  O   UNL     1      -1.511   2.484 -10.241  1.00  0.00    -0.269 OA
BRANCH  34  37
ATOM     37  C   UNL     1      -0.320   3.380  -8.433  1.00  0.00     0.039 A 
ATOM     38  C   UNL     1      -0.742   4.703  -8.600  1.00  0.00     0.014 A 
ATOM     39  C   UNL     1       0.839   3.106  -7.702  1.00  0.00     0.014 A 
ATOM     40  C   UNL     1      -0.022   5.746  -8.013  1.00  0.00     0.010 A 
ATOM     41  C   UNL     1       1.525   4.141  -7.068  1.00  0.00     0.010 A 
ATOM     42  C   UNL     1       1.112   5.472  -7.233  1.00  0.00    -0.014 A 
BRANCH  42  43
ATOM     43  C   UNL     1       1.910   6.569  -6.630  1.00  0.00     0.031 A 
ATOM     44  C   UNL     1       3.307   6.834  -7.121  1.00  0.00     0.074 A 
ATOM     45  C   UNL     1       1.402   7.294  -5.617  1.00  0.00     0.049 A 
ATOM     46  N   UNL     1       4.193   7.692  -6.682  1.00  0.00    -0.248 NA
ATOM     47  C   UNL     1       3.780   6.004  -8.241  1.00  0.00     0.031 C 
ATOM     48  C   UNL     1       0.075   7.113  -5.028  1.00  0.00     0.029 A 
ATOM     49  N   UNL     1       1.949   8.327  -4.896  1.00  0.00    -0.354 N 
ATOM     50  C   UNL     1       5.330   7.490  -7.453  1.00  0.00     0.074 A 
ATOM     51  C   UNL     1       5.039   6.400  -8.360  1.00  0.00     0.031 C 
ATOM     52  C   UNL     1      -0.096   8.014  -4.048  1.00  0.00     0.029 A 
ATOM     53  C   UNL     1       1.116   8.818  -3.921  1.00  0.00     0.049 A 
ATOM     54  H   UNL     1       2.852   8.681  -5.063  1.00  0.00     0.167 HD
ATOM     55  C   UNL     1       6.504   8.165  -7.423  1.00  0.00     0.037 A 
ATOM     56  C   UNL     1       1.312   9.806  -3.027  1.00  0.00     0.037 A 
ATOM     57  C   UNL     1       6.779   9.275  -6.550  1.00  0.00     0.049 A 
ATOM     58  C   UNL     1       2.614  10.561  -3.036  1.00  0.00     0.074 A 
ATOM     59  C   UNL     1       7.922  10.051  -6.472  1.00  0.00     0.029 A 
ATOM     60  N   UNL     1       5.891   9.773  -5.608  1.00  0.00    -0.354 N 
ATOM     61  N   UNL     1       3.665  10.389  -3.799  1.00  0.00    -0.248 NA
ATOM     62  C   UNL     1       2.750  11.658  -2.066  1.00  0.00     0.031 C 
ATOM     63  C   UNL     1       7.736  11.005  -5.465  1.00  0.00     0.029 A 
ATOM     64  C   UNL     1       6.463  10.845  -4.942  1.00  0.00     0.049 A 
ATOM     65  H   UNL     1       4.989   9.418  -5.438  1.00  0.00     0.167 HD
ATOM     66  C   UNL     1       4.572  11.372  -3.427  1.00  0.00     0.074 A 
ATOM     67  C   UNL     1       3.944  12.143  -2.374  1.00  0.00     0.031 C 
ATOM     68  C   UNL     1       5.813  11.615  -3.914  1.00  0.00     0.037 A 
BRANCH  55  69
ATOM     69  C   UNL     1       7.580   7.723  -8.370  1.00  0.00     0.064 A 
ATOM     70  C   UNL     1       7.486   7.959  -9.750  1.00  0.00     0.173 A 
ATOM     71  C   UNL     1       8.732   7.082  -7.891  1.00  0.00     0.173 A 
ATOM     72  F   UNL     1       6.397   8.556 -10.259  1.00  0.00    -0.203 F 
ATOM     73  C   UNL     1       8.492   7.545 -10.618  1.00  0.00     0.198 A 
ATOM     74  C   UNL     1       9.749   6.694  -8.759  1.00  0.00     0.198 A 
ATOM     75  F   UNL     1       8.873   6.836  -6.580  1.00  0.00    -0.203 F 
ATOM     76  F   UNL     1       8.359   7.738 -11.938  1.00  0.00    -0.200 F 
ATOM     77  C   UNL     1       9.626   6.919 -10.121  1.00  0.00     0.200 A 
ATOM     78  F   UNL     1      10.848   6.097  -8.276  1.00  0.00    -0.200 F 
ATOM     79  F   UNL     1      10.596   6.524 -10.958  1.00  0.00    -0.200 F 
ENDBRANCH  55  69
BRANCH  56  80
ATOM     80  C   UNL     1       0.234  10.166  -2.072  1.00  0.00     0.064 A 
ATOM     81  C   UNL     1      -0.477  11.366  -2.213  1.00  0.00     0.173 A 
ATOM     82  C   UNL     1      -0.104   9.327  -1.001  1.00  0.00     0.173 A 
ATOM     83  F   UNL     1      -0.174  12.210  -3.210  1.00  0.00    -0.203 F 
ATOM     84  C   UNL     1      -1.471  11.724  -1.305  1.00  0.00     0.198 A 
ATOM     85  C   UNL     1      -1.115   9.675  -0.108  1.00  0.00     0.198 A 
ATOM     86  F   UNL     1       0.545   8.167  -0.826  1.00  0.00    -0.203 F 
ATOM     87  F   UNL     1      -2.105  12.898  -1.437  1.00  0.00    -0.200 F 
ATOM     88  C   UNL     1      -1.793  10.876  -0.256  1.00  0.00     0.200 A 
ATOM     89  F   UNL     1      -1.430   8.849   0.899  1.00  0.00    -0.200 F 
ATOM     90  F   UNL     1      -2.749  11.221   0.617  1.00  0.00    -0.200 F 
ENDBRANCH  56  80
BRANCH  68  91
ATOM     91  C   UNL     1       6.554  12.790  -3.352  1.00  0.00     0.064 A 
ATOM     92  C   UNL     1       7.121  12.758  -2.070  1.00  0.00     0.173 A 
ATOM     93  C   UNL     1       6.734  13.948  -4.124  1.00  0.00     0.173 A 
ATOM     94  F   UNL     1       6.964  11.679  -1.289  1.00  0.00    -0.203 F 
ATOM     95  C   UNL     1       7.822  13.853  -1.572  1.00  0.00     0.198 A 
ATOM     96  C   UNL     1       7.456  15.031  -3.632  1.00  0.00     0.198 A 
ATOM     97  F   UNL     1       6.215  14.024  -5.359  1.00  0.00    -0.203 F 
ATOM     98  F   UNL     1       8.321  13.818  -0.329  1.00  0.00    -0.200 F 
ATOM     99  C   UNL     1       7.994  14.985  -2.355  1.00  0.00     0.200 A 
ATOM    100  F   UNL     1       7.630  16.120  -4.394  1.00  0.00    -0.200 F 
ATOM    101  F   UNL     1       8.674  16.036  -1.876  1.00  0.00    -0.200 F 
ENDBRANCH  68  91
ENDBRANCH  42  43
ENDBRANCH  34  37
ENDBRANCH  32  33
ENDBRANCH  31  32
ENDBRANCH  30  31
ENDBRANCH   1  30
TORSDOF 17
