REMARK SMILES Cc1nc(CCc2ccc(S(=O)(=O)N3CCCC3)cc2)ncc1C(=O)NCCCCCCNC(=O)c1ccc(-c2c3nc(c(-c4c(F)c(F)c(F)c(F)c4F)c4ccc([nH]4)c(-c4c(F)c(F)c(F)c(F)c4F)c4nc(c(-c5c(F)c(F)c(F)c(F)c5F)c5ccc2[nH]5)C=C4)C=C3)cc1
REMARK SMILES IDX 28 1 27 2 26 3 24 4 25 5 23 7 1 8 2 9 3 10 4 11 22 12 21 13
REMARK SMILES IDX 5 14 6 15 7 16 8 17 20 18 9 19 19 20 10 21 11 22 12 23 13 24
REMARK SMILES IDX 14 25 15 26 18 27 16 28 17 29 29 30 30 31 31 32 32 33 33 34
REMARK SMILES IDX 34 35 35 37 36 38 37 39 98 40 38 41 97 42 39 43 40 44 41 45
REMARK SMILES IDX 91 46 42 47 96 48 90 49 92 50 43 51 95 52 89 53 88 54 44 56
REMARK SMILES IDX 76 57 56 58 75 59 57 60 60 61 74 62 93 63 58 64 59 65 73 67
REMARK SMILES IDX 94 68 61 69 45 70 46 71 54 72 47 73 48 74 52 75 55 76 49 77
REMARK SMILES IDX 50 78 53 79 51 80 77 81 78 82 86 83 79 84 80 85 84 86 87 87
REMARK SMILES IDX 81 88 82 89 85 90 83 91 62 92 63 93 71 94 64 95 65 96 69 97
REMARK SMILES IDX 72 98 66 99 67 100 70 101 68 102
REMARK H PARENT 26 6 33 36 92 55 60 66
REMARK Flexibility Score: inf
ROOT
ATOM      1  C   UNL     1      -3.935  -2.617  -1.447  1.00  0.00     0.021 C 
ENDROOT
BRANCH   1   2
ATOM      2  C   UNL     1      -3.001  -2.138  -0.333  1.00  0.00     0.116 C 
BRANCH   2   3
ATOM      3  N   UNL     1      -1.840  -2.964  -0.051  1.00  0.00    -0.352 N 
ATOM      4  C   UNL     1      -0.526  -2.633   0.228  1.00  0.00     0.254 C 
ATOM      5  O   UNL     1       0.261  -3.562   0.422  1.00  0.00    -0.269 OA
ATOM      6  H   UNL     1      -2.021  -3.932  -0.061  1.00  0.00     0.163 HD
BRANCH   4   7
ATOM      7  C   UNL     1       0.032  -1.255   0.235  1.00  0.00     0.079 A 
ATOM      8  C   UNL     1      -1.775   0.005   1.525  1.00  0.00     0.068 C 
ATOM      9  C   UNL     1      -0.484  -0.102   0.797  1.00  0.00     0.054 A 
ATOM     10  N   UNL     1       0.131   1.103   0.688  1.00  0.00    -0.237 NA
ATOM     11  C   UNL     1       1.297   1.177   0.033  1.00  0.00     0.128 A 
ATOM     12  C   UNL     1       1.296  -1.085  -0.319  1.00  0.00     0.129 A 
ATOM     13  N   UNL     1       1.935   0.107  -0.462  1.00  0.00    -0.241 NA
BRANCH  11  14
ATOM     14  C   UNL     1       1.826   2.557  -0.245  1.00  0.00     0.082 C 
BRANCH  14  15
ATOM     15  C   UNL     1       1.209   3.172  -1.510  1.00  0.00     0.043 C 
BRANCH  15  16
ATOM     16  C   UNL     1      -0.276   3.489  -1.453  1.00  0.00    -0.047 A 
ATOM     17  C   UNL     1      -0.729   4.704  -0.926  1.00  0.00     0.005 A 
ATOM     18  C   UNL     1      -1.225   2.586  -1.961  1.00  0.00     0.005 A 
ATOM     19  C   UNL     1      -2.096   5.006  -0.900  1.00  0.00     0.022 A 
ATOM     20  C   UNL     1      -2.594   2.898  -1.964  1.00  0.00     0.022 A 
ATOM     21  C   UNL     1      -3.034   4.101  -1.411  1.00  0.00     0.082 A 
BRANCH  21  22
ATOM     22  S   UNL     1      -4.761   4.572  -1.359  1.00  0.00     0.243 S 
ATOM     23  O   UNL     1      -4.895   5.534  -0.292  1.00  0.00    -0.207 OA
ATOM     24  O   UNL     1      -5.144   4.895  -2.722  1.00  0.00    -0.207 OA
BRANCH  22  25
ATOM     25  N   UNL     1      -5.648   3.226  -0.884  1.00  0.00    -0.198 NA
ATOM     26  C   UNL     1      -5.406   2.584   0.410  1.00  0.00     0.102 C 
ATOM     27  C   UNL     1      -6.072   2.220  -1.859  1.00  0.00     0.102 C 
ATOM     28  C   UNL     1      -4.883   1.222   0.007  1.00  0.00     0.018 C 
ATOM     29  C   UNL     1      -5.569   0.899  -1.308  1.00  0.00     0.018 C 
ENDBRANCH  22  25
ENDBRANCH  21  22
ENDBRANCH  15  16
ENDBRANCH  14  15
ENDBRANCH  11  14
ENDBRANCH   4   7
ENDBRANCH   2   3
ENDBRANCH   1   2
BRANCH   1  30
ATOM     30  C   UNL     1      -5.017  -3.668  -1.159  1.00  0.00     0.002 C 
BRANCH  30  31
ATOM     31  C   UNL     1      -5.923  -3.531   0.072  1.00  0.00     0.002 C 
BRANCH  31  32
ATOM     32  C   UNL     1      -6.837  -2.309   0.204  1.00  0.00     0.021 C 
BRANCH  32  33
ATOM     33  C   UNL     1      -7.739  -1.944  -0.976  1.00  0.00     0.116 C 
BRANCH  33  34
ATOM     34  N   UNL     1      -8.816  -2.876  -1.230  1.00  0.00    -0.352 N 
ATOM     35  C   UNL     1     -10.158  -2.630  -1.425  1.00  0.00     0.251 C 
ATOM     36  H   UNL     1      -8.552  -3.824  -1.269  1.00  0.00     0.163 HD
ATOM     37  O   UNL     1     -10.935  -3.573  -1.544  1.00  0.00    -0.269 OA
BRANCH  35  38
ATOM     38  C   UNL     1     -10.695  -1.243  -1.462  1.00  0.00     0.039 A 
ATOM     39  C   UNL     1     -11.863  -0.966  -0.742  1.00  0.00     0.014 A 
ATOM     40  C   UNL     1     -10.106  -0.232  -2.229  1.00  0.00     0.014 A 
ATOM     41  C   UNL     1     -12.408   0.324  -0.750  1.00  0.00     0.010 A 
ATOM     42  C   UNL     1     -10.620   1.071  -2.189  1.00  0.00     0.010 A 
ATOM     43  C   UNL     1     -11.779   1.365  -1.452  1.00  0.00    -0.014 A 
BRANCH  43  44
ATOM     44  C   UNL     1     -12.334   2.749  -1.418  1.00  0.00     0.031 A 
ATOM     45  C   UNL     1     -12.874   3.395  -2.668  1.00  0.00     0.074 A 
ATOM     46  C   UNL     1     -12.337   3.444  -0.262  1.00  0.00     0.049 A 
ATOM     47  N   UNL     1     -13.383   4.592  -2.831  1.00  0.00    -0.248 NA
ATOM     48  C   UNL     1     -12.822   2.596  -3.901  1.00  0.00     0.031 C 
ATOM     49  C   UNL     1     -11.820   2.953   1.016  1.00  0.00     0.029 A 
ATOM     50  N   UNL     1     -12.784   4.711   0.027  1.00  0.00    -0.354 N 
ATOM     51  C   UNL     1     -13.702   4.691  -4.180  1.00  0.00     0.074 A 
ATOM     52  C   UNL     1     -13.284   3.452  -4.801  1.00  0.00     0.031 C 
ATOM     53  C   UNL     1     -11.998   3.897   1.954  1.00  0.00     0.029 A 
ATOM     54  C   UNL     1     -12.604   5.075   1.340  1.00  0.00     0.049 A 
ATOM     55  H   UNL     1     -13.196   5.303  -0.644  1.00  0.00     0.167 HD
ATOM     56  C   UNL     1     -14.308   5.710  -4.838  1.00  0.00     0.037 A 
ATOM     57  C   UNL     1     -12.882   6.230   1.978  1.00  0.00     0.037 A 
ATOM     58  C   UNL     1     -14.734   6.941  -4.221  1.00  0.00     0.049 A 
ATOM     59  C   UNL     1     -13.523   7.360   1.215  1.00  0.00     0.074 A 
ATOM     60  C   UNL     1     -15.401   8.009  -4.796  1.00  0.00     0.029 A 
ATOM     61  N   UNL     1     -14.524   7.273  -2.890  1.00  0.00    -0.354 N 
ATOM     62  N   UNL     1     -13.887   7.410  -0.043  1.00  0.00    -0.248 NA
ATOM     63  C   UNL     1     -13.798   8.594   1.965  1.00  0.00     0.031 C 
ATOM     64  C   UNL     1     -15.540   9.012  -3.832  1.00  0.00     0.029 A 
ATOM     65  C   UNL     1     -15.024   8.542  -2.636  1.00  0.00     0.049 A 
ATOM     66  H   UNL     1     -14.086   6.694  -2.226  1.00  0.00     0.167 HD
ATOM     67  C   UNL     1     -14.463   8.661  -0.226  1.00  0.00     0.074 A 
ATOM     68  C   UNL     1     -14.415   9.334   1.055  1.00  0.00     0.031 C 
ATOM     69  C   UNL     1     -14.985   9.201  -1.354  1.00  0.00     0.037 A 
BRANCH  56  70
ATOM     70  C   UNL     1     -14.546   5.545  -6.314  1.00  0.00     0.064 A 
ATOM     71  C   UNL     1     -15.477   4.622  -6.813  1.00  0.00     0.173 A 
ATOM     72  C   UNL     1     -13.872   6.357  -7.240  1.00  0.00     0.173 A 
ATOM     73  F   UNL     1     -16.146   3.816  -5.974  1.00  0.00    -0.203 F 
ATOM     74  C   UNL     1     -15.700   4.494  -8.182  1.00  0.00     0.198 A 
ATOM     75  C   UNL     1     -14.123   6.252  -8.606  1.00  0.00     0.198 A 
ATOM     76  F   UNL     1     -12.979   7.267  -6.820  1.00  0.00    -0.203 F 
ATOM     77  F   UNL     1     -16.557   3.569  -8.637  1.00  0.00    -0.200 F 
ATOM     78  C   UNL     1     -15.029   5.314  -9.077  1.00  0.00     0.200 A 
ATOM     79  F   UNL     1     -13.487   7.058  -9.468  1.00  0.00    -0.200 F 
ATOM     80  F   UNL     1     -15.252   5.197 -10.393  1.00  0.00    -0.200 F 
ENDBRANCH  56  70
BRANCH  57  81
ATOM     81  C   UNL     1     -12.569   6.377   3.426  1.00  0.00     0.064 A 
ATOM     82  C   UNL     1     -13.591   6.507   4.378  1.00  0.00     0.173 A 
ATOM     83  C   UNL     1     -11.245   6.412   3.886  1.00  0.00     0.173 A 
ATOM     84  F   UNL     1     -14.874   6.501   3.988  1.00  0.00    -0.203 F 
ATOM     85  C   UNL     1     -13.300   6.691   5.728  1.00  0.00     0.198 A 
ATOM     86  C   UNL     1     -10.955   6.562   5.241  1.00  0.00     0.198 A 
ATOM     87  F   UNL     1     -10.229   6.287   3.020  1.00  0.00    -0.203 F 
ATOM     88  F   UNL     1     -14.295   6.867   6.608  1.00  0.00    -0.200 F 
ATOM     89  C   UNL     1     -11.982   6.713   6.159  1.00  0.00     0.200 A 
ATOM     90  F   UNL     1      -9.681   6.563   5.656  1.00  0.00    -0.200 F 
ATOM     91  F   UNL     1     -11.703   6.886   7.458  1.00  0.00    -0.200 F 
ENDBRANCH  57  81
BRANCH  69  92
ATOM     92  C   UNL     1     -15.597  10.571  -1.251  1.00  0.00     0.064 A 
ATOM     93  C   UNL     1     -14.818  11.719  -1.045  1.00  0.00     0.173 A 
ATOM     94  C   UNL     1     -16.983  10.739  -1.403  1.00  0.00     0.173 A 
ATOM     95  F   UNL     1     -13.491  11.614  -0.879  1.00  0.00    -0.203 F 
ATOM     96  C   UNL     1     -15.406  12.980  -0.966  1.00  0.00     0.198 A 
ATOM     97  C   UNL     1     -17.562  12.004  -1.359  1.00  0.00     0.198 A 
ATOM     98  F   UNL     1     -17.775   9.677  -1.609  1.00  0.00    -0.203 F 
ATOM     99  F   UNL     1     -14.648  14.056  -0.714  1.00  0.00    -0.200 F 
ATOM    100  C   UNL     1     -16.775  13.122  -1.131  1.00  0.00     0.200 A 
ATOM    101  F   UNL     1     -18.884  12.141  -1.537  1.00  0.00    -0.200 F 
ATOM    102  F   UNL     1     -17.338  14.337  -1.065  1.00  0.00    -0.200 F 
ENDBRANCH  69  92
ENDBRANCH  43  44
ENDBRANCH  35  38
ENDBRANCH  33  34
ENDBRANCH  32  33
ENDBRANCH  31  32
ENDBRANCH  30  31
ENDBRANCH   1  30
TORSDOF 18
