REMARK SMILES C[NH2+][C@]1(C(=O)NCCCCCCNC(=O)c2ccc(-c3c4nc(c(-c5c(F)c(F)c(F)c(F)c5F)c5ccc([nH]5)c(-c5c(F)c(F)c(F)c(F)c5F)c5nc(c(-c6c(F)c(F)c(F)c(F)c6F)c6ccc3[nH]6)C=C5)C=C4)cc2)CCC[C@@H]([N@H+]2CC[C@@H](C)C2)C1
REMARK SMILES IDX 10 1 9 2 8 3 7 4 6 5 4 6 5 7 3 9 79 10 89 11 80 12 82 13
REMARK SMILES IDX 81 14 2 15 1 16 83 19 84 20 88 21 85 23 86 24 87 25 11 26
REMARK SMILES IDX 12 27 13 28 14 29 15 31 16 32 17 33 78 34 18 35 77 36 19 37
REMARK SMILES IDX 20 38 21 39 71 40 22 41 76 42 70 43 72 44 23 45 75 46 69 47
REMARK SMILES IDX 68 48 24 50 56 51 36 52 55 53 37 54 40 55 54 56 73 57 38 58
REMARK SMILES IDX 39 59 53 61 74 62 41 63 25 64 26 65 34 66 27 67 28 68 32 69
REMARK SMILES IDX 35 70 29 71 30 72 33 73 31 74 57 75 58 76 66 77 59 78 60 79
REMARK SMILES IDX 64 80 67 81 61 82 62 83 65 84 63 85 42 86 43 87 51 88 44 89
REMARK SMILES IDX 45 90 49 91 52 92 46 93 47 94 50 95 48 96
REMARK H PARENT 6 8 2 17 2 18 83 22 13 30 72 49 40 60
REMARK Flexibility Score: inf
ROOT
ATOM      1  C   UNL     1       3.175   0.064   4.246  1.00  0.00     0.002 C 
ENDROOT
BRANCH   1   2
ATOM      2  C   UNL     1       2.670  -0.815   3.096  1.00  0.00     0.002 C 
BRANCH   2   3
ATOM      3  C   UNL     1       1.161  -0.733   2.836  1.00  0.00     0.021 C 
BRANCH   3   4
ATOM      4  C   UNL     1       0.693   0.659   2.420  1.00  0.00     0.116 C 
BRANCH   4   5
ATOM      5  N   UNL     1       1.097   0.938   1.052  1.00  0.00    -0.351 N 
ATOM      6  C   UNL     1       0.400   1.074  -0.116  1.00  0.00     0.281 C 
ATOM      7  O   UNL     1       1.101   1.142  -1.132  1.00  0.00    -0.268 OA
ATOM      8  H   UNL     1       2.069   1.052   0.945  1.00  0.00     0.163 HD
BRANCH   6   9
ATOM      9  C   UNL     1      -1.171   1.226  -0.141  1.00  0.00     0.181 C 
ATOM     10  C   UNL     1      -1.863  -0.050   0.397  1.00  0.00     0.079 C 
ATOM     11  C   UNL     1      -1.514   2.470   0.702  1.00  0.00     0.144 C 
ATOM     12  C   UNL     1      -3.339   0.154   0.757  1.00  0.00     0.013 C 
ATOM     13  C   UNL     1      -2.998   2.657   1.033  1.00  0.00     0.190 C 
ATOM     14  C   UNL     1      -3.563   1.369   1.659  1.00  0.00     0.065 C 
BRANCH   9  15
ATOM     15  N   UNL     1      -1.644   1.355  -1.554  1.00  0.00    -0.336 N 
ATOM     16  C   UNL     1      -1.359   2.617  -2.222  1.00  0.00     0.331 C 
ATOM     17  H   UNL     1      -1.207   0.611  -2.097  1.00  0.00     0.346 HD
ATOM     18  H   UNL     1      -2.662   1.300  -1.504  1.00  0.00     0.346 HD
ENDBRANCH   9  15
BRANCH  13  19
ATOM     19  N   UNL     1      -3.255   3.845   1.871  1.00  0.00    -0.332 N 
ATOM     20  C   UNL     1      -2.753   3.814   3.249  1.00  0.00     0.262 C 
ATOM     21  C   UNL     1      -2.858   5.123   1.261  1.00  0.00     0.265 C 
ATOM     22  H   UNL     1      -4.272   3.789   1.927  1.00  0.00     0.348 HD
ATOM     23  C   UNL     1      -2.218   5.212   3.545  1.00  0.00     0.070 C 
ATOM     24  C   UNL     1      -1.823   5.766   2.184  1.00  0.00     0.047 C 
ATOM     25  C   UNL     1      -0.372   5.431   1.833  1.00  0.00     0.014 C 
ENDBRANCH  13  19
ENDBRANCH   6   9
ENDBRANCH   4   5
ENDBRANCH   3   4
ENDBRANCH   2   3
ENDBRANCH   1   2
BRANCH   1  26
ATOM     26  C   UNL     1       2.461  -0.145   5.584  1.00  0.00     0.021 C 
BRANCH  26  27
ATOM     27  C   UNL     1       2.496  -1.579   6.104  1.00  0.00     0.116 C 
BRANCH  27  28
ATOM     28  N   UNL     1       3.851  -2.027   6.381  1.00  0.00    -0.352 N 
ATOM     29  C   UNL     1       4.364  -2.588   7.523  1.00  0.00     0.251 C 
ATOM     30  H   UNL     1       4.492  -1.912   5.643  1.00  0.00     0.163 HD
ATOM     31  O   UNL     1       5.575  -2.731   7.652  1.00  0.00    -0.269 OA
BRANCH  29  32
ATOM     32  C   UNL     1       3.455  -3.004   8.611  1.00  0.00     0.039 A 
ATOM     33  C   UNL     1       3.788  -2.679   9.928  1.00  0.00     0.014 A 
ATOM     34  C   UNL     1       2.287  -3.721   8.337  1.00  0.00     0.014 A 
ATOM     35  C   UNL     1       2.922  -3.026  10.967  1.00  0.00     0.010 A 
ATOM     36  C   UNL     1       1.392  -4.006   9.364  1.00  0.00     0.010 A 
ATOM     37  C   UNL     1       1.703  -3.665  10.690  1.00  0.00    -0.014 A 
BRANCH  37  38
ATOM     38  C   UNL     1       0.740  -3.985  11.774  1.00  0.00     0.031 A 
ATOM     39  C   UNL     1       0.414  -5.416  12.097  1.00  0.00     0.074 A 
ATOM     40  C   UNL     1       0.112  -2.986  12.421  1.00  0.00     0.049 A 
ATOM     41  N   UNL     1      -0.449  -5.895  12.958  1.00  0.00    -0.248 NA
ATOM     42  C   UNL     1       1.133  -6.447  11.332  1.00  0.00     0.031 C 
ATOM     43  C   UNL     1       0.308  -1.558  12.164  1.00  0.00     0.029 A 
ATOM     44  N   UNL     1      -0.828  -3.017  13.421  1.00  0.00    -0.354 N 
ATOM     45  C   UNL     1      -0.389  -7.276  12.825  1.00  0.00     0.074 A 
ATOM     46  C   UNL     1       0.558  -7.558  11.769  1.00  0.00     0.031 C 
ATOM     47  C   UNL     1      -0.473  -0.851  12.996  1.00  0.00     0.029 A 
ATOM     48  C   UNL     1      -1.251  -1.773  13.818  1.00  0.00     0.049 A 
ATOM     49  H   UNL     1      -1.167  -3.853  13.815  1.00  0.00     0.167 HD
ATOM     50  C   UNL     1      -1.048  -8.221  13.536  1.00  0.00     0.037 A 
ATOM     51  C   UNL     1      -2.169  -1.416  14.736  1.00  0.00     0.037 A 
ATOM     52  C   UNL     1      -1.967  -7.936  14.606  1.00  0.00     0.049 A 
ATOM     53  C   UNL     1      -2.883  -2.486  15.516  1.00  0.00     0.074 A 
ATOM     54  C   UNL     1      -2.632  -8.825  15.433  1.00  0.00     0.029 A 
ATOM     55  N   UNL     1      -2.353  -6.662  14.997  1.00  0.00    -0.354 N 
ATOM     56  N   UNL     1      -2.765  -3.789  15.431  1.00  0.00    -0.248 NA
ATOM     57  C   UNL     1      -3.853  -2.036  16.524  1.00  0.00     0.031 C 
ATOM     58  C   UNL     1      -3.457  -8.091  16.291  1.00  0.00     0.029 A 
ATOM     59  C   UNL     1      -3.266  -6.742  16.037  1.00  0.00     0.049 A 
ATOM     60  H   UNL     1      -2.027  -5.824  14.595  1.00  0.00     0.167 HD
ATOM     61  C   UNL     1      -3.622  -4.313  16.390  1.00  0.00     0.074 A 
ATOM     62  C   UNL     1      -4.242  -3.186  17.055  1.00  0.00     0.031 C 
ATOM     63  C   UNL     1      -3.871  -5.611  16.692  1.00  0.00     0.037 A 
BRANCH  50  64
ATOM     64  C   UNL     1      -0.798  -9.659  13.181  1.00  0.00     0.064 A 
ATOM     65  C   UNL     1       0.429 -10.282  13.452  1.00  0.00     0.173 A 
ATOM     66  C   UNL     1      -1.813 -10.434  12.599  1.00  0.00     0.173 A 
ATOM     67  F   UNL     1       1.436  -9.583  13.997  1.00  0.00    -0.203 F 
ATOM     68  C   UNL     1       0.641 -11.620  13.128  1.00  0.00     0.198 A 
ATOM     69  C   UNL     1      -1.608 -11.780  12.305  1.00  0.00     0.198 A 
ATOM     70  F   UNL     1      -3.007  -9.890  12.324  1.00  0.00    -0.203 F 
ATOM     71  F   UNL     1       1.838 -12.181  13.352  1.00  0.00    -0.200 F 
ATOM     72  C   UNL     1      -0.379 -12.369  12.562  1.00  0.00     0.200 A 
ATOM     73  F   UNL     1      -2.599 -12.506  11.771  1.00  0.00    -0.200 F 
ATOM     74  F   UNL     1      -0.177 -13.659  12.259  1.00  0.00    -0.200 F 
ENDBRANCH  50  64
BRANCH  51  75
ATOM     75  C   UNL     1      -2.447   0.023  14.984  1.00  0.00     0.064 A 
ATOM     76  C   UNL     1      -2.057   0.635  16.183  1.00  0.00     0.173 A 
ATOM     77  C   UNL     1      -3.104   0.814  14.030  1.00  0.00     0.173 A 
ATOM     78  F   UNL     1      -1.444  -0.086  17.134  1.00  0.00    -0.203 F 
ATOM     79  C   UNL     1      -2.330   1.979  16.427  1.00  0.00     0.198 A 
ATOM     80  C   UNL     1      -3.351   2.165  14.264  1.00  0.00     0.198 A 
ATOM     81  F   UNL     1      -3.492   0.278  12.864  1.00  0.00    -0.203 F 
ATOM     82  F   UNL     1      -1.984   2.529  17.599  1.00  0.00    -0.200 F 
ATOM     83  C   UNL     1      -2.970   2.745  15.465  1.00  0.00     0.200 A 
ATOM     84  F   UNL     1      -3.956   2.905  13.325  1.00  0.00    -0.200 F 
ATOM     85  F   UNL     1      -3.227   4.039  15.697  1.00  0.00    -0.200 F 
ENDBRANCH  51  75
BRANCH  63  86
ATOM     86  C   UNL     1      -4.833  -5.885  17.811  1.00  0.00     0.064 A 
ATOM     87  C   UNL     1      -6.211  -5.666  17.668  1.00  0.00     0.173 A 
ATOM     88  C   UNL     1      -4.374  -6.412  19.028  1.00  0.00     0.173 A 
ATOM     89  F   UNL     1      -6.698  -5.148  16.530  1.00  0.00    -0.203 F 
ATOM     90  C   UNL     1      -7.091  -5.942  18.712  1.00  0.00     0.198 A 
ATOM     91  C   UNL     1      -5.260  -6.716  20.058  1.00  0.00     0.198 A 
ATOM     92  F   UNL     1      -3.066  -6.646  19.213  1.00  0.00    -0.203 F 
ATOM     93  F   UNL     1      -8.398  -5.681  18.570  1.00  0.00    -0.200 F 
ATOM     94  C   UNL     1      -6.616  -6.474  19.901  1.00  0.00     0.200 A 
ATOM     95  F   UNL     1      -4.801  -7.242  21.201  1.00  0.00    -0.200 F 
ATOM     96  F   UNL     1      -7.466  -6.746  20.901  1.00  0.00    -0.200 F 
ENDBRANCH  63  86
ENDBRANCH  37  38
ENDBRANCH  29  32
ENDBRANCH  27  28
ENDBRANCH  26  27
ENDBRANCH   1  26
TORSDOF 15
