REMARK SMILES C[C@@H]1[C@@H](C(=O)NCCCCCCNC(=O)c2ccc(-c3c4nc(c(-c5c(F)c(F)c(F)c(F)c5F)c5ccc([nH]5)c(-c5c(F)c(F)c(F)c(F)c5F)c5nc(c(-c6c(F)c(F)c(F)c(F)c6F)c6ccc3[nH]6)C=C5)C=C4)cc2)CCN1C(=O)C[NH2+]C1CCCC1
REMARK SMILES IDX 8 1 7 2 6 3 4 4 5 5 3 7 1 8 2 9 81 10 79 11 80 12 82 13
REMARK SMILES IDX 83 14 84 15 85 16 86 19 87 20 90 21 88 22 89 23 9 24 10 25
REMARK SMILES IDX 11 26 12 27 13 28 14 29 15 31 16 32 17 33 78 34 18 35 77 36
REMARK SMILES IDX 19 37 20 38 21 39 71 40 22 41 76 42 70 43 72 44 23 45 75 46
REMARK SMILES IDX 69 47 68 48 24 50 56 51 36 52 55 53 37 54 40 55 54 56 73 57
REMARK SMILES IDX 38 58 39 59 53 61 74 62 41 63 25 64 26 65 34 66 27 67 28 68
REMARK SMILES IDX 32 69 35 70 29 71 30 72 33 73 31 74 57 75 58 76 66 77 59 78
REMARK SMILES IDX 60 79 64 80 67 81 61 82 62 83 65 84 63 85 42 86 43 87 51 88
REMARK SMILES IDX 44 89 45 90 49 91 52 92 46 93 47 94 50 95 48 96
REMARK H PARENT 6 6 85 17 85 18 13 30 72 49 40 60
REMARK Flexibility Score: inf
ROOT
ATOM      1  C   UNL     1      -2.844   4.324  -1.454  1.00  0.00     0.021 C 
ENDROOT
BRANCH   1   2
ATOM      2  C   UNL     1      -2.409   2.965  -0.914  1.00  0.00     0.116 C 
BRANCH   2   3
ATOM      3  N   UNL     1      -1.716   2.160  -1.895  1.00  0.00    -0.356 N 
ATOM      4  C   UNL     1      -0.771   1.193  -1.719  1.00  0.00     0.225 C 
ATOM      5  O   UNL     1      -0.383   0.608  -2.730  1.00  0.00    -0.275 OA
ATOM      6  H   UNL     1      -1.964   2.336  -2.831  1.00  0.00     0.163 HD
BRANCH   4   7
ATOM      7  C   UNL     1      -0.192   0.933  -0.327  1.00  0.00     0.102 C 
ATOM      8  C   UNL     1       1.911  -0.043   0.715  1.00  0.00     0.032 C 
ATOM      9  C   UNL     1       0.834  -0.227  -0.358  1.00  0.00     0.094 C 
ATOM     10  N   UNL     1       0.017  -1.423  -0.093  1.00  0.00    -0.334 N 
ATOM     11  C   UNL     1      -1.224   0.421   0.682  1.00  0.00     0.037 C 
ATOM     12  C   UNL     1      -1.301  -1.065   0.388  1.00  0.00     0.121 C 
BRANCH  10  13
ATOM     13  C   UNL     1       0.269  -2.737  -0.433  1.00  0.00     0.277 C 
ATOM     14  O   UNL     1      -0.586  -3.613  -0.258  1.00  0.00    -0.268 OA
BRANCH  13  15
ATOM     15  C   UNL     1       1.642  -3.121  -0.994  1.00  0.00     0.362 C 
BRANCH  15  16
ATOM     16  N   UNL     1       1.881  -2.491  -2.298  1.00  0.00    -0.336 N 
ATOM     17  H   UNL     1       1.920  -1.480  -2.171  1.00  0.00     0.346 HD
ATOM     18  H   UNL     1       1.117  -2.759  -2.919  1.00  0.00     0.346 HD
BRANCH  16  19
ATOM     19  C   UNL     1       3.125  -2.935  -2.905  1.00  0.00     0.182 C 
ATOM     20  C   UNL     1       3.068  -4.323  -3.538  1.00  0.00     0.065 C 
ATOM     21  C   UNL     1       3.501  -2.061  -4.100  1.00  0.00     0.065 C 
ATOM     22  C   UNL     1       4.296  -4.346  -4.443  1.00  0.00     0.006 C 
ATOM     23  C   UNL     1       4.532  -2.893  -4.860  1.00  0.00     0.006 C 
ENDBRANCH  16  19
ENDBRANCH  15  16
ENDBRANCH  13  15
ENDBRANCH  10  13
ENDBRANCH   4   7
ENDBRANCH   2   3
ENDBRANCH   1   2
BRANCH   1  24
ATOM     24  C   UNL     1      -3.768   4.296  -2.678  1.00  0.00     0.002 C 
BRANCH  24  25
ATOM     25  C   UNL     1      -5.024   3.428  -2.569  1.00  0.00     0.002 C 
BRANCH  25  26
ATOM     26  C   UNL     1      -5.936   3.699  -1.372  1.00  0.00     0.021 C 
BRANCH  26  27
ATOM     27  C   UNL     1      -6.355   5.150  -1.161  1.00  0.00     0.116 C 
BRANCH  27  28
ATOM     28  N   UNL     1      -7.065   5.714  -2.293  1.00  0.00    -0.352 N 
ATOM     29  C   UNL     1      -8.190   6.500  -2.322  1.00  0.00     0.251 C 
ATOM     30  H   UNL     1      -6.682   5.502  -3.175  1.00  0.00     0.163 HD
ATOM     31  O   UNL     1      -8.693   6.805  -3.399  1.00  0.00    -0.269 OA
BRANCH  29  32
ATOM     32  C   UNL     1      -8.828   6.961  -1.065  1.00  0.00     0.039 A 
ATOM     33  C   UNL     1     -10.224   6.930  -0.983  1.00  0.00     0.014 A 
ATOM     34  C   UNL     1      -8.080   7.450   0.009  1.00  0.00     0.014 A 
ATOM     35  C   UNL     1     -10.865   7.339   0.189  1.00  0.00     0.010 A 
ATOM     36  C   UNL     1      -8.716   7.798   1.202  1.00  0.00     0.010 A 
ATOM     37  C   UNL     1     -10.115   7.752   1.302  1.00  0.00    -0.014 A 
BRANCH  37  38
ATOM     38  C   UNL     1     -10.787   8.149   2.566  1.00  0.00     0.031 A 
ATOM     39  C   UNL     1     -10.726   9.573   3.044  1.00  0.00     0.074 A 
ATOM     40  C   UNL     1     -11.421   7.218   3.304  1.00  0.00     0.049 A 
ATOM     41  N   UNL     1     -11.227  10.103   4.132  1.00  0.00    -0.248 NA
ATOM     42  C   UNL     1      -9.984  10.523   2.201  1.00  0.00     0.031 C 
ATOM     43  C   UNL     1     -11.513   5.796   2.973  1.00  0.00     0.029 A 
ATOM     44  N   UNL     1     -12.107   7.329   4.488  1.00  0.00    -0.354 N 
ATOM     45  C   UNL     1     -10.853  11.440   4.109  1.00  0.00     0.074 A 
ATOM     46  C   UNL     1     -10.041  11.631   2.926  1.00  0.00     0.031 C 
ATOM     47  C   UNL     1     -12.233   5.171   3.918  1.00  0.00     0.029 A 
ATOM     48  C   UNL     1     -12.630   6.141   4.935  1.00  0.00     0.049 A 
ATOM     49  H   UNL     1     -12.213   8.180   4.972  1.00  0.00     0.167 HD
ATOM     50  C   UNL     1     -11.177  12.425   4.981  1.00  0.00     0.037 A 
ATOM     51  C   UNL     1     -13.350   5.865   6.039  1.00  0.00     0.037 A 
ATOM     52  C   UNL     1     -12.010  12.243   6.141  1.00  0.00     0.049 A 
ATOM     53  C   UNL     1     -13.702   6.979   6.987  1.00  0.00     0.074 A 
ATOM     54  C   UNL     1     -12.446  13.192   7.048  1.00  0.00     0.029 A 
ATOM     55  N   UNL     1     -12.534  11.026   6.552  1.00  0.00    -0.354 N 
ATOM     56  N   UNL     1     -13.400   8.252   6.917  1.00  0.00    -0.248 NA
ATOM     57  C   UNL     1     -14.504   6.616   8.165  1.00  0.00     0.031 C 
ATOM     58  C   UNL     1     -13.204  12.544   8.030  1.00  0.00     0.029 A 
ATOM     59  C   UNL     1     -13.273  11.198   7.712  1.00  0.00     0.049 A 
ATOM     60  H   UNL     1     -12.400  10.168   6.089  1.00  0.00     0.167 HD
ATOM     61  C   UNL     1     -13.991   8.845   8.024  1.00  0.00     0.074 A 
ATOM     62  C   UNL     1     -14.684   7.796   8.742  1.00  0.00     0.031 C 
ATOM     63  C   UNL     1     -13.960  10.144   8.412  1.00  0.00     0.037 A 
BRANCH  50  64
ATOM     64  C   UNL     1     -10.633  13.797   4.709  1.00  0.00     0.064 A 
ATOM     65  C   UNL     1     -11.114  14.579   3.649  1.00  0.00     0.173 A 
ATOM     66  C   UNL     1      -9.647  14.351   5.539  1.00  0.00     0.173 A 
ATOM     67  F   UNL     1     -12.049  14.091   2.819  1.00  0.00    -0.203 F 
ATOM     68  C   UNL     1     -10.609  15.855   3.413  1.00  0.00     0.198 A 
ATOM     69  C   UNL     1      -9.164  15.638   5.317  1.00  0.00     0.198 A 
ATOM     70  F   UNL     1      -9.157  13.646   6.570  1.00  0.00    -0.203 F 
ATOM     71  F   UNL     1     -11.052  16.567   2.367  1.00  0.00    -0.200 F 
ATOM     72  C   UNL     1      -9.640  16.386   4.251  1.00  0.00     0.200 A 
ATOM     73  F   UNL     1      -8.235  16.153   6.134  1.00  0.00    -0.200 F 
ATOM     74  F   UNL     1      -9.159  17.616   4.027  1.00  0.00    -0.200 F 
ENDBRANCH  50  64
BRANCH  51  75
ATOM     75  C   UNL     1     -13.814   4.478   6.293  1.00  0.00     0.064 A 
ATOM     76  C   UNL     1     -15.170   4.141   6.173  1.00  0.00     0.173 A 
ATOM     77  C   UNL     1     -12.919   3.464   6.663  1.00  0.00     0.173 A 
ATOM     78  F   UNL     1     -16.066   5.082   5.842  1.00  0.00    -0.203 F 
ATOM     79  C   UNL     1     -15.615   2.846   6.431  1.00  0.00     0.198 A 
ATOM     80  C   UNL     1     -13.362   2.164   6.897  1.00  0.00     0.198 A 
ATOM     81  F   UNL     1     -11.612   3.736   6.788  1.00  0.00    -0.203 F 
ATOM     82  F   UNL     1     -16.922   2.561   6.350  1.00  0.00    -0.200 F 
ATOM     83  C   UNL     1     -14.710   1.858   6.788  1.00  0.00     0.200 A 
ATOM     84  F   UNL     1     -12.483   1.209   7.230  1.00  0.00    -0.200 F 
ATOM     85  F   UNL     1     -15.138   0.612   7.034  1.00  0.00    -0.200 F 
ENDBRANCH  51  75
BRANCH  63  86
ATOM     86  C   UNL     1     -14.716  10.506   9.656  1.00  0.00     0.064 A 
ATOM     87  C   UNL     1     -14.248  10.146  10.928  1.00  0.00     0.173 A 
ATOM     88  C   UNL     1     -15.902  11.249   9.576  1.00  0.00     0.173 A 
ATOM     89  F   UNL     1     -13.127   9.421  11.055  1.00  0.00    -0.203 F 
ATOM     90  C   UNL     1     -14.954  10.498  12.075  1.00  0.00     0.198 A 
ATOM     91  C   UNL     1     -16.592  11.623  10.726  1.00  0.00     0.198 A 
ATOM     92  F   UNL     1     -16.388  11.622   8.382  1.00  0.00    -0.203 F 
ATOM     93  F   UNL     1     -14.512  10.107  13.278  1.00  0.00    -0.200 F 
ATOM     94  C   UNL     1     -16.121  11.242  11.974  1.00  0.00     0.200 A 
ATOM     95  F   UNL     1     -17.713  12.350  10.628  1.00  0.00    -0.200 F 
ATOM     96  F   UNL     1     -16.797  11.584  13.079  1.00  0.00    -0.200 F 
ENDBRANCH  63  86
ENDBRANCH  37  38
ENDBRANCH  29  32
ENDBRANCH  27  28
ENDBRANCH  26  27
ENDBRANCH  25  26
ENDBRANCH  24  25
ENDBRANCH   1  24
TORSDOF 17
