REMARK SMILES O=C(NCCCCCCNC(=O)[C@@H]1CS[C@H](c2cccc([N+](=O)[O-])c2)[NH2+]1)c1ccc(-c2c3nc(c(-c4c(F)c(F)c(F)c(F)c4F)c4ccc([nH]4)c(-c4c(F)c(F)c(F)c(F)c4F)c4nc(c(-c5c(F)c(F)c(F)c(F)c5F)c5ccc2[nH]5)C=C4)C=C3)cc1
REMARK SMILES IDX 6 1 5 2 4 3 3 4 1 5 2 6 27 8 28 9 89 10 29 11 88 12 30 13
REMARK SMILES IDX 31 14 32 15 82 16 33 17 87 18 81 19 83 20 34 21 86 22 80 23
REMARK SMILES IDX 79 24 35 26 67 27 47 28 66 29 48 30 51 31 65 32 84 33 49 34
REMARK SMILES IDX 50 35 64 37 85 38 52 39 36 40 37 41 45 42 38 43 39 44 43 45
REMARK SMILES IDX 46 46 40 47 41 48 44 49 42 50 68 51 69 52 77 53 70 54 71 55
REMARK SMILES IDX 75 56 78 57 72 58 73 59 76 60 74 61 53 62 54 63 62 64 55 65
REMARK SMILES IDX 56 66 60 67 63 68 57 69 58 70 61 71 59 72 7 73 8 74 9 75
REMARK SMILES IDX 10 76 11 77 12 79 13 80 14 81 26 82 15 83 16 84 17 87 18 88
REMARK SMILES IDX 25 89 19 90 21 91 20 92 22 93 23 94 24 95
REMARK H PARENT 3 7 83 25 51 36 10 78 26 85 26 86
REMARK Flexibility Score: inf
ROOT
ATOM      1  C   UNL     1       9.472   9.413  -5.217  1.00  0.00     0.002 C 
ENDROOT
BRANCH   1   2
ATOM      2  C   UNL     1       9.110  10.898  -5.193  1.00  0.00     0.021 C 
BRANCH   2   3
ATOM      3  C   UNL     1      10.279  11.830  -5.470  1.00  0.00     0.116 C 
BRANCH   3   4
ATOM      4  N   UNL     1      10.740  11.736  -6.846  1.00  0.00    -0.352 N 
ATOM      5  O   UNL     1      11.044  12.444  -8.970  1.00  0.00    -0.269 OA
ATOM      6  C   UNL     1      10.823  12.723  -7.796  1.00  0.00     0.251 C 
ATOM      7  H   UNL     1      11.033  10.841  -7.135  1.00  0.00     0.163 HD
BRANCH   6   8
ATOM      8  C   UNL     1      10.630  14.133  -7.396  1.00  0.00     0.039 A 
ATOM      9  C   UNL     1      11.247  14.629  -6.245  1.00  0.00     0.014 A 
ATOM     10  C   UNL     1       9.833  14.968  -8.183  1.00  0.00     0.014 A 
ATOM     11  C   UNL     1      10.963  15.916  -5.810  1.00  0.00     0.010 A 
ATOM     12  C   UNL     1       9.625  16.294  -7.795  1.00  0.00     0.010 A 
ATOM     13  C   UNL     1      10.175  16.773  -6.595  1.00  0.00    -0.014 A 
BRANCH  13  14
ATOM     14  C   UNL     1      10.029  18.192  -6.187  1.00  0.00     0.031 A 
ATOM     15  C   UNL     1       8.694  18.768  -5.813  1.00  0.00     0.074 A 
ATOM     16  C   UNL     1      11.138  18.957  -6.143  1.00  0.00     0.049 A 
ATOM     17  N   UNL     1       8.402  19.987  -5.433  1.00  0.00    -0.248 NA
ATOM     18  C   UNL     1       7.533  17.867  -5.878  1.00  0.00     0.031 C 
ATOM     19  C   UNL     1      12.486  18.503  -6.501  1.00  0.00     0.029 A 
ATOM     20  N   UNL     1      11.319  20.264  -5.771  1.00  0.00    -0.354 N 
ATOM     21  C   UNL     1       7.029  20.006  -5.231  1.00  0.00     0.074 A 
ATOM     22  C   UNL     1       6.538  18.682  -5.550  1.00  0.00     0.031 C 
ATOM     23  C   UNL     1      13.357  19.500  -6.292  1.00  0.00     0.029 A 
ATOM     24  C   UNL     1      12.624  20.682  -5.857  1.00  0.00     0.049 A 
ATOM     25  H   UNL     1      10.584  20.846  -5.471  1.00  0.00     0.167 HD
ATOM     26  C   UNL     1       6.255  21.037  -4.811  1.00  0.00     0.037 A 
ATOM     27  C   UNL     1      13.170  21.892  -5.638  1.00  0.00     0.037 A 
ATOM     28  C   UNL     1       6.759  22.348  -4.484  1.00  0.00     0.049 A 
ATOM     29  C   UNL     1      12.277  23.019  -5.205  1.00  0.00     0.074 A 
ATOM     30  C   UNL     1       6.061  23.445  -4.008  1.00  0.00     0.029 A 
ATOM     31  N   UNL     1       8.084  22.742  -4.607  1.00  0.00    -0.354 N 
ATOM     32  N   UNL     1      10.988  23.010  -4.970  1.00  0.00    -0.248 NA
ATOM     33  C   UNL     1      12.916  24.327  -5.010  1.00  0.00     0.031 C 
ATOM     34  C   UNL     1       6.951  24.517  -3.898  1.00  0.00     0.029 A 
ATOM     35  C   UNL     1       8.217  24.074  -4.245  1.00  0.00     0.049 A 
ATOM     36  H   UNL     1       8.820  22.162  -4.907  1.00  0.00     0.167 HD
ATOM     37  C   UNL     1      10.664  24.300  -4.578  1.00  0.00     0.074 A 
ATOM     38  C   UNL     1      11.898  25.060  -4.583  1.00  0.00     0.031 C 
ATOM     39  C   UNL     1       9.454  24.813  -4.250  1.00  0.00     0.037 A 
BRANCH  26  40
ATOM     40  C   UNL     1       4.776  20.808  -4.691  1.00  0.00     0.064 A 
ATOM     41  C   UNL     1       4.230  20.019  -3.667  1.00  0.00     0.173 A 
ATOM     42  C   UNL     1       3.886  21.458  -5.561  1.00  0.00     0.173 A 
ATOM     43  F   UNL     1       5.036  19.369  -2.814  1.00  0.00    -0.203 F 
ATOM     44  C   UNL     1       2.851  19.879  -3.528  1.00  0.00     0.198 A 
ATOM     45  C   UNL     1       2.508  21.338  -5.402  1.00  0.00     0.198 A 
ATOM     46  F   UNL     1       4.354  22.231  -6.553  1.00  0.00    -0.203 F 
ATOM     47  F   UNL     1       2.353  19.097  -2.560  1.00  0.00    -0.200 F 
ATOM     48  C   UNL     1       1.991  20.547  -4.387  1.00  0.00     0.200 A 
ATOM     49  F   UNL     1       1.679  21.997  -6.224  1.00  0.00    -0.200 F 
ATOM     50  F   UNL     1       0.665  20.426  -4.239  1.00  0.00    -0.200 F 
ENDBRANCH  26  40
BRANCH  27  51
ATOM     51  C   UNL     1      14.626  22.100  -5.847  1.00  0.00     0.064 A 
ATOM     52  C   UNL     1      15.476  22.404  -4.775  1.00  0.00     0.173 A 
ATOM     53  C   UNL     1      15.196  22.013  -7.127  1.00  0.00     0.173 A 
ATOM     54  F   UNL     1      14.976  22.515  -3.535  1.00  0.00    -0.203 F 
ATOM     55  C   UNL     1      16.834  22.640  -4.979  1.00  0.00     0.198 A 
ATOM     56  C   UNL     1      16.560  22.213  -7.324  1.00  0.00     0.198 A 
ATOM     57  F   UNL     1      14.429  21.717  -8.186  1.00  0.00    -0.203 F 
ATOM     58  F   UNL     1      17.613  22.985  -3.945  1.00  0.00    -0.200 F 
ATOM     59  C   UNL     1      17.375  22.539  -6.251  1.00  0.00     0.200 A 
ATOM     60  F   UNL     1      17.082  22.093  -8.552  1.00  0.00    -0.200 F 
ATOM     61  F   UNL     1      18.682  22.765  -6.446  1.00  0.00    -0.200 F 
ENDBRANCH  27  51
BRANCH  39  62
ATOM     62  C   UNL     1       9.414  26.254  -3.832  1.00  0.00     0.064 A 
ATOM     63  C   UNL     1       9.621  27.294  -4.750  1.00  0.00     0.173 A 
ATOM     64  C   UNL     1       9.145  26.598  -2.498  1.00  0.00     0.173 A 
ATOM     65  F   UNL     1       9.900  27.017  -6.032  1.00  0.00    -0.203 F 
ATOM     66  C   UNL     1       9.591  28.625  -4.341  1.00  0.00     0.198 A 
ATOM     67  C   UNL     1       9.081  27.930  -2.101  1.00  0.00     0.198 A 
ATOM     68  F   UNL     1       8.934  25.641  -1.582  1.00  0.00    -0.203 F 
ATOM     69  F   UNL     1       9.850  29.600  -5.224  1.00  0.00    -0.200 F 
ATOM     70  C   UNL     1       9.314  28.941  -3.020  1.00  0.00     0.200 A 
ATOM     71  F   UNL     1       8.799  28.234  -0.826  1.00  0.00    -0.200 F 
ATOM     72  F   UNL     1       9.281  30.223  -2.630  1.00  0.00    -0.200 F 
ENDBRANCH  39  62
ENDBRANCH  13  14
ENDBRANCH   6   8
ENDBRANCH   3   4
ENDBRANCH   2   3
ENDBRANCH   1   2
BRANCH   1  73
ATOM     73  C   UNL     1      10.546   8.990  -4.207  1.00  0.00     0.002 C 
BRANCH  73  74
ATOM     74  C   UNL     1      10.297   9.431  -2.757  1.00  0.00     0.021 C 
BRANCH  74  75
ATOM     75  C   UNL     1       8.944   8.997  -2.192  1.00  0.00     0.116 C 
BRANCH  75  76
ATOM     76  N   UNL     1       8.881   7.564  -2.021  1.00  0.00    -0.351 N 
ATOM     77  C   UNL     1       8.773   6.764  -0.933  1.00  0.00     0.279 C 
ATOM     78  H   UNL     1       8.925   7.067  -2.869  1.00  0.00     0.163 HD
ATOM     79  O   UNL     1       8.575   5.569  -1.190  1.00  0.00    -0.268 OA
BRANCH  77  80
ATOM     80  C   UNL     1       8.800   7.268   0.535  1.00  0.00     0.283 C 
ATOM     81  C   UNL     1       9.563   8.554   0.846  1.00  0.00     0.151 C 
ATOM     82  N   UNL     1       9.308   6.148   1.407  1.00  0.00    -0.321 N 
ATOM     83  S   UNL     1      10.308   8.266   2.458  1.00  0.00    -0.088 SA
ATOM     84  C   UNL     1      10.576   6.525   2.035  1.00  0.00     0.274 C 
ATOM     85  H   UNL     1       9.451   5.315   0.835  1.00  0.00     0.348 HD
ATOM     86  H   UNL     1       8.621   5.959   2.136  1.00  0.00     0.348 HD
BRANCH  84  87
ATOM     87  C   UNL     1      11.806   6.328   1.147  1.00  0.00     0.027 A 
ATOM     88  C   UNL     1      13.036   6.917   1.504  1.00  0.00     0.011 A 
ATOM     89  C   UNL     1      11.770   5.558  -0.032  1.00  0.00     0.096 A 
ATOM     90  C   UNL     1      14.161   6.820   0.679  1.00  0.00     0.008 A 
ATOM     91  C   UNL     1      12.891   5.486  -0.872  1.00  0.00     0.269 A 
ATOM     92  C   UNL     1      14.087   6.120  -0.521  1.00  0.00     0.085 A 
BRANCH  91  93
ATOM     93  N   UNL     1      12.804   4.772  -2.154  1.00  0.00     0.062 N 
ATOM     94  O   UNL     1      13.837   4.689  -2.835  1.00  0.00    -0.258 OA
ATOM     95  O   UNL     1      11.705   4.316  -2.495  1.00  0.00    -0.258 OA
ENDBRANCH  91  93
ENDBRANCH  84  87
ENDBRANCH  77  80
ENDBRANCH  75  76
ENDBRANCH  74  75
ENDBRANCH  73  74
ENDBRANCH   1  73
TORSDOF 15
