REMARK SMILES C[NH2+][C@]1(C(=O)NCCCCCCNC(=O)c2ccc(-c3c4nc(c(-c5c(F)c(F)c(F)c(F)c5F)c5ccc([nH]5)c(-c5c(F)c(F)c(F)c(F)c5F)c5nc(c(-c6c(F)c(F)c(F)c(F)c6F)c6ccc3[nH]6)C=C5)C=C4)cc2)CCC[C@H]([N@@H+]2CCC[C@@H]2C2CCCC2)C1
REMARK SMILES IDX 9 1 8 2 7 3 6 4 4 5 5 6 3 8 79 9 93 10 80 11 82 12 81 13
REMARK SMILES IDX 2 14 1 15 83 18 84 19 87 20 85 22 86 23 88 24 89 25 92 26
REMARK SMILES IDX 90 27 91 28 10 29 11 30 12 31 13 32 14 33 15 35 16 36 17 37
REMARK SMILES IDX 78 38 18 39 77 40 19 41 20 42 21 43 71 44 22 45 76 46 70 47
REMARK SMILES IDX 72 48 23 49 75 50 69 51 68 52 24 54 56 55 36 56 55 57 37 58
REMARK SMILES IDX 40 59 54 60 73 61 38 62 39 63 53 65 74 66 41 67 25 68 26 69
REMARK SMILES IDX 34 70 27 71 28 72 32 73 35 74 29 75 30 76 33 77 31 78 57 79
REMARK SMILES IDX 58 80 66 81 59 82 60 83 64 84 67 85 61 86 62 87 65 88 63 89
REMARK SMILES IDX 42 90 43 91 51 92 44 93 45 94 49 95 52 96 46 97 47 98 50 99
REMARK SMILES IDX 48 100
REMARK H PARENT 6 7 2 16 2 17 83 21 13 34 72 53 40 64
REMARK Flexibility Score: inf
ROOT
ATOM      1  C   UNL     1       3.028  -0.759   3.862  1.00  0.00     0.002 C 
ENDROOT
BRANCH   1   2
ATOM      2  C   UNL     1       1.627  -0.180   3.641  1.00  0.00     0.021 C 
BRANCH   2   3
ATOM      3  C   UNL     1       1.574   1.349   3.677  1.00  0.00     0.116 C 
BRANCH   3   4
ATOM      4  N   UNL     1       1.654   1.983   2.370  1.00  0.00    -0.351 N 
ATOM      5  C   UNL     1       0.693   2.645   1.649  1.00  0.00     0.281 C 
ATOM      6  O   UNL     1       1.073   3.703   1.126  1.00  0.00    -0.268 OA
ATOM      7  H   UNL     1       2.536   1.929   1.935  1.00  0.00     0.163 HD
BRANCH   5   8
ATOM      8  C   UNL     1      -0.740   2.040   1.311  1.00  0.00     0.181 C 
ATOM      9  C   UNL     1      -1.192   1.011   2.400  1.00  0.00     0.079 C 
ATOM     10  C   UNL     1      -1.815   3.135   1.247  1.00  0.00     0.144 C 
ATOM     11  C   UNL     1      -2.655   0.783   2.797  1.00  0.00     0.013 C 
ATOM     12  C   UNL     1      -3.287   2.625   1.281  1.00  0.00     0.191 C 
ATOM     13  C   UNL     1      -3.525   1.995   2.643  1.00  0.00     0.065 C 
BRANCH   8  14
ATOM     14  N   UNL     1      -0.672   1.465  -0.075  1.00  0.00    -0.336 N 
ATOM     15  C   UNL     1      -0.035   2.297  -1.105  1.00  0.00     0.331 C 
ATOM     16  H   UNL     1      -0.151   0.589  -0.020  1.00  0.00     0.346 HD
ATOM     17  H   UNL     1      -1.643   1.366  -0.372  1.00  0.00     0.346 HD
ENDBRANCH   8  14
BRANCH  12  18
ATOM     18  N   UNL     1      -3.916   1.924   0.137  1.00  0.00    -0.330 N 
ATOM     19  C   UNL     1      -5.331   2.338   0.004  1.00  0.00     0.262 C 
ATOM     20  C   UNL     1      -3.842   0.535  -0.447  1.00  0.00     0.187 C 
ATOM     21  H   UNL     1      -3.082   2.215  -0.374  1.00  0.00     0.348 HD
ATOM     22  C   UNL     1      -6.113   1.064   0.192  1.00  0.00     0.067 C 
ATOM     23  C   UNL     1      -5.302   0.062  -0.589  1.00  0.00     0.071 C 
BRANCH  20  24
ATOM     24  C   UNL     1      -2.878  -0.655  -0.115  1.00  0.00     0.047 C 
ATOM     25  C   UNL     1      -3.337  -1.936   0.607  1.00  0.00     0.010 C 
ATOM     26  C   UNL     1      -2.247  -1.301  -1.366  1.00  0.00     0.010 C 
ATOM     27  C   UNL     1      -2.075  -2.804   0.547  1.00  0.00     0.001 C 
ATOM     28  C   UNL     1      -1.437  -2.474  -0.805  1.00  0.00     0.001 C 
ENDBRANCH  20  24
ENDBRANCH  12  18
ENDBRANCH   5   8
ENDBRANCH   3   4
ENDBRANCH   2   3
ENDBRANCH   1   2
BRANCH   1  29
ATOM     29  C   UNL     1       3.735  -0.299   5.143  1.00  0.00     0.002 C 
BRANCH  29  30
ATOM     30  C   UNL     1       2.937  -0.507   6.434  1.00  0.00     0.021 C 
BRANCH  30  31
ATOM     31  C   UNL     1       2.725  -1.973   6.793  1.00  0.00     0.116 C 
BRANCH  31  32
ATOM     32  N   UNL     1       3.995  -2.624   7.087  1.00  0.00    -0.352 N 
ATOM     33  C   UNL     1       4.451  -3.115   8.276  1.00  0.00     0.251 C 
ATOM     34  H   UNL     1       4.609  -2.722   6.323  1.00  0.00     0.163 HD
ATOM     35  O   UNL     1       5.660  -3.332   8.440  1.00  0.00    -0.269 OA
BRANCH  33  36
ATOM     36  C   UNL     1       3.505  -3.408   9.365  1.00  0.00     0.039 A 
ATOM     37  C   UNL     1       3.837  -3.066  10.678  1.00  0.00     0.014 A 
ATOM     38  C   UNL     1       2.303  -4.069   9.088  1.00  0.00     0.014 A 
ATOM     39  C   UNL     1       2.947  -3.356  11.712  1.00  0.00     0.010 A 
ATOM     40  C   UNL     1       1.390  -4.300  10.110  1.00  0.00     0.010 A 
ATOM     41  C   UNL     1       1.711  -3.961  11.432  1.00  0.00    -0.014 A 
BRANCH  41  42
ATOM     42  C   UNL     1       0.747  -4.274  12.513  1.00  0.00     0.031 A 
ATOM     43  C   UNL     1       0.423  -5.706  12.833  1.00  0.00     0.074 A 
ATOM     44  C   UNL     1       0.115  -3.272  13.151  1.00  0.00     0.049 A 
ATOM     45  N   UNL     1      -0.448  -6.189  13.683  1.00  0.00    -0.248 NA
ATOM     46  C   UNL     1       1.155  -6.734  12.076  1.00  0.00     0.031 C 
ATOM     47  C   UNL     1       0.313  -1.847  12.888  1.00  0.00     0.029 A 
ATOM     48  N   UNL     1      -0.832  -3.301  14.142  1.00  0.00    -0.354 N 
ATOM     49  C   UNL     1      -0.382  -7.569  13.546  1.00  0.00     0.074 A 
ATOM     50  C   UNL     1       0.577  -7.848  12.501  1.00  0.00     0.031 C 
ATOM     51  C   UNL     1      -0.477  -1.136  13.708  1.00  0.00     0.029 A 
ATOM     52  C   UNL     1      -1.258  -2.055  14.530  1.00  0.00     0.049 A 
ATOM     53  H   UNL     1      -1.174  -4.135  14.537  1.00  0.00     0.167 HD
ATOM     54  C   UNL     1      -1.048  -8.517  14.247  1.00  0.00     0.037 A 
ATOM     55  C   UNL     1      -2.179  -1.699  15.445  1.00  0.00     0.037 A 
ATOM     56  C   UNL     1      -1.975  -8.232  15.310  1.00  0.00     0.049 A 
ATOM     57  C   UNL     1      -2.890  -2.771  16.223  1.00  0.00     0.074 A 
ATOM     58  C   UNL     1      -2.649  -9.119  16.130  1.00  0.00     0.029 A 
ATOM     59  N   UNL     1      -2.357  -6.956  15.700  1.00  0.00    -0.354 N 
ATOM     60  N   UNL     1      -2.771  -4.074  16.135  1.00  0.00    -0.248 NA
ATOM     61  C   UNL     1      -3.857  -2.324  17.235  1.00  0.00     0.031 C 
ATOM     62  C   UNL     1      -3.470  -8.381  16.990  1.00  0.00     0.029 A 
ATOM     63  C   UNL     1      -3.272  -7.033  16.737  1.00  0.00     0.049 A 
ATOM     64  H   UNL     1      -2.027  -6.120  15.299  1.00  0.00     0.167 HD
ATOM     65  C   UNL     1      -3.626  -4.601  17.092  1.00  0.00     0.074 A 
ATOM     66  C   UNL     1      -4.247  -3.477  17.761  1.00  0.00     0.031 C 
ATOM     67  C   UNL     1      -3.874  -5.900  17.392  1.00  0.00     0.037 A 
BRANCH  54  68
ATOM     68  C   UNL     1      -0.793  -9.952  13.890  1.00  0.00     0.064 A 
ATOM     69  C   UNL     1       0.429 -10.577  14.179  1.00  0.00     0.173 A 
ATOM     70  C   UNL     1      -1.795 -10.723  13.281  1.00  0.00     0.173 A 
ATOM     71  F   UNL     1       1.425  -9.881  14.749  1.00  0.00    -0.203 F 
ATOM     72  C   UNL     1       0.650 -11.911  13.846  1.00  0.00     0.198 A 
ATOM     73  C   UNL     1      -1.582 -12.065  12.976  1.00  0.00     0.198 A 
ATOM     74  F   UNL     1      -2.985 -10.177  12.986  1.00  0.00    -0.203 F 
ATOM     75  F   UNL     1       1.843 -12.472  14.088  1.00  0.00    -0.200 F 
ATOM     76  C   UNL     1      -0.358 -12.655  13.251  1.00  0.00     0.200 A 
ATOM     77  F   UNL     1      -2.560 -12.786  12.412  1.00  0.00    -0.200 F 
ATOM     78  F   UNL     1      -0.146 -13.941  12.938  1.00  0.00    -0.200 F 
ENDBRANCH  54  68
BRANCH  55  79
ATOM     79  C   UNL     1      -2.456  -0.261  15.693  1.00  0.00     0.064 A 
ATOM     80  C   UNL     1      -2.046   0.354  16.884  1.00  0.00     0.173 A 
ATOM     81  C   UNL     1      -3.122   0.529  14.745  1.00  0.00     0.173 A 
ATOM     82  F   UNL     1      -1.422  -0.366  17.827  1.00  0.00    -0.203 F 
ATOM     83  C   UNL     1      -2.308   1.700  17.126  1.00  0.00     0.198 A 
ATOM     84  C   UNL     1      -3.360   1.882  14.977  1.00  0.00     0.198 A 
ATOM     85  F   UNL     1      -3.527  -0.010  13.586  1.00  0.00    -0.203 F 
ATOM     86  F   UNL     1      -1.940   2.253  18.290  1.00  0.00    -0.200 F 
ATOM     87  C   UNL     1      -2.959   2.465  16.170  1.00  0.00     0.200 A 
ATOM     88  F   UNL     1      -3.977   2.621  14.044  1.00  0.00    -0.200 F 
ATOM     89  F   UNL     1      -3.205   3.762  16.400  1.00  0.00    -0.200 F 
ENDBRANCH  55  79
BRANCH  67  90
ATOM     90  C   UNL     1      -4.838  -6.173  18.508  1.00  0.00     0.064 A 
ATOM     91  C   UNL     1      -6.217  -5.975  18.352  1.00  0.00     0.173 A 
ATOM     92  C   UNL     1      -4.378  -6.680  19.733  1.00  0.00     0.173 A 
ATOM     93  F   UNL     1      -6.702  -5.478  17.205  1.00  0.00    -0.203 F 
ATOM     94  C   UNL     1      -7.100  -6.253  19.392  1.00  0.00     0.198 A 
ATOM     95  C   UNL     1      -5.267  -6.983  20.760  1.00  0.00     0.198 A 
ATOM     96  F   UNL     1      -3.068  -6.892  19.928  1.00  0.00    -0.203 F 
ATOM     97  F   UNL     1      -8.410  -6.016  19.237  1.00  0.00    -0.200 F 
ATOM     98  C   UNL     1      -6.625  -6.764  20.591  1.00  0.00     0.200 A 
ATOM     99  F   UNL     1      -4.808  -7.488  21.914  1.00  0.00    -0.200 F 
ATOM    100  F   UNL     1      -7.478  -7.038  21.588  1.00  0.00    -0.200 F 
ENDBRANCH  67  90
ENDBRANCH  41  42
ENDBRANCH  33  36
ENDBRANCH  31  32
ENDBRANCH  30  31
ENDBRANCH  29  30
ENDBRANCH   1  29
TORSDOF 16
