REMARK SMILES O=C(NCCCCNC(=O)c1c(F)cccc1NC(=O)C1CCCCC1)c1ccc(-c2c3nc(c(-c4c(F)c(F)c(F)c(F)c4F)c4ccc([nH]4)c(-c4c(F)c(F)c(F)c(F)c4F)c4nc(c(-c5c(F)c(F)c(F)c(F)c5F)c5ccc2[nH]5)C=C4)C=C3)cc1
REMARK SMILES IDX 5 1 4 2 3 3 1 4 2 5 27 7 28 8 89 9 29 10 88 11 30 12 31 13
REMARK SMILES IDX 32 14 82 15 33 16 87 17 81 18 83 19 34 20 86 21 80 22 79 23
REMARK SMILES IDX 35 25 67 26 47 27 66 28 48 29 51 30 65 31 84 32 49 33 50 34
REMARK SMILES IDX 64 36 85 37 52 38 36 39 37 40 45 41 38 42 39 43 43 44 46 45
REMARK SMILES IDX 40 46 41 47 44 48 42 49 68 50 69 51 77 52 70 53 71 54 75 55
REMARK SMILES IDX 78 56 72 57 73 58 76 59 74 60 53 61 54 62 62 63 55 64 56 65
REMARK SMILES IDX 60 66 63 67 57 68 58 69 61 70 59 71 6 72 7 73 8 74 9 75
REMARK SMILES IDX 10 77 11 78 12 79 17 80 13 81 14 82 16 83 15 84 18 85 19 86
REMARK SMILES IDX 20 88 21 89 22 90 26 91 23 92 25 93 24 94
REMARK H PARENT 3 6 83 24 51 35 8 76 18 87
REMARK Flexibility Score: inf
ROOT
ATOM      1  C   UNL     1       4.814  -2.624  -0.071  1.00  0.00     0.023 C 
ENDROOT
BRANCH   1   2
ATOM      2  C   UNL     1       4.541  -1.225  -0.610  1.00  0.00     0.116 C 
BRANCH   2   3
ATOM      3  N   UNL     1       3.122  -0.926  -0.738  1.00  0.00    -0.352 N 
ATOM      4  O   UNL     1       1.153   0.076  -0.285  1.00  0.00    -0.269 OA
ATOM      5  C   UNL     1       2.369   0.066  -0.150  1.00  0.00     0.251 C 
ATOM      6  H   UNL     1       2.623  -1.526  -1.338  1.00  0.00     0.163 HD
BRANCH   5   7
ATOM      7  C   UNL     1       3.026   1.100   0.681  1.00  0.00     0.039 A 
ATOM      8  C   UNL     1       4.205   1.716   0.260  1.00  0.00     0.014 A 
ATOM      9  C   UNL     1       2.461   1.443   1.913  1.00  0.00     0.014 A 
ATOM     10  C   UNL     1       4.914   2.521   1.143  1.00  0.00     0.010 A 
ATOM     11  C   UNL     1       3.129   2.330   2.764  1.00  0.00     0.010 A 
ATOM     12  C   UNL     1       4.389   2.833   2.409  1.00  0.00    -0.014 A 
BRANCH  12  13
ATOM     13  C   UNL     1       5.184   3.686   3.331  1.00  0.00     0.031 A 
ATOM     14  C   UNL     1       5.715   3.140   4.629  1.00  0.00     0.074 A 
ATOM     15  C   UNL     1       5.487   4.944   2.958  1.00  0.00     0.049 A 
ATOM     16  N   UNL     1       6.477   3.727   5.520  1.00  0.00    -0.248 NA
ATOM     17  C   UNL     1       5.341   1.762   4.980  1.00  0.00     0.031 C 
ATOM     18  C   UNL     1       5.027   5.587   1.727  1.00  0.00     0.029 A 
ATOM     19  N   UNL     1       6.278   5.893   3.554  1.00  0.00    -0.354 N 
ATOM     20  C   UNL     1       6.657   2.800   6.539  1.00  0.00     0.074 A 
ATOM     21  C   UNL     1       5.903   1.620   6.173  1.00  0.00     0.031 C 
ATOM     22  C   UNL     1       5.594   6.797   1.625  1.00  0.00     0.029 A 
ATOM     23  C   UNL     1       6.413   7.038   2.809  1.00  0.00     0.049 A 
ATOM     24  H   UNL     1       6.707   5.765   4.431  1.00  0.00     0.167 HD
ATOM     25  C   UNL     1       7.394   2.919   7.669  1.00  0.00     0.037 A 
ATOM     26  C   UNL     1       7.119   8.159   3.048  1.00  0.00     0.037 A 
ATOM     27  C   UNL     1       8.165   4.084   8.021  1.00  0.00     0.049 A 
ATOM     28  C   UNL     1       7.931   8.264   4.305  1.00  0.00     0.074 A 
ATOM     29  C   UNL     1       8.951   4.293   9.141  1.00  0.00     0.029 A 
ATOM     30  N   UNL     1       8.253   5.235   7.251  1.00  0.00    -0.354 N 
ATOM     31  N   UNL     1       8.093   7.379   5.257  1.00  0.00    -0.248 NA
ATOM     32  C   UNL     1       8.658   9.522   4.522  1.00  0.00     0.031 C 
ATOM     33  C   UNL     1       9.487   5.582   9.067  1.00  0.00     0.029 A 
ATOM     34  C   UNL     1       9.073   6.160   7.878  1.00  0.00     0.049 A 
ATOM     35  H   UNL     1       7.800   5.374   6.388  1.00  0.00     0.167 HD
ATOM     36  C   UNL     1       8.946   7.964   6.181  1.00  0.00     0.074 A 
ATOM     37  C   UNL     1       9.284   9.275   5.665  1.00  0.00     0.031 C 
ATOM     38  C   UNL     1       9.403   7.460   7.352  1.00  0.00     0.037 A 
BRANCH  25  39
ATOM     39  C   UNL     1       7.404   1.760   8.623  1.00  0.00     0.064 A 
ATOM     40  C   UNL     1       6.758   1.855   9.865  1.00  0.00     0.173 A 
ATOM     41  C   UNL     1       8.106   0.580   8.337  1.00  0.00     0.173 A 
ATOM     42  F   UNL     1       6.079   2.965  10.191  1.00  0.00    -0.203 F 
ATOM     43  C   UNL     1       6.824   0.815  10.790  1.00  0.00     0.198 A 
ATOM     44  C   UNL     1       8.148  -0.469   9.254  1.00  0.00     0.198 A 
ATOM     45  F   UNL     1       8.731   0.434   7.159  1.00  0.00    -0.203 F 
ATOM     46  F   UNL     1       6.221   0.940  11.980  1.00  0.00    -0.200 F 
ATOM     47  C   UNL     1       7.515  -0.347  10.482  1.00  0.00     0.200 A 
ATOM     48  F   UNL     1       8.798  -1.600   8.946  1.00  0.00    -0.200 F 
ATOM     49  F   UNL     1       7.567  -1.351  11.367  1.00  0.00    -0.200 F 
ENDBRANCH  25  39
BRANCH  26  50
ATOM     50  C   UNL     1       7.099   9.254   2.046  1.00  0.00     0.064 A 
ATOM     51  C   UNL     1       5.942  10.016   1.825  1.00  0.00     0.173 A 
ATOM     52  C   UNL     1       8.220   9.520   1.250  1.00  0.00     0.173 A 
ATOM     53  F   UNL     1       4.841   9.792   2.558  1.00  0.00    -0.203 F 
ATOM     54  C   UNL     1       5.900  10.984   0.825  1.00  0.00     0.198 A 
ATOM     55  C   UNL     1       8.185  10.507   0.267  1.00  0.00     0.198 A 
ATOM     56  F   UNL     1       9.354   8.828   1.437  1.00  0.00    -0.203 F 
ATOM     57  F   UNL     1       4.769  11.668   0.605  1.00  0.00    -0.200 F 
ATOM     58  C   UNL     1       7.022  11.231   0.049  1.00  0.00     0.200 A 
ATOM     59  F   UNL     1       9.277  10.756  -0.469  1.00  0.00    -0.200 F 
ATOM     60  F   UNL     1       6.982  12.165  -0.911  1.00  0.00    -0.200 F 
ENDBRANCH  26  50
BRANCH  38  61
ATOM     61  C   UNL     1      10.337   8.316   8.154  1.00  0.00     0.064 A 
ATOM     62  C   UNL     1      11.697   7.985   8.251  1.00  0.00     0.173 A 
ATOM     63  C   UNL     1       9.875   9.427   8.874  1.00  0.00     0.173 A 
ATOM     64  F   UNL     1      12.185   6.928   7.586  1.00  0.00    -0.203 F 
ATOM     65  C   UNL     1      12.559   8.732   9.048  1.00  0.00     0.198 A 
ATOM     66  C   UNL     1      10.745  10.186   9.652  1.00  0.00     0.198 A 
ATOM     67  F   UNL     1       8.585   9.789   8.802  1.00  0.00    -0.203 F 
ATOM     68  F   UNL     1      13.850   8.384   9.146  1.00  0.00    -0.200 F 
ATOM     69  C   UNL     1      12.084   9.834   9.744  1.00  0.00     0.200 A 
ATOM     70  F   UNL     1      10.290  11.263  10.306  1.00  0.00    -0.200 F 
ATOM     71  F   UNL     1      12.918  10.560  10.501  1.00  0.00    -0.200 F 
ENDBRANCH  38  61
ENDBRANCH  12  13
ENDBRANCH   5   7
ENDBRANCH   2   3
ENDBRANCH   1   2
BRANCH   1  72
ATOM     72  C   UNL     1       4.323  -3.772  -0.951  1.00  0.00     0.023 C 
BRANCH  72  73
ATOM     73  C   UNL     1       4.790  -3.730  -2.403  1.00  0.00     0.116 C 
BRANCH  73  74
ATOM     74  N   UNL     1       6.236  -3.790  -2.529  1.00  0.00    -0.352 N 
ATOM     75  C   UNL     1       6.984  -4.498  -3.436  1.00  0.00     0.256 C 
ATOM     76  H   UNL     1       6.746  -3.252  -1.881  1.00  0.00     0.163 HD
ATOM     77  O   UNL     1       8.208  -4.533  -3.337  1.00  0.00    -0.269 OA
BRANCH  75  78
ATOM     78  C   UNL     1       6.327  -5.298  -4.484  1.00  0.00     0.099 A 
ATOM     79  C   UNL     1       5.452  -4.656  -5.367  1.00  0.00     0.138 A 
ATOM     80  C   UNL     1       6.563  -6.688  -4.579  1.00  0.00     0.057 A 
ATOM     81  F   UNL     1       5.248  -3.332  -5.295  1.00  0.00    -0.206 F 
ATOM     82  C   UNL     1       4.748  -5.376  -6.321  1.00  0.00     0.040 A 
ATOM     83  C   UNL     1       5.872  -7.385  -5.577  1.00  0.00     0.027 A 
ATOM     84  C   UNL     1       4.957  -6.744  -6.424  1.00  0.00     0.005 A 
BRANCH  80  85
ATOM     85  N   UNL     1       7.481  -7.284  -3.676  1.00  0.00    -0.325 N 
ATOM     86  C   UNL     1       7.759  -8.557  -3.263  1.00  0.00     0.227 C 
ATOM     87  H   UNL     1       8.059  -6.617  -3.240  1.00  0.00     0.169 HD
ATOM     88  O   UNL     1       8.708  -8.707  -2.487  1.00  0.00    -0.274 OA
BRANCH  86  89
ATOM     89  C   UNL     1       6.913  -9.748  -3.691  1.00  0.00     0.079 C 
ATOM     90  C   UNL     1       7.508 -11.096  -3.252  1.00  0.00     0.013 C 
ATOM     91  C   UNL     1       5.484  -9.650  -3.143  1.00  0.00     0.013 C 
ATOM     92  C   UNL     1       6.674 -12.250  -3.814  1.00  0.00     0.001 C 
ATOM     93  C   UNL     1       4.617 -10.758  -3.733  1.00  0.00     0.001 C 
ATOM     94  C   UNL     1       5.197 -12.138  -3.436  1.00  0.00     0.000 C 
ENDBRANCH  86  89
ENDBRANCH  80  85
ENDBRANCH  75  78
ENDBRANCH  73  74
ENDBRANCH  72  73
ENDBRANCH   1  72
TORSDOF 13
