REMARK SMILES CCOc1ccc2[nH]c(C)c/c(=N\c3cccc(C(=O)NCCCCNC(=O)c4ccc(-c5c6nc(c(-c7c(F)c(F)c(F)c(F)c7F)c7ccc([nH]7)c(-c7c(F)c(F)c(F)c(F)c7F)c7nc(c(-c8c(F)c(F)c(F)c(F)c8F)c8ccc5[nH]8)C=C7)C=C6)cc4)c3)c2c1
REMARK SMILES IDX 23 1 22 2 21 3 19 4 20 5 18 7 14 8 15 9 92 10 16 11 17 12
REMARK SMILES IDX 13 13 4 14 5 15 94 16 6 17 93 18 7 19 12 20 8 21 11 22 9 23
REMARK SMILES IDX 10 25 3 26 2 27 1 28 24 29 25 30 26 31 27 32 28 34 29 35
REMARK SMILES IDX 30 36 91 37 31 38 90 39 32 40 33 41 34 42 84 43 35 44 89 45
REMARK SMILES IDX 83 46 85 47 36 48 88 49 82 50 81 51 37 53 69 54 49 55 68 56
REMARK SMILES IDX 50 57 53 58 67 59 86 60 51 61 52 62 66 64 87 65 54 66 38 67
REMARK SMILES IDX 39 68 47 69 40 70 41 71 45 72 48 73 42 74 43 75 46 76 44 77
REMARK SMILES IDX 70 78 71 79 79 80 72 81 73 82 77 83 80 84 74 85 75 86 78 87
REMARK SMILES IDX 76 88 55 89 56 90 64 91 57 92 58 93 62 94 65 95 59 96 60 97
REMARK SMILES IDX 63 98 61 99
REMARK H PARENT 21 6 8 24 26 33 85 52 53 63
REMARK Flexibility Score: inf
ROOT
ATOM      1  C   UNL     1       5.014  -4.854   6.338  1.00  0.00     0.023 C 
ENDROOT
BRANCH   1   2
ATOM      2  C   UNL     1       4.449  -3.781   7.260  1.00  0.00     0.116 C 
BRANCH   2   3
ATOM      3  N   UNL     1       4.859  -3.875   8.651  1.00  0.00    -0.352 N 
ATOM      4  C   UNL     1       5.086  -2.893   9.593  1.00  0.00     0.251 C 
ATOM      5  O   UNL     1       5.399  -3.244  10.731  1.00  0.00    -0.269 OA
ATOM      6  H   UNL     1       4.999  -4.794   8.975  1.00  0.00     0.163 HD
BRANCH   4   7
ATOM      7  C   UNL     1       5.038  -1.440   9.268  1.00  0.00     0.041 A 
ATOM      8  C   UNL     1       4.434   0.381   7.791  1.00  0.00     0.064 A 
ATOM      9  C   UNL     1       5.236   1.255   8.528  1.00  0.00     0.028 A 
ATOM     10  C   UNL     1       4.238  -0.918   8.255  1.00  0.00     0.042 A 
ATOM     11  C   UNL     1       5.952   0.782   9.630  1.00  0.00     0.003 A 
ATOM     12  C   UNL     1       5.880  -0.571   9.976  1.00  0.00     0.014 A 
BRANCH   8  13
ATOM     13  N   UNL     1       3.903   0.697   6.529  1.00  0.00    -0.248 NA
ATOM     14  C   UNL     1       2.278   0.930   2.585  1.00  0.00     0.120 A 
ATOM     15  C   UNL     1       3.122   1.329   1.551  1.00  0.00     0.048 A 
ATOM     16  C   UNL     1       2.766   0.791   3.885  1.00  0.00     0.059 A 
ATOM     17  C   UNL     1       4.482   1.513   1.792  1.00  0.00     0.030 A 
ATOM     18  C   UNL     1       4.132   0.990   4.131  1.00  0.00     0.027 A 
ATOM     19  C   UNL     1       5.001   1.329   3.076  1.00  0.00     0.048 A 
ATOM     20  C   UNL     1       4.708   0.806   5.505  1.00  0.00     0.075 A 
ATOM     21  N   UNL     1       6.377   1.445   3.295  1.00  0.00    -0.359 N 
ATOM     22  C   UNL     1       6.213   0.751   5.561  1.00  0.00     0.050 A 
ATOM     23  C   UNL     1       6.948   1.111   4.497  1.00  0.00     0.014 A 
ATOM     24  H   UNL     1       6.952   1.775   2.567  1.00  0.00     0.166 HD
ATOM     25  C   UNL     1       8.448   1.175   4.579  1.00  0.00     0.064 C 
BRANCH  14  26
ATOM     26  O   UNL     1       0.938   0.772   2.360  1.00  0.00    -0.494 OA
BRANCH  26  27
ATOM     27  C   UNL     1       0.630  -0.433   1.643  1.00  0.00     0.226 C 
ATOM     28  C   UNL     1       0.538  -0.192   0.143  1.00  0.00     0.049 C 
ENDBRANCH  26  27
ENDBRANCH  14  26
ENDBRANCH   8  13
ENDBRANCH   4   7
ENDBRANCH   2   3
ENDBRANCH   1   2
BRANCH   1  29
ATOM     29  C   UNL     1       4.777  -6.303   6.741  1.00  0.00     0.023 C 
BRANCH  29  30
ATOM     30  C   UNL     1       3.353  -6.663   7.141  1.00  0.00     0.116 C 
BRANCH  30  31
ATOM     31  N   UNL     1       2.374  -6.481   6.078  1.00  0.00    -0.352 N 
ATOM     32  C   UNL     1       1.589  -7.395   5.407  1.00  0.00     0.251 C 
ATOM     33  H   UNL     1       2.251  -5.548   5.790  1.00  0.00     0.163 HD
ATOM     34  O   UNL     1       0.882  -7.029   4.479  1.00  0.00    -0.269 OA
BRANCH  32  35
ATOM     35  C   UNL     1       1.641  -8.832   5.766  1.00  0.00     0.039 A 
ATOM     36  C   UNL     1       1.646  -9.244   7.097  1.00  0.00     0.014 A 
ATOM     37  C   UNL     1       1.717  -9.784   4.744  1.00  0.00     0.014 A 
ATOM     38  C   UNL     1       1.962 -10.561   7.407  1.00  0.00     0.010 A 
ATOM     39  C   UNL     1       1.924 -11.131   5.059  1.00  0.00     0.010 A 
ATOM     40  C   UNL     1       2.120 -11.520   6.392  1.00  0.00    -0.014 A 
BRANCH  40  41
ATOM     41  C   UNL     1       2.513 -12.907   6.760  1.00  0.00     0.031 A 
ATOM     42  C   UNL     1       3.833 -13.481   6.314  1.00  0.00     0.074 A 
ATOM     43  C   UNL     1       1.713 -13.622   7.575  1.00  0.00     0.049 A 
ATOM     44  N   UNL     1       4.362 -14.648   6.594  1.00  0.00    -0.248 NA
ATOM     45  C   UNL     1       4.669 -12.645   5.439  1.00  0.00     0.031 C 
ATOM     46  C   UNL     1       0.416 -13.172   8.082  1.00  0.00     0.029 A 
ATOM     47  N   UNL     1       1.886 -14.854   8.154  1.00  0.00    -0.354 N 
ATOM     48  C   UNL     1       5.574 -14.690   5.917  1.00  0.00     0.074 A 
ATOM     49  C   UNL     1       5.696 -13.447   5.189  1.00  0.00     0.031 C 
ATOM     50  C   UNL     1      -0.053 -14.076   8.954  1.00  0.00     0.029 A 
ATOM     51  C   UNL     1       0.876 -15.200   9.018  1.00  0.00     0.049 A 
ATOM     52  H   UNL     1       2.660 -15.434   7.968  1.00  0.00     0.167 HD
ATOM     53  C   UNL     1       6.508 -15.672   5.916  1.00  0.00     0.037 A 
ATOM     54  C   UNL     1       0.711 -16.299   9.778  1.00  0.00     0.037 A 
ATOM     55  C   UNL     1       6.405 -16.894   6.670  1.00  0.00     0.049 A 
ATOM     56  C   UNL     1       1.750 -17.382   9.738  1.00  0.00     0.074 A 
ATOM     57  C   UNL     1       7.311 -17.938   6.746  1.00  0.00     0.029 A 
ATOM     58  N   UNL     1       5.335 -17.232   7.484  1.00  0.00    -0.354 N 
ATOM     59  N   UNL     1       2.889 -17.408   9.091  1.00  0.00    -0.248 NA
ATOM     60  C   UNL     1       1.476 -18.594  10.523  1.00  0.00     0.031 C 
ATOM     61  C   UNL     1       6.773 -18.924   7.578  1.00  0.00     0.029 A 
ATOM     62  C   UNL     1       5.551 -18.477   8.053  1.00  0.00     0.049 A 
ATOM     63  H   UNL     1       4.540 -16.671   7.636  1.00  0.00     0.167 HD
ATOM     64  C   UNL     1       3.472 -18.629   9.395  1.00  0.00     0.074 A 
ATOM     65  C   UNL     1       2.570 -19.311  10.300  1.00  0.00     0.031 C 
ATOM     66  C   UNL     1       4.647 -19.139   8.956  1.00  0.00     0.037 A 
BRANCH  53  67
ATOM     67  C   UNL     1       7.735 -15.476   5.074  1.00  0.00     0.064 A 
ATOM     68  C   UNL     1       8.753 -14.591   5.455  1.00  0.00     0.173 A 
ATOM     69  C   UNL     1       7.930 -16.244   3.915  1.00  0.00     0.173 A 
ATOM     70  F   UNL     1       8.610 -13.827   6.548  1.00  0.00    -0.203 F 
ATOM     71  C   UNL     1       9.919 -14.474   4.701  1.00  0.00     0.198 A 
ATOM     72  C   UNL     1       9.107 -16.142   3.178  1.00  0.00     0.198 A 
ATOM     73  F   UNL     1       6.990 -17.111   3.512  1.00  0.00    -0.203 F 
ATOM     74  F   UNL     1      10.868 -13.602   5.069  1.00  0.00    -0.200 F 
ATOM     75  C   UNL     1      10.099 -15.255   3.569  1.00  0.00     0.200 A 
ATOM     76  F   UNL     1       9.285 -16.907   2.092  1.00  0.00    -0.200 F 
ATOM     77  F   UNL     1      11.228 -15.153   2.855  1.00  0.00    -0.200 F 
ENDBRANCH  53  67
BRANCH  54  78
ATOM     78  C   UNL     1      -0.485 -16.409  10.650  1.00  0.00     0.064 A 
ATOM     79  C   UNL     1      -0.368 -16.318  12.043  1.00  0.00     0.173 A 
ATOM     80  C   UNL     1      -1.770 -16.561  10.109  1.00  0.00     0.173 A 
ATOM     81  F   UNL     1       0.842 -16.192  12.607  1.00  0.00    -0.203 F 
ATOM     82  C   UNL     1      -1.494 -16.372  12.863  1.00  0.00     0.198 A 
ATOM     83  C   UNL     1      -2.896 -16.588  10.928  1.00  0.00     0.198 A 
ATOM     84  F   UNL     1      -1.933 -16.649   8.781  1.00  0.00    -0.203 F 
ATOM     85  F   UNL     1      -1.354 -16.305  14.194  1.00  0.00    -0.200 F 
ATOM     86  C   UNL     1      -2.757 -16.496  12.304  1.00  0.00     0.200 A 
ATOM     87  F   UNL     1      -4.116 -16.691  10.382  1.00  0.00    -0.200 F 
ATOM     88  F   UNL     1      -3.841 -16.529  13.092  1.00  0.00    -0.200 F 
ENDBRANCH  54  78
BRANCH  66  89
ATOM     89  C   UNL     1       5.042 -20.497   9.453  1.00  0.00     0.064 A 
ATOM     90  C   UNL     1       4.443 -21.659   8.947  1.00  0.00     0.173 A 
ATOM     91  C   UNL     1       6.085 -20.639  10.380  1.00  0.00     0.173 A 
ATOM     92  F   UNL     1       3.433 -21.571   8.069  1.00  0.00    -0.203 F 
ATOM     93  C   UNL     1       4.872 -22.918   9.358  1.00  0.00     0.198 A 
ATOM     94  C   UNL     1       6.526 -21.900  10.770  1.00  0.00     0.198 A 
ATOM     95  F   UNL     1       6.693 -19.555  10.885  1.00  0.00    -0.203 F 
ATOM     96  F   UNL     1       4.272 -24.017   8.879  1.00  0.00    -0.200 F 
ATOM     97  C   UNL     1       5.918 -23.038  10.260  1.00  0.00     0.200 A 
ATOM     98  F   UNL     1       7.545 -22.014  11.633  1.00  0.00    -0.200 F 
ATOM     99  F   UNL     1       6.341 -24.251  10.640  1.00  0.00    -0.200 F 
ENDBRANCH  66  89
ENDBRANCH  40  41
ENDBRANCH  32  35
ENDBRANCH  30  31
ENDBRANCH  29  30
ENDBRANCH   1  29
TORSDOF 14
