REMARK SMILES O=C(NCCCCNC(=O)c1cccc(-c2cc(NCc3ccccn3)nc3[nH]ccc23)c1)c1ccc(-c2c3nc(c(-c4c(F)c(F)c(F)c(F)c4F)c4ccc([nH]4)c(-c4c(F)c(F)c(F)c(F)c4F)c4nc(c(-c5c(F)c(F)c(F)c(F)c5F)c5ccc2[nH]5)C=C4)C=C3)cc1
REMARK SMILES IDX 6 1 5 2 4 3 3 4 1 5 2 6 34 8 35 9 96 10 36 11 95 12 37 13
REMARK SMILES IDX 38 14 39 15 89 16 40 17 94 18 88 19 90 20 41 21 93 22 87 23
REMARK SMILES IDX 86 24 42 26 74 27 54 28 73 29 55 30 58 31 72 32 91 33 56 34
REMARK SMILES IDX 57 35 71 37 92 38 59 39 43 40 44 41 52 42 45 43 46 44 50 45
REMARK SMILES IDX 53 46 47 47 48 48 51 49 49 50 75 51 76 52 84 53 77 54 78 55
REMARK SMILES IDX 82 56 85 57 79 58 80 59 83 60 81 61 60 62 61 63 69 64 62 65
REMARK SMILES IDX 63 66 67 67 70 68 64 69 65 70 68 71 66 72 7 73 8 74 9 75
REMARK SMILES IDX 10 77 11 78 12 79 33 80 13 81 15 82 14 83 16 84 17 85 32 86
REMARK SMILES IDX 18 87 28 88 31 89 27 90 29 91 30 92 19 94 20 96 21 97 22 98
REMARK SMILES IDX 26 99 23 100 25 101 24 102
REMARK H PARENT 3 7 90 25 58 36 8 76 29 93 19 95
REMARK Flexibility Score: inf
ROOT
ATOM      1  C   UNL     1       4.473   0.381  -3.945  1.00  0.00     0.023 C 
ENDROOT
BRANCH   1   2
ATOM      2  C   UNL     1       4.955  -0.399  -2.725  1.00  0.00     0.023 C 
BRANCH   2   3
ATOM      3  C   UNL     1       4.652   0.244  -1.380  1.00  0.00     0.116 C 
BRANCH   3   4
ATOM      4  N   UNL     1       3.229   0.378  -1.108  1.00  0.00    -0.352 N 
ATOM      5  O   UNL     1       1.293   0.076   0.019  1.00  0.00    -0.269 OA
ATOM      6  C   UNL     1       2.517  -0.017   0.002  1.00  0.00     0.251 C 
ATOM      7  H   UNL     1       2.701   0.811  -1.817  1.00  0.00     0.163 HD
BRANCH   6   8
ATOM      8  C   UNL     1       3.230  -0.588   1.165  1.00  0.00     0.039 A 
ATOM      9  C   UNL     1       4.393   0.013   1.647  1.00  0.00     0.014 A 
ATOM     10  C   UNL     1       2.742  -1.753   1.765  1.00  0.00     0.014 A 
ATOM     11  C   UNL     1       5.157  -0.640   2.605  1.00  0.00     0.010 A 
ATOM     12  C   UNL     1       3.463  -2.358   2.800  1.00  0.00     0.010 A 
ATOM     13  C   UNL     1       4.698  -1.828   3.201  1.00  0.00    -0.014 A 
BRANCH  13  14
ATOM     14  C   UNL     1       5.519  -2.450   4.272  1.00  0.00     0.031 A 
ATOM     15  C   UNL     1       6.156  -3.799   4.093  1.00  0.00     0.074 A 
ATOM     16  C   UNL     1       5.743  -1.740   5.395  1.00  0.00     0.049 A 
ATOM     17  N   UNL     1       6.965  -4.441   4.900  1.00  0.00    -0.248 NA
ATOM     18  C   UNL     1       5.842  -4.531   2.857  1.00  0.00     0.031 C 
ATOM     19  C   UNL     1       5.157  -0.430   5.690  1.00  0.00     0.029 A 
ATOM     20  N   UNL     1       6.545  -1.996   6.477  1.00  0.00    -0.354 N 
ATOM     21  C   UNL     1       7.250  -5.649   4.277  1.00  0.00     0.074 A 
ATOM     22  C   UNL     1       6.502  -5.668   3.037  1.00  0.00     0.031 C 
ATOM     23  C   UNL     1       5.665   0.029   6.842  1.00  0.00     0.029 A 
ATOM     24  C   UNL     1       6.567  -0.974   7.394  1.00  0.00     0.049 A 
ATOM     25  H   UNL     1       7.055  -2.831   6.586  1.00  0.00     0.167 HD
ATOM     26  C   UNL     1       8.069  -6.644   4.698  1.00  0.00     0.037 A 
ATOM     27  C   UNL     1       7.236  -0.857   8.555  1.00  0.00     0.037 A 
ATOM     28  C   UNL     1       8.819  -6.616   5.928  1.00  0.00     0.049 A 
ATOM     29  C   UNL     1       8.147  -1.969   8.987  1.00  0.00     0.074 A 
ATOM     30  C   UNL     1       9.678  -7.574   6.439  1.00  0.00     0.029 A 
ATOM     31  N   UNL     1       8.805  -5.569   6.839  1.00  0.00    -0.354 N 
ATOM     32  N   UNL     1       8.417  -3.098   8.378  1.00  0.00    -0.248 NA
ATOM     33  C   UNL     1       8.845  -1.791  10.266  1.00  0.00     0.031 C 
ATOM     34  C   UNL     1      10.158  -7.122   7.673  1.00  0.00     0.029 A 
ATOM     35  C   UNL     1       9.631  -5.864   7.912  1.00  0.00     0.049 A 
ATOM     36  H   UNL     1       8.284  -4.740   6.738  1.00  0.00     0.167 HD
ATOM     37  C   UNL     1       9.315  -3.765   9.196  1.00  0.00     0.074 A 
ATOM     38  C   UNL     1       9.573  -2.897  10.328  1.00  0.00     0.031 C 
ATOM     39  C   UNL     1       9.868  -4.991   9.033  1.00  0.00     0.037 A 
BRANCH  26  40
ATOM     40  C   UNL     1       8.199  -7.857   3.823  1.00  0.00     0.064 A 
ATOM     41  C   UNL     1       8.925  -7.821   2.624  1.00  0.00     0.173 A 
ATOM     42  C   UNL     1       7.648  -9.085   4.220  1.00  0.00     0.173 A 
ATOM     43  F   UNL     1       9.463  -6.669   2.195  1.00  0.00    -0.203 F 
ATOM     44  C   UNL     1       9.082  -8.966   1.846  1.00  0.00     0.198 A 
ATOM     45  C   UNL     1       7.827 -10.233   3.451  1.00  0.00     0.198 A 
ATOM     46  F   UNL     1       6.950  -9.176   5.362  1.00  0.00    -0.203 F 
ATOM     47  F   UNL     1       9.753  -8.900   0.687  1.00  0.00    -0.200 F 
ATOM     48  C   UNL     1       8.540 -10.172   2.264  1.00  0.00     0.200 A 
ATOM     49  F   UNL     1       7.312 -11.401   3.863  1.00  0.00    -0.200 F 
ATOM     50  F   UNL     1       8.701 -11.275   1.520  1.00  0.00    -0.200 F 
ENDBRANCH  26  40
BRANCH  27  51
ATOM     51  C   UNL     1       7.062   0.362   9.383  1.00  0.00     0.064 A 
ATOM     52  C   UNL     1       8.102   1.288   9.540  1.00  0.00     0.173 A 
ATOM     53  C   UNL     1       5.842   0.634  10.021  1.00  0.00     0.173 A 
ATOM     54  F   UNL     1       9.292   1.062   8.964  1.00  0.00    -0.203 F 
ATOM     55  C   UNL     1       7.933   2.432  10.316  1.00  0.00     0.198 A 
ATOM     56  C   UNL     1       5.665   1.794  10.770  1.00  0.00     0.198 A 
ATOM     57  F   UNL     1       4.814  -0.217   9.894  1.00  0.00    -0.203 F 
ATOM     58  F   UNL     1       8.956   3.282  10.484  1.00  0.00    -0.200 F 
ATOM     59  C   UNL     1       6.713   2.688  10.924  1.00  0.00     0.200 A 
ATOM     60  F   UNL     1       4.478   2.046  11.339  1.00  0.00    -0.200 F 
ATOM     61  F   UNL     1       6.548   3.794  11.662  1.00  0.00    -0.200 F 
ENDBRANCH  27  51
BRANCH  39  62
ATOM     62  C   UNL     1      10.807  -5.456  10.106  1.00  0.00     0.064 A 
ATOM     63  C   UNL     1      10.336  -5.846  11.368  1.00  0.00     0.173 A 
ATOM     64  C   UNL     1      12.187  -5.517   9.868  1.00  0.00     0.173 A 
ATOM     65  F   UNL     1       9.025  -5.787  11.648  1.00  0.00    -0.203 F 
ATOM     66  C   UNL     1      11.218  -6.250  12.366  1.00  0.00     0.198 A 
ATOM     67  C   UNL     1      13.064  -5.947  10.860  1.00  0.00     0.198 A 
ATOM     68  F   UNL     1      12.685  -5.159   8.676  1.00  0.00    -0.203 F 
ATOM     69  F   UNL     1      10.752  -6.566  13.582  1.00  0.00    -0.200 F 
ATOM     70  C   UNL     1      12.580  -6.304  12.110  1.00  0.00     0.200 A 
ATOM     71  F   UNL     1      14.379  -6.006  10.610  1.00  0.00    -0.200 F 
ATOM     72  F   UNL     1      13.429  -6.689  13.073  1.00  0.00    -0.200 F 
ENDBRANCH  39  62
ENDBRANCH  13  14
ENDBRANCH   6   8
ENDBRANCH   3   4
ENDBRANCH   2   3
ENDBRANCH   1   2
BRANCH   1  73
ATOM     73  C   UNL     1       4.903   1.844  -3.993  1.00  0.00     0.116 C 
BRANCH  73  74
ATOM     74  N   UNL     1       6.349   2.007  -3.980  1.00  0.00    -0.352 N 
ATOM     75  C   UNL     1       7.168   2.578  -4.924  1.00  0.00     0.251 C 
ATOM     76  H   UNL     1       6.806   1.658  -3.180  1.00  0.00     0.163 HD
ATOM     77  O   UNL     1       8.387   2.503  -4.817  1.00  0.00    -0.269 OA
BRANCH  75  78
ATOM     78  C   UNL     1       6.569   3.269  -6.082  1.00  0.00     0.040 A 
ATOM     79  C   UNL     1       6.953   2.898  -7.370  1.00  0.00     0.014 A 
ATOM     80  C   UNL     1       5.607   4.265  -5.886  1.00  0.00     0.022 A 
ATOM     81  C   UNL     1       6.321   3.483  -8.465  1.00  0.00     0.001 A 
ATOM     82  C   UNL     1       4.927   4.825  -6.975  1.00  0.00    -0.017 A 
ATOM     83  C   UNL     1       5.306   4.427  -8.267  1.00  0.00     0.009 A 
BRANCH  82  84
ATOM     84  C   UNL     1       3.820   5.752  -6.737  1.00  0.00    -0.004 A 
ATOM     85  C   UNL     1       3.971   6.937  -5.996  1.00  0.00     0.056 A 
ATOM     86  C   UNL     1       2.517   5.447  -7.177  1.00  0.00     0.027 A 
ATOM     87  C   UNL     1       2.875   7.749  -5.695  1.00  0.00     0.129 A 
ATOM     88  C   UNL     1       1.512   6.343  -6.835  1.00  0.00     0.140 A 
ATOM     89  C   UNL     1       1.884   4.393  -7.901  1.00  0.00     0.030 A 
ATOM     90  N   UNL     1       1.628   7.470  -6.116  1.00  0.00    -0.213 NA
ATOM     91  N   UNL     1       0.334   5.884  -7.355  1.00  0.00    -0.346 N 
ATOM     92  C   UNL     1       0.542   4.694  -8.003  1.00  0.00     0.085 A 
ATOM     93  H   UNL     1      -0.535   6.340  -7.277  1.00  0.00     0.167 HD
BRANCH  87  94
ATOM     94  N   UNL     1       3.102   8.909  -4.975  1.00  0.00    -0.364 N 
ATOM     95  H   UNL     1       4.020   9.135  -4.701  1.00  0.00     0.162 HD
BRANCH  94  96
ATOM     96  C   UNL     1       2.009   9.800  -4.616  1.00  0.00     0.170 C 
BRANCH  96  97
ATOM     97  C   UNL     1       1.830   9.872  -3.110  1.00  0.00     0.059 A 
ATOM     98  C   UNL     1       1.543   8.721  -2.375  1.00  0.00     0.026 A 
ATOM     99  N   UNL     1       1.951  11.091  -2.522  1.00  0.00    -0.259 NA
ATOM    100  C   UNL     1       1.379   8.822  -0.996  1.00  0.00     0.004 A 
ATOM    101  C   UNL     1       1.774  11.161  -1.185  1.00  0.00     0.111 A 
ATOM    102  C   UNL     1       1.492  10.065  -0.387  1.00  0.00     0.020 A 
ENDBRANCH  96  97
ENDBRANCH  94  96
ENDBRANCH  87  94
ENDBRANCH  82  84
ENDBRANCH  75  78
ENDBRANCH  73  74
ENDBRANCH   1  73
TORSDOF 15
