REMARK SMILES CC(=O)N[C@@H](C)C(=O)Nc1ccc(C)cc1C(=O)NCCCCNC(=O)c1ccc(-c2c3nc(c(-c4c(F)c(F)c(F)c(F)c4F)c4ccc([nH]4)c(-c4c(F)c(F)c(F)c(F)c4F)c4nc(c(-c5c(F)c(F)c(F)c(F)c5F)c5ccc2[nH]5)C=C4)C=C3)cc1
REMARK SMILES IDX 21 1 20 2 19 3 17 4 18 5 16 7 10 8 11 9 12 10 15 11 13 12
REMARK SMILES IDX 14 13 9 14 7 15 8 16 5 18 6 19 4 20 1 21 2 22 3 23 22 25
REMARK SMILES IDX 23 26 24 27 25 28 26 30 27 31 28 32 89 33 29 34 88 35 30 36
REMARK SMILES IDX 31 37 32 38 82 39 33 40 87 41 81 42 83 43 34 44 86 45 80 46
REMARK SMILES IDX 79 47 35 49 67 50 47 51 66 52 48 53 51 54 65 55 84 56 49 57
REMARK SMILES IDX 50 58 64 60 85 61 52 62 36 63 37 64 45 65 38 66 39 67 43 68
REMARK SMILES IDX 46 69 40 70 41 71 44 72 42 73 68 74 69 75 77 76 70 77 71 78
REMARK SMILES IDX 75 79 78 80 72 81 73 82 76 83 74 84 53 85 54 86 62 87 55 88
REMARK SMILES IDX 56 89 60 90 63 91 57 92 58 93 61 94 59 95
REMARK H PARENT 19 6 9 17 4 24 24 29 83 48 51 59
REMARK Flexibility Score: inf
ROOT
ATOM      1  C   UNL     1       2.526   1.996   6.107  1.00  0.00     0.023 C 
ENDROOT
BRANCH   1   2
ATOM      2  C   UNL     1       1.411   2.885   5.569  1.00  0.00     0.116 C 
BRANCH   2   3
ATOM      3  N   UNL     1       1.465   4.293   5.859  1.00  0.00    -0.352 N 
ATOM      4  C   UNL     1       1.259   5.405   5.068  1.00  0.00     0.253 C 
ATOM      5  O   UNL     1       1.329   6.487   5.661  1.00  0.00    -0.269 OA
ATOM      6  H   UNL     1       1.691   4.502   6.795  1.00  0.00     0.163 HD
BRANCH   4   7
ATOM      7  C   UNL     1       1.010   5.446   3.579  1.00  0.00     0.063 A 
ATOM      8  C   UNL     1       0.327   4.541   2.744  1.00  0.00     0.054 A 
ATOM      9  C   UNL     1       0.074   4.866   1.398  1.00  0.00     0.027 A 
ATOM     10  C   UNL     1       0.604   6.009   0.813  1.00  0.00     0.005 A 
ATOM     11  C   UNL     1       1.546   6.600   2.949  1.00  0.00     0.019 A 
ATOM     12  C   UNL     1       1.385   6.867   1.577  1.00  0.00    -0.050 A 
ATOM     13  C   UNL     1       2.009   8.081   0.953  1.00  0.00     0.044 C 
BRANCH   8  14
ATOM     14  N   UNL     1      -0.194   3.314   3.155  1.00  0.00    -0.324 N 
ATOM     15  C   UNL     1       0.217   2.063   2.743  1.00  0.00     0.246 C 
ATOM     16  O   UNL     1      -0.371   1.090   3.229  1.00  0.00    -0.272 OA
ATOM     17  H   UNL     1      -0.932   3.343   3.806  1.00  0.00     0.170 HD
BRANCH  15  18
ATOM     18  C   UNL     1       1.451   1.834   1.803  1.00  0.00     0.168 C 
ATOM     19  C   UNL     1       2.766   2.502   2.202  1.00  0.00     0.041 C 
BRANCH  18  20
ATOM     20  N   UNL     1       1.143   2.119   0.412  1.00  0.00    -0.345 N 
ATOM     21  C   UNL     1       0.709  -0.218  -0.220  1.00  0.00     0.114 C 
ATOM     22  C   UNL     1       0.693   1.251  -0.535  1.00  0.00     0.217 C 
ATOM     23  O   UNL     1       0.327   1.690  -1.622  1.00  0.00    -0.275 OA
ATOM     24  H   UNL     1       1.277   3.050   0.119  1.00  0.00     0.164 HD
ENDBRANCH  18  20
ENDBRANCH  15  18
ENDBRANCH   8  14
ENDBRANCH   4   7
ENDBRANCH   2   3
ENDBRANCH   1   2
BRANCH   1  25
ATOM     25  C   UNL     1       2.596   1.784   7.607  1.00  0.00     0.023 C 
BRANCH  25  26
ATOM     26  C   UNL     1       1.351   1.199   8.248  1.00  0.00     0.116 C 
BRANCH  26  27
ATOM     27  N   UNL     1       1.099  -0.210   8.012  1.00  0.00    -0.352 N 
ATOM     28  C   UNL     1       0.120  -1.043   8.543  1.00  0.00     0.251 C 
ATOM     29  H   UNL     1       1.716  -0.643   7.379  1.00  0.00     0.163 HD
ATOM     30  O   UNL     1       0.182  -2.239   8.316  1.00  0.00    -0.269 OA
BRANCH  28  31
ATOM     31  C   UNL     1      -1.073  -0.493   9.260  1.00  0.00     0.039 A 
ATOM     32  C   UNL     1      -2.260  -1.248   9.260  1.00  0.00     0.014 A 
ATOM     33  C   UNL     1      -1.110   0.799   9.766  1.00  0.00     0.014 A 
ATOM     34  C   UNL     1      -3.485  -0.632   9.534  1.00  0.00     0.010 A 
ATOM     35  C   UNL     1      -2.312   1.445   9.903  1.00  0.00     0.010 A 
ATOM     36  C   UNL     1      -3.501   0.742   9.739  1.00  0.00    -0.014 A 
BRANCH  36  37
ATOM     37  C   UNL     1      -4.677   1.591   9.698  1.00  0.00     0.031 A 
ATOM     38  C   UNL     1      -5.182   2.225  10.930  1.00  0.00     0.074 A 
ATOM     39  C   UNL     1      -5.089   2.011   8.481  1.00  0.00     0.049 A 
ATOM     40  N   UNL     1      -6.359   2.736  11.047  1.00  0.00    -0.248 NA
ATOM     41  C   UNL     1      -4.383   2.339  12.146  1.00  0.00     0.031 C 
ATOM     42  C   UNL     1      -5.942   3.152   8.168  1.00  0.00     0.029 A 
ATOM     43  N   UNL     1      -4.915   1.359   7.250  1.00  0.00    -0.354 N 
ATOM     44  C   UNL     1      -6.373   3.485  12.202  1.00  0.00     0.074 A 
ATOM     45  C   UNL     1      -5.141   3.159  12.881  1.00  0.00     0.031 C 
ATOM     46  C   UNL     1      -6.462   2.979   6.942  1.00  0.00     0.029 A 
ATOM     47  C   UNL     1      -6.079   1.647   6.504  1.00  0.00     0.049 A 
ATOM     48  H   UNL     1      -4.144   0.815   6.966  1.00  0.00     0.167 HD
ATOM     49  C   UNL     1      -7.359   4.410  12.380  1.00  0.00     0.037 A 
ATOM     50  C   UNL     1      -6.963   0.652   6.196  1.00  0.00     0.037 A 
ATOM     51  C   UNL     1      -8.290   4.400  11.253  1.00  0.00     0.049 A 
ATOM     52  C   UNL     1      -8.331   0.860   6.799  1.00  0.00     0.074 A 
ATOM     53  C   UNL     1      -8.388   5.196  10.123  1.00  0.00     0.029 A 
ATOM     54  N   UNL     1      -9.058   3.266  11.003  1.00  0.00    -0.354 N 
ATOM     55  N   UNL     1      -8.562   1.593   7.853  1.00  0.00    -0.248 NA
ATOM     56  C   UNL     1      -9.543   0.254   6.259  1.00  0.00     0.031 C 
ATOM     57  C   UNL     1      -9.181   4.513   9.170  1.00  0.00     0.029 A 
ATOM     58  C   UNL     1      -9.580   3.308   9.724  1.00  0.00     0.049 A 
ATOM     59  H   UNL     1      -9.209   2.537  11.647  1.00  0.00     0.167 HD
ATOM     60  C   UNL     1      -9.902   1.565   8.143  1.00  0.00     0.074 A 
ATOM     61  C   UNL     1     -10.474   0.723   7.108  1.00  0.00     0.031 C 
ATOM     62  C   UNL     1     -10.425   2.240   9.210  1.00  0.00     0.037 A 
BRANCH  49  63
ATOM     63  C   UNL     1      -7.289   5.516  13.410  1.00  0.00     0.064 A 
ATOM     64  C   UNL     1      -7.833   6.792  13.149  1.00  0.00     0.173 A 
ATOM     65  C   UNL     1      -6.654   5.391  14.659  1.00  0.00     0.173 A 
ATOM     66  F   UNL     1      -8.559   7.035  12.051  1.00  0.00    -0.203 F 
ATOM     67  C   UNL     1      -7.649   7.879  14.008  1.00  0.00     0.198 A 
ATOM     68  C   UNL     1      -6.422   6.490  15.495  1.00  0.00     0.198 A 
ATOM     69  F   UNL     1      -6.279   4.194  15.129  1.00  0.00    -0.203 F 
ATOM     70  F   UNL     1      -8.182   9.069  13.698  1.00  0.00    -0.200 F 
ATOM     71  C   UNL     1      -6.910   7.737  15.163  1.00  0.00     0.200 A 
ATOM     72  F   UNL     1      -5.719   6.329  16.626  1.00  0.00    -0.200 F 
ATOM     73  F   UNL     1      -6.691   8.790  15.963  1.00  0.00    -0.200 F 
ENDBRANCH  49  63
BRANCH  50  74
ATOM     74  C   UNL     1      -6.299  -0.667   6.006  1.00  0.00     0.064 A 
ATOM     75  C   UNL     1      -5.397  -0.807   4.932  1.00  0.00     0.173 A 
ATOM     76  C   UNL     1      -6.213  -1.602   7.046  1.00  0.00     0.173 A 
ATOM     77  F   UNL     1      -5.438   0.064   3.910  1.00  0.00    -0.203 F 
ATOM     78  C   UNL     1      -4.378  -1.757   4.957  1.00  0.00     0.198 A 
ATOM     79  C   UNL     1      -5.197  -2.562   7.060  1.00  0.00     0.198 A 
ATOM     80  F   UNL     1      -7.029  -1.515   8.106  1.00  0.00    -0.203 F 
ATOM     81  F   UNL     1      -3.471  -1.791   3.971  1.00  0.00    -0.200 F 
ATOM     82  C   UNL     1      -4.261  -2.614   6.038  1.00  0.00     0.200 A 
ATOM     83  F   UNL     1      -5.067  -3.378   8.117  1.00  0.00    -0.200 F 
ATOM     84  F   UNL     1      -3.227  -3.464   6.113  1.00  0.00    -0.200 F 
ENDBRANCH  50  74
BRANCH  62  85
ATOM     85  C   UNL     1     -11.810   2.062   9.793  1.00  0.00     0.064 A 
ATOM     86  C   UNL     1     -12.586   0.901   9.640  1.00  0.00     0.173 A 
ATOM     87  C   UNL     1     -12.354   3.035  10.670  1.00  0.00     0.173 A 
ATOM     88  F   UNL     1     -12.136  -0.157   8.954  1.00  0.00    -0.203 F 
ATOM     89  C   UNL     1     -13.839   0.758  10.245  1.00  0.00     0.198 A 
ATOM     90  C   UNL     1     -13.572   2.861  11.325  1.00  0.00     0.198 A 
ATOM     91  F   UNL     1     -11.707   4.177  10.947  1.00  0.00    -0.203 F 
ATOM     92  F   UNL     1     -14.560  -0.349  10.020  1.00  0.00    -0.200 F 
ATOM     93  C   UNL     1     -14.326   1.731  11.096  1.00  0.00     0.200 A 
ATOM     94  F   UNL     1     -13.998   3.787  12.196  1.00  0.00    -0.200 F 
ATOM     95  F   UNL     1     -15.505   1.568  11.710  1.00  0.00    -0.200 F 
ENDBRANCH  62  85
ENDBRANCH  36  37
ENDBRANCH  28  31
ENDBRANCH  26  27
ENDBRANCH  25  26
ENDBRANCH   1  25
TORSDOF 14
