REMARK SMILES C[C@@H]1CCCN(C(=O)NC2(CC(=O)NCCCCNC(=O)c3ccc(-c4c5nc(c(-c6c(F)c(F)c(F)c(F)c6F)c6ccc([nH]6)c(-c6c(F)c(F)c(F)c(F)c6F)c6nc(c(-c7c(F)c(F)c(F)c(F)c7F)c7ccc4[nH]7)C=C6)C=C5)cc3)CCC2)[C@@H]1C
REMARK SMILES IDX 16 1 15 2 14 3 12 4 13 5 11 7 10 8 85 9 87 10 86 11 9 12
REMARK SMILES IDX 7 13 8 14 6 16 1 17 2 18 3 19 88 20 4 21 89 22 5 23 17 24
REMARK SMILES IDX 18 25 19 26 20 27 21 29 22 30 23 31 84 32 24 33 83 34 25 35
REMARK SMILES IDX 26 36 27 37 77 38 28 39 82 40 76 41 78 42 29 43 81 44 75 45
REMARK SMILES IDX 74 46 30 48 62 49 42 50 61 51 43 52 46 53 60 54 79 55 44 56
REMARK SMILES IDX 45 57 59 59 80 60 47 61 31 62 32 63 40 64 33 65 34 66 38 67
REMARK SMILES IDX 41 68 35 69 36 70 39 71 37 72 63 73 64 74 72 75 65 76 66 77
REMARK SMILES IDX 70 78 73 79 67 80 68 81 71 82 69 83 48 84 49 85 57 86 50 87
REMARK SMILES IDX 51 88 55 89 58 90 52 91 53 92 56 93 54 94
REMARK H PARENT 14 6 9 15 19 28 78 47 46 58
REMARK Flexibility Score: inf
ROOT
ATOM      1  C   UNL     1      -6.820  -0.177   1.175  1.00  0.00     0.023 C 
ENDROOT
BRANCH   1   2
ATOM      2  C   UNL     1      -7.486  -0.049  -0.198  1.00  0.00     0.116 C 
BRANCH   2   3
ATOM      3  N   UNL     1      -6.897   1.033  -0.952  1.00  0.00    -0.356 N 
ATOM      4  C   UNL     1      -5.817   1.009  -1.776  1.00  0.00     0.222 C 
ATOM      5  O   UNL     1      -5.366   2.086  -2.174  1.00  0.00    -0.275 OA
ATOM      6  H   UNL     1      -7.339   1.907  -0.855  1.00  0.00     0.163 HD
BRANCH   4   7
ATOM      7  C   UNL     1      -5.167  -0.294  -2.202  1.00  0.00     0.128 C 
BRANCH   7   8
ATOM      8  C   UNL     1      -4.030  -0.840  -1.293  1.00  0.00     0.051 C 
ATOM      9  C   UNL     1      -3.229  -1.953  -2.023  1.00  0.00     0.029 C 
ATOM     10  C   UNL     1      -4.560  -1.906  -0.309  1.00  0.00     0.029 C 
ATOM     11  C   UNL     1      -3.961  -3.015  -1.190  1.00  0.00     0.005 C 
BRANCH   8  12
ATOM     12  N   UNL     1      -3.194   0.290  -0.825  1.00  0.00    -0.332 N 
ATOM     13  C   UNL     1      -2.160   0.659  -0.046  1.00  0.00     0.318 C 
ATOM     14  O   UNL     1      -1.911   1.863  -0.183  1.00  0.00    -0.249 OA
ATOM     15  H   UNL     1      -3.534   1.105  -1.261  1.00  0.00     0.165 HD
BRANCH  13  16
ATOM     16  N   UNL     1      -1.445  -0.129   0.806  1.00  0.00    -0.322 N 
ATOM     17  C   UNL     1       1.524   0.049  -0.008  1.00  0.00     0.010 C 
ATOM     18  C   UNL     1       0.984  -0.248   1.396  1.00  0.00     0.008 C 
ATOM     19  C   UNL     1       0.848  -1.761   1.626  1.00  0.00     0.007 C 
ATOM     20  C   UNL     1      -0.378   0.438   1.684  1.00  0.00     0.086 C 
ATOM     21  C   UNL     1      -0.304  -2.348   0.825  1.00  0.00     0.022 C 
ATOM     22  C   UNL     1      -0.209   1.959   1.798  1.00  0.00     0.031 C 
ATOM     23  C   UNL     1      -1.596  -1.559   1.014  1.00  0.00     0.121 C 
ENDBRANCH  13  16
ENDBRANCH   8  12
ENDBRANCH   7   8
ENDBRANCH   4   7
ENDBRANCH   2   3
ENDBRANCH   1   2
BRANCH   1  24
ATOM     24  C   UNL     1      -7.461   0.654   2.282  1.00  0.00     0.023 C 
BRANCH  24  25
ATOM     25  C   UNL     1      -8.910   0.296   2.579  1.00  0.00     0.116 C 
BRANCH  25  26
ATOM     26  N   UNL     1      -9.128  -1.113   2.877  1.00  0.00    -0.352 N 
ATOM     27  C   UNL     1     -10.124  -1.674   3.644  1.00  0.00     0.251 C 
ATOM     28  H   UNL     1      -8.483  -1.743   2.480  1.00  0.00     0.163 HD
ATOM     29  O   UNL     1     -10.142  -2.874   3.873  1.00  0.00    -0.269 OA
BRANCH  27  30
ATOM     30  C   UNL     1     -11.139  -0.780   4.236  1.00  0.00     0.039 A 
ATOM     31  C   UNL     1     -11.366  -0.844   5.611  1.00  0.00     0.014 A 
ATOM     32  C   UNL     1     -11.783   0.177   3.450  1.00  0.00     0.014 A 
ATOM     33  C   UNL     1     -12.180   0.115   6.213  1.00  0.00     0.010 A 
ATOM     34  C   UNL     1     -12.518   1.184   4.062  1.00  0.00     0.010 A 
ATOM     35  C   UNL     1     -12.721   1.165   5.449  1.00  0.00    -0.014 A 
BRANCH  35  36
ATOM     36  C   UNL     1     -13.486   2.260   6.092  1.00  0.00     0.031 A 
ATOM     37  C   UNL     1     -14.931   2.476   5.745  1.00  0.00     0.074 A 
ATOM     38  C   UNL     1     -12.856   3.098   6.938  1.00  0.00     0.049 A 
ATOM     39  N   UNL     1     -15.758   3.393   6.180  1.00  0.00    -0.248 NA
ATOM     40  C   UNL     1     -15.519   1.562   4.752  1.00  0.00     0.031 C 
ATOM     41  C   UNL     1     -11.435   3.038   7.288  1.00  0.00     0.029 A 
ATOM     42  N   UNL     1     -13.329   4.168   7.655  1.00  0.00    -0.354 N 
ATOM     43  C   UNL     1     -16.951   3.175   5.504  1.00  0.00     0.074 A 
ATOM     44  C   UNL     1     -16.726   2.081   4.585  1.00  0.00     0.031 C 
ATOM     45  C   UNL     1     -11.160   4.005   8.178  1.00  0.00     0.029 A 
ATOM     46  C   UNL     1     -12.375   4.769   8.440  1.00  0.00     0.049 A 
ATOM     47  H   UNL     1     -14.263   4.476   7.611  1.00  0.00     0.167 HD
ATOM     48  C   UNL     1     -18.136   3.809   5.660  1.00  0.00     0.037 A 
ATOM     49  C   UNL     1     -12.475   5.816   9.280  1.00  0.00     0.037 A 
ATOM     50  C   UNL     1     -18.363   4.874   6.601  1.00  0.00     0.049 A 
ATOM     51  C   UNL     1     -13.813   6.481   9.460  1.00  0.00     0.074 A 
ATOM     52  C   UNL     1     -19.544   5.533   6.892  1.00  0.00     0.029 A 
ATOM     53  N   UNL     1     -17.382   5.436   7.405  1.00  0.00    -0.354 N 
ATOM     54  N   UNL     1     -14.958   6.206   8.883  1.00  0.00    -0.248 NA
ATOM     55  C   UNL     1     -13.874   7.592  10.418  1.00  0.00     0.031 C 
ATOM     56  C   UNL     1     -19.270   6.521   7.844  1.00  0.00     0.029 A 
ATOM     57  C   UNL     1     -17.927   6.448   8.179  1.00  0.00     0.049 A 
ATOM     58  H   UNL     1     -16.438   5.158   7.423  1.00  0.00     0.167 HD
ATOM     59  C   UNL     1     -15.878   7.095   9.421  1.00  0.00     0.074 A 
ATOM     60  C   UNL     1     -15.162   7.900  10.390  1.00  0.00     0.031 C 
ATOM     61  C   UNL     1     -17.196   7.238   9.135  1.00  0.00     0.037 A 
BRANCH  48  62
ATOM     62  C   UNL     1     -19.282   3.356   4.804  1.00  0.00     0.064 A 
ATOM     63  C   UNL     1     -19.892   2.106   4.994  1.00  0.00     0.173 A 
ATOM     64  C   UNL     1     -19.798   4.191   3.802  1.00  0.00     0.173 A 
ATOM     65  F   UNL     1     -19.426   1.263   5.929  1.00  0.00    -0.203 F 
ATOM     66  C   UNL     1     -20.955   1.697   4.194  1.00  0.00     0.198 A 
ATOM     67  C   UNL     1     -20.882   3.791   3.024  1.00  0.00     0.198 A 
ATOM     68  F   UNL     1     -19.255   5.397   3.579  1.00  0.00    -0.203 F 
ATOM     69  F   UNL     1     -21.487   0.478   4.361  1.00  0.00    -0.200 F 
ATOM     70  C   UNL     1     -21.454   2.542   3.215  1.00  0.00     0.200 A 
ATOM     71  F   UNL     1     -21.371   4.613   2.085  1.00  0.00    -0.200 F 
ATOM     72  F   UNL     1     -22.483   2.150   2.450  1.00  0.00    -0.200 F 
ENDBRANCH  48  62
BRANCH  49  73
ATOM     73  C   UNL     1     -11.286   6.275  10.044  1.00  0.00     0.064 A 
ATOM     74  C   UNL     1     -11.207   6.087  11.431  1.00  0.00     0.173 A 
ATOM     75  C   UNL     1     -10.211   6.915   9.410  1.00  0.00     0.173 A 
ATOM     76  F   UNL     1     -12.219   5.497  12.085  1.00  0.00    -0.203 F 
ATOM     77  C   UNL     1     -10.110   6.543  12.159  1.00  0.00     0.198 A 
ATOM     78  C   UNL     1      -9.102   7.346  10.135  1.00  0.00     0.198 A 
ATOM     79  F   UNL     1     -10.235   7.112   8.084  1.00  0.00    -0.203 F 
ATOM     80  F   UNL     1     -10.083   6.393  13.490  1.00  0.00    -0.200 F 
ATOM     81  C   UNL     1      -9.056   7.168  11.510  1.00  0.00     0.200 A 
ATOM     82  F   UNL     1      -8.079   7.936   9.503  1.00  0.00    -0.200 F 
ATOM     83  F   UNL     1      -8.001   7.605  12.210  1.00  0.00    -0.200 F 
ENDBRANCH  49  73
BRANCH  61  84
ATOM     84  C   UNL     1     -17.946   8.292   9.895  1.00  0.00     0.064 A 
ATOM     85  C   UNL     1     -17.736   9.659   9.655  1.00  0.00     0.173 A 
ATOM     86  C   UNL     1     -18.897   7.932  10.861  1.00  0.00     0.173 A 
ATOM     87  F   UNL     1     -16.826  10.053   8.752  1.00  0.00    -0.203 F 
ATOM     88  C   UNL     1     -18.428  10.626  10.378  1.00  0.00     0.198 A 
ATOM     89  C   UNL     1     -19.609   8.902  11.560  1.00  0.00     0.198 A 
ATOM     90  F   UNL     1     -19.140   6.639  11.123  1.00  0.00    -0.203 F 
ATOM     91  F   UNL     1     -18.171  11.925  10.172  1.00  0.00    -0.200 F 
ATOM     92  C   UNL     1     -19.367  10.247  11.326  1.00  0.00     0.200 A 
ATOM     93  F   UNL     1     -20.526   8.535  12.466  1.00  0.00    -0.200 F 
ATOM     94  F   UNL     1     -20.032  11.180  12.021  1.00  0.00    -0.200 F 
ENDBRANCH  61  84
ENDBRANCH  35  36
ENDBRANCH  27  30
ENDBRANCH  25  26
ENDBRANCH  24  25
ENDBRANCH   1  24
TORSDOF 14
