REMARK SMILES COc1cccc(-c2nn(-c3cc4c(cc3C(N)=O)OCO4)cc2C(=O)NCCCCNC(=O)c2ccc(-c3c4nc(c(-c5c(F)c(F)c(F)c(F)c5F)c5ccc([nH]5)c(-c5c(F)c(F)c(F)c(F)c5F)c5nc(c(-c6c(F)c(F)c(F)c(F)c6F)c6ccc3[nH]6)C=C5)C=C4)cc2)c1
REMARK SMILES IDX 29 1 28 2 27 3 25 4 26 5 24 7 8 8 9 9 10 10 23 11 7 12 3 13
REMARK SMILES IDX 4 14 98 15 5 16 6 17 2 18 1 19 11 20 12 21 16 22 13 23 15 24
REMARK SMILES IDX 14 25 22 26 20 27 21 28 17 29 18 30 19 31 30 34 31 35 32 36
REMARK SMILES IDX 33 37 34 39 35 40 36 41 97 42 37 43 96 44 38 45 39 46 40 47
REMARK SMILES IDX 90 48 41 49 95 50 89 51 91 52 42 53 94 54 88 55 87 56 43 58
REMARK SMILES IDX 75 59 55 60 74 61 56 62 59 63 73 64 92 65 57 66 58 67 72 69
REMARK SMILES IDX 93 70 60 71 44 72 45 73 53 74 46 75 47 76 51 77 54 78 48 79
REMARK SMILES IDX 49 80 52 81 50 82 76 83 77 84 85 85 78 86 79 87 83 88 86 89
REMARK SMILES IDX 80 90 81 91 84 92 82 93 61 94 62 95 70 96 63 97 64 98 68 99
REMARK SMILES IDX 71 100 65 101 66 102 69 103 67 104
REMARK H PARENT 27 6 18 32 18 33 32 38 91 57 59 68
REMARK Flexibility Score: inf
ROOT
ATOM      1  C   UNL     1       6.364  -6.478   5.641  1.00  0.00     0.023 C 
ENDROOT
BRANCH   1   2
ATOM      2  C   UNL     1       5.894  -6.188   4.213  1.00  0.00     0.116 C 
BRANCH   2   3
ATOM      3  N   UNL     1       4.512  -5.758   4.180  1.00  0.00    -0.352 N 
ATOM      4  C   UNL     1       3.913  -4.523   4.129  1.00  0.00     0.255 C 
ATOM      5  O   UNL     1       2.683  -4.544   4.072  1.00  0.00    -0.269 OA
ATOM      6  H   UNL     1       3.870  -6.504   4.198  1.00  0.00     0.163 HD
BRANCH   4   7
ATOM      7  C   UNL     1       4.673  -3.279   4.101  1.00  0.00     0.086 A 
ATOM      8  C   UNL     1       4.191  -1.945   3.833  1.00  0.00     0.106 A 
ATOM      9  N   UNL     1       5.208  -1.058   3.752  1.00  0.00    -0.167 NA
ATOM     10  N   UNL     1       6.309  -1.836   3.803  1.00  0.00    -0.239 N 
ATOM     11  C   UNL     1       6.015  -3.070   4.330  1.00  0.00     0.129 A 
BRANCH   8  12
ATOM     12  C   UNL     1       2.799  -1.516   3.676  1.00  0.00     0.007 A 
ATOM     13  C   UNL     1       1.022  -0.519   2.353  1.00  0.00     0.119 A 
ATOM     14  C   UNL     1       0.112  -0.800   3.376  1.00  0.00     0.046 A 
ATOM     15  C   UNL     1       2.369  -0.870   2.506  1.00  0.00     0.056 A 
ATOM     16  C   UNL     1       0.532  -1.431   4.544  1.00  0.00     0.005 A 
ATOM     17  C   UNL     1       1.873  -1.778   4.697  1.00  0.00     0.011 A 
BRANCH  13  18
ATOM     18  O   UNL     1       0.482   0.139   1.281  1.00  0.00    -0.497 OA
ATOM     19  C   UNL     1       1.134  -0.046   0.032  1.00  0.00     0.278 C 
ENDBRANCH  13  18
ENDBRANCH   8  12
BRANCH  10  20
ATOM     20  C   UNL     1       7.618  -1.373   3.523  1.00  0.00     0.081 A 
ATOM     21  C   UNL     1       8.027  -0.154   4.094  1.00  0.00     0.079 A 
ATOM     22  C   UNL     1       8.532  -2.172   2.769  1.00  0.00     0.069 A 
ATOM     23  C   UNL     1       9.358   0.186   3.970  1.00  0.00     0.167 A 
ATOM     24  C   UNL     1       9.892  -1.824   2.755  1.00  0.00     0.066 A 
ATOM     25  C   UNL     1      10.264  -0.640   3.346  1.00  0.00     0.166 A 
ATOM     26  O   UNL     1       9.951   1.320   4.436  1.00  0.00    -0.454 OA
ATOM     27  O   UNL     1      11.525  -0.131   3.342  1.00  0.00    -0.454 OA
ATOM     28  C   UNL     1      11.270   1.189   3.861  1.00  0.00     0.468 C 
BRANCH  22  29
ATOM     29  C   UNL     1       8.071  -3.255   1.831  1.00  0.00     0.251 C 
ATOM     30  N   UNL     1       8.902  -3.613   0.805  1.00  0.00    -0.366 N 
ATOM     31  O   UNL     1       6.971  -3.788   1.884  1.00  0.00    -0.269 OA
ATOM     32  H   UNL     1       9.795  -3.205   0.731  1.00  0.00     0.159 HD
ATOM     33  H   UNL     1       8.608  -4.279   0.143  1.00  0.00     0.159 HD
ENDBRANCH  22  29
ENDBRANCH  10  20
ENDBRANCH   4   7
ENDBRANCH   2   3
ENDBRANCH   1   2
BRANCH   1  34
ATOM     34  C   UNL     1       5.787  -7.759   6.265  1.00  0.00     0.023 C 
BRANCH  34  35
ATOM     35  C   UNL     1       6.174  -9.051   5.553  1.00  0.00     0.116 C 
BRANCH  35  36
ATOM     36  N   UNL     1       7.619  -9.286   5.525  1.00  0.00    -0.352 N 
ATOM     37  C   UNL     1       8.319 -10.238   4.802  1.00  0.00     0.251 C 
ATOM     38  H   UNL     1       8.162  -8.691   6.092  1.00  0.00     0.163 HD
ATOM     39  O   UNL     1       9.434 -10.599   5.133  1.00  0.00    -0.269 OA
BRANCH  37  40
ATOM     40  C   UNL     1       7.686 -10.793   3.593  1.00  0.00     0.039 A 
ATOM     41  C   UNL     1       7.734 -12.154   3.283  1.00  0.00     0.014 A 
ATOM     42  C   UNL     1       6.994  -9.899   2.784  1.00  0.00     0.014 A 
ATOM     43  C   UNL     1       7.003 -12.614   2.189  1.00  0.00     0.010 A 
ATOM     44  C   UNL     1       6.133 -10.374   1.835  1.00  0.00     0.010 A 
ATOM     45  C   UNL     1       6.190 -11.715   1.481  1.00  0.00    -0.014 A 
BRANCH  45  46
ATOM     46  C   UNL     1       5.300 -12.164   0.418  1.00  0.00     0.031 A 
ATOM     47  C   UNL     1       4.334 -13.219   0.825  1.00  0.00     0.074 A 
ATOM     48  C   UNL     1       5.196 -11.503  -0.757  1.00  0.00     0.049 A 
ATOM     49  N   UNL     1       4.264 -14.434   0.392  1.00  0.00    -0.248 NA
ATOM     50  C   UNL     1       3.416 -12.933   1.941  1.00  0.00     0.031 C 
ATOM     51  C   UNL     1       5.845 -10.250  -1.165  1.00  0.00     0.029 A 
ATOM     52  N   UNL     1       4.382 -11.763  -1.814  1.00  0.00    -0.354 N 
ATOM     53  C   UNL     1       3.168 -15.009   1.032  1.00  0.00     0.074 A 
ATOM     54  C   UNL     1       2.807 -14.111   2.096  1.00  0.00     0.031 C 
ATOM     55  C   UNL     1       5.221  -9.744  -2.251  1.00  0.00     0.029 A 
ATOM     56  C   UNL     1       4.255 -10.716  -2.720  1.00  0.00     0.049 A 
ATOM     57  H   UNL     1       3.920 -12.624  -1.929  1.00  0.00     0.167 HD
ATOM     58  C   UNL     1       2.500 -16.053   0.464  1.00  0.00     0.037 A 
ATOM     59  C   UNL     1       3.385 -10.650  -3.759  1.00  0.00     0.037 A 
ATOM     60  C   UNL     1       3.298 -16.675  -0.564  1.00  0.00     0.049 A 
ATOM     61  C   UNL     1       2.945 -12.041  -4.045  1.00  0.00     0.074 A 
ATOM     62  C   UNL     1       4.540 -17.282  -0.591  1.00  0.00     0.029 A 
ATOM     63  N   UNL     1       3.010 -16.377  -1.874  1.00  0.00    -0.354 N 
ATOM     64  N   UNL     1       3.739 -12.969  -4.505  1.00  0.00    -0.248 NA
ATOM     65  C   UNL     1       1.758 -12.518  -3.351  1.00  0.00     0.031 C 
ATOM     66  C   UNL     1       5.135 -16.842  -1.811  1.00  0.00     0.029 A 
ATOM     67  C   UNL     1       4.195 -16.069  -2.492  1.00  0.00     0.049 A 
ATOM     68  H   UNL     1       2.118 -16.382  -2.292  1.00  0.00     0.167 HD
ATOM     69  C   UNL     1       3.396 -14.109  -3.793  1.00  0.00     0.074 A 
ATOM     70  C   UNL     1       2.126 -13.785  -3.145  1.00  0.00     0.031 C 
ATOM     71  C   UNL     1       4.311 -15.093  -3.550  1.00  0.00     0.037 A 
BRANCH  58  72
ATOM     72  C   UNL     1       1.004 -16.264   0.551  1.00  0.00     0.064 A 
ATOM     73  C   UNL     1       0.448 -17.426  -0.023  1.00  0.00     0.173 A 
ATOM     74  C   UNL     1       0.078 -15.251   0.879  1.00  0.00     0.173 A 
ATOM     75  F   UNL     1       1.232 -18.455  -0.381  1.00  0.00    -0.203 F 
ATOM     76  C   UNL     1      -0.910 -17.520  -0.339  1.00  0.00     0.198 A 
ATOM     77  C   UNL     1      -1.285 -15.370   0.612  1.00  0.00     0.198 A 
ATOM     78  F   UNL     1       0.454 -14.062   1.363  1.00  0.00    -0.203 F 
ATOM     79  F   UNL     1      -1.364 -18.585  -1.012  1.00  0.00    -0.200 F 
ATOM     80  C   UNL     1      -1.774 -16.486  -0.031  1.00  0.00     0.200 A 
ATOM     81  F   UNL     1      -2.104 -14.349   0.905  1.00  0.00    -0.200 F 
ATOM     82  F   UNL     1      -3.061 -16.542  -0.395  1.00  0.00    -0.200 F 
ENDBRANCH  58  72
BRANCH  59  83
ATOM     83  C   UNL     1       2.660  -9.461  -4.270  1.00  0.00     0.064 A 
ATOM     84  C   UNL     1       2.014  -9.484  -5.517  1.00  0.00     0.173 A 
ATOM     85  C   UNL     1       2.346  -8.377  -3.425  1.00  0.00     0.173 A 
ATOM     86  F   UNL     1       2.220 -10.505  -6.362  1.00  0.00    -0.203 F 
ATOM     87  C   UNL     1       1.092  -8.498  -5.886  1.00  0.00     0.198 A 
ATOM     88  C   UNL     1       1.430  -7.390  -3.797  1.00  0.00     0.198 A 
ATOM     89  F   UNL     1       2.849  -8.304  -2.185  1.00  0.00    -0.203 F 
ATOM     90  F   UNL     1       0.449  -8.588  -7.059  1.00  0.00    -0.200 F 
ATOM     91  C   UNL     1       0.793  -7.458  -5.021  1.00  0.00     0.200 A 
ATOM     92  F   UNL     1       1.123  -6.410  -2.935  1.00  0.00    -0.200 F 
ATOM     93  F   UNL     1      -0.136  -6.548  -5.348  1.00  0.00    -0.200 F 
ENDBRANCH  59  83
BRANCH  71  94
ATOM     94  C   UNL     1       5.630 -15.033  -4.271  1.00  0.00     0.064 A 
ATOM     95  C   UNL     1       6.570 -13.998  -4.119  1.00  0.00     0.173 A 
ATOM     96  C   UNL     1       6.022 -16.148  -5.022  1.00  0.00     0.173 A 
ATOM     97  F   UNL     1       6.316 -12.943  -3.338  1.00  0.00    -0.203 F 
ATOM     98  C   UNL     1       7.826 -14.064  -4.722  1.00  0.00     0.198 A 
ATOM     99  C   UNL     1       7.290 -16.229  -5.593  1.00  0.00     0.198 A 
ATOM    100  F   UNL     1       5.189 -17.192  -5.159  1.00  0.00    -0.203 F 
ATOM    101  F   UNL     1       8.702 -13.059  -4.566  1.00  0.00    -0.200 F 
ATOM    102  C   UNL     1       8.187 -15.183  -5.452  1.00  0.00     0.200 A 
ATOM    103  F   UNL     1       7.651 -17.336  -6.256  1.00  0.00    -0.200 F 
ATOM    104  F   UNL     1       9.410 -15.268  -5.996  1.00  0.00    -0.200 F 
ENDBRANCH  71  94
ENDBRANCH  45  46
ENDBRANCH  37  40
ENDBRANCH  35  36
ENDBRANCH  34  35
ENDBRANCH   1  34
TORSDOF 15
