REMARK SMILES CC1(C)[C@H](C(=O)NCCCCNC(=O)c2ccc(-c3c4nc(c(-c5c(F)c(F)c(F)c(F)c5F)c5ccc([nH]5)c(-c5c(F)c(F)c(F)c(F)c5F)c5nc(c(-c6c(F)c(F)c(F)c(F)c6F)c6ccc3[nH]6)C=C5)C=C4)cc2)[C@@H]1C(=O)N1CC[NH+](Cc2ccccc2)CC1
REMARK SMILES IDX 9 1 8 2 7 3 5 4 6 5 4 7 1 8 2 9 3 10 78 11 79 12 80 13 81 14
REMARK SMILES IDX 82 15 93 16 83 17 92 18 84 19 85 21 86 22 87 23 91 24 88 25
REMARK SMILES IDX 90 26 89 27 10 28 11 29 12 30 13 31 14 33 15 34 16 35 77 36
REMARK SMILES IDX 17 37 76 38 18 39 19 40 20 41 70 42 21 43 75 44 69 45 71 46
REMARK SMILES IDX 22 47 74 48 68 49 67 50 23 52 55 53 35 54 54 55 36 56 39 57
REMARK SMILES IDX 53 58 72 59 37 60 38 61 52 63 73 64 40 65 24 66 25 67 33 68
REMARK SMILES IDX 26 69 27 70 31 71 34 72 28 73 29 74 32 75 30 76 56 77 57 78
REMARK SMILES IDX 65 79 58 80 59 81 63 82 66 83 60 84 61 85 64 86 62 87 41 88
REMARK SMILES IDX 42 89 50 90 43 91 44 92 48 93 51 94 45 95 46 96 49 97 47 98
REMARK H PARENT 7 6 84 20 12 32 71 51 39 62
REMARK Flexibility Score: inf
ROOT
ATOM      1  C   UNL     1       0.907   4.117  -1.339  1.00  0.00     0.023 C 
ENDROOT
BRANCH   1   2
ATOM      2  C   UNL     1      -0.166   3.134  -0.892  1.00  0.00     0.116 C 
BRANCH   2   3
ATOM      3  N   UNL     1      -0.650   2.258  -1.932  1.00  0.00    -0.356 N 
ATOM      4  C   UNL     1      -1.178   0.995  -1.890  1.00  0.00     0.224 C 
ATOM      5  O   UNL     1      -1.988   0.736  -2.784  1.00  0.00    -0.275 OA
ATOM      6  H   UNL     1      -0.591   2.639  -2.838  1.00  0.00     0.163 HD
BRANCH   4   7
ATOM      7  C   UNL     1      -0.862  -0.119  -0.952  1.00  0.00     0.098 C 
ATOM      8  C   UNL     1       0.772  -1.838   0.042  1.00  0.00     0.013 C 
ATOM      9  C   UNL     1       0.301  -0.396  -0.018  1.00  0.00    -0.011 C 
ATOM     10  C   UNL     1       1.465   0.553   0.120  1.00  0.00     0.013 C 
ATOM     11  C   UNL     1      -1.119  -0.106   0.534  1.00  0.00     0.098 C 
BRANCH  11  12
ATOM     12  C   UNL     1      -1.473   1.134   1.264  1.00  0.00     0.227 C 
ATOM     13  O   UNL     1      -0.692   1.598   2.080  1.00  0.00    -0.275 OA
ATOM     14  N   UNL     1      -2.675   1.747   0.940  1.00  0.00    -0.331 N 
ATOM     15  C   UNL     1      -2.833   3.142   1.305  1.00  0.00     0.181 C 
ATOM     16  C   UNL     1      -3.931   1.040   0.681  1.00  0.00     0.181 C 
ATOM     17  C   UNL     1      -3.664   3.876   0.237  1.00  0.00     0.284 C 
ATOM     18  C   UNL     1      -4.979   1.861  -0.123  1.00  0.00     0.284 C 
ATOM     19  N   UNL     1      -5.003   3.325   0.035  1.00  0.00    -0.328 N 
ATOM     20  H   UNL     1      -5.329   3.656  -0.873  1.00  0.00     0.348 HD
BRANCH  19  21
ATOM     21  C   UNL     1      -6.050   3.905   0.881  1.00  0.00     0.299 C 
BRANCH  21  22
ATOM     22  C   UNL     1      -5.805   3.895   2.372  1.00  0.00     0.006 A 
ATOM     23  C   UNL     1      -6.268   2.836   3.161  1.00  0.00     0.009 A 
ATOM     24  C   UNL     1      -5.054   4.917   2.982  1.00  0.00     0.009 A 
ATOM     25  C   UNL     1      -5.939   2.771   4.516  1.00  0.00     0.001 A 
ATOM     26  C   UNL     1      -4.697   4.832   4.328  1.00  0.00     0.001 A 
ATOM     27  C   UNL     1      -5.136   3.755   5.093  1.00  0.00     0.000 A 
ENDBRANCH  21  22
ENDBRANCH  19  21
ENDBRANCH  11  12
ENDBRANCH   4   7
ENDBRANCH   2   3
ENDBRANCH   1   2
BRANCH   1  28
ATOM     28  C   UNL     1       0.387   5.332  -2.115  1.00  0.00     0.023 C 
BRANCH  28  29
ATOM     29  C   UNL     1      -0.735   6.146  -1.462  1.00  0.00     0.116 C 
BRANCH  29  30
ATOM     30  N   UNL     1      -0.465   6.570  -0.094  1.00  0.00    -0.352 N 
ATOM     31  C   UNL     1      -0.807   7.754   0.521  1.00  0.00     0.251 C 
ATOM     32  H   UNL     1       0.028   5.925   0.464  1.00  0.00     0.163 HD
ATOM     33  O   UNL     1      -0.493   7.984   1.674  1.00  0.00    -0.269 OA
BRANCH  31  34
ATOM     34  C   UNL     1      -1.529   8.778  -0.265  1.00  0.00     0.039 A 
ATOM     35  C   UNL     1      -0.914  10.016  -0.473  1.00  0.00     0.014 A 
ATOM     36  C   UNL     1      -2.758   8.482  -0.861  1.00  0.00     0.014 A 
ATOM     37  C   UNL     1      -1.479  10.921  -1.373  1.00  0.00     0.010 A 
ATOM     38  C   UNL     1      -3.300   9.370  -1.786  1.00  0.00     0.010 A 
ATOM     39  C   UNL     1      -2.643  10.577  -2.080  1.00  0.00    -0.014 A 
BRANCH  39  40
ATOM     40  C   UNL     1      -3.121  11.405  -3.215  1.00  0.00     0.031 A 
ATOM     41  C   UNL     1      -4.407  12.166  -3.128  1.00  0.00     0.074 A 
ATOM     42  C   UNL     1      -2.424  11.386  -4.369  1.00  0.00     0.049 A 
ATOM     43  N   UNL     1      -5.020  12.858  -4.056  1.00  0.00    -0.248 NA
ATOM     44  C   UNL     1      -5.105  12.136  -1.835  1.00  0.00     0.031 C 
ATOM     45  C   UNL     1      -1.175  10.654  -4.588  1.00  0.00     0.029 A 
ATOM     46  N   UNL     1      -2.677  11.982  -5.580  1.00  0.00    -0.354 N 
ATOM     47  C   UNL     1      -6.176  13.343  -3.463  1.00  0.00     0.074 A 
ATOM     48  C   UNL     1      -6.198  12.837  -2.105  1.00  0.00     0.031 C 
ATOM     49  C   UNL     1      -0.769  10.847  -5.853  1.00  0.00     0.029 A 
ATOM     50  C   UNL     1      -1.746  11.682  -6.544  1.00  0.00     0.049 A 
ATOM     51  H   UNL     1      -3.451  12.567  -5.742  1.00  0.00     0.167 HD
ATOM     52  C   UNL     1      -7.123  14.148  -4.000  1.00  0.00     0.037 A 
ATOM     53  C   UNL     1      -1.695  12.023  -7.846  1.00  0.00     0.037 A 
ATOM     54  C   UNL     1      -7.095  14.658  -5.347  1.00  0.00     0.049 A 
ATOM     55  C   UNL     1      -2.788  12.874  -8.429  1.00  0.00     0.074 A 
ATOM     56  C   UNL     1      -7.969  15.543  -5.953  1.00  0.00     0.029 A 
ATOM     57  N   UNL     1      -6.148  14.315  -6.301  1.00  0.00    -0.354 N 
ATOM     58  N   UNL     1      -3.839  13.385  -7.840  1.00  0.00    -0.248 NA
ATOM     59  C   UNL     1      -2.689  13.188  -9.862  1.00  0.00     0.031 C 
ATOM     60  C   UNL     1      -7.578  15.702  -7.287  1.00  0.00     0.029 A 
ATOM     61  C   UNL     1      -6.438  14.944  -7.502  1.00  0.00     0.049 A 
ATOM     62  H   UNL     1      -5.384  13.714  -6.148  1.00  0.00     0.167 HD
ATOM     63  C   UNL     1      -4.520  14.092  -8.820  1.00  0.00     0.074 A 
ATOM     64  C   UNL     1      -3.755  13.956 -10.042  1.00  0.00     0.031 C 
ATOM     65  C   UNL     1      -5.675  14.792  -8.714  1.00  0.00     0.037 A 
BRANCH  52  66
ATOM     66  C   UNL     1      -8.279  14.533  -3.127  1.00  0.00     0.064 A 
ATOM     67  C   UNL     1      -8.130  15.456  -2.081  1.00  0.00     0.173 A 
ATOM     68  C   UNL     1      -9.559  14.011  -3.367  1.00  0.00     0.173 A 
ATOM     69  F   UNL     1      -6.924  15.977  -1.808  1.00  0.00    -0.203 F 
ATOM     70  C   UNL     1      -9.216  15.825  -1.293  1.00  0.00     0.198 A 
ATOM     71  C   UNL     1     -10.647  14.400  -2.591  1.00  0.00     0.198 A 
ATOM     72  F   UNL     1      -9.754  13.130  -4.359  1.00  0.00    -0.203 F 
ATOM     73  F   UNL     1      -9.043  16.681  -0.276  1.00  0.00    -0.200 F 
ATOM     74  C   UNL     1     -10.474  15.302  -1.551  1.00  0.00     0.200 A 
ATOM     75  F   UNL     1     -11.864  13.901  -2.848  1.00  0.00    -0.200 F 
ATOM     76  F   UNL     1     -11.520  15.662  -0.795  1.00  0.00    -0.200 F 
ENDBRANCH  52  66
BRANCH  53  77
ATOM     77  C   UNL     1      -0.564  11.557  -8.686  1.00  0.00     0.064 A 
ATOM     78  C   UNL     1       0.423  12.452  -9.118  1.00  0.00     0.173 A 
ATOM     79  C   UNL     1      -0.442  10.213  -9.066  1.00  0.00     0.173 A 
ATOM     80  F   UNL     1       0.335  13.751  -8.797  1.00  0.00    -0.203 F 
ATOM     81  C   UNL     1       1.487  12.021  -9.908  1.00  0.00     0.198 A 
ATOM     82  C   UNL     1       0.634   9.779  -9.837  1.00  0.00     0.198 A 
ATOM     83  F   UNL     1      -1.362   9.318  -8.675  1.00  0.00    -0.203 F 
ATOM     84  F   UNL     1       2.400  12.903 -10.336  1.00  0.00    -0.200 F 
ATOM     85  C   UNL     1       1.594  10.684 -10.262  1.00  0.00     0.200 A 
ATOM     86  F   UNL     1       0.740   8.485 -10.167  1.00  0.00    -0.200 F 
ATOM     87  F   UNL     1       2.621  10.270 -11.016  1.00  0.00    -0.200 F 
ENDBRANCH  53  77
BRANCH  65  88
ATOM     88  C   UNL     1      -6.183  15.469  -9.951  1.00  0.00     0.064 A 
ATOM     89  C   UNL     1      -6.791  14.741 -10.983  1.00  0.00     0.173 A 
ATOM     90  C   UNL     1      -6.100  16.863 -10.087  1.00  0.00     0.173 A 
ATOM     91  F   UNL     1      -6.875  13.404 -10.907  1.00  0.00    -0.203 F 
ATOM     92  C   UNL     1      -7.289  15.384 -12.114  1.00  0.00     0.198 A 
ATOM     93  C   UNL     1      -6.619  17.504 -11.208  1.00  0.00     0.198 A 
ATOM     94  F   UNL     1      -5.528  17.603  -9.126  1.00  0.00    -0.203 F 
ATOM     95  F   UNL     1      -7.837  14.665 -13.104  1.00  0.00    -0.200 F 
ATOM     96  C   UNL     1      -7.210  16.764 -12.222  1.00  0.00     0.200 A 
ATOM     97  F   UNL     1      -6.550  18.839 -11.307  1.00  0.00    -0.200 F 
ATOM     98  F   UNL     1      -7.697  17.382 -13.306  1.00  0.00    -0.200 F 
ENDBRANCH  65  88
ENDBRANCH  39  40
ENDBRANCH  31  34
ENDBRANCH  29  30
ENDBRANCH  28  29
ENDBRANCH   1  28
TORSDOF 14
