REMARK SMILES C[C@H](CC(=O)NCCCCNC(=O)c1ccc(-c2c3nc(c(-c4c(F)c(F)c(F)c(F)c4F)c4ccc([nH]4)c(-c4c(F)c(F)c(F)c(F)c4F)c4nc(c(-c5c(F)c(F)c(F)c(F)c5F)c5ccc2[nH]5)C=C4)C=C3)cc1)[NH2+][C@H](C)c1ccccc1
REMARK SMILES IDX 7 1 6 2 4 3 5 4 3 6 2 7 1 8 77 9 78 12 79 13 80 14 81 15
REMARK SMILES IDX 85 16 82 17 84 18 83 19 8 20 9 21 10 22 11 23 12 24 13 26
REMARK SMILES IDX 14 27 15 28 76 29 16 30 75 31 17 32 18 33 19 34 69 35 20 36
REMARK SMILES IDX 74 37 68 38 70 39 21 40 73 41 67 42 66 43 22 45 54 46 34 47
REMARK SMILES IDX 53 48 35 49 38 50 52 51 71 52 36 53 37 54 51 56 72 57 39 58
REMARK SMILES IDX 23 59 24 60 32 61 25 62 26 63 30 64 33 65 27 66 28 67 31 68
REMARK SMILES IDX 29 69 55 70 56 71 64 72 57 73 58 74 62 75 65 76 59 77 60 78
REMARK SMILES IDX 63 79 61 80 40 81 41 82 49 83 42 84 43 85 47 86 50 87 44 88
REMARK SMILES IDX 45 89 48 90 46 91
REMARK H PARENT 6 5 77 10 77 11 11 25 70 44 38 55
REMARK Flexibility Score: inf
ROOT
ATOM      1  C   UNL     1       0.342   3.274   4.547  1.00  0.00     0.116 C 
ENDROOT
BRANCH   1   2
ATOM      2  N   UNL     1       1.371   3.107   3.530  1.00  0.00    -0.356 N 
ATOM      3  C   UNL     1       1.382   3.525   2.227  1.00  0.00     0.225 C 
ATOM      4  O   UNL     1       2.381   3.290   1.545  1.00  0.00    -0.275 OA
ATOM      5  H   UNL     1       2.176   2.623   3.823  1.00  0.00     0.163 HD
BRANCH   3   6
ATOM      6  C   UNL     1       0.158   4.199   1.623  1.00  0.00     0.164 C 
BRANCH   6   7
ATOM      7  C   UNL     1      -0.847   3.228   0.940  1.00  0.00     0.189 C 
ATOM      8  C   UNL     1      -0.500   3.062  -0.537  1.00  0.00     0.075 C 
BRANCH   7   9
ATOM      9  N   UNL     1      -0.893   1.981   1.695  1.00  0.00    -0.338 N 
ATOM     10  H   UNL     1      -1.051   2.260   2.663  1.00  0.00     0.347 HD
ATOM     11  H   UNL     1      -0.021   1.554   1.383  1.00  0.00     0.347 HD
BRANCH   9  12
ATOM     12  C   UNL     1      -1.817   0.872   1.458  1.00  0.00     0.210 C 
ATOM     13  C   UNL     1      -1.615   0.170   0.114  1.00  0.00     0.081 C 
BRANCH  12  14
ATOM     14  C   UNL     1      -3.273   1.025   1.882  1.00  0.00     0.009 A 
ATOM     15  C   UNL     1      -3.886   2.240   2.210  1.00  0.00     0.010 A 
ATOM     16  C   UNL     1      -4.047  -0.146   2.025  1.00  0.00     0.010 A 
ATOM     17  C   UNL     1      -5.224   2.289   2.625  1.00  0.00     0.001 A 
ATOM     18  C   UNL     1      -5.376  -0.102   2.452  1.00  0.00     0.001 A 
ATOM     19  C   UNL     1      -5.968   1.120   2.745  1.00  0.00     0.000 A 
ENDBRANCH  12  14
ENDBRANCH   9  12
ENDBRANCH   7   9
ENDBRANCH   6   7
ENDBRANCH   3   6
ENDBRANCH   1   2
BRANCH   1  20
ATOM     20  C   UNL     1      -0.438   1.998   4.869  1.00  0.00     0.023 C 
BRANCH  20  21
ATOM     21  C   UNL     1       0.379   0.877   5.499  1.00  0.00     0.023 C 
BRANCH  21  22
ATOM     22  C   UNL     1       0.806   1.171   6.927  1.00  0.00     0.116 C 
BRANCH  22  23
ATOM     23  N   UNL     1      -0.332   1.355   7.824  1.00  0.00    -0.352 N 
ATOM     24  C   UNL     1      -0.708   0.635   8.931  1.00  0.00     0.251 C 
ATOM     25  H   UNL     1      -0.920   2.112   7.600  1.00  0.00     0.163 HD
ATOM     26  O   UNL     1      -1.799   0.827   9.460  1.00  0.00    -0.269 OA
BRANCH  24  27
ATOM     27  C   UNL     1       0.200  -0.396   9.464  1.00  0.00     0.039 A 
ATOM     28  C   UNL     1      -0.310  -1.653   9.796  1.00  0.00     0.014 A 
ATOM     29  C   UNL     1       1.565  -0.132   9.579  1.00  0.00     0.014 A 
ATOM     30  C   UNL     1       0.569  -2.680  10.143  1.00  0.00     0.010 A 
ATOM     31  C   UNL     1       2.444  -1.178   9.819  1.00  0.00     0.010 A 
ATOM     32  C   UNL     1       1.956  -2.464  10.096  1.00  0.00    -0.014 A 
BRANCH  32  33
ATOM     33  C   UNL     1       2.930  -3.560  10.316  1.00  0.00     0.031 A 
ATOM     34  C   UNL     1       3.930  -3.453  11.432  1.00  0.00     0.074 A 
ATOM     35  C   UNL     1       2.990  -4.584   9.443  1.00  0.00     0.049 A 
ATOM     36  N   UNL     1       4.962  -4.212  11.696  1.00  0.00    -0.248 NA
ATOM     37  C   UNL     1       3.774  -2.312  12.350  1.00  0.00     0.031 C 
ATOM     38  C   UNL     1       2.114  -4.762   8.283  1.00  0.00     0.029 A 
ATOM     39  N   UNL     1       3.841  -5.659   9.381  1.00  0.00    -0.354 N 
ATOM     40  C   UNL     1       5.592  -3.624  12.784  1.00  0.00     0.074 A 
ATOM     41  C   UNL     1       4.861  -2.417  13.100  1.00  0.00     0.031 C 
ATOM     42  C   UNL     1       2.460  -5.887   7.637  1.00  0.00     0.029 A 
ATOM     43  C   UNL     1       3.610  -6.485   8.308  1.00  0.00     0.049 A 
ATOM     44  H   UNL     1       4.551  -5.822  10.043  1.00  0.00     0.167 HD
ATOM     45  C   UNL     1       6.669  -4.066  13.474  1.00  0.00     0.037 A 
ATOM     46  C   UNL     1       4.263  -7.590   7.903  1.00  0.00     0.037 A 
ATOM     47  C   UNL     1       7.358  -5.295  13.186  1.00  0.00     0.049 A 
ATOM     48  C   UNL     1       5.449  -8.067   8.695  1.00  0.00     0.074 A 
ATOM     49  C   UNL     1       8.394  -5.886  13.884  1.00  0.00     0.029 A 
ATOM     50  N   UNL     1       7.074  -6.122  12.109  1.00  0.00    -0.354 N 
ATOM     51  N   UNL     1       5.989  -7.546   9.770  1.00  0.00    -0.248 NA
ATOM     52  C   UNL     1       6.121  -9.284   8.216  1.00  0.00     0.031 C 
ATOM     53  C   UNL     1       8.767  -7.051  13.206  1.00  0.00     0.029 A 
ATOM     54  C   UNL     1       7.936  -7.206  12.107  1.00  0.00     0.049 A 
ATOM     55  H   UNL     1       6.365  -5.962  11.444  1.00  0.00     0.167 HD
ATOM     56  C   UNL     1       7.050  -8.376  10.105  1.00  0.00     0.074 A 
ATOM     57  C   UNL     1       7.066  -9.447   9.130  1.00  0.00     0.031 C 
ATOM     58  C   UNL     1       7.934  -8.259  11.125  1.00  0.00     0.037 A 
BRANCH  45  59
ATOM     59  C   UNL     1       7.158  -3.224  14.615  1.00  0.00     0.064 A 
ATOM     60  C   UNL     1       6.423  -3.097  15.803  1.00  0.00     0.173 A 
ATOM     61  C   UNL     1       8.392  -2.563  14.532  1.00  0.00     0.173 A 
ATOM     62  F   UNL     1       5.230  -3.699  15.927  1.00  0.00    -0.203 F 
ATOM     63  C   UNL     1       6.892  -2.315  16.855  1.00  0.00     0.198 A 
ATOM     64  C   UNL     1       8.872  -1.806  15.598  1.00  0.00     0.198 A 
ATOM     65  F   UNL     1       9.136  -2.655  13.420  1.00  0.00    -0.203 F 
ATOM     66  F   UNL     1       6.149  -2.168  17.961  1.00  0.00    -0.200 F 
ATOM     67  C   UNL     1       8.118  -1.676  16.755  1.00  0.00     0.200 A 
ATOM     68  F   UNL     1      10.063  -1.198  15.504  1.00  0.00    -0.200 F 
ATOM     69  F   UNL     1       8.572  -0.929  17.771  1.00  0.00    -0.200 F 
ENDBRANCH  45  59
BRANCH  46  70
ATOM     70  C   UNL     1       3.804  -8.325   6.696  1.00  0.00     0.064 A 
ATOM     71  C   UNL     1       3.205  -9.588   6.811  1.00  0.00     0.173 A 
ATOM     72  C   UNL     1       3.951  -7.788   5.409  1.00  0.00     0.173 A 
ATOM     73  F   UNL     1       3.062 -10.152   8.019  1.00  0.00    -0.203 F 
ATOM     74  C   UNL     1       2.787 -10.292   5.684  1.00  0.00     0.198 A 
ATOM     75  C   UNL     1       3.507  -8.481   4.285  1.00  0.00     0.198 A 
ATOM     76  F   UNL     1       4.513  -6.581   5.245  1.00  0.00    -0.203 F 
ATOM     77  F   UNL     1       2.256 -11.514   5.819  1.00  0.00    -0.200 F 
ATOM     78  C   UNL     1       2.933  -9.736   4.422  1.00  0.00     0.200 A 
ATOM     79  F   UNL     1       3.638  -7.934   3.068  1.00  0.00    -0.200 F 
ATOM     80  F   UNL     1       2.526 -10.411   3.339  1.00  0.00    -0.200 F 
ENDBRANCH  46  70
BRANCH  58  81
ATOM     81  C   UNL     1       8.988  -9.319  11.244  1.00  0.00     0.064 A 
ATOM     82  C   UNL     1      10.075  -9.367  10.361  1.00  0.00     0.173 A 
ATOM     83  C   UNL     1       8.939 -10.258  12.285  1.00  0.00     0.173 A 
ATOM     84  F   UNL     1      10.155  -8.500   9.340  1.00  0.00    -0.203 F 
ATOM     85  C   UNL     1      11.071 -10.329  10.507  1.00  0.00     0.198 A 
ATOM     86  C   UNL     1       9.950 -11.200  12.444  1.00  0.00     0.198 A 
ATOM     87  F   UNL     1       7.921 -10.247  13.158  1.00  0.00    -0.203 F 
ATOM     88  F   UNL     1      12.083 -10.381   9.630  1.00  0.00    -0.200 F 
ATOM     89  C   UNL     1      11.012 -11.238  11.553  1.00  0.00     0.200 A 
ATOM     90  F   UNL     1       9.899 -12.070  13.463  1.00  0.00    -0.200 F 
ATOM     91  F   UNL     1      11.978 -12.155  11.700  1.00  0.00    -0.200 F 
ENDBRANCH  58  81
ENDBRANCH  32  33
ENDBRANCH  24  27
ENDBRANCH  22  23
ENDBRANCH  21  22
ENDBRANCH  20  21
ENDBRANCH   1  20
TORSDOF 15
