REMARK SMILES C[C@H](Cc1cccs1)N(C)C(=O)N1CC[C@@H](CC(=O)NCCCCNC(=O)c2ccc(-c3c4nc(c(-c5c(F)c(F)c(F)c(F)c5F)c5ccc([nH]5)c(-c5c(F)c(F)c(F)c(F)c5F)c5nc(c(-c6c(F)c(F)c(F)c(F)c6F)c6ccc3[nH]6)C=C5)C=C4)cc2)C1
REMARK SMILES IDX 18 1 19 2 20 3 17 5 16 6 13 7 14 8 91 9 15 10 11 11 12 12
REMARK SMILES IDX 9 13 10 14 2 15 1 16 3 17 4 18 5 19 8 20 6 21 7 22 21 23
REMARK SMILES IDX 22 24 23 25 24 26 25 27 26 28 27 30 28 31 29 32 90 33 30 34
REMARK SMILES IDX 89 35 31 36 32 37 33 38 83 39 34 40 88 41 82 42 84 43 35 44
REMARK SMILES IDX 87 45 81 46 80 47 36 49 68 50 48 51 67 52 49 53 52 54 66 55
REMARK SMILES IDX 85 56 50 57 51 58 65 60 86 61 53 62 37 63 38 64 46 65 39 66
REMARK SMILES IDX 40 67 44 68 47 69 41 70 42 71 45 72 43 73 69 74 70 75 78 76
REMARK SMILES IDX 71 77 72 78 76 79 79 80 73 81 74 82 77 83 75 84 54 85 55 86
REMARK SMILES IDX 63 87 56 88 57 89 61 90 64 91 58 92 59 93 62 94 60 95
REMARK H PARENT 20 4 25 29 84 48 52 59
REMARK Flexibility Score: inf
ROOT
ATOM      1  C   UNL     1      -6.562   2.727  -0.616  1.00  0.00     0.220 C 
ATOM      2  O   UNL     1      -6.144   3.774  -1.115  1.00  0.00    -0.275 OA
ATOM      3  N   UNL     1      -7.144   2.807   0.618  1.00  0.00    -0.356 N 
ATOM      4  H   UNL     1      -7.125   3.708   1.015  1.00  0.00     0.163 HD
ENDROOT
BRANCH   1   5
ATOM      5  C   UNL     1      -6.414   1.400  -1.354  1.00  0.00     0.105 C 
BRANCH   5   6
ATOM      6  C   UNL     1      -5.224   0.477  -1.009  1.00  0.00     0.020 C 
ATOM      7  N   UNL     1      -3.018   1.166  -0.383  1.00  0.00    -0.324 N 
ATOM      8  C   UNL     1      -3.931   1.540   0.665  1.00  0.00     0.122 C 
ATOM      9  C   UNL     1      -3.841   0.876  -1.576  1.00  0.00     0.125 C 
ATOM     10  C   UNL     1      -4.916   0.398   0.478  1.00  0.00     0.027 C 
BRANCH   7  11
ATOM     11  C   UNL     1      -1.719   0.723  -0.335  1.00  0.00     0.320 C 
ATOM     12  O   UNL     1      -1.261   0.183  -1.342  1.00  0.00    -0.248 OA
BRANCH  11  13
ATOM     13  N   UNL     1      -0.946   0.870   0.805  1.00  0.00    -0.325 N 
ATOM     14  C   UNL     1      -1.458   0.825   2.166  1.00  0.00     0.149 C 
BRANCH  13  15
ATOM     15  C   UNL     1       0.530   1.056   0.712  1.00  0.00     0.088 C 
ATOM     16  C   UNL     1       0.915   2.537   0.804  1.00  0.00     0.031 C 
BRANCH  15  17
ATOM     17  C   UNL     1       1.320   0.243  -0.341  1.00  0.00     0.071 C 
BRANCH  17  18
ATOM     18  C   UNL     1       1.391   0.736  -1.764  1.00  0.00     0.007 A 
ATOM     19  C   UNL     1       0.854   1.853  -2.377  1.00  0.00     0.015 A 
ATOM     20  S   UNL     1       2.201  -0.260  -2.914  1.00  0.00    -0.149 S 
ATOM     21  C   UNL     1       1.040   1.850  -3.789  1.00  0.00     0.012 A 
ATOM     22  C   UNL     1       1.745   0.749  -4.212  1.00  0.00     0.065 A 
ENDBRANCH  17  18
ENDBRANCH  15  17
ENDBRANCH  13  15
ENDBRANCH  11  13
ENDBRANCH   7  11
ENDBRANCH   5   6
ENDBRANCH   1   5
BRANCH   3  23
ATOM     23  C   UNL     1      -7.786   1.801   1.450  1.00  0.00     0.116 C 
BRANCH  23  24
ATOM     24  C   UNL     1      -7.045   1.559   2.779  1.00  0.00     0.023 C 
BRANCH  24  25
ATOM     25  C   UNL     1      -7.010   2.735   3.736  1.00  0.00     0.023 C 
BRANCH  25  26
ATOM     26  C   UNL     1      -8.376   3.140   4.237  1.00  0.00     0.116 C 
BRANCH  26  27
ATOM     27  N   UNL     1      -9.061   2.041   4.909  1.00  0.00    -0.352 N 
ATOM     28  C   UNL     1      -9.515   1.971   6.202  1.00  0.00     0.251 C 
ATOM     29  H   UNL     1      -9.220   1.240   4.360  1.00  0.00     0.163 HD
ATOM     30  O   UNL     1      -9.865   0.900   6.687  1.00  0.00    -0.269 OA
BRANCH  28  31
ATOM     31  C   UNL     1      -9.559   3.207   7.001  1.00  0.00     0.039 A 
ATOM     32  C   UNL     1      -9.111   3.193   8.322  1.00  0.00     0.014 A 
ATOM     33  C   UNL     1      -9.990   4.394   6.406  1.00  0.00     0.014 A 
ATOM     34  C   UNL     1      -9.034   4.394   9.025  1.00  0.00     0.010 A 
ATOM     35  C   UNL     1      -9.784   5.597   7.056  1.00  0.00     0.010 A 
ATOM     36  C   UNL     1      -9.332   5.607   8.381  1.00  0.00    -0.014 A 
BRANCH  36  37
ATOM     37  C   UNL     1      -9.225   6.908   9.079  1.00  0.00     0.031 A 
ATOM     38  C   UNL     1     -10.451   7.763   9.237  1.00  0.00     0.074 A 
ATOM     39  C   UNL     1      -8.021   7.346   9.491  1.00  0.00     0.049 A 
ATOM     40  N   UNL     1     -10.565   8.962   9.746  1.00  0.00    -0.248 NA
ATOM     41  C   UNL     1     -11.712   7.215   8.710  1.00  0.00     0.031 C 
ATOM     42  C   UNL     1      -6.757   6.624   9.336  1.00  0.00     0.029 A 
ATOM     43  N   UNL     1      -7.665   8.509  10.123  1.00  0.00    -0.354 N 
ATOM     44  C   UNL     1     -11.897   9.315   9.575  1.00  0.00     0.074 A 
ATOM     45  C   UNL     1     -12.534   8.242   8.849  1.00  0.00     0.031 C 
ATOM     46  C   UNL     1      -5.771   7.339   9.902  1.00  0.00     0.029 A 
ATOM     47  C   UNL     1      -6.326   8.586  10.417  1.00  0.00     0.049 A 
ATOM     48  H   UNL     1      -8.307   9.221  10.345  1.00  0.00     0.167 HD
ATOM     49  C   UNL     1     -12.539  10.423  10.014  1.00  0.00     0.037 A 
ATOM     50  C   UNL     1      -5.632   9.558  11.037  1.00  0.00     0.037 A 
ATOM     51  C   UNL     1     -11.898  11.467  10.768  1.00  0.00     0.049 A 
ATOM     52  C   UNL     1      -6.366  10.783  11.510  1.00  0.00     0.074 A 
ATOM     53  C   UNL     1     -12.463  12.594  11.335  1.00  0.00     0.029 A 
ATOM     54  N   UNL     1     -10.540  11.510  11.052  1.00  0.00    -0.354 N 
ATOM     55  N   UNL     1      -7.642  11.070  11.425  1.00  0.00    -0.248 NA
ATOM     56  C   UNL     1      -5.560  11.819  12.169  1.00  0.00     0.031 C 
ATOM     57  C   UNL     1     -11.437  13.351  11.909  1.00  0.00     0.029 A 
ATOM     58  C   UNL     1     -10.242  12.664  11.758  1.00  0.00     0.049 A 
ATOM     59  H   UNL     1      -9.886  10.822  10.791  1.00  0.00     0.167 HD
ATOM     60  C   UNL     1      -7.800  12.300  12.049  1.00  0.00     0.074 A 
ATOM     61  C   UNL     1      -6.488  12.698  12.518  1.00  0.00     0.031 C 
ATOM     62  C   UNL     1      -8.928  13.034  12.221  1.00  0.00     0.037 A 
BRANCH  49  63
ATOM     63  C   UNL     1     -13.998  10.556   9.682  1.00  0.00     0.064 A 
ATOM     64  C   UNL     1     -14.964   9.687  10.215  1.00  0.00     0.173 A 
ATOM     65  C   UNL     1     -14.438  11.565   8.813  1.00  0.00     0.173 A 
ATOM     66  F   UNL     1     -14.599   8.693  11.039  1.00  0.00    -0.203 F 
ATOM     67  C   UNL     1     -16.305   9.794   9.854  1.00  0.00     0.198 A 
ATOM     68  C   UNL     1     -15.785  11.694   8.485  1.00  0.00     0.198 A 
ATOM     69  F   UNL     1     -13.560  12.426   8.276  1.00  0.00    -0.203 F 
ATOM     70  F   UNL     1     -17.195   8.906  10.318  1.00  0.00    -0.200 F 
ATOM     71  C   UNL     1     -16.715  10.801   8.994  1.00  0.00     0.200 A 
ATOM     72  F   UNL     1     -16.181  12.677   7.664  1.00  0.00    -0.200 F 
ATOM     73  F   UNL     1     -18.005  10.904   8.647  1.00  0.00    -0.200 F 
ENDBRANCH  49  63
BRANCH  50  74
ATOM     74  C   UNL     1      -4.178   9.386  11.293  1.00  0.00     0.064 A 
ATOM     75  C   UNL     1      -3.700   9.210  12.600  1.00  0.00     0.173 A 
ATOM     76  C   UNL     1      -3.240   9.386  10.251  1.00  0.00     0.173 A 
ATOM     77  F   UNL     1      -4.557   9.217  13.632  1.00  0.00    -0.203 F 
ATOM     78  C   UNL     1      -2.339   9.060  12.856  1.00  0.00     0.198 A 
ATOM     79  C   UNL     1      -1.882   9.207  10.506  1.00  0.00     0.198 A 
ATOM     80  F   UNL     1      -3.645   9.542   8.982  1.00  0.00    -0.203 F 
ATOM     81  F   UNL     1      -1.908   8.935  14.118  1.00  0.00    -0.200 F 
ATOM     82  C   UNL     1      -1.431   9.053  11.809  1.00  0.00     0.200 A 
ATOM     83  F   UNL     1      -1.009   9.183   9.489  1.00  0.00    -0.200 F 
ATOM     84  F   UNL     1      -0.123   8.902  12.054  1.00  0.00    -0.200 F 
ENDBRANCH  50  74
BRANCH  62  85
ATOM     85  C   UNL     1      -8.799  14.322  12.983  1.00  0.00     0.064 A 
ATOM     86  C   UNL     1      -8.142  15.437  12.444  1.00  0.00     0.173 A 
ATOM     87  C   UNL     1      -9.378  14.450  14.255  1.00  0.00     0.173 A 
ATOM     88  F   UNL     1      -7.559  15.361  11.238  1.00  0.00    -0.203 F 
ATOM     89  C   UNL     1      -8.045  16.625  13.163  1.00  0.00     0.198 A 
ATOM     90  C   UNL     1      -9.311  15.651  14.955  1.00  0.00     0.198 A 
ATOM     91  F   UNL     1     -10.025  13.415  14.812  1.00  0.00    -0.203 F 
ATOM     92  F   UNL     1      -7.366  17.661  12.652  1.00  0.00    -0.200 F 
ATOM     93  C   UNL     1      -8.636  16.734  14.413  1.00  0.00     0.200 A 
ATOM     94  F   UNL     1      -9.899  15.759  16.154  1.00  0.00    -0.200 F 
ATOM     95  F   UNL     1      -8.550  17.882  15.099  1.00  0.00    -0.200 F 
ENDBRANCH  62  85
ENDBRANCH  36  37
ENDBRANCH  28  31
ENDBRANCH  26  27
ENDBRANCH  25  26
ENDBRANCH  24  25
ENDBRANCH  23  24
ENDBRANCH   3  23
TORSDOF 17
