REMARK SMILES O=C(NCCCCNC(=O)c1ccc(C[NH+]2CC[NH2+]CC2)c(Br)c1)c1ccc(-c2c3nc(c(-c4c(F)c(F)c(F)c(F)c4F)c4ccc([nH]4)c(-c4c(F)c(F)c(F)c(F)c4F)c4nc(c(-c5c(F)c(F)c(F)c(F)c5F)c5ccc2[nH]5)C=C4)C=C3)cc1
REMARK SMILES IDX 5 1 4 2 3 3 1 4 2 5 25 7 26 8 87 9 27 10 86 11 28 12 29 13
REMARK SMILES IDX 30 14 80 15 31 16 85 17 79 18 81 19 32 20 84 21 78 22 77 23
REMARK SMILES IDX 33 25 65 26 45 27 64 28 46 29 49 30 63 31 82 32 47 33 48 34
REMARK SMILES IDX 62 36 83 37 50 38 34 39 35 40 43 41 36 42 37 43 41 44 44 45
REMARK SMILES IDX 38 46 39 47 42 48 40 49 66 50 67 51 75 52 68 53 69 54 73 55
REMARK SMILES IDX 76 56 70 57 71 58 74 59 72 60 51 61 52 62 60 63 53 64 54 65
REMARK SMILES IDX 58 66 61 67 55 68 56 69 59 70 57 71 6 72 7 73 8 74 9 75
REMARK SMILES IDX 10 77 11 78 12 79 24 80 13 81 22 82 14 83 23 84 15 85 16 86
REMARK SMILES IDX 17 87 21 88 18 90 20 91 19 92
REMARK H PARENT 3 6 81 24 49 35 8 76 16 89 19 93 19 94
REMARK Flexibility Score: inf
ROOT
ATOM      1  C   UNL     1       4.991  -0.875   2.367  1.00  0.00     0.023 C 
ENDROOT
BRANCH   1   2
ATOM      2  C   UNL     1       4.639  -1.003   0.889  1.00  0.00     0.116 C 
BRANCH   2   3
ATOM      3  N   UNL     1       3.205  -1.026   0.653  1.00  0.00    -0.352 N 
ATOM      4  O   UNL     1       1.196  -0.271  -0.032  1.00  0.00    -0.269 OA
ATOM      5  C   UNL     1       2.418  -0.170  -0.077  1.00  0.00     0.251 C 
ATOM      6  H   UNL     1       2.724  -1.770   1.083  1.00  0.00     0.163 HD
BRANCH   5   7
ATOM      7  C   UNL     1       3.032   0.896  -0.901  1.00  0.00     0.039 A 
ATOM      8  C   UNL     1       4.127   0.635  -1.729  1.00  0.00     0.014 A 
ATOM      9  C   UNL     1       2.474   2.177  -0.863  1.00  0.00     0.014 A 
ATOM     10  C   UNL     1       4.742   1.679  -2.418  1.00  0.00     0.010 A 
ATOM     11  C   UNL     1       3.047   3.207  -1.611  1.00  0.00     0.010 A 
ATOM     12  C   UNL     1       4.204   2.974  -2.372  1.00  0.00    -0.014 A 
BRANCH  12  13
ATOM     13  C   UNL     1       4.824   4.078  -3.147  1.00  0.00     0.031 A 
ATOM     14  C   UNL     1       5.428   5.260  -2.445  1.00  0.00     0.074 A 
ATOM     15  C   UNL     1       4.803   4.033  -4.492  1.00  0.00     0.049 A 
ATOM     16  N   UNL     1       5.918   6.364  -2.950  1.00  0.00    -0.248 NA
ATOM     17  C   UNL     1       5.478   5.197  -0.977  1.00  0.00     0.031 C 
ATOM     18  C   UNL     1       4.246   2.939  -5.287  1.00  0.00     0.029 A 
ATOM     19  N   UNL     1       5.243   4.936  -5.426  1.00  0.00    -0.354 N 
ATOM     20  C   UNL     1       6.312   7.137  -1.866  1.00  0.00     0.074 A 
ATOM     21  C   UNL     1       5.978   6.386  -0.673  1.00  0.00     0.031 C 
ATOM     22  C   UNL     1       4.378   3.232  -6.589  1.00  0.00     0.029 A 
ATOM     23  C   UNL     1       4.970   4.560  -6.718  1.00  0.00     0.049 A 
ATOM     24  H   UNL     1       5.709   5.772  -5.194  1.00  0.00     0.167 HD
ATOM     25  C   UNL     1       6.900   8.358  -1.868  1.00  0.00     0.037 A 
ATOM     26  C   UNL     1       5.140   5.223  -7.877  1.00  0.00     0.037 A 
ATOM     27  C   UNL     1       7.228   9.095  -3.063  1.00  0.00     0.049 A 
ATOM     28  C   UNL     1       5.748   6.597  -7.856  1.00  0.00     0.074 A 
ATOM     29  C   UNL     1       7.860  10.321  -3.174  1.00  0.00     0.029 A 
ATOM     30  N   UNL     1       6.934   8.680  -4.355  1.00  0.00    -0.354 N 
ATOM     31  N   UNL     1       6.150   7.305  -6.829  1.00  0.00    -0.248 NA
ATOM     32  C   UNL     1       5.928   7.263  -9.152  1.00  0.00     0.031 C 
ATOM     33  C   UNL     1       7.891  10.677  -4.526  1.00  0.00     0.029 A 
ATOM     34  C   UNL     1       7.344   9.640  -5.266  1.00  0.00     0.049 A 
ATOM     35  H   UNL     1       6.499   7.828  -4.589  1.00  0.00     0.167 HD
ATOM     36  C   UNL     1       6.660   8.485  -7.354  1.00  0.00     0.074 A 
ATOM     37  C   UNL     1       6.514   8.397  -8.792  1.00  0.00     0.031 C 
ATOM     38  C   UNL     1       7.206   9.538  -6.699  1.00  0.00     0.037 A 
BRANCH  25  39
ATOM     39  C   UNL     1       7.188   8.992  -0.536  1.00  0.00     0.064 A 
ATOM     40  C   UNL     1       8.156   8.477   0.340  1.00  0.00     0.173 A 
ATOM     41  C   UNL     1       6.492  10.143  -0.133  1.00  0.00     0.173 A 
ATOM     42  F   UNL     1       8.848   7.375   0.010  1.00  0.00    -0.203 F 
ATOM     43  C   UNL     1       8.383   9.061   1.585  1.00  0.00     0.198 A 
ATOM     44  C   UNL     1       6.746  10.745   1.096  1.00  0.00     0.198 A 
ATOM     45  F   UNL     1       5.564  10.688  -0.934  1.00  0.00    -0.203 F 
ATOM     46  F   UNL     1       9.265   8.510   2.430  1.00  0.00    -0.200 F 
ATOM     47  C   UNL     1       7.681  10.196   1.960  1.00  0.00     0.200 A 
ATOM     48  F   UNL     1       6.079  11.853   1.449  1.00  0.00    -0.200 F 
ATOM     49  F   UNL     1       7.899  10.755   3.158  1.00  0.00    -0.200 F 
ENDBRANCH  25  39
BRANCH  26  50
ATOM     50  C   UNL     1       4.711   4.582  -9.146  1.00  0.00     0.064 A 
ATOM     51  C   UNL     1       5.651   4.122 -10.076  1.00  0.00     0.173 A 
ATOM     52  C   UNL     1       3.353   4.370  -9.428  1.00  0.00     0.173 A 
ATOM     53  F   UNL     1       6.960   4.318  -9.858  1.00  0.00    -0.203 F 
ATOM     54  C   UNL     1       5.250   3.475 -11.243  1.00  0.00     0.198 A 
ATOM     55  C   UNL     1       2.954   3.697 -10.580  1.00  0.00     0.198 A 
ATOM     56  F   UNL     1       2.414   4.784  -8.564  1.00  0.00    -0.203 F 
ATOM     57  F   UNL     1       6.168   3.067 -12.130  1.00  0.00    -0.200 F 
ATOM     58  C   UNL     1       3.902   3.254 -11.489  1.00  0.00     0.200 A 
ATOM     59  F   UNL     1       1.653   3.467 -10.803  1.00  0.00    -0.200 F 
ATOM     60  F   UNL     1       3.518   2.614 -12.601  1.00  0.00    -0.200 F 
ENDBRANCH  26  50
BRANCH  38  61
ATOM     61  C   UNL     1       7.746  10.669  -7.526  1.00  0.00     0.064 A 
ATOM     62  C   UNL     1       6.904  11.573  -8.188  1.00  0.00     0.173 A 
ATOM     63  C   UNL     1       9.131  10.891  -7.592  1.00  0.00     0.173 A 
ATOM     64  F   UNL     1       5.575  11.396  -8.170  1.00  0.00    -0.203 F 
ATOM     65  C   UNL     1       7.429  12.654  -8.893  1.00  0.00     0.198 A 
ATOM     66  C   UNL     1       9.651  11.989  -8.272  1.00  0.00     0.198 A 
ATOM     67  F   UNL     1       9.980  10.056  -6.973  1.00  0.00    -0.203 F 
ATOM     68  F   UNL     1       6.609  13.489  -9.545  1.00  0.00    -0.200 F 
ATOM     69  C   UNL     1       8.800  12.867  -8.924  1.00  0.00     0.200 A 
ATOM     70  F   UNL     1      10.974  12.200  -8.287  1.00  0.00    -0.200 F 
ATOM     71  F   UNL     1       9.302  13.920  -9.585  1.00  0.00    -0.200 F 
ENDBRANCH  38  61
ENDBRANCH  12  13
ENDBRANCH   5   7
ENDBRANCH   2   3
ENDBRANCH   1   2
BRANCH   1  72
ATOM     72  C   UNL     1       4.564  -2.052   3.246  1.00  0.00     0.023 C 
BRANCH  72  73
ATOM     73  C   UNL     1       5.077  -3.421   2.803  1.00  0.00     0.116 C 
BRANCH  73  74
ATOM     74  N   UNL     1       6.532  -3.491   2.768  1.00  0.00    -0.352 N 
ATOM     75  C   UNL     1       7.364  -4.421   3.346  1.00  0.00     0.251 C 
ATOM     76  H   UNL     1       6.980  -2.776   2.261  1.00  0.00     0.163 HD
ATOM     77  O   UNL     1       8.577  -4.277   3.336  1.00  0.00    -0.269 OA
BRANCH  75  78
ATOM     78  C   UNL     1       6.764  -5.592   4.008  1.00  0.00     0.040 A 
ATOM     79  C   UNL     1       5.983  -6.486   3.279  1.00  0.00     0.014 A 
ATOM     80  C   UNL     1       6.953  -5.764   5.377  1.00  0.00     0.030 A 
ATOM     81  C   UNL     1       5.276  -7.477   3.954  1.00  0.00     0.011 A 
ATOM     82  C   UNL     1       6.238  -6.758   6.051  1.00  0.00     0.027 A 
ATOM     83  C   UNL     1       5.321  -7.573   5.360  1.00  0.00     0.020 A 
ATOM     84  Br  UNL     1       6.563  -6.914   7.917  1.00  0.00    -0.050 Br
BRANCH  83  85
ATOM     85  C   UNL     1       4.338  -8.505   6.039  1.00  0.00     0.300 C 
BRANCH  85  86
ATOM     86  N   UNL     1       2.976  -7.997   6.266  1.00  0.00    -0.322 N 
ATOM     87  C   UNL     1       2.846  -6.925   7.259  1.00  0.00     0.324 C 
ATOM     88  C   UNL     1       2.158  -7.735   5.075  1.00  0.00     0.324 C 
ATOM     89  H   UNL     1       2.563  -8.828   6.691  1.00  0.00     0.348 HD
ATOM     90  C   UNL     1       2.905  -5.488   6.693  1.00  0.00     0.322 C 
ATOM     91  C   UNL     1       2.151  -6.276   4.555  1.00  0.00     0.322 C 
ATOM     92  N   UNL     1       1.943  -5.261   5.600  1.00  0.00    -0.337 N 
ATOM     93  H   UNL     1       2.088  -4.331   5.206  1.00  0.00     0.346 HD
ATOM     94  H   UNL     1       0.991  -5.330   5.960  1.00  0.00     0.346 HD
ENDBRANCH  85  86
ENDBRANCH  83  85
ENDBRANCH  75  78
ENDBRANCH  73  74
ENDBRANCH  72  73
ENDBRANCH   1  72
TORSDOF 13
