REMARK SMILES C[NH+](C)CC(C)(C)CNc1cccc(F)c1C(=O)NCCCCNC(=O)c1ccc(-c2c3nc(c(-c4c(F)c(F)c(F)c(F)c4F)c4ccc([nH]4)c(-c4c(F)c(F)c(F)c(F)c4F)c4nc(c(-c5c(F)c(F)c(F)c(F)c5F)c5ccc2[nH]5)C=C4)C=C3)cc1
REMARK SMILES IDX 20 1 19 2 17 3 18 4 16 6 10 7 11 8 12 9 14 10 13 11 15 12
REMARK SMILES IDX 9 13 8 15 5 16 6 17 7 18 4 19 2 20 1 21 3 22 21 24 22 25
REMARK SMILES IDX 23 26 24 27 25 28 26 30 27 31 28 32 89 33 29 34 88 35 30 36
REMARK SMILES IDX 31 37 32 38 82 39 33 40 87 41 81 42 83 43 34 44 86 45 80 46
REMARK SMILES IDX 79 47 35 49 67 50 47 51 66 52 48 53 51 54 65 55 84 56 49 57
REMARK SMILES IDX 50 58 64 60 85 61 52 62 36 63 37 64 45 65 38 66 39 67 43 68
REMARK SMILES IDX 46 69 40 70 41 71 44 72 42 73 68 74 69 75 77 76 70 77 71 78
REMARK SMILES IDX 75 79 78 80 72 81 73 82 76 83 74 84 53 85 54 86 62 87 55 88
REMARK SMILES IDX 56 89 60 90 63 91 57 92 58 93 61 94 59 95
REMARK H PARENT 19 5 9 14 2 23 24 29 83 48 51 59
REMARK Flexibility Score: inf
ROOT
ATOM      1  C   UNL     1      -2.143  -5.444   4.858  1.00  0.00     0.116 C 
ENDROOT
BRANCH   1   2
ATOM      2  N   UNL     1      -1.208  -5.373   3.752  1.00  0.00    -0.352 N 
ATOM      3  C   UNL     1      -1.201  -4.638   2.591  1.00  0.00     0.256 C 
ATOM      4  O   UNL     1      -0.285  -4.901   1.806  1.00  0.00    -0.269 OA
ATOM      5  H   UNL     1      -0.428  -5.965   3.853  1.00  0.00     0.163 HD
BRANCH   3   6
ATOM      6  C   UNL     1      -2.253  -3.641   2.215  1.00  0.00     0.098 A 
ATOM      7  C   UNL     1      -2.506  -3.361   0.844  1.00  0.00     0.050 A 
ATOM      8  C   UNL     1      -3.604  -2.544   0.510  1.00  0.00     0.027 A 
ATOM      9  C   UNL     1      -4.376  -1.923   1.489  1.00  0.00     0.005 A 
ATOM     10  C   UNL     1      -2.954  -2.897   3.170  1.00  0.00     0.138 A 
ATOM     11  C   UNL     1      -4.019  -2.066   2.821  1.00  0.00     0.040 A 
ATOM     12  F   UNL     1      -2.577  -2.878   4.457  1.00  0.00    -0.206 F 
BRANCH   7  13
ATOM     13  N   UNL     1      -1.635  -3.778  -0.169  1.00  0.00    -0.384 N 
ATOM     14  H   UNL     1      -1.356  -4.721  -0.216  1.00  0.00     0.160 HD
BRANCH  13  15
ATOM     15  C   UNL     1      -1.135  -2.823  -1.161  1.00  0.00     0.125 C 
BRANCH  15  16
ATOM     16  C   UNL     1       0.404  -2.595  -1.109  1.00  0.00     0.031 C 
ATOM     17  C   UNL     1       0.778  -1.660  -2.278  1.00  0.00     0.019 C 
ATOM     18  C   UNL     1       1.126  -3.940  -1.389  1.00  0.00     0.019 C 
BRANCH  16  19
ATOM     19  C   UNL     1       0.951  -2.045   0.254  1.00  0.00     0.269 C 
BRANCH  19  20
ATOM     20  N   UNL     1       0.712  -0.697   0.782  1.00  0.00    -0.339 N 
ATOM     21  C   UNL     1       1.319   0.405   0.062  1.00  0.00     0.332 C 
ATOM     22  C   UNL     1      -0.637  -0.405   1.219  1.00  0.00     0.332 C 
ATOM     23  H   UNL     1       1.255  -0.763   1.642  1.00  0.00     0.347 HD
ENDBRANCH  19  20
ENDBRANCH  16  19
ENDBRANCH  15  16
ENDBRANCH  13  15
ENDBRANCH   7  13
ENDBRANCH   3   6
ENDBRANCH   1   2
BRANCH   1  24
ATOM     24  C   UNL     1      -2.477  -6.872   5.277  1.00  0.00     0.023 C 
BRANCH  24  25
ATOM     25  C   UNL     1      -1.306  -7.743   5.725  1.00  0.00     0.023 C 
BRANCH  25  26
ATOM     26  C   UNL     1      -0.401  -7.156   6.802  1.00  0.00     0.116 C 
BRANCH  26  27
ATOM     27  N   UNL     1      -1.109  -6.769   8.014  1.00  0.00    -0.352 N 
ATOM     28  C   UNL     1      -0.889  -7.129   9.323  1.00  0.00     0.251 C 
ATOM     29  H   UNL     1      -1.863  -6.153   7.875  1.00  0.00     0.163 HD
ATOM     30  O   UNL     1      -1.663  -6.758  10.201  1.00  0.00    -0.269 OA
BRANCH  28  31
ATOM     31  C   UNL     1       0.253  -8.001   9.676  1.00  0.00     0.039 A 
ATOM     32  C   UNL     1       0.031  -9.084  10.532  1.00  0.00     0.014 A 
ATOM     33  C   UNL     1       1.529  -7.768   9.158  1.00  0.00     0.014 A 
ATOM     34  C   UNL     1       1.064  -9.987  10.791  1.00  0.00     0.010 A 
ATOM     35  C   UNL     1       2.535  -8.711   9.352  1.00  0.00     0.010 A 
ATOM     36  C   UNL     1       2.311  -9.835  10.162  1.00  0.00    -0.014 A 
BRANCH  36  37
ATOM     37  C   UNL     1       3.380 -10.855  10.312  1.00  0.00     0.031 A 
ATOM     38  C   UNL     1       4.690 -10.495  10.951  1.00  0.00     0.074 A 
ATOM     39  C   UNL     1       3.201 -12.085   9.792  1.00  0.00     0.049 A 
ATOM     40  N   UNL     1       5.769 -11.223  11.093  1.00  0.00    -0.248 NA
ATOM     41  C   UNL     1       4.818  -9.126  11.472  1.00  0.00     0.031 C 
ATOM     42  C   UNL     1       1.999 -12.538   9.091  1.00  0.00     0.029 A 
ATOM     43  N   UNL     1       4.035 -13.176   9.758  1.00  0.00    -0.354 N 
ATOM     44  C   UNL     1       6.707 -10.396  11.694  1.00  0.00     0.074 A 
ATOM     45  C   UNL     1       6.088  -9.098  11.851  1.00  0.00     0.031 C 
ATOM     46  C   UNL     1       2.164 -13.816   8.716  1.00  0.00     0.029 A 
ATOM     47  C   UNL     1       3.495 -14.263   9.116  1.00  0.00     0.049 A 
ATOM     48  H   UNL     1       4.936 -13.178  10.156  1.00  0.00     0.167 HD
ATOM     49  C   UNL     1       7.963 -10.700  12.098  1.00  0.00     0.037 A 
ATOM     50  C   UNL     1       4.013 -15.482   8.870  1.00  0.00     0.037 A 
ATOM     51  C   UNL     1       8.558 -12.004  11.980  1.00  0.00     0.049 A 
ATOM     52  C   UNL     1       5.400 -15.805   9.353  1.00  0.00     0.074 A 
ATOM     53  C   UNL     1       9.787 -12.434  12.449  1.00  0.00     0.029 A 
ATOM     54  N   UNL     1       7.969 -13.089  11.348  1.00  0.00    -0.354 N 
ATOM     55  N   UNL     1       6.250 -15.037   9.990  1.00  0.00    -0.248 NA
ATOM     56  C   UNL     1       5.899 -17.162   9.088  1.00  0.00     0.031 C 
ATOM     57  C   UNL     1       9.963 -13.764  12.058  1.00  0.00     0.029 A 
ATOM     58  C   UNL     1       8.822 -14.180  11.390  1.00  0.00     0.049 A 
ATOM     59  H   UNL     1       7.077 -13.084  10.931  1.00  0.00     0.167 HD
ATOM     60  C   UNL     1       7.375 -15.817  10.216  1.00  0.00     0.074 A 
ATOM     61  C   UNL     1       7.095 -17.125   9.660  1.00  0.00     0.031 C 
ATOM     62  C   UNL     1       8.534 -15.476  10.829  1.00  0.00     0.037 A 
BRANCH  49  63
ATOM     63  C   UNL     1       8.781  -9.605  12.718  1.00  0.00     0.064 A 
ATOM     64  C   UNL     1       9.909  -9.098  12.054  1.00  0.00     0.173 A 
ATOM     65  C   UNL     1       8.487  -9.097  13.992  1.00  0.00     0.173 A 
ATOM     66  F   UNL     1      10.239  -9.555  10.836  1.00  0.00    -0.203 F 
ATOM     67  C   UNL     1      10.713  -8.128  12.645  1.00  0.00     0.198 A 
ATOM     68  C   UNL     1       9.276  -8.106  14.568  1.00  0.00     0.198 A 
ATOM     69  F   UNL     1       7.415  -9.542  14.665  1.00  0.00    -0.203 F 
ATOM     70  F   UNL     1      11.800  -7.678  12.003  1.00  0.00    -0.200 F 
ATOM     71  C   UNL     1      10.393  -7.628  13.898  1.00  0.00     0.200 A 
ATOM     72  F   UNL     1       8.951  -7.606  15.768  1.00  0.00    -0.200 F 
ATOM     73  F   UNL     1      11.159  -6.683  14.460  1.00  0.00    -0.200 F 
ENDBRANCH  49  63
BRANCH  50  74
ATOM     74  C   UNL     1       3.188 -16.491   8.160  1.00  0.00     0.064 A 
ATOM     75  C   UNL     1       2.895 -16.365   6.794  1.00  0.00     0.173 A 
ATOM     76  C   UNL     1       2.628 -17.574   8.851  1.00  0.00     0.173 A 
ATOM     77  F   UNL     1       3.402 -15.341   6.091  1.00  0.00    -0.203 F 
ATOM     78  C   UNL     1       2.053 -17.270   6.153  1.00  0.00     0.198 A 
ATOM     79  C   UNL     1       1.804 -18.492   8.203  1.00  0.00     0.198 A 
ATOM     80  F   UNL     1       2.896 -17.747  10.154  1.00  0.00    -0.203 F 
ATOM     81  F   UNL     1       1.757 -17.105   4.856  1.00  0.00    -0.200 F 
ATOM     82  C   UNL     1       1.509 -18.334   6.857  1.00  0.00     0.200 A 
ATOM     83  F   UNL     1       1.296 -19.529   8.883  1.00  0.00    -0.200 F 
ATOM     84  F   UNL     1       0.700 -19.205   6.240  1.00  0.00    -0.200 F 
ENDBRANCH  50  74
BRANCH  62  85
ATOM     85  C   UNL     1       9.597 -16.528  10.946  1.00  0.00     0.064 A 
ATOM     86  C   UNL     1       9.914 -17.083  12.195  1.00  0.00     0.173 A 
ATOM     87  C   UNL     1      10.363 -16.919   9.838  1.00  0.00     0.173 A 
ATOM     88  F   UNL     1       9.216 -16.734  13.287  1.00  0.00    -0.203 F 
ATOM     89  C   UNL     1      10.973 -17.976  12.334  1.00  0.00     0.198 A 
ATOM     90  C   UNL     1      11.404 -17.832   9.977  1.00  0.00     0.198 A 
ATOM     91  F   UNL     1      10.090 -16.425   8.621  1.00  0.00    -0.203 F 
ATOM     92  F   UNL     1      11.282 -18.463  13.544  1.00  0.00    -0.200 F 
ATOM     93  C   UNL     1      11.715 -18.351  11.225  1.00  0.00     0.200 A 
ATOM     94  F   UNL     1      12.107 -18.211   8.901  1.00  0.00    -0.200 F 
ATOM     95  F   UNL     1      12.732 -19.214  11.359  1.00  0.00    -0.200 F 
ENDBRANCH  62  85
ENDBRANCH  36  37
ENDBRANCH  28  31
ENDBRANCH  26  27
ENDBRANCH  25  26
ENDBRANCH  24  25
ENDBRANCH   1  24
TORSDOF 16
