REMARK SMILES Cc1ccc(/C=C(\NC(=O)c2cccc(C)c2)C(=O)NCCCCNC(=O)c2ccc(-c3c4nc(c(-c5c(F)c(F)c(F)c(F)c5F)c5ccc([nH]5)c(-c5c(F)c(F)c(F)c(F)c5F)c5nc(c(-c6c(F)c(F)c(F)c(F)c6F)c6ccc3[nH]6)C=C5)C=C4)cc2)cc1
REMARK SMILES IDX 22 1 21 2 20 3 18 4 19 5 7 7 6 8 5 9 1 10 2 11 3 12 92 13
REMARK SMILES IDX 4 14 91 15 8 16 9 17 10 19 11 20 12 21 17 22 13 23 15 24
REMARK SMILES IDX 14 25 16 26 23 27 24 28 25 29 26 30 27 32 28 33 29 34 90 35
REMARK SMILES IDX 30 36 89 37 31 38 32 39 33 40 83 41 34 42 88 43 82 44 84 45
REMARK SMILES IDX 35 46 87 47 81 48 80 49 36 51 68 52 48 53 67 54 49 55 52 56
REMARK SMILES IDX 66 57 85 58 50 59 51 60 65 62 86 63 53 64 37 65 38 66 46 67
REMARK SMILES IDX 39 68 40 69 44 70 47 71 41 72 42 73 45 74 43 75 69 76 70 77
REMARK SMILES IDX 78 78 71 79 72 80 76 81 79 82 73 83 74 84 77 85 75 86 54 87
REMARK SMILES IDX 55 88 63 89 56 90 57 91 61 92 64 93 58 94 59 95 62 96 60 97
REMARK H PARENT 20 6 8 18 25 31 84 50 52 61
REMARK Flexibility Score: inf
ROOT
ATOM      1  C   UNL     1      -6.370  -4.111   2.650  1.00  0.00     0.023 C 
ENDROOT
BRANCH   1   2
ATOM      2  C   UNL     1      -5.649  -3.616   1.399  1.00  0.00     0.116 C 
BRANCH   2   3
ATOM      3  N   UNL     1      -5.993  -2.282   0.934  1.00  0.00    -0.351 N 
ATOM      4  C   UNL     1      -5.245  -1.337   0.276  1.00  0.00     0.267 C 
ATOM      5  O   UNL     1      -5.825  -0.314  -0.101  1.00  0.00    -0.268 OA
ATOM      6  H   UNL     1      -6.920  -2.011   1.124  1.00  0.00     0.163 HD
BRANCH   4   7
ATOM      7  C   UNL     1      -3.743  -1.482   0.080  1.00  0.00     0.107 C 
ATOM      8  C   UNL     1      -3.016  -0.339   0.100  1.00  0.00     0.040 C 
BRANCH   8   9
ATOM      9  C   UNL     1      -1.546  -0.126  -0.048  1.00  0.00    -0.023 A 
ATOM     10  C   UNL     1       2.739   0.589  -0.010  1.00  0.00     0.044 C 
ATOM     11  C   UNL     1       1.257   0.380  -0.084  1.00  0.00    -0.051 A 
ATOM     12  C   UNL     1       0.756  -0.875  -0.418  1.00  0.00     0.004 A 
ATOM     13  C   UNL     1       0.352   1.402   0.208  1.00  0.00     0.004 A 
ATOM     14  C   UNL     1      -0.622  -1.106  -0.443  1.00  0.00     0.008 A 
ATOM     15  C   UNL     1      -1.030   1.150   0.229  1.00  0.00     0.008 A 
ENDBRANCH   8   9
BRANCH   7  16
ATOM     16  N   UNL     1      -3.118  -2.691  -0.079  1.00  0.00    -0.317 N 
ATOM     17  C   UNL     1      -3.367  -3.750  -0.914  1.00  0.00     0.255 C 
ATOM     18  H   UNL     1      -2.348  -2.825   0.519  1.00  0.00     0.170 HD
ATOM     19  O   UNL     1      -2.614  -4.722  -0.887  1.00  0.00    -0.269 OA
BRANCH  17  20
ATOM     20  C   UNL     1      -4.551  -3.776  -1.792  1.00  0.00     0.040 A 
ATOM     21  C   UNL     1      -5.331  -4.927  -1.689  1.00  0.00     0.014 A 
ATOM     22  C   UNL     1      -4.972  -2.697  -2.576  1.00  0.00     0.017 A 
ATOM     23  C   UNL     1      -6.613  -4.919  -2.209  1.00  0.00     0.001 A 
ATOM     24  C   UNL     1      -6.240  -2.729  -3.171  1.00  0.00    -0.050 A 
ATOM     25  C   UNL     1      -7.062  -3.841  -2.964  1.00  0.00     0.003 A 
ATOM     26  C   UNL     1      -6.739  -1.599  -4.019  1.00  0.00     0.044 C 
ENDBRANCH  17  20
ENDBRANCH   7  16
ENDBRANCH   4   7
ENDBRANCH   2   3
ENDBRANCH   1   2
BRANCH   1  27
ATOM     27  C   UNL     1      -7.876  -4.342   2.533  1.00  0.00     0.023 C 
BRANCH  27  28
ATOM     28  C   UNL     1      -8.360  -5.365   1.504  1.00  0.00     0.116 C 
BRANCH  28  29
ATOM     29  N   UNL     1      -8.154  -6.763   1.854  1.00  0.00    -0.352 N 
ATOM     30  C   UNL     1      -8.528  -7.928   1.198  1.00  0.00     0.251 C 
ATOM     31  H   UNL     1      -7.668  -6.906   2.698  1.00  0.00     0.163 HD
ATOM     32  O   UNL     1      -8.303  -9.003   1.731  1.00  0.00    -0.269 OA
BRANCH  30  33
ATOM     33  C   UNL     1      -9.079  -7.907  -0.191  1.00  0.00     0.039 A 
ATOM     34  C   UNL     1      -8.752  -8.974  -1.046  1.00  0.00     0.014 A 
ATOM     35  C   UNL     1      -9.786  -6.828  -0.707  1.00  0.00     0.014 A 
ATOM     36  C   UNL     1      -8.908  -8.842  -2.429  1.00  0.00     0.010 A 
ATOM     37  C   UNL     1      -9.872  -6.658  -2.077  1.00  0.00     0.010 A 
ATOM     38  C   UNL     1      -9.354  -7.628  -2.941  1.00  0.00    -0.014 A 
BRANCH  38  39
ATOM     39  C   UNL     1      -9.125  -7.188  -4.316  1.00  0.00     0.031 A 
ATOM     40  C   UNL     1     -10.250  -6.849  -5.213  1.00  0.00     0.074 A 
ATOM     41  C   UNL     1      -7.858  -6.886  -4.686  1.00  0.00     0.049 A 
ATOM     42  N   UNL     1     -10.101  -6.573  -6.463  1.00  0.00    -0.248 NA
ATOM     43  C   UNL     1     -11.652  -6.869  -4.804  1.00  0.00     0.031 C 
ATOM     44  C   UNL     1      -7.428  -5.986  -5.755  1.00  0.00     0.029 A 
ATOM     45  N   UNL     1      -6.666  -7.438  -4.204  1.00  0.00    -0.354 N 
ATOM     46  C   UNL     1     -11.300  -6.117  -6.948  1.00  0.00     0.074 A 
ATOM     47  C   UNL     1     -12.256  -6.442  -5.920  1.00  0.00     0.031 C 
ATOM     48  C   UNL     1      -6.125  -6.185  -6.005  1.00  0.00     0.029 A 
ATOM     49  C   UNL     1      -5.709  -7.338  -5.230  1.00  0.00     0.049 A 
ATOM     50  H   UNL     1      -6.522  -7.826  -3.310  1.00  0.00     0.167 HD
ATOM     51  C   UNL     1     -11.300  -5.417  -8.116  1.00  0.00     0.037 A 
ATOM     52  C   UNL     1      -5.141  -8.465  -5.745  1.00  0.00     0.037 A 
ATOM     53  C   UNL     1     -10.015  -5.565  -8.807  1.00  0.00     0.049 A 
ATOM     54  C   UNL     1      -5.503  -8.679  -7.193  1.00  0.00     0.074 A 
ATOM     55  C   UNL     1      -8.938  -4.722  -9.018  1.00  0.00     0.029 A 
ATOM     56  N   UNL     1      -9.592  -6.844  -9.177  1.00  0.00    -0.354 N 
ATOM     57  N   UNL     1      -6.498  -8.078  -7.787  1.00  0.00    -0.248 NA
ATOM     58  C   UNL     1      -4.787  -9.586  -8.082  1.00  0.00     0.031 C 
ATOM     59  C   UNL     1      -7.834  -5.524  -9.422  1.00  0.00     0.029 A 
ATOM     60  C   UNL     1      -8.252  -6.843  -9.511  1.00  0.00     0.049 A 
ATOM     61  H   UNL     1     -10.172  -7.639  -9.197  1.00  0.00     0.167 HD
ATOM     62  C   UNL     1      -6.585  -8.506  -9.081  1.00  0.00     0.074 A 
ATOM     63  C   UNL     1      -5.481  -9.438  -9.224  1.00  0.00     0.031 C 
ATOM     64  C   UNL     1      -7.574  -8.071  -9.916  1.00  0.00     0.037 A 
BRANCH  51  65
ATOM     65  C   UNL     1     -12.384  -4.459  -8.577  1.00  0.00     0.064 A 
ATOM     66  C   UNL     1     -12.276  -3.812  -9.830  1.00  0.00     0.173 A 
ATOM     67  C   UNL     1     -13.483  -4.032  -7.797  1.00  0.00     0.173 A 
ATOM     68  F   UNL     1     -11.273  -4.097 -10.672  1.00  0.00    -0.203 F 
ATOM     69  C   UNL     1     -13.181  -2.831 -10.255  1.00  0.00     0.198 A 
ATOM     70  C   UNL     1     -14.416  -3.091  -8.246  1.00  0.00     0.198 A 
ATOM     71  F   UNL     1     -13.675  -4.450  -6.543  1.00  0.00    -0.203 F 
ATOM     72  F   UNL     1     -12.992  -2.213 -11.430  1.00  0.00    -0.200 F 
ATOM     73  C   UNL     1     -14.259  -2.480  -9.469  1.00  0.00     0.200 A 
ATOM     74  F   UNL     1     -15.452  -2.761  -7.460  1.00  0.00    -0.200 F 
ATOM     75  F   UNL     1     -15.129  -1.545  -9.875  1.00  0.00    -0.200 F 
ENDBRANCH  51  65
BRANCH  52  76
ATOM     76  C   UNL     1      -4.963  -9.520  -4.709  1.00  0.00     0.064 A 
ATOM     77  C   UNL     1      -4.053  -9.250  -3.666  1.00  0.00     0.173 A 
ATOM     78  C   UNL     1      -5.952 -10.484  -4.470  1.00  0.00     0.173 A 
ATOM     79  F   UNL     1      -3.094  -8.326  -3.841  1.00  0.00    -0.203 F 
ATOM     80  C   UNL     1      -4.211  -9.811  -2.400  1.00  0.00     0.198 A 
ATOM     81  C   UNL     1      -6.097 -11.055  -3.202  1.00  0.00     0.198 A 
ATOM     82  F   UNL     1      -6.865 -10.765  -5.410  1.00  0.00    -0.203 F 
ATOM     83  F   UNL     1      -3.415  -9.427  -1.393  1.00  0.00    -0.200 F 
ATOM     84  C   UNL     1      -5.254 -10.688  -2.162  1.00  0.00     0.200 A 
ATOM     85  F   UNL     1      -7.128 -11.877  -2.956  1.00  0.00    -0.200 F 
ATOM     86  F   UNL     1      -5.481 -11.140  -0.920  1.00  0.00    -0.200 F 
ENDBRANCH  52  76
BRANCH  64  87
ATOM     87  C   UNL     1      -7.931  -8.719 -11.231  1.00  0.00     0.064 A 
ATOM     88  C   UNL     1      -7.724 -10.082 -11.511  1.00  0.00     0.173 A 
ATOM     89  C   UNL     1      -8.647  -7.999 -12.216  1.00  0.00     0.173 A 
ATOM     90  F   UNL     1      -7.179 -10.907 -10.607  1.00  0.00    -0.203 F 
ATOM     91  C   UNL     1      -8.129 -10.661 -12.716  1.00  0.00     0.198 A 
ATOM     92  C   UNL     1      -9.105  -8.595 -13.390  1.00  0.00     0.198 A 
ATOM     93  F   UNL     1      -8.950  -6.703 -12.053  1.00  0.00    -0.203 F 
ATOM     94  F   UNL     1      -7.863 -11.953 -12.952  1.00  0.00    -0.200 F 
ATOM     95  C   UNL     1      -8.829  -9.921 -13.649  1.00  0.00     0.200 A 
ATOM     96  F   UNL     1      -9.835  -7.881 -14.258  1.00  0.00    -0.200 F 
ATOM     97  F   UNL     1      -9.257 -10.492 -14.783  1.00  0.00    -0.200 F 
ENDBRANCH  64  87
ENDBRANCH  38  39
ENDBRANCH  30  33
ENDBRANCH  28  29
ENDBRANCH  27  28
ENDBRANCH   1  27
TORSDOF 14
