REMARK SMILES CC(C)c1ccc([C@]2(C(=O)NCCCCNC(=O)c3ccc(-c4c5nc(c(-c6c(F)c(F)c(F)c(F)c6F)c6ccc([nH]6)c(-c6c(F)c(F)c(F)c(F)c6F)c6nc(c(-c7c(F)c(F)c(F)c(F)c7F)c7ccc4[nH]7)C=C6)C=C5)cc3)CCC[C@@H]2C)cc1
REMARK SMILES IDX 13 1 12 2 11 3 9 4 10 5 8 7 82 8 85 9 83 10 84 11 86 12 7 13
REMARK SMILES IDX 4 14 5 15 88 16 6 17 87 18 2 19 1 20 3 21 14 22 15 23 16 24
REMARK SMILES IDX 17 25 18 27 19 28 20 29 81 30 21 31 80 32 22 33 23 34 24 35
REMARK SMILES IDX 74 36 25 37 79 38 73 39 75 40 26 41 78 42 72 43 71 44 27 46
REMARK SMILES IDX 59 47 39 48 58 49 40 50 43 51 57 52 76 53 41 54 42 55 56 57
REMARK SMILES IDX 77 58 44 59 28 60 29 61 37 62 30 63 31 64 35 65 38 66 32 67
REMARK SMILES IDX 33 68 36 69 34 70 60 71 61 72 69 73 62 74 63 75 67 76 70 77
REMARK SMILES IDX 64 78 65 79 68 80 66 81 45 82 46 83 54 84 47 85 48 86 52 87
REMARK SMILES IDX 55 88 49 89 50 90 53 91 51 92
REMARK H PARENT 11 6 16 26 75 45 43 56
REMARK Flexibility Score: inf
ROOT
ATOM      1  C   UNL     1      -8.807  -3.523   0.404  1.00  0.00     0.023 C 
ENDROOT
BRANCH   1   2
ATOM      2  C   UNL     1      -8.203  -2.264   1.010  1.00  0.00     0.116 C 
BRANCH   2   3
ATOM      3  N   UNL     1      -6.887  -2.432   1.565  1.00  0.00    -0.355 N 
ATOM      4  C   UNL     1      -5.699  -1.824   1.300  1.00  0.00     0.230 C 
ATOM      5  O   UNL     1      -4.949  -1.811   2.289  1.00  0.00    -0.274 OA
ATOM      6  H   UNL     1      -6.835  -3.117   2.270  1.00  0.00     0.163 HD
BRANCH   4   7
ATOM      7  C   UNL     1      -5.229  -1.210  -0.096  1.00  0.00     0.077 C 
ATOM      8  C   UNL     1      -5.811  -1.978  -1.311  1.00  0.00     0.022 C 
ATOM      9  C   UNL     1      -5.732   0.264  -0.359  1.00  0.00     0.006 C 
ATOM     10  C   UNL     1      -6.963  -1.162  -1.903  1.00  0.00     0.002 C 
ATOM     11  C   UNL     1      -7.061   0.137  -1.115  1.00  0.00     0.005 C 
ATOM     12  C   UNL     1      -4.872   1.171  -1.266  1.00  0.00     0.009 C 
BRANCH   7  13
ATOM     13  C   UNL     1      -3.671  -1.318  -0.057  1.00  0.00    -0.032 A 
ATOM     14  C   UNL     1      -0.819  -1.447   0.014  1.00  0.00    -0.045 A 
ATOM     15  C   UNL     1      -1.502  -0.378   0.598  1.00  0.00     0.004 A 
ATOM     16  C   UNL     1      -1.581  -2.499  -0.512  1.00  0.00     0.004 A 
ATOM     17  C   UNL     1      -2.900  -0.334   0.589  1.00  0.00     0.005 A 
ATOM     18  C   UNL     1      -2.982  -2.439  -0.543  1.00  0.00     0.005 A 
BRANCH  14  19
ATOM     19  C   UNL     1       0.698  -1.523  -0.026  1.00  0.00     0.013 C 
ATOM     20  C   UNL     1       1.392  -0.160  -0.139  1.00  0.00     0.012 C 
ATOM     21  C   UNL     1       1.232  -2.289   1.185  1.00  0.00     0.012 C 
ENDBRANCH  14  19
ENDBRANCH   7  13
ENDBRANCH   4   7
ENDBRANCH   2   3
ENDBRANCH   1   2
BRANCH   1  22
ATOM     22  C   UNL     1      -9.659  -4.354   1.359  1.00  0.00     0.023 C 
BRANCH  22  23
ATOM     23  C   UNL     1     -10.738  -3.592   2.123  1.00  0.00     0.116 C 
BRANCH  23  24
ATOM     24  N   UNL     1     -11.612  -2.778   1.291  1.00  0.00    -0.352 N 
ATOM     25  C   UNL     1     -12.929  -2.443   1.521  1.00  0.00     0.251 C 
ATOM     26  H   UNL     1     -11.215  -2.424   0.463  1.00  0.00     0.163 HD
ATOM     27  O   UNL     1     -13.567  -1.800   0.701  1.00  0.00    -0.269 OA
BRANCH  25  28
ATOM     28  C   UNL     1     -13.576  -2.920   2.762  1.00  0.00     0.039 A 
ATOM     29  C   UNL     1     -14.795  -3.596   2.672  1.00  0.00     0.014 A 
ATOM     30  C   UNL     1     -12.948  -2.753   3.998  1.00  0.00     0.014 A 
ATOM     31  C   UNL     1     -15.351  -4.165   3.818  1.00  0.00     0.010 A 
ATOM     32  C   UNL     1     -13.456  -3.397   5.120  1.00  0.00     0.010 A 
ATOM     33  C   UNL     1     -14.669  -4.098   5.045  1.00  0.00    -0.014 A 
BRANCH  33  34
ATOM     34  C   UNL     1     -15.226  -4.729   6.267  1.00  0.00     0.031 A 
ATOM     35  C   UNL     1     -15.613  -3.872   7.441  1.00  0.00     0.074 A 
ATOM     36  C   UNL     1     -15.331  -6.070   6.342  1.00  0.00     0.049 A 
ATOM     37  N   UNL     1     -16.098  -4.229   8.604  1.00  0.00    -0.248 NA
ATOM     38  C   UNL     1     -15.394  -2.424   7.303  1.00  0.00     0.031 C 
ATOM     39  C   UNL     1     -14.925  -7.012   5.298  1.00  0.00     0.029 A 
ATOM     40  N   UNL     1     -15.813  -6.874   7.345  1.00  0.00    -0.354 N 
ATOM     41  C   UNL     1     -16.215  -3.055   9.337  1.00  0.00     0.074 A 
ATOM     42  C   UNL     1     -15.694  -1.986   8.516  1.00  0.00     0.031 C 
ATOM     43  C   UNL     1     -15.213  -8.262   5.697  1.00  0.00     0.029 A 
ATOM     44  C   UNL     1     -15.797  -8.211   7.033  1.00  0.00     0.049 A 
ATOM     45  H   UNL     1     -16.139  -6.524   8.205  1.00  0.00     0.167 HD
ATOM     46  C   UNL     1     -16.741  -2.880  10.573  1.00  0.00     0.037 A 
ATOM     47  C   UNL     1     -16.223  -9.273   7.744  1.00  0.00     0.037 A 
ATOM     48  C   UNL     1     -17.300  -3.940  11.367  1.00  0.00     0.049 A 
ATOM     49  C   UNL     1     -16.836  -9.047   9.100  1.00  0.00     0.074 A 
ATOM     50  C   UNL     1     -17.930  -3.859  12.596  1.00  0.00     0.029 A 
ATOM     51  N   UNL     1     -17.298  -5.279  11.005  1.00  0.00    -0.354 N 
ATOM     52  N   UNL     1     -17.027  -7.923   9.747  1.00  0.00    -0.248 NA
ATOM     53  C   UNL     1     -17.306 -10.240   9.818  1.00  0.00     0.031 C 
ATOM     54  C   UNL     1     -18.273  -5.156  12.996  1.00  0.00     0.029 A 
ATOM     55  C   UNL     1     -17.901  -6.038  11.994  1.00  0.00     0.049 A 
ATOM     56  H   UNL     1     -16.923  -5.637  10.168  1.00  0.00     0.167 HD
ATOM     57  C   UNL     1     -17.672  -8.267  10.928  1.00  0.00     0.074 A 
ATOM     58  C   UNL     1     -17.850  -9.704  10.902  1.00  0.00     0.031 C 
ATOM     59  C   UNL     1     -18.083  -7.466  11.941  1.00  0.00     0.037 A 
BRANCH  46  60
ATOM     60  C   UNL     1     -16.739  -1.486  11.133  1.00  0.00     0.064 A 
ATOM     61  C   UNL     1     -17.549  -0.474  10.595  1.00  0.00     0.173 A 
ATOM     62  C   UNL     1     -15.926  -1.161  12.229  1.00  0.00     0.173 A 
ATOM     63  F   UNL     1     -18.335  -0.728   9.538  1.00  0.00    -0.203 F 
ATOM     64  C   UNL     1     -17.517   0.820  11.109  1.00  0.00     0.198 A 
ATOM     65  C   UNL     1     -15.921   0.126  12.761  1.00  0.00     0.198 A 
ATOM     66  F   UNL     1     -15.134  -2.091  12.784  1.00  0.00    -0.203 F 
ATOM     67  F   UNL     1     -18.254   1.784  10.539  1.00  0.00    -0.200 F 
ATOM     68  C   UNL     1     -16.708   1.117  12.194  1.00  0.00     0.200 A 
ATOM     69  F   UNL     1     -15.147   0.409  13.818  1.00  0.00    -0.200 F 
ATOM     70  F   UNL     1     -16.679   2.363  12.689  1.00  0.00    -0.200 F 
ENDBRANCH  46  60
BRANCH  47  71
ATOM     71  C   UNL     1     -16.145 -10.639   7.164  1.00  0.00     0.064 A 
ATOM     72  C   UNL     1     -17.310 -11.319   6.779  1.00  0.00     0.173 A 
ATOM     73  C   UNL     1     -14.919 -11.295   6.989  1.00  0.00     0.173 A 
ATOM     74  F   UNL     1     -18.508 -10.740   6.945  1.00  0.00    -0.203 F 
ATOM     75  C   UNL     1     -17.253 -12.612   6.265  1.00  0.00     0.198 A 
ATOM     76  C   UNL     1     -14.861 -12.579   6.449  1.00  0.00     0.198 A 
ATOM     77  F   UNL     1     -13.775 -10.686   7.334  1.00  0.00    -0.203 F 
ATOM     78  F   UNL     1     -18.386 -13.256   5.950  1.00  0.00    -0.200 F 
ATOM     79  C   UNL     1     -16.029 -13.240   6.095  1.00  0.00     0.200 A 
ATOM     80  F   UNL     1     -13.675 -13.178   6.274  1.00  0.00    -0.200 F 
ATOM     81  F   UNL     1     -15.974 -14.483   5.599  1.00  0.00    -0.200 F 
ENDBRANCH  47  71
BRANCH  59  82
ATOM     82  C   UNL     1     -18.809  -8.119  13.081  1.00  0.00     0.064 A 
ATOM     83  C   UNL     1     -18.147  -8.940  14.005  1.00  0.00     0.173 A 
ATOM     84  C   UNL     1     -20.182  -7.894  13.265  1.00  0.00     0.173 A 
ATOM     85  F   UNL     1     -16.838  -9.197  13.864  1.00  0.00    -0.203 F 
ATOM     86  C   UNL     1     -18.840  -9.538  15.054  1.00  0.00     0.198 A 
ATOM     87  C   UNL     1     -20.865  -8.468  14.333  1.00  0.00     0.198 A 
ATOM     88  F   UNL     1     -20.860  -7.110  12.413  1.00  0.00    -0.203 F 
ATOM     89  F   UNL     1     -18.199 -10.362  15.894  1.00  0.00    -0.200 F 
ATOM     90  C   UNL     1     -20.196  -9.297  15.221  1.00  0.00     0.200 A 
ATOM     91  F   UNL     1     -22.172  -8.222  14.501  1.00  0.00    -0.200 F 
ATOM     92  F   UNL     1     -20.860  -9.870  16.233  1.00  0.00    -0.200 F 
ENDBRANCH  59  82
ENDBRANCH  33  34
ENDBRANCH  25  28
ENDBRANCH  23  24
ENDBRANCH  22  23
ENDBRANCH   1  22
TORSDOF 13
