REMARK SMILES CCC[C@H](Cn1c(C)cc(=O)cc1C)C(=O)NCCCCNC(=O)c1ccc(-c2c3nc(c(-c4c(F)c(F)c(F)c(F)c4F)c4ccc([nH]4)c(-c4c(F)c(F)c(F)c(F)c4F)c4nc(c(-c5c(F)c(F)c(F)c(F)c5F)c5ccc2[nH]5)C=C4)C=C3)cc1
REMARK SMILES IDX 19 1 18 2 17 3 15 4 16 5 4 7 3 8 2 9 1 10 5 11 6 12 7 13
REMARK SMILES IDX 13 14 8 15 9 16 12 17 14 18 10 19 11 20 20 21 21 22 22 23
REMARK SMILES IDX 23 24 24 26 25 27 26 28 87 29 27 30 86 31 28 32 29 33 30 34
REMARK SMILES IDX 80 35 31 36 85 37 79 38 81 39 32 40 84 41 78 42 77 43 33 45
REMARK SMILES IDX 65 46 45 47 64 48 46 49 49 50 63 51 82 52 47 53 48 54 62 56
REMARK SMILES IDX 83 57 50 58 34 59 35 60 43 61 36 62 37 63 41 64 44 65 38 66
REMARK SMILES IDX 39 67 42 68 40 69 66 70 67 71 75 72 68 73 69 74 73 75 76 76
REMARK SMILES IDX 70 77 71 78 74 79 72 80 51 81 52 82 60 83 53 84 54 85 58 86
REMARK SMILES IDX 61 87 55 88 56 89 59 90 57 91
REMARK H PARENT 17 6 22 25 81 44 49 55
REMARK Flexibility Score: inf
ROOT
ATOM      1  C   UNL     1       0.900   4.114   4.803  1.00  0.00     0.023 C 
ENDROOT
BRANCH   1   2
ATOM      2  C   UNL     1       0.142   4.139   3.481  1.00  0.00     0.116 C 
BRANCH   2   3
ATOM      3  N   UNL     1       1.027   4.386   2.366  1.00  0.00    -0.356 N 
ATOM      4  C   UNL     1       1.153   3.695   1.201  1.00  0.00     0.224 C 
ATOM      5  O   UNL     1       2.014   4.073   0.403  1.00  0.00    -0.275 OA
ATOM      6  H   UNL     1       1.623   5.163   2.464  1.00  0.00     0.163 HD
BRANCH   4   7
ATOM      7  C   UNL     1       0.262   2.498   0.872  1.00  0.00     0.098 C 
BRANCH   7   8
ATOM      8  C   UNL     1      -1.226   2.901   0.760  1.00  0.00     0.015 C 
BRANCH   8   9
ATOM      9  C   UNL     1      -1.521   4.090  -0.170  1.00  0.00    -0.003 C 
ATOM     10  C   UNL     1      -1.135   3.833  -1.619  1.00  0.00     0.004 C 
ENDBRANCH   8   9
ENDBRANCH   7   8
BRANCH   7  11
ATOM     11  C   UNL     1       0.672   1.265   1.737  1.00  0.00     0.135 C 
BRANCH  11  12
ATOM     12  N   UNL     1      -0.431   0.587   2.480  1.00  0.00    -0.348 N 
ATOM     13  C   UNL     1      -0.510   0.621   3.895  1.00  0.00     0.018 A 
ATOM     14  C   UNL     1      -1.483  -0.059   1.790  1.00  0.00     0.018 A 
ATOM     15  C   UNL     1       0.743   0.698   4.733  1.00  0.00     0.064 C 
ATOM     16  C   UNL     1      -1.688   0.497   4.535  1.00  0.00     0.073 A 
ATOM     17  C   UNL     1      -2.695  -0.222   2.352  1.00  0.00     0.073 A 
ATOM     18  C   UNL     1      -1.259  -0.593   0.396  1.00  0.00     0.064 C 
ATOM     19  C   UNL     1      -2.902   0.223   3.743  1.00  0.00     0.182 A 
ATOM     20  O   UNL     1      -4.020   0.286   4.239  1.00  0.00    -0.290 OA
ENDBRANCH  11  12
ENDBRANCH   7  11
ENDBRANCH   4   7
ENDBRANCH   2   3
ENDBRANCH   1   2
BRANCH   1  21
ATOM     21  C   UNL     1       1.013   5.469   5.482  1.00  0.00     0.023 C 
BRANCH  21  22
ATOM     22  C   UNL     1      -0.332   6.106   5.810  1.00  0.00     0.116 C 
BRANCH  22  23
ATOM     23  N   UNL     1      -1.191   5.255   6.629  1.00  0.00    -0.352 N 
ATOM     24  C   UNL     1      -1.566   5.374   7.949  1.00  0.00     0.251 C 
ATOM     25  H   UNL     1      -1.561   4.470   6.164  1.00  0.00     0.163 HD
ATOM     26  O   UNL     1      -2.161   4.471   8.513  1.00  0.00    -0.269 OA
BRANCH  24  27
ATOM     27  C   UNL     1      -1.200   6.599   8.688  1.00  0.00     0.039 A 
ATOM     28  C   UNL     1      -0.643   6.490   9.963  1.00  0.00     0.014 A 
ATOM     29  C   UNL     1      -1.350   7.847   8.086  1.00  0.00     0.014 A 
ATOM     30  C   UNL     1      -0.135   7.631  10.586  1.00  0.00     0.010 A 
ATOM     31  C   UNL     1      -0.725   8.951   8.643  1.00  0.00     0.010 A 
ATOM     32  C   UNL     1      -0.120   8.859   9.905  1.00  0.00    -0.014 A 
BRANCH  32  33
ATOM     33  C   UNL     1       0.490  10.075  10.496  1.00  0.00     0.031 A 
ATOM     34  C   UNL     1      -0.355  11.303  10.697  1.00  0.00     0.074 A 
ATOM     35  C   UNL     1       1.808  10.103  10.774  1.00  0.00     0.049 A 
ATOM     36  N   UNL     1       0.002  12.499  11.088  1.00  0.00    -0.248 NA
ATOM     37  C   UNL     1      -1.786  11.186  10.367  1.00  0.00     0.031 C 
ATOM     38  C   UNL     1       2.746   9.000  10.557  1.00  0.00     0.029 A 
ATOM     39  N   UNL     1       2.589  11.102  11.299  1.00  0.00    -0.354 N 
ATOM     40  C   UNL     1      -1.148  13.274  11.018  1.00  0.00     0.074 A 
ATOM     41  C   UNL     1      -2.195  12.440  10.475  1.00  0.00     0.031 C 
ATOM     42  C   UNL     1       3.963   9.364  10.995  1.00  0.00     0.029 A 
ATOM     43  C   UNL     1       3.900  10.737  11.486  1.00  0.00     0.049 A 
ATOM     44  H   UNL     1       2.242  11.996  11.522  1.00  0.00     0.167 HD
ATOM     45  C   UNL     1      -1.329  14.553  11.415  1.00  0.00     0.037 A 
ATOM     46  C   UNL     1       4.931  11.433  12.002  1.00  0.00     0.037 A 
ATOM     47  C   UNL     1      -0.307  15.352  12.030  1.00  0.00     0.049 A 
ATOM     48  C   UNL     1       4.700  12.847  12.460  1.00  0.00     0.074 A 
ATOM     49  C   UNL     1      -0.411  16.625  12.560  1.00  0.00     0.029 A 
ATOM     50  N   UNL     1       1.005  14.943  12.212  1.00  0.00    -0.354 N 
ATOM     51  N   UNL     1       3.592  13.548  12.449  1.00  0.00    -0.248 NA
ATOM     52  C   UNL     1       5.863  13.570  12.995  1.00  0.00     0.031 C 
ATOM     53  C   UNL     1       0.847  16.997  13.041  1.00  0.00     0.029 A 
ATOM     54  C   UNL     1       1.727  15.946  12.833  1.00  0.00     0.049 A 
ATOM     55  H   UNL     1       1.368  14.069  11.940  1.00  0.00     0.167 HD
ATOM     56  C   UNL     1       3.918  14.786  12.984  1.00  0.00     0.074 A 
ATOM     57  C   UNL     1       5.324  14.736  13.328  1.00  0.00     0.031 C 
ATOM     58  C   UNL     1       3.126  15.869  13.167  1.00  0.00     0.037 A 
BRANCH  45  59
ATOM     59  C   UNL     1      -2.695  15.147  11.239  1.00  0.00     0.064 A 
ATOM     60  C   UNL     1      -3.780  14.724  12.022  1.00  0.00     0.173 A 
ATOM     61  C   UNL     1      -2.917  16.164  10.300  1.00  0.00     0.173 A 
ATOM     62  F   UNL     1      -3.621  13.743  12.923  1.00  0.00    -0.203 F 
ATOM     63  C   UNL     1      -5.046  15.275  11.848  1.00  0.00     0.198 A 
ATOM     64  C   UNL     1      -4.179  16.734  10.150  1.00  0.00     0.198 A 
ATOM     65  F   UNL     1      -1.912  16.606   9.530  1.00  0.00    -0.203 F 
ATOM     66  F   UNL     1      -6.078  14.818  12.570  1.00  0.00    -0.200 F 
ATOM     67  C   UNL     1      -5.243  16.284  10.918  1.00  0.00     0.200 A 
ATOM     68  F   UNL     1      -4.367  17.716   9.257  1.00  0.00    -0.200 F 
ATOM     69  F   UNL     1      -6.462  16.818  10.756  1.00  0.00    -0.200 F 
ENDBRANCH  45  59
BRANCH  46  70
ATOM     70  C   UNL     1       6.258  10.784  12.161  1.00  0.00     0.064 A 
ATOM     71  C   UNL     1       6.727  10.430  13.433  1.00  0.00     0.173 A 
ATOM     72  C   UNL     1       7.072  10.489  11.059  1.00  0.00     0.173 A 
ATOM     73  F   UNL     1       5.990  10.708  14.519  1.00  0.00    -0.203 F 
ATOM     74  C   UNL     1       7.965   9.813  13.599  1.00  0.00     0.198 A 
ATOM     75  C   UNL     1       8.302   9.854  11.223  1.00  0.00     0.198 A 
ATOM     76  F   UNL     1       6.666  10.804   9.820  1.00  0.00    -0.203 F 
ATOM     77  F   UNL     1       8.403   9.512  14.829  1.00  0.00    -0.200 F 
ATOM     78  C   UNL     1       8.749   9.520  12.493  1.00  0.00     0.200 A 
ATOM     79  F   UNL     1       9.051   9.561  10.152  1.00  0.00    -0.200 F 
ATOM     80  F   UNL     1       9.937   8.921  12.652  1.00  0.00    -0.200 F 
ENDBRANCH  46  70
BRANCH  58  81
ATOM     81  C   UNL     1       3.751  17.095  13.758  1.00  0.00     0.064 A 
ATOM     82  C   UNL     1       4.565  17.933  12.985  1.00  0.00     0.173 A 
ATOM     83  C   UNL     1       3.448  17.488  15.069  1.00  0.00     0.173 A 
ATOM     84  F   UNL     1       4.890  17.589  11.730  1.00  0.00    -0.203 F 
ATOM     85  C   UNL     1       5.053  19.128  13.505  1.00  0.00     0.198 A 
ATOM     86  C   UNL     1       3.920  18.695  15.578  1.00  0.00     0.198 A 
ATOM     87  F   UNL     1       2.666  16.720  15.843  1.00  0.00    -0.203 F 
ATOM     88  F   UNL     1       5.842  19.910  12.755  1.00  0.00    -0.200 F 
ATOM     89  C   UNL     1       4.721  19.513  14.795  1.00  0.00     0.200 A 
ATOM     90  F   UNL     1       3.586  19.073  16.819  1.00  0.00    -0.200 F 
ATOM     91  F   UNL     1       5.171  20.676  15.285  1.00  0.00    -0.200 F 
ENDBRANCH  58  81
ENDBRANCH  32  33
ENDBRANCH  24  27
ENDBRANCH  22  23
ENDBRANCH  21  22
ENDBRANCH   1  21
TORSDOF 15
