REMARK SMILES O=C(NCCCCNC(=O)[C@H](c1c[nH]c2ccc(Cl)cc12)[NH+]1CCN(c2cccc(Cl)c2)CC1)c1ccc(-c2c3nc(c(-c4c(F)c(F)c(F)c(F)c4F)c4ccc([nH]4)c(-c4c(F)c(F)c(F)c(F)c4F)c4nc(c(-c5c(F)c(F)c(F)c(F)c5F)c5ccc2[nH]5)C=C4)C=C3)cc1
REMARK SMILES IDX 5 1 4 2 3 3 1 4 2 5 35 7 36 8 97 9 37 10 96 11 38 12 39 13
REMARK SMILES IDX 40 14 90 15 41 16 95 17 89 18 91 19 42 20 94 21 88 22 87 23
REMARK SMILES IDX 43 25 75 26 55 27 74 28 56 29 59 30 73 31 92 32 57 33 58 34
REMARK SMILES IDX 72 36 93 37 60 38 44 39 45 40 53 41 46 42 47 43 51 44 54 45
REMARK SMILES IDX 48 46 49 47 52 48 50 49 76 50 77 51 85 52 78 53 79 54 83 55
REMARK SMILES IDX 86 56 80 57 81 58 84 59 82 60 61 61 62 62 70 63 63 64 64 65
REMARK SMILES IDX 68 66 71 67 65 68 66 69 69 70 67 71 6 72 7 73 8 74 9 75
REMARK SMILES IDX 10 77 11 78 22 79 23 80 34 81 24 83 33 84 25 85 26 86 27 87
REMARK SMILES IDX 32 88 28 89 30 90 29 91 31 92 12 93 13 94 21 95 14 96 15 97
REMARK SMILES IDX 20 98 16 100 18 101 17 102 19 103
REMARK H PARENT 3 6 91 24 59 35 8 76 22 82 14 99
REMARK Flexibility Score: inf
ROOT
ATOM      1  C   UNL     1       7.730  -9.892   1.114  1.00  0.00     0.023 C 
ENDROOT
BRANCH   1   2
ATOM      2  C   UNL     1       6.922 -11.177   0.972  1.00  0.00     0.116 C 
BRANCH   2   3
ATOM      3  N   UNL     1       7.658 -12.236   0.302  1.00  0.00    -0.352 N 
ATOM      4  O   UNL     1       8.597 -14.277   0.077  1.00  0.00    -0.269 OA
ATOM      5  C   UNL     1       7.823 -13.549   0.683  1.00  0.00     0.251 C 
ATOM      6  H   UNL     1       8.100 -11.980  -0.539  1.00  0.00     0.163 HD
BRANCH   5   7
ATOM      7  C   UNL     1       7.080 -14.068   1.853  1.00  0.00     0.039 A 
ATOM      8  C   UNL     1       5.713 -13.818   2.000  1.00  0.00     0.014 A 
ATOM      9  C   UNL     1       7.768 -14.809   2.817  1.00  0.00     0.014 A 
ATOM     10  C   UNL     1       5.068 -14.187   3.176  1.00  0.00     0.010 A 
ATOM     11  C   UNL     1       7.099 -15.245   3.964  1.00  0.00     0.010 A 
ATOM     12  C   UNL     1       5.753 -14.905   4.170  1.00  0.00    -0.014 A 
BRANCH  12  13
ATOM     13  C   UNL     1       5.034 -15.310   5.404  1.00  0.00     0.031 A 
ATOM     14  C   UNL     1       5.406 -14.735   6.742  1.00  0.00     0.074 A 
ATOM     15  C   UNL     1       4.017 -16.186   5.307  1.00  0.00     0.049 A 
ATOM     16  N   UNL     1       4.864 -14.952   7.915  1.00  0.00    -0.248 NA
ATOM     17  C   UNL     1       6.541 -13.800   6.772  1.00  0.00     0.031 C 
ATOM     18  C   UNL     1       3.570 -16.820   4.066  1.00  0.00     0.029 A 
ATOM     19  N   UNL     1       3.163 -16.680   6.260  1.00  0.00    -0.354 N 
ATOM     20  C   UNL     1       5.602 -14.203   8.822  1.00  0.00     0.074 A 
ATOM     21  C   UNL     1       6.647 -13.543   8.068  1.00  0.00     0.031 C 
ATOM     22  C   UNL     1       2.495 -17.579   4.323  1.00  0.00     0.029 A 
ATOM     23  C   UNL     1       2.209 -17.527   5.753  1.00  0.00     0.049 A 
ATOM     24  H   UNL     1       3.227 -16.449   7.215  1.00  0.00     0.167 HD
ATOM     25  C   UNL     1       5.418 -14.073  10.158  1.00  0.00     0.037 A 
ATOM     26  C   UNL     1       1.216 -18.191   6.371  1.00  0.00     0.037 A 
ATOM     27  C   UNL     1       4.362 -14.713  10.900  1.00  0.00     0.049 A 
ATOM     28  C   UNL     1       1.041 -18.035   7.854  1.00  0.00     0.074 A 
ATOM     29  C   UNL     1       4.065 -14.605  12.248  1.00  0.00     0.029 A 
ATOM     30  N   UNL     1       3.431 -15.585  10.356  1.00  0.00    -0.354 N 
ATOM     31  N   UNL     1       1.720 -17.293   8.693  1.00  0.00    -0.248 NA
ATOM     32  C   UNL     1      -0.040 -18.813   8.475  1.00  0.00     0.031 C 
ATOM     33  C   UNL     1       2.981 -15.446  12.528  1.00  0.00     0.029 A 
ATOM     34  C   UNL     1       2.572 -16.041  11.345  1.00  0.00     0.049 A 
ATOM     35  H   UNL     1       3.385 -15.843   9.407  1.00  0.00     0.167 HD
ATOM     36  C   UNL     1       1.137 -17.493   9.936  1.00  0.00     0.074 A 
ATOM     37  C   UNL     1       0.040 -18.418   9.738  1.00  0.00     0.031 C 
ATOM     38  C   UNL     1       1.481 -16.957  11.133  1.00  0.00     0.037 A 
BRANCH  25  39
ATOM     39  C   UNL     1       6.398 -13.220  10.913  1.00  0.00     0.064 A 
ATOM     40  C   UNL     1       6.412 -11.823  10.790  1.00  0.00     0.173 A 
ATOM     41  C   UNL     1       7.316 -13.809  11.797  1.00  0.00     0.173 A 
ATOM     42  F   UNL     1       5.563 -11.210   9.950  1.00  0.00    -0.203 F 
ATOM     43  C   UNL     1       7.328 -11.050  11.500  1.00  0.00     0.198 A 
ATOM     44  C   UNL     1       8.211 -13.031  12.526  1.00  0.00     0.198 A 
ATOM     45  F   UNL     1       7.340 -15.140  11.958  1.00  0.00    -0.203 F 
ATOM     46  F   UNL     1       7.354  -9.720  11.330  1.00  0.00    -0.200 F 
ATOM     47  C   UNL     1       8.222 -11.653  12.371  1.00  0.00     0.200 A 
ATOM     48  F   UNL     1       9.067 -13.615  13.376  1.00  0.00    -0.200 F 
ATOM     49  F   UNL     1       9.101 -10.908  13.055  1.00  0.00    -0.200 F 
ENDBRANCH  25  39
BRANCH  26  50
ATOM     50  C   UNL     1       0.298 -19.042   5.574  1.00  0.00     0.064 A 
ATOM     51  C   UNL     1      -1.032 -18.657   5.359  1.00  0.00     0.173 A 
ATOM     52  C   UNL     1       0.736 -20.238   4.987  1.00  0.00     0.173 A 
ATOM     53  F   UNL     1      -1.501 -17.530   5.916  1.00  0.00    -0.203 F 
ATOM     54  C   UNL     1      -1.892 -19.441   4.594  1.00  0.00     0.198 A 
ATOM     55  C   UNL     1      -0.117 -21.008   4.200  1.00  0.00     0.198 A 
ATOM     56  F   UNL     1       2.002 -20.646   5.159  1.00  0.00    -0.203 F 
ATOM     57  F   UNL     1      -3.168 -19.066   4.429  1.00  0.00    -0.200 F 
ATOM     58  C   UNL     1      -1.432 -20.611   4.008  1.00  0.00     0.200 A 
ATOM     59  F   UNL     1       0.336 -22.129   3.623  1.00  0.00    -0.200 F 
ATOM     60  F   UNL     1      -2.256 -21.358   3.261  1.00  0.00    -0.200 F 
ENDBRANCH  26  50
BRANCH  38  61
ATOM     61  C   UNL     1       0.636 -17.331  12.315  1.00  0.00     0.064 A 
ATOM     62  C   UNL     1       0.702 -18.607  12.893  1.00  0.00     0.173 A 
ATOM     63  C   UNL     1      -0.235 -16.392  12.887  1.00  0.00     0.173 A 
ATOM     64  F   UNL     1       1.507 -19.544  12.370  1.00  0.00    -0.203 F 
ATOM     65  C   UNL     1      -0.094 -18.937  13.987  1.00  0.00     0.198 A 
ATOM     66  C   UNL     1      -1.009 -16.718  13.998  1.00  0.00     0.198 A 
ATOM     67  F   UNL     1      -0.331 -15.157  12.373  1.00  0.00    -0.203 F 
ATOM     68  F   UNL     1      -0.051 -20.177  14.493  1.00  0.00    -0.200 F 
ATOM     69  C   UNL     1      -0.944 -17.991  14.541  1.00  0.00     0.200 A 
ATOM     70  F   UNL     1      -1.822 -15.800  14.538  1.00  0.00    -0.200 F 
ATOM     71  F   UNL     1      -1.708 -18.311  15.595  1.00  0.00    -0.200 F 
ENDBRANCH  38  61
ENDBRANCH  12  13
ENDBRANCH   5   7
ENDBRANCH   2   3
ENDBRANCH   1   2
BRANCH   1  72
ATOM     72  C   UNL     1       8.105  -9.210  -0.204  1.00  0.00     0.023 C 
BRANCH  72  73
ATOM     73  C   UNL     1       6.915  -8.888  -1.106  1.00  0.00     0.116 C 
BRANCH  73  74
ATOM     74  N   UNL     1       5.974  -7.996  -0.446  1.00  0.00    -0.351 N 
ATOM     75  C   UNL     1       5.720  -6.662  -0.648  1.00  0.00     0.283 C 
ATOM     76  H   UNL     1       5.433  -8.416   0.260  1.00  0.00     0.163 HD
ATOM     77  O   UNL     1       4.915  -6.130   0.122  1.00  0.00    -0.268 OA
BRANCH  75  78
ATOM     78  C   UNL     1       6.380  -5.922  -1.838  1.00  0.00     0.307 C 
BRANCH  78  79
ATOM     79  N   UNL     1       5.521  -5.816  -3.056  1.00  0.00    -0.318 N 
ATOM     80  C   UNL     1       4.547  -6.921  -3.259  1.00  0.00     0.284 C 
ATOM     81  C   UNL     1       4.832  -4.546  -3.325  1.00  0.00     0.284 C 
ATOM     82  H   UNL     1       6.277  -5.885  -3.737  1.00  0.00     0.349 HD
ATOM     83  C   UNL     1       3.152  -6.776  -2.570  1.00  0.00     0.178 C 
ATOM     84  C   UNL     1       3.530  -4.329  -2.536  1.00  0.00     0.178 C 
ATOM     85  N   UNL     1       2.589  -5.435  -2.787  1.00  0.00    -0.360 N 
BRANCH  85  86
ATOM     86  C   UNL     1       1.280  -5.141  -2.405  1.00  0.00     0.038 A 
ATOM     87  C   UNL     1       0.555  -4.193  -3.148  1.00  0.00     0.026 A 
ATOM     88  C   UNL     1       0.669  -5.686  -1.270  1.00  0.00     0.046 A 
ATOM     89  C   UNL     1      -0.725  -3.784  -2.769  1.00  0.00     0.004 A 
ATOM     90  C   UNL     1      -0.611  -5.273  -0.886  1.00  0.00     0.043 A 
ATOM     91  C   UNL     1      -1.309  -4.322  -1.627  1.00  0.00     0.020 A 
ATOM     92  Cl  UNL     1      -1.326  -5.925   0.539  1.00  0.00    -0.084 Cl
ENDBRANCH  85  86
ENDBRANCH  78  79
BRANCH  78  93
ATOM     93  C   UNL     1       7.042  -4.632  -1.369  1.00  0.00     0.044 A 
ATOM     94  C   UNL     1       6.442  -3.519  -0.799  1.00  0.00     0.094 A 
ATOM     95  C   UNL     1       8.461  -4.376  -1.306  1.00  0.00     0.011 A 
ATOM     96  N   UNL     1       7.396  -2.584  -0.520  1.00  0.00    -0.361 N 
ATOM     97  C   UNL     1       8.643  -3.094  -0.780  1.00  0.00     0.046 A 
ATOM     98  C   UNL     1       9.614  -5.129  -1.620  1.00  0.00     0.031 A 
ATOM     99  H   UNL     1       7.217  -1.677  -0.182  1.00  0.00     0.166 HD
ATOM    100  C   UNL     1       9.901  -2.519  -0.568  1.00  0.00     0.028 A 
ATOM    101  C   UNL     1      10.879  -4.576  -1.386  1.00  0.00     0.041 A 
ATOM    102  C   UNL     1      11.023  -3.291  -0.874  1.00  0.00     0.022 A 
ATOM    103  Cl  UNL     1      12.284  -5.516  -1.721  1.00  0.00    -0.084 Cl
ENDBRANCH  78  93
ENDBRANCH  75  78
ENDBRANCH  73  74
ENDBRANCH  72  73
ENDBRANCH   1  72
TORSDOF 14
