REMARK SMILES O=C(NCCCCNC(=O)c1cccnc1NC[C@H](c1ccccc1)[NH+]1CCOCC1)c1ccc(-c2c3nc(c(-c4c(F)c(F)c(F)c(F)c4F)c4ccc([nH]4)c(-c4c(F)c(F)c(F)c(F)c4F)c4nc(c(-c5c(F)c(F)c(F)c(F)c5F)c5ccc2[nH]5)C=C4)C=C3)cc1
REMARK SMILES IDX 6 1 5 2 4 3 3 4 1 5 2 6 32 8 33 9 94 10 34 11 93 12 35 13
REMARK SMILES IDX 36 14 37 15 87 16 38 17 92 18 86 19 88 20 39 21 91 22 85 23
REMARK SMILES IDX 84 24 40 26 72 27 52 28 71 29 53 30 56 31 70 32 89 33 54 34
REMARK SMILES IDX 55 35 69 37 90 38 57 39 41 40 42 41 50 42 43 43 44 44 48 45
REMARK SMILES IDX 51 46 45 47 46 48 49 49 47 50 73 51 74 52 82 53 75 54 76 55
REMARK SMILES IDX 80 56 83 57 77 58 78 59 81 60 79 61 58 62 59 63 67 64 60 65
REMARK SMILES IDX 61 66 65 67 68 68 62 69 63 70 66 71 64 72 7 73 8 74 9 75
REMARK SMILES IDX 10 77 11 78 12 79 16 80 13 81 15 82 14 83 17 84 18 86 19 87
REMARK SMILES IDX 26 88 27 89 31 90 28 92 30 93 29 94 20 95 21 96 25 97 22 98
REMARK SMILES IDX 24 99 23 100
REMARK H PARENT 3 7 88 25 56 36 8 76 17 85 26 91
REMARK Flexibility Score: inf
ROOT
ATOM      1  C   UNL     1      10.564  -1.176   1.292  1.00  0.00     0.023 C 
ENDROOT
BRANCH   1   2
ATOM      2  C   UNL     1      10.326  -2.130   0.122  1.00  0.00     0.023 C 
BRANCH   2   3
ATOM      3  C   UNL     1       9.198  -1.727  -0.819  1.00  0.00     0.116 C 
BRANCH   3   4
ATOM      4  N   UNL     1       9.426  -0.436  -1.447  1.00  0.00    -0.352 N 
ATOM      5  O   UNL     1       9.888   1.002  -3.121  1.00  0.00    -0.269 OA
ATOM      6  C   UNL     1       9.537  -0.120  -2.779  1.00  0.00     0.251 C 
ATOM      7  H   UNL     1       9.514   0.323  -0.826  1.00  0.00     0.163 HD
BRANCH   6   8
ATOM      8  C   UNL     1       9.255  -1.149  -3.801  1.00  0.00     0.039 A 
ATOM      9  C   UNL     1       8.114  -1.953  -3.715  1.00  0.00     0.014 A 
ATOM     10  C   UNL     1      10.145  -1.299  -4.866  1.00  0.00     0.014 A 
ATOM     11  C   UNL     1       7.932  -2.993  -4.620  1.00  0.00     0.010 A 
ATOM     12  C   UNL     1       9.917  -2.291  -5.820  1.00  0.00     0.010 A 
ATOM     13  C   UNL     1       8.823  -3.162  -5.689  1.00  0.00    -0.014 A 
BRANCH  13  14
ATOM     14  C   UNL     1       8.579  -4.213  -6.707  1.00  0.00     0.031 A 
ATOM     15  C   UNL     1       9.553  -5.339  -6.895  1.00  0.00     0.074 A 
ATOM     16  C   UNL     1       7.494  -4.117  -7.496  1.00  0.00     0.049 A 
ATOM     17  N   UNL     1       9.564  -6.281  -7.804  1.00  0.00    -0.248 NA
ATOM     18  C   UNL     1      10.670  -5.409  -5.942  1.00  0.00     0.031 C 
ATOM     19  C   UNL     1       6.481  -3.065  -7.405  1.00  0.00     0.029 A 
ATOM     20  N   UNL     1       7.072  -4.899  -8.540  1.00  0.00    -0.354 N 
ATOM     21  C   UNL     1      10.699  -7.039  -7.551  1.00  0.00     0.074 A 
ATOM     22  C   UNL     1      11.366  -6.431  -6.419  1.00  0.00     0.031 C 
ATOM     23  C   UNL     1       5.556  -3.264  -8.354  1.00  0.00     0.029 A 
ATOM     24  C   UNL     1       5.947  -4.415  -9.160  1.00  0.00     0.049 A 
ATOM     25  H   UNL     1       7.530  -5.725  -8.818  1.00  0.00     0.167 HD
ATOM     26  C   UNL     1      11.138  -8.141  -8.207  1.00  0.00     0.037 A 
ATOM     27  C   UNL     1       5.322  -4.822 -10.281  1.00  0.00     0.037 A 
ATOM     28  C   UNL     1      10.462  -8.732  -9.334  1.00  0.00     0.049 A 
ATOM     29  C   UNL     1       5.852  -6.015 -11.022  1.00  0.00     0.074 A 
ATOM     30  C   UNL     1      10.797  -9.874 -10.039  1.00  0.00     0.029 A 
ATOM     31  N   UNL     1       9.321  -8.213  -9.934  1.00  0.00    -0.354 N 
ATOM     32  N   UNL     1       6.901  -6.753 -10.752  1.00  0.00    -0.248 NA
ATOM     33  C   UNL     1       5.114  -6.434 -12.220  1.00  0.00     0.031 C 
ATOM     34  C   UNL     1       9.902 -10.007 -11.107  1.00  0.00     0.029 A 
ATOM     35  C   UNL     1       8.962  -8.992 -11.023  1.00  0.00     0.049 A 
ATOM     36  H   UNL     1       8.839  -7.411  -9.630  1.00  0.00     0.167 HD
ATOM     37  C   UNL     1       6.935  -7.740 -11.726  1.00  0.00     0.074 A 
ATOM     38  C   UNL     1       5.800  -7.507 -12.595  1.00  0.00     0.031 C 
ATOM     39  C   UNL     1       7.824  -8.753 -11.877  1.00  0.00     0.037 A 
BRANCH  26  40
ATOM     40  C   UNL     1      12.435  -8.750  -7.749  1.00  0.00     0.064 A 
ATOM     41  C   UNL     1      12.566  -9.372  -6.498  1.00  0.00     0.173 A 
ATOM     42  C   UNL     1      13.565  -8.716  -8.581  1.00  0.00     0.173 A 
ATOM     43  F   UNL     1      11.521  -9.430  -5.659  1.00  0.00    -0.203 F 
ATOM     44  C   UNL     1      13.790  -9.890  -6.078  1.00  0.00     0.198 A 
ATOM     45  C   UNL     1      14.777  -9.268  -8.174  1.00  0.00     0.198 A 
ATOM     46  F   UNL     1      13.497  -8.146  -9.794  1.00  0.00    -0.203 F 
ATOM     47  F   UNL     1      13.907 -10.416  -4.850  1.00  0.00    -0.200 F 
ATOM     48  C   UNL     1      14.892  -9.842  -6.917  1.00  0.00     0.200 A 
ATOM     49  F   UNL     1      15.836  -9.236  -8.994  1.00  0.00    -0.200 F 
ATOM     50  F   UNL     1      16.069 -10.337  -6.510  1.00  0.00    -0.200 F 
ENDBRANCH  26  40
BRANCH  27  51
ATOM     51  C   UNL     1       4.139  -4.065 -10.759  1.00  0.00     0.064 A 
ATOM     52  C   UNL     1       2.850  -4.605 -10.671  1.00  0.00     0.173 A 
ATOM     53  C   UNL     1       4.268  -2.757 -11.253  1.00  0.00     0.173 A 
ATOM     54  F   UNL     1       2.678  -5.856 -10.218  1.00  0.00    -0.203 F 
ATOM     55  C   UNL     1       1.734  -3.867 -11.060  1.00  0.00     0.198 A 
ATOM     56  C   UNL     1       3.150  -2.010 -11.614  1.00  0.00     0.198 A 
ATOM     57  F   UNL     1       5.481  -2.191 -11.346  1.00  0.00    -0.203 F 
ATOM     58  F   UNL     1       0.514  -4.415 -10.987  1.00  0.00    -0.200 F 
ATOM     59  C   UNL     1       1.884  -2.567 -11.520  1.00  0.00     0.200 A 
ATOM     60  F   UNL     1       3.298  -0.747 -12.035  1.00  0.00    -0.200 F 
ATOM     61  F   UNL     1       0.808  -1.850 -11.872  1.00  0.00    -0.200 F 
ENDBRANCH  27  51
BRANCH  39  62
ATOM     62  C   UNL     1       7.587  -9.727 -12.995  1.00  0.00     0.064 A 
ATOM     63  C   UNL     1       7.817  -9.387 -14.335  1.00  0.00     0.173 A 
ATOM     64  C   UNL     1       7.206 -11.047 -12.707  1.00  0.00     0.173 A 
ATOM     65  F   UNL     1       8.165  -8.135 -14.665  1.00  0.00    -0.203 F 
ATOM     66  C   UNL     1       7.668 -10.333 -15.347  1.00  0.00     0.198 A 
ATOM     67  C   UNL     1       7.088 -11.997 -13.717  1.00  0.00     0.198 A 
ATOM     68  F   UNL     1       6.976 -11.423 -11.439  1.00  0.00    -0.203 F 
ATOM     69  F   UNL     1       7.864  -9.981 -16.625  1.00  0.00    -0.200 F 
ATOM     70  C   UNL     1       7.317 -11.639 -15.036  1.00  0.00     0.200 A 
ATOM     71  F   UNL     1       6.765 -13.261 -13.411  1.00  0.00    -0.200 F 
ATOM     72  F   UNL     1       7.199 -12.553 -16.009  1.00  0.00    -0.200 F 
ENDBRANCH  39  62
ENDBRANCH  13  14
ENDBRANCH   6   8
ENDBRANCH   3   4
ENDBRANCH   2   3
ENDBRANCH   1   2
BRANCH   1  73
ATOM     73  C   UNL     1       9.317  -0.804   2.088  1.00  0.00     0.116 C 
BRANCH  73  74
ATOM     74  N   UNL     1       8.649  -1.966   2.650  1.00  0.00    -0.352 N 
ATOM     75  C   UNL     1       8.352  -2.228   3.965  1.00  0.00     0.255 C 
ATOM     76  H   UNL     1       8.373  -2.655   2.003  1.00  0.00     0.163 HD
ATOM     77  O   UNL     1       7.941  -3.338   4.292  1.00  0.00    -0.269 OA
BRANCH  75  78
ATOM     78  C   UNL     1       8.553  -1.175   4.978  1.00  0.00     0.082 A 
ATOM     79  C   UNL     1       7.934   0.071   4.821  1.00  0.00     0.019 A 
ATOM     80  C   UNL     1       9.357  -1.421   6.094  1.00  0.00     0.139 A 
ATOM     81  C   UNL     1       8.196   1.077   5.738  1.00  0.00     0.021 A 
ATOM     82  N   UNL     1       9.627  -0.423   6.971  1.00  0.00    -0.239 NA
ATOM     83  C   UNL     1       9.051   0.785   6.783  1.00  0.00     0.113 A 
BRANCH  80  84
ATOM     84  N   UNL     1       9.970  -2.660   6.272  1.00  0.00    -0.363 N 
ATOM     85  H   UNL     1       9.928  -3.344   5.565  1.00  0.00     0.162 HD
BRANCH  84  86
ATOM     86  C   UNL     1      10.676  -2.930   7.521  1.00  0.00     0.184 C 
BRANCH  86  87
ATOM     87  C   UNL     1       9.924  -3.924   8.473  1.00  0.00     0.234 C 
BRANCH  87  88
ATOM     88  N   UNL     1      10.469  -4.144   9.840  1.00  0.00    -0.323 N 
ATOM     89  C   UNL     1      11.566  -3.275  10.296  1.00  0.00     0.291 C 
ATOM     90  C   UNL     1      10.842  -5.548  10.090  1.00  0.00     0.291 C 
ATOM     91  H   UNL     1       9.662  -3.870  10.400  1.00  0.00     0.348 HD
ATOM     92  C   UNL     1      12.966  -3.683   9.796  1.00  0.00     0.221 C 
ATOM     93  C   UNL     1      12.212  -5.903   9.492  1.00  0.00     0.221 C 
ATOM     94  O   UNL     1      13.240  -5.069  10.040  1.00  0.00    -0.370 OA
ENDBRANCH  87  88
BRANCH  87  95
ATOM     95  C   UNL     1       8.429  -3.606   8.578  1.00  0.00     0.011 A 
ATOM     96  C   UNL     1       7.968  -2.450   9.226  1.00  0.00     0.010 A 
ATOM     97  C   UNL     1       7.484  -4.459   7.979  1.00  0.00     0.010 A 
ATOM     98  C   UNL     1       6.605  -2.146   9.255  1.00  0.00     0.001 A 
ATOM     99  C   UNL     1       6.123  -4.152   8.008  1.00  0.00     0.001 A 
ATOM    100  C   UNL     1       5.684  -2.994   8.644  1.00  0.00     0.000 A 
ENDBRANCH  87  95
ENDBRANCH  86  87
ENDBRANCH  84  86
ENDBRANCH  80  84
ENDBRANCH  75  78
ENDBRANCH  73  74
ENDBRANCH   1  73
TORSDOF 16
