REMARK SMILES C=CCN(CC(=O)NCCCCNC(=O)c1ccc(-c2c3nc(c(-c4c(F)c(F)c(F)c(F)c4F)c4ccc([nH]4)c(-c4c(F)c(F)c(F)c(F)c4F)c4nc(c(-c5c(F)c(F)c(F)c(F)c5F)c5ccc2[nH]5)C=C4)C=C3)cc1)C(=O)N1CC[C@@H](C(=O)OC)C1
REMARK SMILES IDX 9 1 8 2 6 3 7 4 5 6 4 7 3 8 2 9 1 10 79 11 80 12 81 13 82 14
REMARK SMILES IDX 89 15 83 16 84 17 85 18 86 19 87 20 88 21 10 22 11 23 12 24
REMARK SMILES IDX 13 25 14 26 15 28 16 29 17 30 78 31 18 32 77 33 19 34 20 35
REMARK SMILES IDX 21 36 71 37 22 38 76 39 70 40 72 41 23 42 75 43 69 44 68 45
REMARK SMILES IDX 24 47 56 48 36 49 55 50 37 51 40 52 54 53 73 54 38 55 39 56
REMARK SMILES IDX 53 58 74 59 41 60 25 61 26 62 34 63 27 64 28 65 32 66 35 67
REMARK SMILES IDX 29 68 30 69 33 70 31 71 57 72 58 73 66 74 59 75 60 76 64 77
REMARK SMILES IDX 67 78 61 79 62 80 65 81 63 82 42 83 43 84 51 85 44 86 45 87
REMARK SMILES IDX 49 88 52 89 46 90 47 91 50 92 48 93
REMARK H PARENT 8 5 13 27 72 46 40 57
REMARK Flexibility Score: inf
ROOT
ATOM      1  C   UNL     1      -4.359   0.529  -0.850  1.00  0.00     0.116 C 
ENDROOT
BRANCH   1   2
ATOM      2  N   UNL     1      -4.710   1.886  -1.192  1.00  0.00    -0.355 N 
ATOM      3  C   UNL     1      -3.944   2.868  -1.744  1.00  0.00     0.239 C 
ATOM      4  O   UNL     1      -4.553   3.755  -2.357  1.00  0.00    -0.273 OA
ATOM      5  H   UNL     1      -5.641   2.140  -0.998  1.00  0.00     0.163 HD
BRANCH   3   6
ATOM      6  C   UNL     1      -2.401   2.874  -1.721  1.00  0.00     0.221 C 
BRANCH   6   7
ATOM      7  N   UNL     1      -1.698   2.348  -0.543  1.00  0.00    -0.312 N 
BRANCH   7   8
ATOM      8  C   UNL     1      -1.096   1.021  -0.677  1.00  0.00     0.149 C 
BRANCH   8   9
ATOM      9  C   UNL     1       0.389   1.080  -0.870  1.00  0.00    -0.013 C 
ATOM     10  C   UNL     1       1.237   0.324  -0.157  1.00  0.00     0.006 C 
ENDBRANCH   8   9
ENDBRANCH   7   8
BRANCH   7  11
ATOM     11  C   UNL     1      -1.393   3.070   0.607  1.00  0.00     0.320 C 
ATOM     12  O   UNL     1      -0.660   2.609   1.483  1.00  0.00    -0.248 OA
BRANCH  11  13
ATOM     13  N   UNL     1      -1.827   4.369   0.702  1.00  0.00    -0.324 N 
ATOM     14  C   UNL     1      -3.186   4.852   0.656  1.00  0.00     0.122 C 
ATOM     15  C   UNL     1      -1.013   5.375   1.384  1.00  0.00     0.136 C 
ATOM     16  C   UNL     1      -2.984   6.322   0.359  1.00  0.00     0.039 C 
ATOM     17  C   UNL     1      -1.826   6.681   1.304  1.00  0.00     0.120 C 
BRANCH  17  18
ATOM     18  C   UNL     1      -2.311   7.128   2.674  1.00  0.00     0.310 C 
ATOM     19  O   UNL     1      -1.737   6.903   3.729  1.00  0.00    -0.252 OA
BRANCH  18  20
ATOM     20  O   UNL     1      -3.445   7.877   2.560  1.00  0.00    -0.469 OA
ATOM     21  C   UNL     1      -4.018   8.298   3.797  1.00  0.00     0.282 C 
ENDBRANCH  18  20
ENDBRANCH  17  18
ENDBRANCH  11  13
ENDBRANCH   7  11
ENDBRANCH   6   7
ENDBRANCH   3   6
ENDBRANCH   1   2
BRANCH   1  22
ATOM     22  C   UNL     1      -4.168   0.289   0.645  1.00  0.00     0.023 C 
BRANCH  22  23
ATOM     23  C   UNL     1      -5.437   0.362   1.492  1.00  0.00     0.023 C 
BRANCH  23  24
ATOM     24  C   UNL     1      -6.617  -0.458   0.989  1.00  0.00     0.116 C 
BRANCH  24  25
ATOM     25  N   UNL     1      -6.314  -1.869   0.812  1.00  0.00    -0.352 N 
ATOM     26  C   UNL     1      -7.090  -2.964   1.107  1.00  0.00     0.251 C 
ATOM     27  H   UNL     1      -5.429  -2.068   0.427  1.00  0.00     0.163 HD
ATOM     28  O   UNL     1      -6.637  -4.097   0.978  1.00  0.00    -0.269 OA
BRANCH  26  29
ATOM     29  C   UNL     1      -8.463  -2.772   1.622  1.00  0.00     0.039 A 
ATOM     30  C   UNL     1      -8.867  -3.505   2.741  1.00  0.00     0.014 A 
ATOM     31  C   UNL     1      -9.335  -1.857   1.029  1.00  0.00     0.014 A 
ATOM     32  C   UNL     1     -10.120  -3.265   3.308  1.00  0.00     0.010 A 
ATOM     33  C   UNL     1     -10.550  -1.561   1.642  1.00  0.00     0.010 A 
ATOM     34  C   UNL     1     -10.955  -2.260   2.790  1.00  0.00    -0.014 A 
BRANCH  34  35
ATOM     35  C   UNL     1     -12.246  -1.922   3.442  1.00  0.00     0.031 A 
ATOM     36  C   UNL     1     -13.542  -2.110   2.703  1.00  0.00     0.074 A 
ATOM     37  C   UNL     1     -12.246  -1.387   4.680  1.00  0.00     0.049 A 
ATOM     38  N   UNL     1     -14.761  -1.816   3.081  1.00  0.00    -0.248 NA
ATOM     39  C   UNL     1     -13.457  -2.680   1.349  1.00  0.00     0.031 C 
ATOM     40  C   UNL     1     -11.053  -1.107   5.481  1.00  0.00     0.029 A 
ATOM     41  N   UNL     1     -13.284  -0.971   5.478  1.00  0.00    -0.354 N 
ATOM     42  C   UNL     1     -15.580  -2.152   2.012  1.00  0.00     0.074 A 
ATOM     43  C   UNL     1     -14.719  -2.622   0.949  1.00  0.00     0.031 C 
ATOM     44  C   UNL     1     -11.427  -0.589   6.662  1.00  0.00     0.029 A 
ATOM     45  C   UNL     1     -12.880  -0.459   6.687  1.00  0.00     0.049 A 
ATOM     46  H   UNL     1     -14.229  -1.035   5.208  1.00  0.00     0.167 HD
ATOM     47  C   UNL     1     -16.931  -2.097   1.933  1.00  0.00     0.037 A 
ATOM     48  C   UNL     1     -13.599   0.069   7.696  1.00  0.00     0.037 A 
ATOM     49  C   UNL     1     -17.787  -1.653   3.002  1.00  0.00     0.049 A 
ATOM     50  C   UNL     1     -15.099   0.127   7.575  1.00  0.00     0.074 A 
ATOM     51  C   UNL     1     -19.170  -1.622   3.041  1.00  0.00     0.029 A 
ATOM     52  N   UNL     1     -17.342  -1.157   4.218  1.00  0.00    -0.354 N 
ATOM     53  N   UNL     1     -15.867  -0.268   6.589  1.00  0.00    -0.248 NA
ATOM     54  C   UNL     1     -15.834   0.699   8.712  1.00  0.00     0.031 C 
ATOM     55  C   UNL     1     -19.561  -1.053   4.256  1.00  0.00     0.029 A 
ATOM     56  C   UNL     1     -18.424  -0.790   5.002  1.00  0.00     0.049 A 
ATOM     57  H   UNL     1     -16.398  -1.077   4.484  1.00  0.00     0.167 HD
ATOM     58  C   UNL     1     -17.172  -0.025   7.000  1.00  0.00     0.074 A 
ATOM     59  C   UNL     1     -17.092   0.535   8.332  1.00  0.00     0.031 C 
ATOM     60  C   UNL     1     -18.331  -0.244   6.332  1.00  0.00     0.037 A 
BRANCH  47  61
ATOM     61  C   UNL     1     -17.577  -2.531   0.648  1.00  0.00     0.064 A 
ATOM     62  C   UNL     1     -17.590  -3.875   0.246  1.00  0.00     0.173 A 
ATOM     63  C   UNL     1     -18.248  -1.600  -0.159  1.00  0.00     0.173 A 
ATOM     64  F   UNL     1     -16.954  -4.804   0.976  1.00  0.00    -0.203 F 
ATOM     65  C   UNL     1     -18.231  -4.267  -0.926  1.00  0.00     0.198 A 
ATOM     66  C   UNL     1     -18.917  -2.000  -1.313  1.00  0.00     0.198 A 
ATOM     67  F   UNL     1     -18.273  -0.302   0.181  1.00  0.00    -0.203 F 
ATOM     68  F   UNL     1     -18.194  -5.551  -1.311  1.00  0.00    -0.200 F 
ATOM     69  C   UNL     1     -18.903  -3.332  -1.698  1.00  0.00     0.200 A 
ATOM     70  F   UNL     1     -19.578  -1.097  -2.050  1.00  0.00    -0.200 F 
ATOM     71  F   UNL     1     -19.534  -3.714  -2.817  1.00  0.00    -0.200 F 
ENDBRANCH  47  61
BRANCH  48  72
ATOM     72  C   UNL     1     -12.917   0.579   8.916  1.00  0.00     0.064 A 
ATOM     73  C   UNL     1     -13.093  -0.047  10.159  1.00  0.00     0.173 A 
ATOM     74  C   UNL     1     -12.104   1.721   8.874  1.00  0.00     0.173 A 
ATOM     75  F   UNL     1     -13.878  -1.130  10.257  1.00  0.00    -0.203 F 
ATOM     76  C   UNL     1     -12.510   0.468  11.315  1.00  0.00     0.198 A 
ATOM     77  C   UNL     1     -11.493   2.215  10.024  1.00  0.00     0.198 A 
ATOM     78  F   UNL     1     -11.898   2.357   7.711  1.00  0.00    -0.203 F 
ATOM     79  F   UNL     1     -12.748  -0.114  12.498  1.00  0.00    -0.200 F 
ATOM     80  C   UNL     1     -11.707   1.596  11.246  1.00  0.00     0.200 A 
ATOM     81  F   UNL     1     -10.706   3.297   9.950  1.00  0.00    -0.200 F 
ATOM     82  F   UNL     1     -11.150   2.094  12.359  1.00  0.00    -0.200 F 
ENDBRANCH  48  72
BRANCH  60  83
ATOM     83  C   UNL     1     -19.612   0.080   7.048  1.00  0.00     0.064 A 
ATOM     84  C   UNL     1     -19.997   1.402   7.315  1.00  0.00     0.173 A 
ATOM     85  C   UNL     1     -20.484  -0.949   7.438  1.00  0.00     0.173 A 
ATOM     86  F   UNL     1     -19.193   2.421   6.975  1.00  0.00    -0.203 F 
ATOM     87  C   UNL     1     -21.191   1.680   7.974  1.00  0.00     0.198 A 
ATOM     88  C   UNL     1     -21.694  -0.665   8.065  1.00  0.00     0.198 A 
ATOM     89  F   UNL     1     -20.169  -2.231   7.199  1.00  0.00    -0.203 F 
ATOM     90  F   UNL     1     -21.511   2.948   8.269  1.00  0.00    -0.200 F 
ATOM     91  C   UNL     1     -22.042   0.648   8.341  1.00  0.00     0.200 A 
ATOM     92  F   UNL     1     -22.523  -1.663   8.402  1.00  0.00    -0.200 F 
ATOM     93  F   UNL     1     -23.195   0.919   8.968  1.00  0.00    -0.200 F 
ENDBRANCH  60  83
ENDBRANCH  34  35
ENDBRANCH  26  29
ENDBRANCH  24  25
ENDBRANCH  23  24
ENDBRANCH  22  23
ENDBRANCH   1  22
TORSDOF 18
