REMARK SMILES CCN1C(=O)C[C@@H](C(=O)Nc2cccc(C(=O)NCCCCNC(=O)c3ccc(-c4c5nc(c(-c6c(F)c(F)c(F)c(F)c6F)c6ccc([nH]6)c(-c6c(F)c(F)c(F)c(F)c6F)c6nc(c(-c7c(F)c(F)c(F)c(F)c7F)c7ccc4[nH]7)C=C6)C=C5)cc3)c2)S/C1=[NH+]/c1ccccc1
REMARK SMILES IDX 20 1 19 2 18 3 16 4 17 5 15 7 11 8 12 9 89 10 13 11 14 12
REMARK SMILES IDX 10 13 8 14 9 15 7 17 3 18 4 19 91 20 5 21 6 22 90 23 92 24
REMARK SMILES IDX 2 26 1 27 93 28 94 29 98 30 95 31 97 32 96 33 21 34 22 35
REMARK SMILES IDX 23 36 24 37 25 39 26 40 27 41 88 42 28 43 87 44 29 45 30 46
REMARK SMILES IDX 31 47 81 48 32 49 86 50 80 51 82 52 33 53 85 54 79 55 78 56
REMARK SMILES IDX 34 58 66 59 46 60 65 61 47 62 50 63 64 64 83 65 48 66 49 67
REMARK SMILES IDX 63 69 84 70 51 71 35 72 36 73 44 74 37 75 38 76 42 77 45 78
REMARK SMILES IDX 39 79 40 80 43 81 41 82 67 83 68 84 76 85 69 86 70 87 74 88
REMARK SMILES IDX 77 89 71 90 72 91 75 92 73 93 52 94 53 95 61 96 54 97 55 98
REMARK SMILES IDX 59 99 62 100 56 101 57 102 60 103 58 104
REMARK H PARENT 18 6 10 16 92 25 23 38 82 57 50 68
REMARK Flexibility Score: inf
ROOT
ATOM      1  C   UNL     1       1.679   7.420   1.152  1.00  0.00     0.023 C 
ENDROOT
BRANCH   1   2
ATOM      2  C   UNL     1       0.872   6.214   0.694  1.00  0.00     0.116 C 
BRANCH   2   3
ATOM      3  N   UNL     1       0.321   5.368   1.740  1.00  0.00    -0.352 N 
ATOM      4  C   UNL     1      -0.811   4.576   1.724  1.00  0.00     0.251 C 
ATOM      5  O   UNL     1      -1.077   3.883   2.704  1.00  0.00    -0.269 OA
ATOM      6  H   UNL     1       0.828   5.358   2.584  1.00  0.00     0.163 HD
BRANCH   4   7
ATOM      7  C   UNL     1      -1.746   4.571   0.564  1.00  0.00     0.041 A 
ATOM      8  C   UNL     1      -2.165   4.848  -1.813  1.00  0.00     0.041 A 
ATOM      9  C   UNL     1      -3.537   4.884  -1.550  1.00  0.00     0.026 A 
ATOM     10  C   UNL     1      -1.288   4.638  -0.756  1.00  0.00     0.040 A 
ATOM     11  C   UNL     1      -4.017   4.679  -0.252  1.00  0.00     0.003 A 
ATOM     12  C   UNL     1      -3.121   4.533   0.808  1.00  0.00     0.014 A 
BRANCH   8  13
ATOM     13  N   UNL     1      -1.731   5.171  -3.110  1.00  0.00    -0.325 N 
ATOM     14  C   UNL     1      -0.558   4.993  -3.791  1.00  0.00     0.238 C 
ATOM     15  O   UNL     1      -0.340   5.785  -4.718  1.00  0.00    -0.273 OA
ATOM     16  H   UNL     1      -2.422   5.624  -3.645  1.00  0.00     0.169 HD
BRANCH  14  17
ATOM     17  C   UNL     1       0.401   3.814  -3.560  1.00  0.00     0.160 C 
ATOM     18  N   UNL     1       1.126   1.925  -1.423  1.00  0.00    -0.191 N 
ATOM     19  C   UNL     1       0.520   1.495  -2.586  1.00  0.00     0.311 C 
ATOM     20  C   UNL     1       2.031   2.969  -1.406  1.00  0.00     0.319 C 
ATOM     21  O   UNL     1       0.530   0.326  -2.965  1.00  0.00    -0.247 OA
ATOM     22  C   UNL     1      -0.310   2.514  -3.292  1.00  0.00     0.153 C 
ATOM     23  S   UNL     1       1.804   4.289  -2.539  1.00  0.00    -0.024 SA
ATOM     24  N   UNL     1       3.044   3.145  -0.619  1.00  0.00    -0.235 N 
ATOM     25  H   UNL     1       3.423   4.051  -0.551  1.00  0.00     0.313 HD
BRANCH  18  26
ATOM     26  C   UNL     1       0.673   1.291  -0.182  1.00  0.00     0.243 C 
ATOM     27  C   UNL     1       0.973  -0.191  -0.036  1.00  0.00     0.054 C 
ENDBRANCH  18  26
BRANCH  24  28
ATOM     28  C   UNL     1       3.633   2.128   0.140  1.00  0.00     0.125 A 
ATOM     29  C   UNL     1       3.703   2.228   1.533  1.00  0.00     0.051 A 
ATOM     30  C   UNL     1       4.321   1.087  -0.492  1.00  0.00     0.051 A 
ATOM     31  C   UNL     1       4.432   1.299   2.281  1.00  0.00     0.004 A 
ATOM     32  C   UNL     1       5.037   0.146   0.252  1.00  0.00     0.004 A 
ATOM     33  C   UNL     1       5.097   0.256   1.639  1.00  0.00     0.000 A 
ENDBRANCH  24  28
ENDBRANCH  14  17
ENDBRANCH   8  13
ENDBRANCH   4   7
ENDBRANCH   2   3
ENDBRANCH   1   2
BRANCH   1  34
ATOM     34  C   UNL     1       2.959   7.140   1.933  1.00  0.00     0.023 C 
BRANCH  34  35
ATOM     35  C   UNL     1       3.912   6.098   1.355  1.00  0.00     0.116 C 
BRANCH  35  36
ATOM     36  N   UNL     1       4.433   6.397   0.033  1.00  0.00    -0.352 N 
ATOM     37  C   UNL     1       5.734   6.364  -0.430  1.00  0.00     0.251 C 
ATOM     38  H   UNL     1       3.758   6.662  -0.633  1.00  0.00     0.163 HD
ATOM     39  O   UNL     1       5.990   6.651  -1.586  1.00  0.00    -0.269 OA
BRANCH  37  40
ATOM     40  C   UNL     1       6.840   6.054   0.508  1.00  0.00     0.039 A 
ATOM     41  C   UNL     1       7.919   6.940   0.575  1.00  0.00     0.014 A 
ATOM     42  C   UNL     1       6.803   4.935   1.342  1.00  0.00     0.014 A 
ATOM     43  C   UNL     1       8.897   6.769   1.558  1.00  0.00     0.010 A 
ATOM     44  C   UNL     1       7.738   4.806   2.369  1.00  0.00     0.010 A 
ATOM     45  C   UNL     1       8.780   5.738   2.505  1.00  0.00    -0.014 A 
BRANCH  45  46
ATOM     46  C   UNL     1       9.708   5.657   3.666  1.00  0.00     0.031 A 
ATOM     47  C   UNL     1      10.628   4.481   3.832  1.00  0.00     0.074 A 
ATOM     48  C   UNL     1       9.679   6.622   4.608  1.00  0.00     0.049 A 
ATOM     49  N   UNL     1      11.457   4.210   4.811  1.00  0.00    -0.248 NA
ATOM     50  C   UNL     1      10.601   3.465   2.770  1.00  0.00     0.031 C 
ATOM     51  C   UNL     1       8.804   7.796   4.591  1.00  0.00     0.029 A 
ATOM     52  N   UNL     1      10.399   6.765   5.769  1.00  0.00    -0.354 N 
ATOM     53  C   UNL     1      12.046   2.997   4.483  1.00  0.00     0.074 A 
ATOM     54  C   UNL     1      11.441   2.556   3.243  1.00  0.00     0.031 C 
ATOM     55  C   UNL     1       9.056   8.550   5.673  1.00  0.00     0.029 A 
ATOM     56  C   UNL     1      10.081   7.896   6.481  1.00  0.00     0.049 A 
ATOM     57  H   UNL     1      11.080   6.117   6.064  1.00  0.00     0.167 HD
ATOM     58  C   UNL     1      13.019   2.323   5.141  1.00  0.00     0.037 A 
ATOM     59  C   UNL     1      10.556   8.354   7.656  1.00  0.00     0.037 A 
ATOM     60  C   UNL     1      13.632   2.763   6.368  1.00  0.00     0.049 A 
ATOM     61  C   UNL     1      11.620   7.571   8.378  1.00  0.00     0.074 A 
ATOM     62  C   UNL     1      14.645   2.158   7.093  1.00  0.00     0.029 A 
ATOM     63  N   UNL     1      13.291   3.921   7.050  1.00  0.00    -0.354 N 
ATOM     64  N   UNL     1      12.204   6.451   8.030  1.00  0.00    -0.248 NA
ATOM     65  C   UNL     1      12.093   8.120   9.657  1.00  0.00     0.031 C 
ATOM     66  C   UNL     1      14.894   2.932   8.231  1.00  0.00     0.029 A 
ATOM     67  C   UNL     1      14.066   4.041   8.194  1.00  0.00     0.049 A 
ATOM     68  H   UNL     1      12.601   4.562   6.765  1.00  0.00     0.167 HD
ATOM     69  C   UNL     1      13.133   6.181   9.024  1.00  0.00     0.074 A 
ATOM     70  C   UNL     1      13.045   7.259   9.985  1.00  0.00     0.031 C 
ATOM     71  C   UNL     1      13.983   5.130   9.132  1.00  0.00     0.037 A 
BRANCH  58  72
ATOM     72  C   UNL     1      13.497   1.036   4.536  1.00  0.00     0.064 A 
ATOM     73  C   UNL     1      14.275   1.025   3.368  1.00  0.00     0.173 A 
ATOM     74  C   UNL     1      13.214  -0.193   5.149  1.00  0.00     0.173 A 
ATOM     75  F   UNL     1      14.564   2.174   2.739  1.00  0.00    -0.203 F 
ATOM     76  C   UNL     1      14.730  -0.172   2.823  1.00  0.00     0.198 A 
ATOM     77  C   UNL     1      13.695  -1.386   4.616  1.00  0.00     0.198 A 
ATOM     78  F   UNL     1      12.480  -0.237   6.271  1.00  0.00    -0.203 F 
ATOM     79  F   UNL     1      15.436  -0.161   1.683  1.00  0.00    -0.200 F 
ATOM     80  C   UNL     1      14.447  -1.375   3.450  1.00  0.00     0.200 A 
ATOM     81  F   UNL     1      13.430  -2.548   5.230  1.00  0.00    -0.200 F 
ATOM     82  F   UNL     1      14.893  -2.526   2.928  1.00  0.00    -0.200 F 
ENDBRANCH  58  72
BRANCH  59  83
ATOM     83  C   UNL     1      10.050   9.631   8.223  1.00  0.00     0.064 A 
ATOM     84  C   UNL     1      10.875  10.763   8.290  1.00  0.00     0.173 A 
ATOM     85  C   UNL     1       8.750   9.740   8.736  1.00  0.00     0.173 A 
ATOM     86  F   UNL     1      12.134  10.700   7.833  1.00  0.00    -0.203 F 
ATOM     87  C   UNL     1      10.428  11.946   8.873  1.00  0.00     0.198 A 
ATOM     88  C   UNL     1       8.295  10.933   9.295  1.00  0.00     0.198 A 
ATOM     89  F   UNL     1       7.921   8.687   8.695  1.00  0.00    -0.203 F 
ATOM     90  F   UNL     1      11.256  12.995   8.974  1.00  0.00    -0.200 F 
ATOM     91  C   UNL     1       9.137  12.031   9.372  1.00  0.00     0.200 A 
ATOM     92  F   UNL     1       7.043  11.014   9.767  1.00  0.00    -0.200 F 
ATOM     93  F   UNL     1       8.709  13.168   9.938  1.00  0.00    -0.200 F 
ENDBRANCH  59  83
BRANCH  71  94
ATOM     94  C   UNL     1      14.918   5.119  10.305  1.00  0.00     0.064 A 
ATOM     95  C   UNL     1      14.467   4.850  11.605  1.00  0.00     0.173 A 
ATOM     96  C   UNL     1      16.290   5.349  10.119  1.00  0.00     0.173 A 
ATOM     97  F   UNL     1      13.162   4.641  11.836  1.00  0.00    -0.203 F 
ATOM     98  C   UNL     1      15.351   4.835  12.680  1.00  0.00     0.198 A 
ATOM     99  C   UNL     1      17.175   5.306  11.192  1.00  0.00     0.198 A 
ATOM    100  F   UNL     1      16.773   5.607   8.894  1.00  0.00    -0.203 F 
ATOM    101  F   UNL     1      14.891   4.620  13.920  1.00  0.00    -0.200 F 
ATOM    102  C   UNL     1      16.705   5.056  12.472  1.00  0.00     0.200 A 
ATOM    103  F   UNL     1      18.484   5.510  10.988  1.00  0.00    -0.200 F 
ATOM    104  F   UNL     1      17.555   5.036  13.508  1.00  0.00    -0.200 F 
ENDBRANCH  71  94
ENDBRANCH  45  46
ENDBRANCH  37  40
ENDBRANCH  35  36
ENDBRANCH  34  35
ENDBRANCH   1  34
TORSDOF 15
