REMARK SMILES COc1ccc(-n2c(=S)[nH]cc(CC(=O)NCCCCNC(=O)c3ccc(-c4c5nc(c(-c6c(F)c(F)c(F)c(F)c6F)c6ccc([nH]6)c(-c6c(F)c(F)c(F)c(F)c6F)c6nc(c(-c7c(F)c(F)c(F)c(F)c7F)c7ccc4[nH]7)C=C6)C=C5)cc3)c2=O)cc1Cl
REMARK SMILES IDX 18 1 17 2 16 3 14 4 15 5 13 7 12 8 7 9 8 10 87 11 9 12 10 13
REMARK SMILES IDX 88 14 11 15 6 17 3 18 4 19 90 20 5 21 89 22 91 23 2 24 1 25
REMARK SMILES IDX 19 26 20 27 21 28 22 29 23 31 24 32 25 33 86 34 26 35 85 36
REMARK SMILES IDX 27 37 28 38 29 39 79 40 30 41 84 42 78 43 80 44 31 45 83 46
REMARK SMILES IDX 77 47 76 48 32 50 64 51 44 52 63 53 45 54 48 55 62 56 81 57
REMARK SMILES IDX 46 58 47 59 61 61 82 62 49 63 33 64 34 65 42 66 35 67 36 68
REMARK SMILES IDX 40 69 43 70 37 71 38 72 41 73 39 74 65 75 66 76 74 77 67 78
REMARK SMILES IDX 68 79 72 80 75 81 69 82 70 83 73 84 71 85 50 86 51 87 59 88
REMARK SMILES IDX 52 89 53 90 57 91 60 92 54 93 55 94 58 95 56 96
REMARK H PARENT 16 6 10 16 21 30 80 49 48 60
REMARK Flexibility Score: inf
ROOT
ATOM      1  C   UNL     1       3.941   6.360   4.915  1.00  0.00     0.023 C 
ENDROOT
BRANCH   1   2
ATOM      2  C   UNL     1       2.736   6.820   5.741  1.00  0.00     0.116 C 
BRANCH   2   3
ATOM      3  N   UNL     1       2.694   8.264   5.886  1.00  0.00    -0.356 N 
ATOM      4  C   UNL     1       1.964   9.178   5.181  1.00  0.00     0.224 C 
ATOM      5  O   UNL     1       2.150  10.376   5.401  1.00  0.00    -0.275 OA
ATOM      6  H   UNL     1       3.272   8.636   6.591  1.00  0.00     0.163 HD
BRANCH   4   7
ATOM      7  C   UNL     1       0.964   8.713   4.132  1.00  0.00     0.142 C 
BRANCH   7   8
ATOM      8  C   UNL     1       1.663   8.196   2.907  1.00  0.00     0.043 A 
ATOM      9  N   UNL     1       2.063   6.305   1.365  1.00  0.00    -0.253 N 
ATOM     10  C   UNL     1       3.090   7.038   0.742  1.00  0.00     0.184 A 
ATOM     11  C   UNL     1       1.292   6.838   2.411  1.00  0.00     0.262 A 
ATOM     12  S   UNL     1       4.034   6.622  -0.585  1.00  0.00    -0.040 S 
ATOM     13  N   UNL     1       3.320   8.295   1.247  1.00  0.00    -0.338 N 
ATOM     14  O   UNL     1       0.379   6.242   2.985  1.00  0.00    -0.269 OA
ATOM     15  C   UNL     1       2.642   8.854   2.281  1.00  0.00     0.095 A 
ATOM     16  H   UNL     1       4.030   8.831   0.826  1.00  0.00     0.168 HD
BRANCH   9  17
ATOM     17  C   UNL     1       1.725   4.975   0.926  1.00  0.00     0.053 A 
ATOM     18  C   UNL     1       1.063   2.424  -0.082  1.00  0.00     0.137 A 
ATOM     19  C   UNL     1       0.083   3.409   0.047  1.00  0.00     0.050 A 
ATOM     20  C   UNL     1       2.375   2.705   0.312  1.00  0.00     0.085 A 
ATOM     21  C   UNL     1       0.406   4.668   0.563  1.00  0.00     0.031 A 
ATOM     22  C   UNL     1       2.697   3.968   0.828  1.00  0.00     0.051 A 
ATOM     23  Cl  UNL     1       3.665   1.572   0.131  1.00  0.00    -0.080 Cl
BRANCH  18  24
ATOM     24  O   UNL     1       0.666   1.275  -0.712  1.00  0.00    -0.495 OA
ATOM     25  C   UNL     1       0.756   0.114   0.111  1.00  0.00     0.278 C 
ENDBRANCH  18  24
ENDBRANCH   9  17
ENDBRANCH   7   8
ENDBRANCH   4   7
ENDBRANCH   2   3
ENDBRANCH   1   2
BRANCH   1  26
ATOM     26  C   UNL     1       5.305   6.636   5.551  1.00  0.00     0.023 C 
BRANCH  26  27
ATOM     27  C   UNL     1       5.527   5.994   6.914  1.00  0.00     0.116 C 
BRANCH  27  28
ATOM     28  N   UNL     1       5.441   4.541   6.898  1.00  0.00    -0.352 N 
ATOM     29  C   UNL     1       6.149   3.631   7.650  1.00  0.00     0.251 C 
ATOM     30  H   UNL     1       4.789   4.159   6.266  1.00  0.00     0.163 HD
ATOM     31  O   UNL     1       6.022   2.427   7.450  1.00  0.00    -0.269 OA
BRANCH  29  32
ATOM     32  C   UNL     1       7.110   4.117   8.664  1.00  0.00     0.039 A 
ATOM     33  C   UNL     1       6.758   5.138   9.547  1.00  0.00     0.014 A 
ATOM     34  C   UNL     1       8.401   3.582   8.687  1.00  0.00     0.014 A 
ATOM     35  C   UNL     1       7.742   5.751  10.314  1.00  0.00     0.010 A 
ATOM     36  C   UNL     1       9.370   4.145   9.522  1.00  0.00     0.010 A 
ATOM     37  C   UNL     1       9.064   5.277  10.293  1.00  0.00    -0.014 A 
BRANCH  37  38
ATOM     38  C   UNL     1      10.109   6.014  11.050  1.00  0.00     0.031 A 
ATOM     39  C   UNL     1      11.215   6.733  10.324  1.00  0.00     0.074 A 
ATOM     40  C   UNL     1      10.012   6.111  12.389  1.00  0.00     0.049 A 
ATOM     41  N   UNL     1      12.174   7.481  10.812  1.00  0.00    -0.248 NA
ATOM     42  C   UNL     1      11.255   6.597   8.859  1.00  0.00     0.031 C 
ATOM     43  C   UNL     1       8.978   5.473  13.204  1.00  0.00     0.029 A 
ATOM     44  N   UNL     1      10.768   6.811  13.296  1.00  0.00    -0.354 N 
ATOM     45  C   UNL     1      12.932   7.889   9.723  1.00  0.00     0.074 A 
ATOM     46  C   UNL     1      12.347   7.281   8.549  1.00  0.00     0.031 C 
ATOM     47  C   UNL     1       9.123   5.862  14.479  1.00  0.00     0.029 A 
ATOM     48  C   UNL     1      10.293   6.730  14.582  1.00  0.00     0.049 A 
ATOM     49  H   UNL     1      11.572   7.321  13.048  1.00  0.00     0.167 HD
ATOM     50  C   UNL     1      14.008   8.712   9.701  1.00  0.00     0.037 A 
ATOM     51  C   UNL     1      10.748   7.291  15.717  1.00  0.00     0.037 A 
ATOM     52  C   UNL     1      14.574   9.343  10.864  1.00  0.00     0.049 A 
ATOM     53  C   UNL     1      11.973   8.159  15.672  1.00  0.00     0.074 A 
ATOM     54  C   UNL     1      15.642  10.221  10.934  1.00  0.00     0.029 A 
ATOM     55  N   UNL     1      14.116   9.165  12.160  1.00  0.00    -0.354 N 
ATOM     56  N   UNL     1      12.674   8.543  14.634  1.00  0.00    -0.248 NA
ATOM     57  C   UNL     1      12.480   8.656  16.958  1.00  0.00     0.031 C 
ATOM     58  C   UNL     1      15.855  10.544  12.278  1.00  0.00     0.029 A 
ATOM     59  C   UNL     1      14.897   9.896  13.041  1.00  0.00     0.049 A 
ATOM     60  H   UNL     1      13.350   8.602  12.417  1.00  0.00     0.167 HD
ATOM     61  C   UNL     1      13.703   9.325  15.137  1.00  0.00     0.074 A 
ATOM     62  C   UNL     1      13.521   9.383  16.573  1.00  0.00     0.031 C 
ATOM     63  C   UNL     1      14.712   9.932  14.469  1.00  0.00     0.037 A 
BRANCH  50  64
ATOM     64  C   UNL     1      14.654   8.982   8.373  1.00  0.00     0.064 A 
ATOM     65  C   UNL     1      14.052   9.819   7.423  1.00  0.00     0.173 A 
ATOM     66  C   UNL     1      15.915   8.446   8.074  1.00  0.00     0.173 A 
ATOM     67  F   UNL     1      12.841  10.346   7.658  1.00  0.00    -0.203 F 
ATOM     68  C   UNL     1      14.683  10.096   6.212  1.00  0.00     0.198 A 
ATOM     69  C   UNL     1      16.553   8.744   6.873  1.00  0.00     0.198 A 
ATOM     70  F   UNL     1      16.536   7.644   8.953  1.00  0.00    -0.203 F 
ATOM     71  F   UNL     1      14.075  10.872   5.304  1.00  0.00    -0.200 F 
ATOM     72  C   UNL     1      15.935   9.565   5.942  1.00  0.00     0.200 A 
ATOM     73  F   UNL     1      17.769   8.240   6.617  1.00  0.00    -0.200 F 
ATOM     74  F   UNL     1      16.545   9.842   4.781  1.00  0.00    -0.200 F 
ENDBRANCH  50  64
BRANCH  51  75
ATOM     75  C   UNL     1      10.025   7.049  16.991  1.00  0.00     0.064 A 
ATOM     76  C   UNL     1       9.287   8.071  17.602  1.00  0.00     0.173 A 
ATOM     77  C   UNL     1      10.027   5.787  17.602  1.00  0.00     0.173 A 
ATOM     78  F   UNL     1       9.274   9.300  17.065  1.00  0.00    -0.203 F 
ATOM     79  C   UNL     1       8.575   7.839  18.776  1.00  0.00     0.198 A 
ATOM     80  C   UNL     1       9.295   5.549  18.762  1.00  0.00     0.198 A 
ATOM     81  F   UNL     1      10.718   4.777  17.053  1.00  0.00    -0.203 F 
ATOM     82  F   UNL     1       7.894   8.838  19.353  1.00  0.00    -0.200 F 
ATOM     83  C   UNL     1       8.572   6.575  19.350  1.00  0.00     0.200 A 
ATOM     84  F   UNL     1       9.282   4.324  19.304  1.00  0.00    -0.200 F 
ATOM     85  F   UNL     1       7.872   6.348  20.470  1.00  0.00    -0.200 F 
ENDBRANCH  51  75
BRANCH  63  86
ATOM     86  C   UNL     1      15.712  10.702  15.278  1.00  0.00     0.064 A 
ATOM     87  C   UNL     1      16.694  10.043  16.032  1.00  0.00     0.173 A 
ATOM     88  C   UNL     1      15.735  12.104  15.244  1.00  0.00     0.173 A 
ATOM     89  F   UNL     1      16.702   8.704  16.106  1.00  0.00    -0.203 F 
ATOM     90  C   UNL     1      17.659  10.762  16.730  1.00  0.00     0.198 A 
ATOM     91  C   UNL     1      16.715  12.819  15.925  1.00  0.00     0.198 A 
ATOM     92  F   UNL     1      14.819  12.778  14.532  1.00  0.00    -0.203 F 
ATOM     93  F   UNL     1      18.573  10.114  17.466  1.00  0.00    -0.200 F 
ATOM     94  C   UNL     1      17.675  12.148  16.669  1.00  0.00     0.200 A 
ATOM     95  F   UNL     1      16.737  14.157  15.856  1.00  0.00    -0.200 F 
ATOM     96  F   UNL     1      18.615  12.838  17.330  1.00  0.00    -0.200 F 
ENDBRANCH  63  86
ENDBRANCH  37  38
ENDBRANCH  29  32
ENDBRANCH  27  28
ENDBRANCH  26  27
ENDBRANCH   1  26
TORSDOF 14
