REMARK SMILES CCc1ccc(N(C)C(=O)N2CC[C@@H](C(=O)NCCCCNC(=O)c3ccc(-c4c5nc(c(-c6c(F)c(F)c(F)c(F)c6F)c6ccc([nH]6)c(-c6c(F)c(F)c(F)c(F)c6F)c6nc(c(-c7c(F)c(F)c(F)c(F)c7F)c7ccc4[nH]7)C=C6)C=C5)cc3)[C@@H]2C)cc1
REMARK SMILES IDX 18 1 17 2 15 3 16 4 14 6 11 7 12 8 88 9 13 10 89 11 9 12
REMARK SMILES IDX 10 13 7 14 8 15 6 16 3 17 4 18 91 19 5 20 90 21 2 22 1 23
REMARK SMILES IDX 19 24 20 25 21 26 22 27 23 28 24 30 25 31 26 32 87 33 27 34
REMARK SMILES IDX 86 35 28 36 29 37 30 38 80 39 31 40 85 41 79 42 81 43 32 44
REMARK SMILES IDX 84 45 78 46 77 47 33 49 65 50 45 51 64 52 46 53 49 54 63 55
REMARK SMILES IDX 82 56 47 57 48 58 62 60 83 61 50 62 34 63 35 64 43 65 36 66
REMARK SMILES IDX 37 67 41 68 44 69 38 70 39 71 42 72 40 73 66 74 67 75 75 76
REMARK SMILES IDX 68 77 69 78 73 79 76 80 70 81 71 82 74 83 72 84 51 85 52 86
REMARK SMILES IDX 60 87 53 88 54 89 58 90 61 91 55 92 56 93 59 94 57 95
REMARK H PARENT 17 5 22 29 81 48 49 59
REMARK Flexibility Score: inf
ROOT
ATOM      1  C   UNL     1       4.943   5.897  -7.372  1.00  0.00     0.116 C 
ENDROOT
BRANCH   1   2
ATOM      2  N   UNL     1       4.446   6.327  -8.665  1.00  0.00    -0.356 N 
ATOM      3  C   UNL     1       3.277   6.919  -9.031  1.00  0.00     0.225 C 
ATOM      4  O   UNL     1       3.116   7.129 -10.238  1.00  0.00    -0.275 OA
ATOM      5  H   UNL     1       5.065   6.160  -9.412  1.00  0.00     0.163 HD
BRANCH   3   6
ATOM      6  C   UNL     1       2.190   7.329  -8.041  1.00  0.00     0.102 C 
ATOM      7  N   UNL     1       1.738   6.506  -5.829  1.00  0.00    -0.321 N 
ATOM      8  C   UNL     1       1.938   7.946  -5.731  1.00  0.00     0.122 C 
ATOM      9  C   UNL     1       1.577   6.149  -7.256  1.00  0.00     0.096 C 
ATOM     10  C   UNL     1       2.662   8.344  -7.003  1.00  0.00     0.037 C 
ATOM     11  C   UNL     1       0.101   5.958  -7.606  1.00  0.00     0.032 C 
BRANCH   7  12
ATOM     12  C   UNL     1       1.525   5.816  -4.632  1.00  0.00     0.324 C 
ATOM     13  O   UNL     1       1.353   6.498  -3.616  1.00  0.00    -0.248 OA
BRANCH  12  14
ATOM     14  N   UNL     1       1.589   4.411  -4.598  1.00  0.00    -0.297 N 
ATOM     15  C   UNL     1       2.252   3.680  -5.654  1.00  0.00     0.155 C 
BRANCH  14  16
ATOM     16  C   UNL     1       1.217   3.630  -3.420  1.00  0.00     0.045 A 
ATOM     17  C   UNL     1       0.651   2.076  -1.064  1.00  0.00    -0.048 A 
ATOM     18  C   UNL     1       1.282   1.506  -2.163  1.00  0.00     0.006 A 
ATOM     19  C   UNL     1       0.266   3.417  -1.169  1.00  0.00     0.006 A 
ATOM     20  C   UNL     1       1.537   2.260  -3.317  1.00  0.00     0.027 A 
ATOM     21  C   UNL     1       0.539   4.173  -2.324  1.00  0.00     0.027 A 
BRANCH  17  22
ATOM     22  C   UNL     1       0.349   1.319   0.207  1.00  0.00     0.032 C 
ATOM     23  C   UNL     1       0.833  -0.126   0.274  1.00  0.00     0.009 C 
ENDBRANCH  17  22
ENDBRANCH  14  16
ENDBRANCH  12  14
ENDBRANCH   7  12
ENDBRANCH   3   6
ENDBRANCH   1   2
BRANCH   1  24
ATOM     24  C   UNL     1       5.080   4.376  -7.305  1.00  0.00     0.023 C 
BRANCH  24  25
ATOM     25  C   UNL     1       6.319   3.787  -7.957  1.00  0.00     0.023 C 
BRANCH  25  26
ATOM     26  C   UNL     1       7.635   4.273  -7.373  1.00  0.00     0.116 C 
BRANCH  26  27
ATOM     27  N   UNL     1       7.748   4.096  -5.929  1.00  0.00    -0.352 N 
ATOM     28  C   UNL     1       8.785   3.562  -5.199  1.00  0.00     0.251 C 
ATOM     29  H   UNL     1       6.973   4.400  -5.403  1.00  0.00     0.163 HD
ATOM     30  O   UNL     1       8.684   3.406  -3.987  1.00  0.00    -0.269 OA
BRANCH  28  31
ATOM     31  C   UNL     1      10.007   3.131  -5.904  1.00  0.00     0.039 A 
ATOM     32  C   UNL     1      10.512   1.851  -5.666  1.00  0.00     0.014 A 
ATOM     33  C   UNL     1      10.591   3.958  -6.865  1.00  0.00     0.014 A 
ATOM     34  C   UNL     1      11.537   1.358  -6.474  1.00  0.00     0.010 A 
ATOM     35  C   UNL     1      11.538   3.432  -7.731  1.00  0.00     0.010 A 
ATOM     36  C   UNL     1      12.014   2.124  -7.550  1.00  0.00    -0.014 A 
BRANCH  36  37
ATOM     37  C   UNL     1      13.002   1.583  -8.516  1.00  0.00     0.031 A 
ATOM     38  C   UNL     1      14.330   2.264  -8.682  1.00  0.00     0.074 A 
ATOM     39  C   UNL     1      12.658   0.558  -9.319  1.00  0.00     0.049 A 
ATOM     40  N   UNL     1      15.271   2.042  -9.563  1.00  0.00    -0.248 NA
ATOM     41  C   UNL     1      14.620   3.376  -7.761  1.00  0.00     0.031 C 
ATOM     42  C   UNL     1      11.370  -0.139  -9.304  1.00  0.00     0.029 A 
ATOM     43  N   UNL     1      13.358  -0.065 -10.323  1.00  0.00    -0.354 N 
ATOM     44  C   UNL     1      16.242   3.004  -9.325  1.00  0.00     0.074 A 
ATOM     45  C   UNL     1      15.757   3.844  -8.252  1.00  0.00     0.031 C 
ATOM     46  C   UNL     1      11.380  -1.103 -10.238  1.00  0.00     0.029 A 
ATOM     47  C   UNL     1      12.657  -1.069 -10.943  1.00  0.00     0.049 A 
ATOM     48  H   UNL     1      14.277   0.186 -10.574  1.00  0.00     0.167 HD
ATOM     49  C   UNL     1      17.443   3.158  -9.931  1.00  0.00     0.037 A 
ATOM     50  C   UNL     1      13.003  -1.867 -11.971  1.00  0.00     0.037 A 
ATOM     51  C   UNL     1      17.944   2.284 -10.957  1.00  0.00     0.049 A 
ATOM     52  C   UNL     1      14.361  -1.706 -12.597  1.00  0.00     0.074 A 
ATOM     53  C   UNL     1      19.187   2.291 -11.564  1.00  0.00     0.029 A 
ATOM     54  N   UNL     1      17.225   1.242 -11.524  1.00  0.00    -0.354 N 
ATOM     55  N   UNL     1      15.305  -0.843 -12.311  1.00  0.00    -0.248 NA
ATOM     56  C   UNL     1      14.704  -2.632 -13.686  1.00  0.00     0.031 C 
ATOM     57  C   UNL     1      19.208   1.274 -12.524  1.00  0.00     0.029 A 
ATOM     58  C   UNL     1      17.992   0.610 -12.488  1.00  0.00     0.049 A 
ATOM     59  H   UNL     1      16.306   0.990 -11.277  1.00  0.00     0.167 HD
ATOM     60  C   UNL     1      16.358  -1.131 -13.166  1.00  0.00     0.074 A 
ATOM     61  C   UNL     1      15.944  -2.261 -13.973  1.00  0.00     0.031 C 
ATOM     62  C   UNL     1      17.561  -0.515 -13.276  1.00  0.00     0.037 A 
BRANCH  49  63
ATOM     63  C   UNL     1      18.299   4.307  -9.488  1.00  0.00     0.064 A 
ATOM     64  C   UNL     1      18.912   4.324  -8.226  1.00  0.00     0.173 A 
ATOM     65  C   UNL     1      18.527   5.394 -10.345  1.00  0.00     0.173 A 
ATOM     66  F   UNL     1      18.713   3.315  -7.365  1.00  0.00    -0.203 F 
ATOM     67  C   UNL     1      19.695   5.403  -7.825  1.00  0.00     0.198 A 
ATOM     68  C   UNL     1      19.335   6.458  -9.951  1.00  0.00     0.198 A 
ATOM     69  F   UNL     1      17.967   5.425 -11.563  1.00  0.00    -0.203 F 
ATOM     70  F   UNL     1      20.226   5.423  -6.595  1.00  0.00    -0.200 F 
ATOM     71  C   UNL     1      19.911   6.466  -8.690  1.00  0.00     0.200 A 
ATOM     72  F   UNL     1      19.551   7.480 -10.791  1.00  0.00    -0.200 F 
ATOM     73  F   UNL     1      20.668   7.502  -8.304  1.00  0.00    -0.200 F 
ENDBRANCH  49  63
BRANCH  50  74
ATOM     74  C   UNL     1      12.059  -2.907 -12.452  1.00  0.00     0.064 A 
ATOM     75  C   UNL     1      12.301  -4.265 -12.204  1.00  0.00     0.173 A 
ATOM     76  C   UNL     1      10.896  -2.570 -13.159  1.00  0.00     0.173 A 
ATOM     77  F   UNL     1      13.410  -4.637 -11.548  1.00  0.00    -0.203 F 
ATOM     78  C   UNL     1      11.424  -5.248 -12.657  1.00  0.00     0.198 A 
ATOM     79  C   UNL     1      10.006  -3.552 -13.591  1.00  0.00     0.198 A 
ATOM     80  F   UNL     1      10.616  -1.284 -13.416  1.00  0.00    -0.203 F 
ATOM     81  F   UNL     1      11.698  -6.541 -12.438  1.00  0.00    -0.200 F 
ATOM     82  C   UNL     1      10.274  -4.890 -13.345  1.00  0.00     0.200 A 
ATOM     83  F   UNL     1       8.890  -3.201 -14.244  1.00  0.00    -0.200 F 
ATOM     84  F   UNL     1       9.428  -5.835 -13.776  1.00  0.00    -0.200 F 
ENDBRANCH  50  74
BRANCH  62  85
ATOM     85  C   UNL     1      18.521  -1.062 -14.289  1.00  0.00     0.064 A 
ATOM     86  C   UNL     1      18.340  -0.841 -15.662  1.00  0.00     0.173 A 
ATOM     87  C   UNL     1      19.661  -1.767 -13.878  1.00  0.00     0.173 A 
ATOM     88  F   UNL     1      17.256  -0.185 -16.102  1.00  0.00    -0.203 F 
ATOM     89  C   UNL     1      19.259  -1.323 -16.589  1.00  0.00     0.198 A 
ATOM     90  C   UNL     1      20.591  -2.225 -14.806  1.00  0.00     0.198 A 
ATOM     91  F   UNL     1      19.881  -1.998 -12.575  1.00  0.00    -0.203 F 
ATOM     92  F   UNL     1      19.048  -1.134 -17.899  1.00  0.00    -0.200 F 
ATOM     93  C   UNL     1      20.387  -2.007 -16.160  1.00  0.00     0.200 A 
ATOM     94  F   UNL     1      21.686  -2.877 -14.390  1.00  0.00    -0.200 F 
ATOM     95  F   UNL     1      21.276  -2.462 -17.054  1.00  0.00    -0.200 F 
ENDBRANCH  62  85
ENDBRANCH  36  37
ENDBRANCH  28  31
ENDBRANCH  26  27
ENDBRANCH  25  26
ENDBRANCH  24  25
ENDBRANCH   1  24
TORSDOF 15
