REMARK SMILES CC(=O)N[C@@H](Cc1cc(Br)c(O)c(Br)c1)C(=O)NCCCCNC(=O)c1ccc(-c2c3nc(c(-c4c(F)c(F)c(F)c(F)c4F)c4ccc([nH]4)c(-c4c(F)c(F)c(F)c(F)c4F)c4nc(c(-c5c(F)c(F)c(F)c(F)c5F)c5ccc2[nH]5)C=C4)C=C3)cc1
REMARK SMILES IDX 20 1 19 2 18 3 16 4 17 5 5 7 4 8 1 9 2 10 3 11 6 13 7 14
REMARK SMILES IDX 8 15 15 16 9 17 13 18 10 19 11 20 14 21 12 22 21 24 22 25
REMARK SMILES IDX 23 26 24 27 25 29 26 30 27 31 88 32 28 33 87 34 29 35 30 36
REMARK SMILES IDX 31 37 81 38 32 39 86 40 80 41 82 42 33 43 85 44 79 45 78 46
REMARK SMILES IDX 34 48 66 49 46 50 65 51 47 52 50 53 64 54 83 55 48 56 49 57
REMARK SMILES IDX 63 59 84 60 51 61 35 62 36 63 44 64 37 65 38 66 42 67 45 68
REMARK SMILES IDX 39 69 40 70 43 71 41 72 67 73 68 74 76 75 69 76 70 77 74 78
REMARK SMILES IDX 77 79 71 80 72 81 75 82 73 83 52 84 53 85 61 86 54 87 55 88
REMARK SMILES IDX 59 89 62 90 56 91 57 92 60 93 58 94
REMARK H PARENT 18 6 4 12 12 23 23 28 82 47 50 58
REMARK Flexibility Score: inf
ROOT
ATOM      1  C   UNL     1      -1.665   5.081   2.552  1.00  0.00     0.023 C 
ENDROOT
BRANCH   1   2
ATOM      2  C   UNL     1      -0.202   4.668   2.506  1.00  0.00     0.116 C 
BRANCH   2   3
ATOM      3  N   UNL     1       0.139   3.510   3.294  1.00  0.00    -0.354 N 
ATOM      4  C   UNL     1       1.127   2.591   3.080  1.00  0.00     0.242 C 
ATOM      5  O   UNL     1       1.491   1.934   4.063  1.00  0.00    -0.273 OA
ATOM      6  H   UNL     1      -0.414   3.362   4.095  1.00  0.00     0.163 HD
BRANCH   4   7
ATOM      7  C   UNL     1       1.854   2.407   1.720  1.00  0.00     0.175 C 
BRANCH   7   8
ATOM      8  N   UNL     1       0.974   2.341   0.550  1.00  0.00    -0.344 N 
ATOM      9  C   UNL     1       1.138  -0.100   0.188  1.00  0.00     0.114 C 
ATOM     10  C   UNL     1       0.557   1.245  -0.142  1.00  0.00     0.217 C 
ATOM     11  O   UNL     1      -0.277   1.395  -1.033  1.00  0.00    -0.275 OA
ATOM     12  H   UNL     1       0.638   3.205   0.221  1.00  0.00     0.164 HD
ENDBRANCH   7   8
BRANCH   7  13
ATOM     13  C   UNL     1       3.119   3.280   1.518  1.00  0.00     0.070 C 
BRANCH  13  14
ATOM     14  C   UNL     1       3.038   4.791   1.435  1.00  0.00    -0.043 A 
ATOM     15  C   UNL     1       2.194   5.464   0.543  1.00  0.00     0.023 A 
ATOM     16  C   UNL     1       3.901   5.569   2.226  1.00  0.00     0.023 A 
ATOM     17  C   UNL     1       2.075   6.861   0.584  1.00  0.00     0.061 A 
ATOM     18  C   UNL     1       3.840   6.968   2.208  1.00  0.00     0.061 A 
ATOM     19  Br  UNL     1       0.749   7.685  -0.491  1.00  0.00    -0.047 Br
ATOM     20  C   UNL     1       2.884   7.619   1.429  1.00  0.00     0.143 A 
ATOM     21  Br  UNL     1       5.070   7.936   3.280  1.00  0.00    -0.047 Br
BRANCH  20  22
ATOM     22  O   UNL     1       2.755   8.978   1.516  1.00  0.00    -0.506 OA
ATOM     23  H   UNL     1       2.115   9.422   0.996  1.00  0.00     0.293 HD
ENDBRANCH  20  22
ENDBRANCH  13  14
ENDBRANCH   7  13
ENDBRANCH   4   7
ENDBRANCH   2   3
ENDBRANCH   1   2
BRANCH   1  24
ATOM     24  C   UNL     1      -2.118   5.809   3.812  1.00  0.00     0.023 C 
BRANCH  24  25
ATOM     25  C   UNL     1      -1.217   6.932   4.318  1.00  0.00     0.116 C 
BRANCH  25  26
ATOM     26  N   UNL     1      -0.823   7.909   3.311  1.00  0.00    -0.352 N 
ATOM     27  C   UNL     1      -0.770   9.282   3.390  1.00  0.00     0.251 C 
ATOM     28  H   UNL     1      -0.555   7.529   2.443  1.00  0.00     0.163 HD
ATOM     29  O   UNL     1      -0.355   9.934   2.434  1.00  0.00    -0.269 OA
BRANCH  27  30
ATOM     30  C   UNL     1      -1.282   9.963   4.601  1.00  0.00     0.039 A 
ATOM     31  C   UNL     1      -2.252  10.959   4.454  1.00  0.00     0.014 A 
ATOM     32  C   UNL     1      -0.883   9.558   5.876  1.00  0.00     0.014 A 
ATOM     33  C   UNL     1      -2.905  11.462   5.583  1.00  0.00     0.010 A 
ATOM     34  C   UNL     1      -1.591   9.998   6.992  1.00  0.00     0.010 A 
ATOM     35  C   UNL     1      -2.626  10.939   6.856  1.00  0.00    -0.014 A 
BRANCH  35  36
ATOM     36  C   UNL     1      -3.427  11.323   8.050  1.00  0.00     0.031 A 
ATOM     37  C   UNL     1      -2.770  11.988   9.227  1.00  0.00     0.074 A 
ATOM     38  C   UNL     1      -4.730  10.980   8.120  1.00  0.00     0.049 A 
ATOM     39  N   UNL     1      -3.277  12.297  10.395  1.00  0.00    -0.248 NA
ATOM     40  C   UNL     1      -1.344  12.318   9.085  1.00  0.00     0.031 C 
ATOM     41  C   UNL     1      -5.476  10.268   7.081  1.00  0.00     0.029 A 
ATOM     42  N   UNL     1      -5.655  11.169   9.118  1.00  0.00    -0.354 N 
ATOM     43  C   UNL     1      -2.227  12.827  11.134  1.00  0.00     0.074 A 
ATOM     44  C   UNL     1      -1.047  12.758  10.299  1.00  0.00     0.031 C 
ATOM     45  C   UNL     1      -6.746  10.100   7.486  1.00  0.00     0.029 A 
ATOM     46  C   UNL     1      -6.897  10.661   8.825  1.00  0.00     0.049 A 
ATOM     47  H   UNL     1      -5.447  11.626   9.965  1.00  0.00     0.167 HD
ATOM     48  C   UNL     1      -2.248  13.343  12.386  1.00  0.00     0.037 A 
ATOM     49  C   UNL     1      -8.030  10.646   9.552  1.00  0.00     0.037 A 
ATOM     50  C   UNL     1      -3.429  13.454  13.202  1.00  0.00     0.049 A 
ATOM     51  C   UNL     1      -8.040  11.270  10.920  1.00  0.00     0.074 A 
ATOM     52  C   UNL     1      -3.563  14.033  14.452  1.00  0.00     0.029 A 
ATOM     53  N   UNL     1      -4.682  12.979  12.845  1.00  0.00    -0.354 N 
ATOM     54  N   UNL     1      -7.057  11.831  11.579  1.00  0.00    -0.248 NA
ATOM     55  C   UNL     1      -9.321  11.265  11.642  1.00  0.00     0.031 C 
ATOM     56  C   UNL     1      -4.892  13.882  14.865  1.00  0.00     0.029 A 
ATOM     57  C   UNL     1      -5.593  13.242  13.855  1.00  0.00     0.049 A 
ATOM     58  H   UNL     1      -4.893  12.523  11.998  1.00  0.00     0.167 HD
ATOM     59  C   UNL     1      -7.601  12.266  12.780  1.00  0.00     0.074 A 
ATOM     60  C   UNL     1      -9.006  11.917  12.753  1.00  0.00     0.031 C 
ATOM     61  C   UNL     1      -6.990  12.896  13.812  1.00  0.00     0.037 A 
BRANCH  48  62
ATOM     62  C   UNL     1      -0.948  13.838  12.949  1.00  0.00     0.064 A 
ATOM     63  C   UNL     1      -0.337  15.005  12.468  1.00  0.00     0.173 A 
ATOM     64  C   UNL     1      -0.318  13.150  13.996  1.00  0.00     0.173 A 
ATOM     65  F   UNL     1      -0.895  15.692  11.459  1.00  0.00    -0.203 F 
ATOM     66  C   UNL     1       0.874  15.448  12.992  1.00  0.00     0.198 A 
ATOM     67  C   UNL     1       0.879  13.612  14.538  1.00  0.00     0.198 A 
ATOM     68  F   UNL     1      -0.863  12.031  14.497  1.00  0.00    -0.203 F 
ATOM     69  F   UNL     1       1.465  16.537  12.481  1.00  0.00    -0.200 F 
ATOM     70  C   UNL     1       1.478  14.755  14.030  1.00  0.00     0.200 A 
ATOM     71  F   UNL     1       1.457  12.947  15.548  1.00  0.00    -0.200 F 
ATOM     72  F   UNL     1       2.643  15.184  14.535  1.00  0.00    -0.200 F 
ENDBRANCH  48  62
BRANCH  49  73
ATOM     73  C   UNL     1      -9.266  10.048   8.985  1.00  0.00     0.064 A 
ATOM     74  C   UNL     1     -10.333  10.862   8.577  1.00  0.00     0.173 A 
ATOM     75  C   UNL     1      -9.409   8.661   8.838  1.00  0.00     0.173 A 
ATOM     76  F   UNL     1     -10.250  12.193   8.720  1.00  0.00    -0.203 F 
ATOM     77  C   UNL     1     -11.502  10.310   8.059  1.00  0.00     0.198 A 
ATOM     78  C   UNL     1     -10.569   8.112   8.297  1.00  0.00     0.198 A 
ATOM     79  F   UNL     1      -8.415   7.841   9.209  1.00  0.00    -0.203 F 
ATOM     80  F   UNL     1     -12.521  11.109   7.714  1.00  0.00    -0.200 F 
ATOM     81  C   UNL     1     -11.617   8.936   7.914  1.00  0.00     0.200 A 
ATOM     82  F   UNL     1     -10.674   6.784   8.148  1.00  0.00    -0.200 F 
ATOM     83  F   UNL     1     -12.741   8.406   7.412  1.00  0.00    -0.200 F 
ENDBRANCH  49  73
BRANCH  61  84
ATOM     84  C   UNL     1      -7.843  13.276  14.985  1.00  0.00     0.064 A 
ATOM     85  C   UNL     1      -8.305  12.317  15.898  1.00  0.00     0.173 A 
ATOM     86  C   UNL     1      -8.176  14.619  15.216  1.00  0.00     0.173 A 
ATOM     87  F   UNL     1      -8.027  11.018  15.711  1.00  0.00    -0.203 F 
ATOM     88  C   UNL     1      -9.088  12.687  16.988  1.00  0.00     0.198 A 
ATOM     89  C   UNL     1      -8.938  14.988  16.320  1.00  0.00     0.198 A 
ATOM     90  F   UNL     1      -7.755  15.574  14.373  1.00  0.00    -0.203 F 
ATOM     91  F   UNL     1      -9.554  11.749  17.825  1.00  0.00    -0.200 F 
ATOM     92  C   UNL     1      -9.399  14.022  17.202  1.00  0.00     0.200 A 
ATOM     93  F   UNL     1      -9.230  16.279  16.530  1.00  0.00    -0.200 F 
ATOM     94  F   UNL     1     -10.150  14.376  18.253  1.00  0.00    -0.200 F 
ENDBRANCH  61  84
ENDBRANCH  35  36
ENDBRANCH  27  30
ENDBRANCH  25  26
ENDBRANCH  24  25
ENDBRANCH   1  24
TORSDOF 15
