REMARK SMILES CC(=O)Nc1cnc(N2CC=C(c3ccccc3C)CC2)c(C(=O)NCCCCNC(=O)c2ccc(-c3c4nc(c(-c5c(F)c(F)c(F)c(F)c5F)c5ccc([nH]5)c(-c5c(F)c(F)c(F)c(F)c5F)c5nc(c(-c6c(F)c(F)c(F)c(F)c6F)c6ccc3[nH]6)C=C5)C=C4)cc2)c1
REMARK SMILES IDX 27 1 26 2 25 3 23 4 24 5 22 7 5 8 6 9 96 10 7 11 8 12 4 13
REMARK SMILES IDX 1 14 2 15 3 16 9 18 10 19 21 20 11 21 20 22 12 23 13 24
REMARK SMILES IDX 14 25 18 26 15 27 17 28 19 29 16 30 28 31 29 32 30 33 31 34
REMARK SMILES IDX 32 36 33 37 34 38 95 39 35 40 94 41 36 42 37 43 38 44 88 45
REMARK SMILES IDX 39 46 93 47 87 48 89 49 40 50 92 51 86 52 85 53 41 55 73 56
REMARK SMILES IDX 53 57 72 58 54 59 57 60 71 61 90 62 55 63 56 64 70 66 91 67
REMARK SMILES IDX 58 68 42 69 43 70 51 71 44 72 45 73 49 74 52 75 46 76 47 77
REMARK SMILES IDX 50 78 48 79 74 80 75 81 83 82 76 83 77 84 81 85 84 86 78 87
REMARK SMILES IDX 79 88 82 89 80 90 59 91 60 92 68 93 61 94 62 95 66 96 69 97
REMARK SMILES IDX 63 98 64 99 67 100 65 101
REMARK H PARENT 25 6 4 17 30 35 89 54 57 65
REMARK Flexibility Score: inf
ROOT
ATOM      1  C   UNL     1       4.958  -0.458  -1.109  1.00  0.00     0.023 C 
ENDROOT
BRANCH   1   2
ATOM      2  C   UNL     1       4.558  -0.302   0.365  1.00  0.00     0.116 C 
BRANCH   2   3
ATOM      3  N   UNL     1       5.199   0.825   1.015  1.00  0.00    -0.352 N 
ATOM      4  C   UNL     1       4.904   2.148   1.251  1.00  0.00     0.255 C 
ATOM      5  O   UNL     1       5.692   2.664   2.045  1.00  0.00    -0.269 OA
ATOM      6  H   UNL     1       6.078   0.578   1.384  1.00  0.00     0.163 HD
BRANCH   4   7
ATOM      7  C   UNL     1       3.747   2.923   0.672  1.00  0.00     0.084 A 
ATOM      8  C   UNL     1       1.627   2.953  -0.556  1.00  0.00     0.060 A 
ATOM      9  C   UNL     1       1.507   4.281  -0.212  1.00  0.00     0.139 A 
ATOM     10  C   UNL     1       2.785   2.300  -0.143  1.00  0.00     0.045 A 
ATOM     11  N   UNL     1       2.412   4.937   0.538  1.00  0.00    -0.236 NA
ATOM     12  C   UNL     1       3.530   4.289   0.978  1.00  0.00     0.141 A 
BRANCH   8  13
ATOM     13  N   UNL     1       0.625   2.346  -1.330  1.00  0.00    -0.325 N 
ATOM     14  C   UNL     1       0.628   0.063  -0.327  1.00  0.00     0.114 C 
ATOM     15  C   UNL     1       0.218   1.042  -1.396  1.00  0.00     0.221 C 
ATOM     16  O   UNL     1      -0.541   0.698  -2.303  1.00  0.00    -0.275 OA
ATOM     17  H   UNL     1       0.134   2.960  -1.922  1.00  0.00     0.169 HD
ENDBRANCH   8  13
BRANCH  12  18
ATOM     18  N   UNL     1       4.381   5.111   1.674  1.00  0.00    -0.352 N 
ATOM     19  C   UNL     1       3.871   5.798   2.851  1.00  0.00     0.146 C 
ATOM     20  C   UNL     1       5.769   5.313   1.281  1.00  0.00     0.123 C 
ATOM     21  C   UNL     1       4.586   7.101   3.089  1.00  0.00    -0.002 C 
ATOM     22  C   UNL     1       6.055   6.810   1.115  1.00  0.00     0.057 C 
ATOM     23  C   UNL     1       5.569   7.590   2.310  1.00  0.00    -0.041 C 
BRANCH  23  24
ATOM     24  C   UNL     1       6.220   8.875   2.630  1.00  0.00    -0.020 A 
ATOM     25  C   UNL     1       6.920   8.975   3.846  1.00  0.00     0.008 A 
ATOM     26  C   UNL     1       6.170   9.995   1.776  1.00  0.00    -0.044 A 
ATOM     27  C   UNL     1       7.569  10.155   4.210  1.00  0.00     0.001 A 
ATOM     28  C   UNL     1       6.842  11.172   2.149  1.00  0.00     0.004 A 
ATOM     29  C   UNL     1       5.435   9.975   0.463  1.00  0.00     0.045 C 
ATOM     30  C   UNL     1       7.532  11.253   3.359  1.00  0.00     0.000 A 
ENDBRANCH  23  24
ENDBRANCH  12  18
ENDBRANCH   4   7
ENDBRANCH   2   3
ENDBRANCH   1   2
BRANCH   1  31
ATOM     31  C   UNL     1       6.407  -0.913  -1.337  1.00  0.00     0.023 C 
BRANCH  31  32
ATOM     32  C   UNL     1       6.707  -2.317  -0.824  1.00  0.00     0.116 C 
BRANCH  32  33
ATOM     33  N   UNL     1       6.340  -3.406  -1.718  1.00  0.00    -0.352 N 
ATOM     34  C   UNL     1       6.186  -4.762  -1.458  1.00  0.00     0.251 C 
ATOM     35  H   UNL     1       6.176  -3.140  -2.652  1.00  0.00     0.163 HD
ATOM     36  O   UNL     1       6.021  -5.542  -2.381  1.00  0.00    -0.269 OA
BRANCH  34  37
ATOM     37  C   UNL     1       6.069  -5.246  -0.055  1.00  0.00     0.039 A 
ATOM     38  C   UNL     1       5.078  -6.196   0.229  1.00  0.00     0.014 A 
ATOM     39  C   UNL     1       6.750  -4.628   0.987  1.00  0.00     0.014 A 
ATOM     40  C   UNL     1       4.583  -6.305   1.527  1.00  0.00     0.010 A 
ATOM     41  C   UNL     1       6.181  -4.637   2.244  1.00  0.00     0.010 A 
ATOM     42  C   UNL     1       5.048  -5.419   2.492  1.00  0.00    -0.014 A 
BRANCH  42  43
ATOM     43  C   UNL     1       4.362  -5.146   3.747  1.00  0.00     0.031 A 
ATOM     44  C   UNL     1       4.962  -5.571   5.028  1.00  0.00     0.074 A 
ATOM     45  C   UNL     1       3.260  -4.359   3.733  1.00  0.00     0.049 A 
ATOM     46  N   UNL     1       4.339  -5.541   6.156  1.00  0.00    -0.248 NA
ATOM     47  C   UNL     1       6.302  -6.144   5.135  1.00  0.00     0.031 C 
ATOM     48  C   UNL     1       2.661  -3.645   4.859  1.00  0.00     0.029 A 
ATOM     49  N   UNL     1       2.324  -4.209   2.693  1.00  0.00    -0.354 N 
ATOM     50  C   UNL     1       5.260  -5.779   7.147  1.00  0.00     0.074 A 
ATOM     51  C   UNL     1       6.418  -6.287   6.460  1.00  0.00     0.031 C 
ATOM     52  C   UNL     1       1.373  -3.391   4.580  1.00  0.00     0.029 A 
ATOM     53  C   UNL     1       1.070  -4.080   3.340  1.00  0.00     0.049 A 
ATOM     54  H   UNL     1       2.502  -4.196   1.725  1.00  0.00     0.167 HD
ATOM     55  C   UNL     1       4.962  -5.375   8.413  1.00  0.00     0.037 A 
ATOM     56  C   UNL     1       0.091  -5.021   3.199  1.00  0.00     0.037 A 
ATOM     57  C   UNL     1       3.532  -5.084   8.535  1.00  0.00     0.049 A 
ATOM     58  C   UNL     1      -0.360  -5.640   4.501  1.00  0.00     0.074 A 
ATOM     59  C   UNL     1       2.796  -3.919   8.656  1.00  0.00     0.029 A 
ATOM     60  N   UNL     1       2.619  -6.103   8.271  1.00  0.00    -0.354 N 
ATOM     61  N   UNL     1       0.349  -5.628   5.596  1.00  0.00    -0.248 NA
ATOM     62  C   UNL     1      -1.632  -6.337   4.667  1.00  0.00     0.031 C 
ATOM     63  C   UNL     1       1.438  -4.233   8.374  1.00  0.00     0.029 A 
ATOM     64  C   UNL     1       1.345  -5.594   8.129  1.00  0.00     0.049 A 
ATOM     65  H   UNL     1       2.851  -7.057   8.195  1.00  0.00     0.167 HD
ATOM     66  C   UNL     1      -0.322  -6.301   6.585  1.00  0.00     0.074 A 
ATOM     67  C   UNL     1      -1.565  -6.707   5.958  1.00  0.00     0.031 C 
ATOM     68  C   UNL     1       0.220  -6.473   7.829  1.00  0.00     0.037 A 
BRANCH  55  69
ATOM     69  C   UNL     1       5.972  -5.051   9.501  1.00  0.00     0.064 A 
ATOM     70  C   UNL     1       5.528  -4.601  10.766  1.00  0.00     0.173 A 
ATOM     71  C   UNL     1       7.374  -5.024   9.336  1.00  0.00     0.173 A 
ATOM     72  F   UNL     1       4.224  -4.563  11.072  1.00  0.00    -0.203 F 
ATOM     73  C   UNL     1       6.407  -4.147  11.758  1.00  0.00     0.198 A 
ATOM     74  C   UNL     1       8.253  -4.617  10.345  1.00  0.00     0.198 A 
ATOM     75  F   UNL     1       7.968  -5.328   8.179  1.00  0.00    -0.203 F 
ATOM     76  F   UNL     1       5.919  -3.673  12.913  1.00  0.00    -0.200 F 
ATOM     77  C   UNL     1       7.770  -4.163  11.551  1.00  0.00     0.200 A 
ATOM     78  F   UNL     1       9.575  -4.640  10.118  1.00  0.00    -0.200 F 
ATOM     79  F   UNL     1       8.613  -3.727  12.496  1.00  0.00    -0.200 F 
ENDBRANCH  55  69
BRANCH  56  80
ATOM     80  C   UNL     1       0.142  -5.717   1.886  1.00  0.00     0.064 A 
ATOM     81  C   UNL     1      -0.060  -4.947   0.723  1.00  0.00     0.173 A 
ATOM     82  C   UNL     1       0.775  -6.957   1.742  1.00  0.00     0.173 A 
ATOM     83  F   UNL     1      -0.655  -3.747   0.811  1.00  0.00    -0.203 F 
ATOM     84  C   UNL     1       0.470  -5.338  -0.504  1.00  0.00     0.198 A 
ATOM     85  C   UNL     1       1.287  -7.354   0.504  1.00  0.00     0.198 A 
ATOM     86  F   UNL     1       1.015  -7.725   2.813  1.00  0.00    -0.203 F 
ATOM     87  F   UNL     1       0.378  -4.519  -1.562  1.00  0.00    -0.200 F 
ATOM     88  C   UNL     1       1.170  -6.528  -0.605  1.00  0.00     0.200 A 
ATOM     89  F   UNL     1       1.996  -8.488   0.410  1.00  0.00    -0.200 F 
ATOM     90  F   UNL     1       1.776  -6.855  -1.756  1.00  0.00    -0.200 F 
ENDBRANCH  56  80
BRANCH  68  91
ATOM     91  C   UNL     1      -0.282  -7.410   8.911  1.00  0.00     0.064 A 
ATOM     92  C   UNL     1      -1.070  -8.549   8.674  1.00  0.00     0.173 A 
ATOM     93  C   UNL     1       0.159  -7.256  10.251  1.00  0.00     0.173 A 
ATOM     94  F   UNL     1      -1.446  -8.897   7.437  1.00  0.00    -0.203 F 
ATOM     95  C   UNL     1      -1.449  -9.420   9.702  1.00  0.00     0.198 A 
ATOM     96  C   UNL     1      -0.168  -8.161  11.261  1.00  0.00     0.198 A 
ATOM     97  F   UNL     1       0.948  -6.237  10.619  1.00  0.00    -0.203 F 
ATOM     98  F   UNL     1      -2.241 -10.466   9.425  1.00  0.00    -0.200 F 
ATOM     99  C   UNL     1      -0.989  -9.234  10.991  1.00  0.00     0.200 A 
ATOM    100  F   UNL     1       0.338  -7.997  12.491  1.00  0.00    -0.200 F 
ATOM    101  F   UNL     1      -1.313 -10.099  11.961  1.00  0.00    -0.200 F 
ENDBRANCH  68  91
ENDBRANCH  42  43
ENDBRANCH  34  37
ENDBRANCH  32  33
ENDBRANCH  31  32
ENDBRANCH   1  31
TORSDOF 14
