REMARK SMILES CC(C)CN(C)S(=O)(=O)c1ccc(C(=O)NCCCCNC(=O)c2ccc(-c3c4nc(c(-c5c(F)c(F)c(F)c(F)c5F)c5ccc([nH]5)c(-c5c(F)c(F)c(F)c(F)c5F)c5nc(c(-c6c(F)c(F)c(F)c(F)c6F)c6ccc3[nH]6)C=C5)C=C4)cc2)cc1
REMARK SMILES IDX 17 1 16 2 14 3 15 4 13 6 10 7 11 8 88 9 12 10 87 11 7 12
REMARK SMILES IDX 8 13 9 14 5 15 6 16 4 17 2 18 1 19 3 20 18 21 19 22 20 23
REMARK SMILES IDX 21 24 22 25 23 27 24 28 25 29 86 30 26 31 85 32 27 33 28 34
REMARK SMILES IDX 29 35 79 36 30 37 84 38 78 39 80 40 31 41 83 42 77 43 76 44
REMARK SMILES IDX 32 46 64 47 44 48 63 49 45 50 48 51 62 52 81 53 46 54 47 55
REMARK SMILES IDX 61 57 82 58 49 59 33 60 34 61 42 62 35 63 36 64 40 65 43 66
REMARK SMILES IDX 37 67 38 68 41 69 39 70 65 71 66 72 74 73 67 74 68 75 72 76
REMARK SMILES IDX 75 77 69 78 70 79 73 80 71 81 50 82 51 83 59 84 52 85 53 86
REMARK SMILES IDX 57 87 60 88 54 89 55 90 58 91 56 92
REMARK H PARENT 16 5 21 26 80 45 48 56
REMARK Flexibility Score: inf
ROOT
ATOM      1  C   UNL     1      -1.069  -6.439  -4.957  1.00  0.00     0.116 C 
ENDROOT
BRANCH   1   2
ATOM      2  N   UNL     1      -2.184  -5.856  -5.676  1.00  0.00    -0.352 N 
ATOM      3  C   UNL     1      -2.880  -4.689  -5.499  1.00  0.00     0.251 C 
ATOM      4  O   UNL     1      -3.799  -4.449  -6.282  1.00  0.00    -0.269 OA
ATOM      5  H   UNL     1      -2.500  -6.400  -6.434  1.00  0.00     0.163 HD
BRANCH   3   6
ATOM      6  C   UNL     1      -2.537  -3.682  -4.455  1.00  0.00     0.039 A 
ATOM      7  C   UNL     1      -1.885  -1.637  -2.650  1.00  0.00     0.082 A 
ATOM      8  C   UNL     1      -2.505  -1.321  -3.861  1.00  0.00     0.022 A 
ATOM      9  C   UNL     1      -1.622  -2.965  -2.315  1.00  0.00     0.022 A 
ATOM     10  C   UNL     1      -2.818  -2.341  -4.761  1.00  0.00     0.015 A 
ATOM     11  C   UNL     1      -1.986  -3.983  -3.203  1.00  0.00     0.015 A 
BRANCH   7  12
ATOM     12  S   UNL     1      -1.447  -0.307  -1.558  1.00  0.00     0.242 S 
ATOM     13  O   UNL     1      -2.520   0.666  -1.605  1.00  0.00    -0.207 OA
ATOM     14  O   UNL     1      -0.092   0.056  -1.903  1.00  0.00    -0.207 OA
BRANCH  12  15
ATOM     15  N   UNL     1      -1.464  -0.988   0.032  1.00  0.00    -0.201 NA
ATOM     16  C   UNL     1      -2.822  -1.449   0.449  1.00  0.00     0.124 C 
BRANCH  15  17
ATOM     17  C   UNL     1      -0.901  -0.052   1.071  1.00  0.00     0.105 C 
BRANCH  17  18
ATOM     18  C   UNL     1       0.507  -0.462   1.541  1.00  0.00    -0.002 C 
ATOM     19  C   UNL     1       1.602  -0.092   0.540  1.00  0.00     0.009 C 
ATOM     20  C   UNL     1       0.809   0.228   2.878  1.00  0.00     0.009 C 
ENDBRANCH  17  18
ENDBRANCH  15  17
ENDBRANCH  12  15
ENDBRANCH   7  12
ENDBRANCH   3   6
ENDBRANCH   1   2
BRANCH   1  21
ATOM     21  C   UNL     1      -1.570  -7.468  -3.941  1.00  0.00     0.023 C 
BRANCH  21  22
ATOM     22  C   UNL     1      -2.049  -8.781  -4.566  1.00  0.00     0.023 C 
BRANCH  22  23
ATOM     23  C   UNL     1      -0.957  -9.589  -5.253  1.00  0.00     0.116 C 
BRANCH  23  24
ATOM     24  N   UNL     1       0.101 -10.010  -4.346  1.00  0.00    -0.352 N 
ATOM     25  C   UNL     1       0.879 -11.141  -4.433  1.00  0.00     0.251 C 
ATOM     26  H   UNL     1       0.281  -9.417  -3.582  1.00  0.00     0.163 HD
ATOM     27  O   UNL     1       1.673 -11.436  -3.549  1.00  0.00    -0.269 OA
BRANCH  25  28
ATOM     28  C   UNL     1       0.700 -12.022  -5.602  1.00  0.00     0.039 A 
ATOM     29  C   UNL     1       0.365 -13.362  -5.396  1.00  0.00     0.014 A 
ATOM     30  C   UNL     1       0.778 -11.493  -6.892  1.00  0.00     0.014 A 
ATOM     31  C   UNL     1       0.029 -14.161  -6.490  1.00  0.00     0.010 A 
ATOM     32  C   UNL     1       0.384 -12.272  -7.972  1.00  0.00     0.010 A 
ATOM     33  C   UNL     1      -0.003 -13.609  -7.780  1.00  0.00    -0.014 A 
BRANCH  33  34
ATOM     34  C   UNL     1      -0.434 -14.396  -8.960  1.00  0.00     0.031 A 
ATOM     35  C   UNL     1       0.548 -14.671 -10.060  1.00  0.00     0.074 A 
ATOM     36  C   UNL     1      -1.725 -14.758  -9.091  1.00  0.00     0.049 A 
ATOM     37  N   UNL     1       0.341 -15.162 -11.254  1.00  0.00    -0.248 NA
ATOM     38  C   UNL     1       1.949 -14.310  -9.790  1.00  0.00     0.031 C 
ATOM     39  C   UNL     1      -2.777 -14.520  -8.103  1.00  0.00     0.029 A 
ATOM     40  N   UNL     1      -2.376 -15.378 -10.129  1.00  0.00    -0.354 N 
ATOM     41  C   UNL     1       1.575 -15.140 -11.887  1.00  0.00     0.074 A 
ATOM     42  C   UNL     1       2.519 -14.554 -10.961  1.00  0.00     0.031 C 
ATOM     43  C   UNL     1      -3.942 -14.991  -8.579  1.00  0.00     0.029 A 
ATOM     44  C   UNL     1      -3.727 -15.521  -9.923  1.00  0.00     0.049 A 
ATOM     45  H   UNL     1      -1.919 -15.691 -10.942  1.00  0.00     0.167 HD
ATOM     46  C   UNL     1       1.893 -15.582 -13.127  1.00  0.00     0.037 A 
ATOM     47  C   UNL     1      -4.685 -16.004 -10.737  1.00  0.00     0.037 A 
ATOM     48  C   UNL     1       0.956 -16.198 -14.027  1.00  0.00     0.049 A 
ATOM     49  C   UNL     1      -4.306 -16.488 -12.111  1.00  0.00     0.074 A 
ATOM     50  C   UNL     1       1.190 -16.735 -15.281  1.00  0.00     0.029 A 
ATOM     51  N   UNL     1      -0.396 -16.363 -13.765  1.00  0.00    -0.354 N 
ATOM     52  N   UNL     1      -3.128 -16.505 -12.685  1.00  0.00    -0.248 NA
ATOM     53  C   UNL     1      -5.389 -17.019 -12.950  1.00  0.00     0.031 C 
ATOM     54  C   UNL     1      -0.027 -17.195 -15.793  1.00  0.00     0.029 A 
ATOM     55  C   UNL     1      -1.012 -16.982 -14.841  1.00  0.00     0.049 A 
ATOM     56  H   UNL     1      -0.850 -16.082 -12.938  1.00  0.00     0.167 HD
ATOM     57  C   UNL     1      -3.321 -17.075 -13.935  1.00  0.00     0.074 A 
ATOM     58  C   UNL     1      -4.729 -17.394 -14.038  1.00  0.00     0.031 C 
ATOM     59  C   UNL     1      -2.411 -17.314 -14.911  1.00  0.00     0.037 A 
BRANCH  46  60
ATOM     60  C   UNL     1       3.312 -15.414 -13.580  1.00  0.00     0.064 A 
ATOM     61  C   UNL     1       4.353 -16.179 -13.034  1.00  0.00     0.173 A 
ATOM     62  C   UNL     1       3.631 -14.498 -14.593  1.00  0.00     0.173 A 
ATOM     63  F   UNL     1       4.102 -17.059 -12.053  1.00  0.00    -0.203 F 
ATOM     64  C   UNL     1       5.666 -16.013 -13.467  1.00  0.00     0.198 A 
ATOM     65  C   UNL     1       4.940 -14.355 -15.043  1.00  0.00     0.198 A 
ATOM     66  F   UNL     1       2.671 -13.744 -15.150  1.00  0.00    -0.203 F 
ATOM     67  F   UNL     1       6.652 -16.721 -12.897  1.00  0.00    -0.200 F 
ATOM     68  C   UNL     1       5.957 -15.107 -14.475  1.00  0.00     0.200 A 
ATOM     69  F   UNL     1       5.219 -13.486 -16.025  1.00  0.00    -0.200 F 
ATOM     70  F   UNL     1       7.221 -14.952 -14.894  1.00  0.00    -0.200 F 
ENDBRANCH  46  60
BRANCH  47  71
ATOM     71  C   UNL     1      -6.094 -16.064 -10.271  1.00  0.00     0.064 A 
ATOM     72  C   UNL     1      -6.702 -17.294  -9.985  1.00  0.00     0.173 A 
ATOM     73  C   UNL     1      -6.861 -14.902 -10.102  1.00  0.00     0.173 A 
ATOM     74  F   UNL     1      -6.014 -18.434 -10.152  1.00  0.00    -0.203 F 
ATOM     75  C   UNL     1      -8.028 -17.362  -9.566  1.00  0.00     0.198 A 
ATOM     76  C   UNL     1      -8.180 -14.970  -9.658  1.00  0.00     0.198 A 
ATOM     77  F   UNL     1      -6.325 -13.700 -10.358  1.00  0.00    -0.203 F 
ATOM     78  F   UNL     1      -8.597 -18.554  -9.338  1.00  0.00    -0.200 F 
ATOM     79  C   UNL     1      -8.765 -16.200  -9.397  1.00  0.00     0.200 A 
ATOM     80  F   UNL     1      -8.885 -13.843  -9.484  1.00  0.00    -0.200 F 
ATOM     81  F   UNL     1     -10.040 -16.265  -8.989  1.00  0.00    -0.200 F 
ENDBRANCH  47  71
BRANCH  59  82
ATOM     82  C   UNL     1      -2.892 -17.999 -16.154  1.00  0.00     0.064 A 
ATOM     83  C   UNL     1      -3.633 -17.317 -17.129  1.00  0.00     0.173 A 
ATOM     84  C   UNL     1      -2.538 -19.333 -16.407  1.00  0.00     0.173 A 
ATOM     85  F   UNL     1      -4.008 -16.045 -16.925  1.00  0.00    -0.203 F 
ATOM     86  C   UNL     1      -4.010 -17.950 -18.310  1.00  0.00     0.198 A 
ATOM     87  C   UNL     1      -2.895 -19.955 -17.599  1.00  0.00     0.198 A 
ATOM     88  F   UNL     1      -1.824 -20.024 -15.505  1.00  0.00    -0.203 F 
ATOM     89  F   UNL     1      -4.741 -17.289 -19.218  1.00  0.00    -0.200 F 
ATOM     90  C   UNL     1      -3.632 -19.264 -18.548  1.00  0.00     0.200 A 
ATOM     91  F   UNL     1      -2.519 -21.219 -17.832  1.00  0.00    -0.200 F 
ATOM     92  F   UNL     1      -3.981 -19.865 -19.694  1.00  0.00    -0.200 F 
ENDBRANCH  59  82
ENDBRANCH  33  34
ENDBRANCH  25  28
ENDBRANCH  23  24
ENDBRANCH  22  23
ENDBRANCH  21  22
ENDBRANCH   1  21
TORSDOF 15
