REMARK SMILES [NH3+][C@@H](Cc1c[nH]c2ccccc12)C(=O)N[C@@H](CS)C(=O)N[C@@H](CO)C(=O)NCCCCNC(=O)c1ccc(-c2c3nc(c(-c4c(F)c(F)c(F)c(F)c4F)c4ccc([nH]4)c(-c4c(F)c(F)c(F)c(F)c4F)c4nc(c(-c5c(F)c(F)c(F)c(F)c5F)c5ccc2[nH]5)C=C4)C=C3)cc1
REMARK SMILES IDX 25 1 26 2 27 3 22 5 21 6 19 7 20 8 16 10 15 11 13 12 14 13
REMARK SMILES IDX 2 15 1 16 3 20 4 21 5 22 12 23 6 24 7 25 11 26 8 28 10 29
REMARK SMILES IDX 9 30 17 31 18 32 23 34 24 35 28 37 29 38 30 39 31 40 32 41
REMARK SMILES IDX 33 42 34 44 35 45 36 46 97 47 37 48 96 49 38 50 39 51 40 52
REMARK SMILES IDX 90 53 41 54 95 55 89 56 91 57 42 58 94 59 88 60 87 61 43 63
REMARK SMILES IDX 75 64 55 65 74 66 56 67 59 68 73 69 92 70 57 71 58 72 72 74
REMARK SMILES IDX 93 75 60 76 44 77 45 78 53 79 46 80 47 81 51 82 54 83 48 84
REMARK SMILES IDX 49 85 52 86 50 87 76 88 77 89 85 90 78 91 79 92 83 93 86 94
REMARK SMILES IDX 80 95 81 96 84 97 82 98 61 99 62 100 70 101 63 102 64 103
REMARK SMILES IDX 68 104 71 105 65 106 66 107 69 108 67 109
REMARK H PARENT 27 4 21 9 15 14 1 17 1 18 1 19 6 27 18 33 24 36 32 43 91 62
REMARK H PARENT 59 73
REMARK Flexibility Score: inf
ROOT
ATOM      1  C   UNL     1      -5.188  -4.084   0.496  1.00  0.00     0.244 C 
ATOM      2  O   UNL     1      -5.505  -3.655   1.611  1.00  0.00    -0.273 OA
ATOM      3  N   UNL     1      -5.350  -5.416   0.285  1.00  0.00    -0.354 N 
ATOM      4  H   UNL     1      -5.580  -5.935   1.090  1.00  0.00     0.163 HD
ENDROOT
BRANCH   1   5
ATOM      5  C   UNL     1      -4.727  -3.105  -0.597  1.00  0.00     0.197 C 
BRANCH   5   6
ATOM      6  N   UNL     1      -3.471  -3.457  -1.245  1.00  0.00    -0.340 N 
ATOM      7  C   UNL     1      -2.272  -2.844  -1.327  1.00  0.00     0.244 C 
ATOM      8  O   UNL     1      -1.524  -3.337  -2.186  1.00  0.00    -0.273 OA
ATOM      9  H   UNL     1      -3.504  -4.318  -1.721  1.00  0.00     0.164 HD
BRANCH   7  10
ATOM     10  C   UNL     1      -1.848  -1.560  -0.572  1.00  0.00     0.181 C 
BRANCH  10  11
ATOM     11  N   UNL     1      -1.715  -0.459  -1.510  1.00  0.00    -0.338 N 
ATOM     12  C   UNL     1      -0.596   0.148  -1.983  1.00  0.00     0.279 C 
ATOM     13  O   UNL     1      -0.790   1.035  -2.828  1.00  0.00    -0.268 OA
ATOM     14  H   UNL     1      -2.563  -0.098  -1.855  1.00  0.00     0.164 HD
BRANCH  12  15
ATOM     15  C   UNL     1       0.853  -0.098  -1.460  1.00  0.00     0.275 C 
BRANCH  15  16
ATOM     16  N   UNL     1       1.064   0.606  -0.182  1.00  0.00    -0.347 N 
ATOM     17  H   UNL     1       2.014   0.436   0.147  1.00  0.00     0.345 HD
ATOM     18  H   UNL     1       0.398   0.262   0.510  1.00  0.00     0.345 HD
ATOM     19  H   UNL     1       0.925   1.608  -0.318  1.00  0.00     0.345 HD
ENDBRANCH  15  16
BRANCH  15  20
ATOM     20  C   UNL     1       1.547  -1.465  -1.620  1.00  0.00     0.113 C 
BRANCH  20  21
ATOM     21  C   UNL     1       1.373  -2.637  -0.678  1.00  0.00    -0.016 A 
ATOM     22  C   UNL     1       1.438  -3.942  -1.146  1.00  0.00     0.087 A 
ATOM     23  C   UNL     1       1.095  -2.748   0.738  1.00  0.00     0.003 A 
ATOM     24  N   UNL     1       1.071  -4.795  -0.149  1.00  0.00    -0.361 N 
ATOM     25  C   UNL     1       0.772  -4.088   0.987  1.00  0.00     0.046 A 
ATOM     26  C   UNL     1       0.957  -1.853   1.823  1.00  0.00     0.010 A 
ATOM     27  H   UNL     1       1.026  -5.775  -0.233  1.00  0.00     0.166 HD
ATOM     28  C   UNL     1       0.233  -4.542   2.199  1.00  0.00     0.026 A 
ATOM     29  C   UNL     1       0.415  -2.287   3.042  1.00  0.00     0.001 A 
ATOM     30  C   UNL     1       0.033  -3.610   3.216  1.00  0.00     0.002 A 
ENDBRANCH  20  21
ENDBRANCH  15  20
ENDBRANCH  12  15
ENDBRANCH  10  11
BRANCH  10  31
ATOM     31  C   UNL     1      -2.426  -1.203   0.803  1.00  0.00     0.101 C 
BRANCH  31  32
ATOM     32  S   UNL     1      -3.553   0.241   0.892  1.00  0.00    -0.177 SA
ATOM     33  H   UNL     1      -2.870   1.370   0.564  1.00  0.00     0.102 HD
ENDBRANCH  31  32
ENDBRANCH  10  31
ENDBRANCH   7  10
ENDBRANCH   5   6
BRANCH   5  34
ATOM     34  C   UNL     1      -5.829  -2.786  -1.615  1.00  0.00     0.191 C 
BRANCH  34  35
ATOM     35  O   UNL     1      -5.885  -3.727  -2.685  1.00  0.00    -0.394 OA
ATOM     36  H   UNL     1      -5.048  -3.711  -3.174  1.00  0.00     0.210 HD
ENDBRANCH  34  35
ENDBRANCH   5  34
ENDBRANCH   1   5
BRANCH   3  37
ATOM     37  C   UNL     1      -5.239  -6.199  -0.926  1.00  0.00     0.116 C 
BRANCH  37  38
ATOM     38  C   UNL     1      -4.320  -7.403  -0.742  1.00  0.00     0.023 C 
BRANCH  38  39
ATOM     39  C   UNL     1      -4.839  -8.474   0.218  1.00  0.00     0.023 C 
BRANCH  39  40
ATOM     40  C   UNL     1      -6.289  -8.889   0.005  1.00  0.00     0.116 C 
BRANCH  40  41
ATOM     41  N   UNL     1      -6.599  -9.238  -1.371  1.00  0.00    -0.352 N 
ATOM     42  C   UNL     1      -7.536 -10.129  -1.837  1.00  0.00     0.251 C 
ATOM     43  H   UNL     1      -6.069  -8.777  -2.059  1.00  0.00     0.163 HD
ATOM     44  O   UNL     1      -7.641 -10.357  -3.031  1.00  0.00    -0.269 OA
BRANCH  42  45
ATOM     45  C   UNL     1      -8.384 -10.844  -0.863  1.00  0.00     0.039 A 
ATOM     46  C   UNL     1      -8.468 -12.234  -0.953  1.00  0.00     0.014 A 
ATOM     47  C   UNL     1      -9.057 -10.151   0.146  1.00  0.00     0.014 A 
ATOM     48  C   UNL     1      -9.195 -12.939   0.004  1.00  0.00     0.010 A 
ATOM     49  C   UNL     1      -9.717 -10.861   1.143  1.00  0.00     0.010 A 
ATOM     50  C   UNL     1      -9.805 -12.259   1.071  1.00  0.00    -0.014 A 
BRANCH  50  51
ATOM     51  C   UNL     1     -10.582 -12.997   2.093  1.00  0.00     0.031 A 
ATOM     52  C   UNL     1     -12.067 -12.787   2.190  1.00  0.00     0.074 A 
ATOM     53  C   UNL     1      -9.950 -13.822   2.947  1.00  0.00     0.049 A 
ATOM     54  N   UNL     1     -12.925 -13.313   3.025  1.00  0.00    -0.248 NA
ATOM     55  C   UNL     1     -12.662 -11.832   1.240  1.00  0.00     0.031 C 
ATOM     56  C   UNL     1      -8.506 -14.062   2.980  1.00  0.00     0.029 A 
ATOM     57  N   UNL     1     -10.441 -14.612   3.954  1.00  0.00    -0.354 N 
ATOM     58  C   UNL     1     -14.152 -12.744   2.710  1.00  0.00     0.074 A 
ATOM     59  C   UNL     1     -13.919 -11.786   1.652  1.00  0.00     0.031 C 
ATOM     60  C   UNL     1      -8.233 -14.964   3.937  1.00  0.00     0.029 A 
ATOM     61  C   UNL     1      -9.476 -15.345   4.600  1.00  0.00     0.049 A 
ATOM     62  H   UNL     1     -11.396 -14.650   4.192  1.00  0.00     0.167 HD
ATOM     63  C   UNL     1     -15.369 -13.019   3.234  1.00  0.00     0.037 A 
ATOM     64  C   UNL     1      -9.591 -16.233   5.605  1.00  0.00     0.037 A 
ATOM     65  C   UNL     1     -15.598 -13.998   4.262  1.00  0.00     0.049 A 
ATOM     66  C   UNL     1     -10.959 -16.544   6.149  1.00  0.00     0.074 A 
ATOM     67  C   UNL     1     -16.794 -14.386   4.838  1.00  0.00     0.029 A 
ATOM     68  N   UNL     1     -14.600 -14.753   4.863  1.00  0.00    -0.354 N 
ATOM     69  N   UNL     1     -12.121 -16.046   5.802  1.00  0.00    -0.248 NA
ATOM     70  C   UNL     1     -11.033 -17.554   7.213  1.00  0.00     0.031 C 
ATOM     71  C   UNL     1     -16.517 -15.355   5.808  1.00  0.00     0.029 A 
ATOM     72  C   UNL     1     -15.154 -15.602   5.806  1.00  0.00     0.049 A 
ATOM     73  H   UNL     1     -13.641 -14.693   4.650  1.00  0.00     0.167 HD
ATOM     74  C   UNL     1     -13.066 -16.706   6.576  1.00  0.00     0.074 A 
ATOM     75  C   UNL     1     -12.341 -17.648   7.403  1.00  0.00     0.031 C 
ATOM     76  C   UNL     1     -14.412 -16.548   6.600  1.00  0.00     0.037 A 
BRANCH  63  77
ATOM     77  C   UNL     1     -16.543 -12.258   2.690  1.00  0.00     0.064 A 
ATOM     78  C   UNL     1     -17.017 -12.473   1.387  1.00  0.00     0.173 A 
ATOM     79  C   UNL     1     -17.210 -11.313   3.483  1.00  0.00     0.173 A 
ATOM     80  F   UNL     1     -16.403 -13.354   0.582  1.00  0.00    -0.203 F 
ATOM     81  C   UNL     1     -18.094 -11.748   0.886  1.00  0.00     0.198 A 
ATOM     82  C   UNL     1     -18.308 -10.611   2.989  1.00  0.00     0.198 A 
ATOM     83  F   UNL     1     -16.800 -11.069   4.736  1.00  0.00    -0.203 F 
ATOM     84  F   UNL     1     -18.493 -11.931  -0.380  1.00  0.00    -0.200 F 
ATOM     85  C   UNL     1     -18.743 -10.823   1.689  1.00  0.00     0.200 A 
ATOM     86  F   UNL     1     -18.940  -9.724   3.770  1.00  0.00    -0.200 F 
ATOM     87  F   UNL     1     -19.782 -10.127   1.208  1.00  0.00    -0.200 F 
ENDBRANCH  63  77
BRANCH  64  88
ATOM     88  C   UNL     1      -8.387 -16.931   6.124  1.00  0.00     0.064 A 
ATOM     89  C   UNL     1      -8.191 -18.299   5.883  1.00  0.00     0.173 A 
ATOM     90  C   UNL     1      -7.414 -16.255   6.874  1.00  0.00     0.173 A 
ATOM     91  F   UNL     1      -9.101 -18.992   5.185  1.00  0.00    -0.203 F 
ATOM     92  C   UNL     1      -7.082 -18.969   6.395  1.00  0.00     0.198 A 
ATOM     93  C   UNL     1      -6.292 -16.921   7.363  1.00  0.00     0.198 A 
ATOM     94  F   UNL     1      -7.550 -14.945   7.125  1.00  0.00    -0.203 F 
ATOM     95  F   UNL     1      -6.944 -20.286   6.189  1.00  0.00    -0.200 F 
ATOM     96  C   UNL     1      -6.131 -18.279   7.131  1.00  0.00     0.200 A 
ATOM     97  F   UNL     1      -5.367 -16.247   8.062  1.00  0.00    -0.200 F 
ATOM     98  F   UNL     1      -5.064 -18.923   7.622  1.00  0.00    -0.200 F 
ENDBRANCH  64  88
BRANCH  76  99
ATOM     99  C   UNL     1     -15.191 -17.452   7.509  1.00  0.00     0.064 A 
ATOM    100  C   UNL     1     -15.168 -17.295   8.902  1.00  0.00     0.173 A 
ATOM    101  C   UNL     1     -15.998 -18.467   6.973  1.00  0.00     0.173 A 
ATOM    102  F   UNL     1     -14.400 -16.348   9.462  1.00  0.00    -0.203 F 
ATOM    103  C   UNL     1     -15.901 -18.143   9.728  1.00  0.00     0.198 A 
ATOM    104  C   UNL     1     -16.753 -19.293   7.799  1.00  0.00     0.198 A 
ATOM    105  F   UNL     1     -16.060 -18.651   5.645  1.00  0.00    -0.203 F 
ATOM    106  F   UNL     1     -15.825 -18.009  11.059  1.00  0.00    -0.200 F 
ATOM    107  C   UNL     1     -16.697 -19.136   9.176  1.00  0.00     0.200 A 
ATOM    108  F   UNL     1     -17.531 -20.243   7.264  1.00  0.00    -0.200 F 
ATOM    109  F   UNL     1     -17.405 -19.948   9.973  1.00  0.00    -0.200 F 
ENDBRANCH  76  99
ENDBRANCH  50  51
ENDBRANCH  42  45
ENDBRANCH  40  41
ENDBRANCH  39  40
ENDBRANCH  38  39
ENDBRANCH  37  38
ENDBRANCH   3  37
TORSDOF 22
