REMARK SMILES Cc1ccccc1C(=O)Nc1cc(C(=O)NCCCCNC(=O)c2ccc(-c3c4nc(c(-c5c(F)c(F)c(F)c(F)c5F)c5ccc([nH]5)c(-c5c(F)c(F)c(F)c(F)c5F)c5nc(c(-c6c(F)c(F)c(F)c(F)c6F)c6ccc3[nH]6)C=C5)C=C4)cc2)ccc1N1CC[NH+](CC(=O)Nc2ccc(F)cc2)CC1
REMARK SMILES IDX 17 1 16 2 14 3 15 4 13 6 11 7 12 8 89 9 88 10 87 11 10 12
REMARK SMILES IDX 8 13 9 14 7 16 1 17 2 18 3 19 4 20 6 21 5 22 90 23 91 24
REMARK SMILES IDX 106 25 92 26 105 27 93 28 94 30 95 31 96 32 97 33 98 35
REMARK SMILES IDX 99 36 104 37 100 38 103 39 101 40 102 41 18 42 19 43 20 44
REMARK SMILES IDX 21 45 22 46 23 48 24 49 25 50 86 51 26 52 85 53 27 54 28 55
REMARK SMILES IDX 29 56 79 57 30 58 84 59 78 60 80 61 31 62 83 63 77 64 76 65
REMARK SMILES IDX 32 67 64 68 44 69 63 70 45 71 48 72 62 73 81 74 46 75 47 76
REMARK SMILES IDX 61 78 82 79 49 80 33 81 34 82 42 83 35 84 36 85 40 86 43 87
REMARK SMILES IDX 37 88 38 89 41 90 39 91 65 92 66 93 74 94 67 95 68 96 72 97
REMARK SMILES IDX 75 98 69 99 70 100 73 101 71 102 50 103 51 104 59 105 52 106
REMARK SMILES IDX 53 107 57 108 60 109 54 110 55 111 58 112 56 113
REMARK H PARENT 16 5 10 15 93 29 97 34 21 47 80 66 48 77
REMARK Flexibility Score: inf
ROOT
ATOM      1  C   UNL     1       1.428  -1.248  -3.130  1.00  0.00     0.116 C 
ENDROOT
BRANCH   1   2
ATOM      2  N   UNL     1       2.599  -2.103  -3.005  1.00  0.00    -0.352 N 
ATOM      3  C   UNL     1       3.803  -1.984  -2.345  1.00  0.00     0.251 C 
ATOM      4  O   UNL     1       4.555  -2.960  -2.382  1.00  0.00    -0.269 OA
ATOM      5  H   UNL     1       2.513  -2.950  -3.499  1.00  0.00     0.163 HD
BRANCH   3   6
ATOM      6  C   UNL     1       4.237  -0.779  -1.576  1.00  0.00     0.042 A 
ATOM      7  C   UNL     1       3.859   1.431  -0.658  1.00  0.00     0.065 A 
ATOM      8  C   UNL     1       3.499   0.384  -1.500  1.00  0.00     0.042 A 
ATOM      9  C   UNL     1       5.072   1.439   0.075  1.00  0.00     0.061 A 
ATOM     10  C   UNL     1       5.861   0.288  -0.070  1.00  0.00     0.029 A 
ATOM     11  C   UNL     1       5.438  -0.812  -0.852  1.00  0.00     0.016 A 
BRANCH   7  12
ATOM     12  N   UNL     1       2.941   2.485  -0.556  1.00  0.00    -0.320 N 
ATOM     13  C   UNL     1       1.639   2.417  -0.080  1.00  0.00     0.255 C 
ATOM     14  O   UNL     1       1.071   3.474   0.209  1.00  0.00    -0.269 OA
ATOM     15  H   UNL     1       3.253   3.370  -0.854  1.00  0.00     0.170 HD
BRANCH  13  16
ATOM     16  C   UNL     1       0.879   1.142   0.081  1.00  0.00     0.043 A 
ATOM     17  C   UNL     1       2.438  -0.158   1.702  1.00  0.00     0.045 C 
ATOM     18  C   UNL     1       1.236  -0.012   0.816  1.00  0.00    -0.038 A 
ATOM     19  C   UNL     1       0.397  -1.147   0.750  1.00  0.00     0.004 A 
ATOM     20  C   UNL     1      -0.804  -1.115   0.051  1.00  0.00     0.000 A 
ATOM     21  C   UNL     1      -0.361   1.171  -0.575  1.00  0.00     0.014 A 
ATOM     22  C   UNL     1      -1.188   0.054  -0.590  1.00  0.00     0.001 A 
ENDBRANCH  13  16
ENDBRANCH   7  12
BRANCH   9  23
ATOM     23  N   UNL     1       5.420   2.475   0.933  1.00  0.00    -0.359 N 
ATOM     24  C   UNL     1       6.769   2.657   1.534  1.00  0.00     0.178 C 
ATOM     25  C   UNL     1       4.395   3.094   1.769  1.00  0.00     0.178 C 
ATOM     26  C   UNL     1       6.971   4.102   2.160  1.00  0.00     0.284 C 
ATOM     27  C   UNL     1       4.666   4.596   1.775  1.00  0.00     0.284 C 
ATOM     28  N   UNL     1       5.801   4.880   2.642  1.00  0.00    -0.324 N 
ATOM     29  H   UNL     1       6.095   5.854   2.572  1.00  0.00     0.348 HD
BRANCH  28  30
ATOM     30  C   UNL     1       5.457   4.847   4.085  1.00  0.00     0.364 C 
BRANCH  30  31
ATOM     31  C   UNL     1       5.260   3.488   4.757  1.00  0.00     0.279 C 
ATOM     32  O   UNL     1       6.245   2.757   4.944  1.00  0.00    -0.268 OA
ATOM     33  N   UNL     1       4.071   3.013   5.244  1.00  0.00    -0.321 N 
ATOM     34  H   UNL     1       4.224   2.308   5.915  1.00  0.00     0.170 HD
BRANCH  33  35
ATOM     35  C   UNL     1       2.687   3.241   5.064  1.00  0.00     0.041 A 
ATOM     36  C   UNL     1       1.823   2.466   5.861  1.00  0.00     0.029 A 
ATOM     37  C   UNL     1       2.103   4.057   4.101  1.00  0.00     0.029 A 
ATOM     38  C   UNL     1       0.434   2.476   5.666  1.00  0.00     0.041 A 
ATOM     39  C   UNL     1       0.718   4.025   3.856  1.00  0.00     0.041 A 
ATOM     40  C   UNL     1      -0.105   3.237   4.643  1.00  0.00     0.123 A 
ATOM     41  F   UNL     1      -1.425   3.214   4.420  1.00  0.00    -0.207 F 
ENDBRANCH  33  35
ENDBRANCH  30  31
ENDBRANCH  28  30
ENDBRANCH   9  23
ENDBRANCH   3   6
ENDBRANCH   1   2
BRANCH   1  42
ATOM     42  C   UNL     1       1.581  -0.164  -4.214  1.00  0.00     0.023 C 
BRANCH  42  43
ATOM     43  C   UNL     1       1.402  -0.688  -5.636  1.00  0.00     0.023 C 
BRANCH  43  44
ATOM     44  C   UNL     1      -0.049  -1.006  -5.963  1.00  0.00     0.116 C 
BRANCH  44  45
ATOM     45  N   UNL     1      -0.795   0.072  -6.593  1.00  0.00    -0.352 N 
ATOM     46  C   UNL     1      -2.146   0.157  -6.902  1.00  0.00     0.251 C 
ATOM     47  H   UNL     1      -0.260   0.861  -6.837  1.00  0.00     0.163 HD
ATOM     48  O   UNL     1      -2.557   1.100  -7.551  1.00  0.00    -0.269 OA
BRANCH  46  49
ATOM     49  C   UNL     1      -3.117  -0.811  -6.315  1.00  0.00     0.039 A 
ATOM     50  C   UNL     1      -4.372  -0.321  -5.917  1.00  0.00     0.014 A 
ATOM     51  C   UNL     1      -2.746  -2.102  -5.963  1.00  0.00     0.014 A 
ATOM     52  C   UNL     1      -5.111  -1.010  -4.958  1.00  0.00     0.010 A 
ATOM     53  C   UNL     1      -3.394  -2.717  -4.917  1.00  0.00     0.010 A 
ATOM     54  C   UNL     1      -4.538  -2.133  -4.369  1.00  0.00    -0.014 A 
BRANCH  54  55
ATOM     55  C   UNL     1      -4.954  -2.712  -3.102  1.00  0.00     0.031 A 
ATOM     56  C   UNL     1      -5.580  -4.043  -3.066  1.00  0.00     0.074 A 
ATOM     57  C   UNL     1      -4.559  -2.101  -1.963  1.00  0.00     0.049 A 
ATOM     58  N   UNL     1      -6.146  -4.542  -2.023  1.00  0.00    -0.248 NA
ATOM     59  C   UNL     1      -5.691  -4.897  -4.242  1.00  0.00     0.031 C 
ATOM     60  C   UNL     1      -4.481  -2.658  -0.617  1.00  0.00     0.029 A 
ATOM     61  N   UNL     1      -4.342  -0.738  -1.775  1.00  0.00    -0.354 N 
ATOM     62  C   UNL     1      -6.404  -5.867  -2.283  1.00  0.00     0.074 A 
ATOM     63  C   UNL     1      -6.242  -5.992  -3.709  1.00  0.00     0.031 C 
ATOM     64  C   UNL     1      -4.530  -1.650   0.269  1.00  0.00     0.029 A 
ATOM     65  C   UNL     1      -4.795  -0.435  -0.484  1.00  0.00     0.049 A 
ATOM     66  H   UNL     1      -3.948  -0.110  -2.422  1.00  0.00     0.167 HD
ATOM     67  C   UNL     1      -6.576  -6.705  -1.221  1.00  0.00     0.037 A 
ATOM     68  C   UNL     1      -5.791   0.456  -0.217  1.00  0.00     0.037 A 
ATOM     69  C   UNL     1      -6.748  -5.924   0.013  1.00  0.00     0.049 A 
ATOM     70  C   UNL     1      -6.937  -0.217   0.505  1.00  0.00     0.074 A 
ATOM     71  C   UNL     1      -5.923  -5.658   1.093  1.00  0.00     0.029 A 
ATOM     72  N   UNL     1      -7.815  -5.028   0.106  1.00  0.00    -0.354 N 
ATOM     73  N   UNL     1      -7.145  -1.506   0.468  1.00  0.00    -0.248 NA
ATOM     74  C   UNL     1      -7.922   0.484   1.320  1.00  0.00     0.031 C 
ATOM     75  C   UNL     1      -6.454  -4.531   1.780  1.00  0.00     0.029 A 
ATOM     76  C   UNL     1      -7.624  -4.141   1.148  1.00  0.00     0.049 A 
ATOM     77  H   UNL     1      -8.598  -5.028  -0.491  1.00  0.00     0.167 HD
ATOM     78  C   UNL     1      -8.211  -1.822   1.263  1.00  0.00     0.074 A 
ATOM     79  C   UNL     1      -8.678  -0.539   1.759  1.00  0.00     0.031 C 
ATOM     80  C   UNL     1      -8.613  -3.114   1.456  1.00  0.00     0.037 A 
BRANCH  67  81
ATOM     81  C   UNL     1      -6.360  -8.215  -1.231  1.00  0.00     0.064 A 
ATOM     82  C   UNL     1      -6.367  -8.939  -0.015  1.00  0.00     0.173 A 
ATOM     83  C   UNL     1      -6.033  -9.000  -2.358  1.00  0.00     0.173 A 
ATOM     84  F   UNL     1      -6.680  -8.349   1.147  1.00  0.00    -0.203 F 
ATOM     85  C   UNL     1      -6.032 -10.299   0.064  1.00  0.00     0.198 A 
ATOM     86  C   UNL     1      -5.723 -10.363  -2.282  1.00  0.00     0.198 A 
ATOM     87  F   UNL     1      -5.967  -8.502  -3.591  1.00  0.00    -0.203 F 
ATOM     88  F   UNL     1      -6.012 -10.911   1.256  1.00  0.00    -0.200 F 
ATOM     89  C   UNL     1      -5.708 -11.011  -1.070  1.00  0.00     0.200 A 
ATOM     90  F   UNL     1      -5.418 -11.032  -3.404  1.00  0.00    -0.200 F 
ATOM     91  F   UNL     1      -5.380 -12.308  -0.999  1.00  0.00    -0.200 F 
ENDBRANCH  67  81
BRANCH  68  92
ATOM     92  C   UNL     1      -5.891   1.555  -1.215  1.00  0.00     0.064 A 
ATOM     93  C   UNL     1      -4.816   2.466  -1.284  1.00  0.00     0.173 A 
ATOM     94  C   UNL     1      -6.716   1.444  -2.342  1.00  0.00     0.173 A 
ATOM     95  F   UNL     1      -3.993   2.605  -0.233  1.00  0.00    -0.203 F 
ATOM     96  C   UNL     1      -4.490   3.115  -2.473  1.00  0.00     0.198 A 
ATOM     97  C   UNL     1      -6.393   2.109  -3.529  1.00  0.00     0.198 A 
ATOM     98  F   UNL     1      -7.727   0.564  -2.356  1.00  0.00    -0.203 F 
ATOM     99  F   UNL     1      -3.373   3.852  -2.549  1.00  0.00    -0.200 F 
ATOM    100  C   UNL     1      -5.260   2.908  -3.605  1.00  0.00     0.200 A 
ATOM    101  F   UNL     1      -7.105   1.867  -4.640  1.00  0.00    -0.200 F 
ATOM    102  F   UNL     1      -4.875   3.418  -4.783  1.00  0.00    -0.200 F 
ENDBRANCH  68  92
BRANCH  80 103
ATOM    103  C   UNL     1      -9.938  -3.537   2.042  1.00  0.00     0.064 A 
ATOM    104  C   UNL     1     -11.110  -2.767   1.952  1.00  0.00     0.173 A 
ATOM    105  C   UNL     1     -10.106  -4.842   2.567  1.00  0.00     0.173 A 
ATOM    106  F   UNL     1     -11.108  -1.559   1.372  1.00  0.00    -0.203 F 
ATOM    107  C   UNL     1     -12.344  -3.244   2.401  1.00  0.00     0.198 A 
ATOM    108  C   UNL     1     -11.350  -5.337   2.954  1.00  0.00     0.198 A 
ATOM    109  F   UNL     1      -9.074  -5.690   2.686  1.00  0.00    -0.203 F 
ATOM    110  F   UNL     1     -13.425  -2.455   2.325  1.00  0.00    -0.200 F 
ATOM    111  C   UNL     1     -12.467  -4.532   2.885  1.00  0.00     0.200 A 
ATOM    112  F   UNL     1     -11.460  -6.607   3.369  1.00  0.00    -0.200 F 
ATOM    113  F   UNL     1     -13.663  -5.005   3.260  1.00  0.00    -0.200 F 
ENDBRANCH  80 103
ENDBRANCH  54  55
ENDBRANCH  46  49
ENDBRANCH  44  45
ENDBRANCH  43  44
ENDBRANCH  42  43
ENDBRANCH   1  42
TORSDOF 17
