REMARK SMILES CC(C)CSc1cc2c(cc1Cl)C=C(C(=O)NCCCCNC(=O)c1ccc(-c3c4nc(c(-c5c(F)c(F)c(F)c(F)c5F)c5ccc([nH]5)c(-c5c(F)c(F)c(F)c(F)c5F)c5nc(c(-c6c(F)c(F)c(F)c(F)c6F)c6ccc3[nH]6)C=C5)C=C4)cc1)[C@H](C(F)(F)F)O2
REMARK SMILES IDX 19 1 18 2 17 3 15 4 16 5 14 7 6 8 7 9 11 10 8 11 10 12 12 13
REMARK SMILES IDX 9 14 93 15 13 16 88 17 5 18 4 19 2 20 1 21 3 22 89 23 90 24
REMARK SMILES IDX 91 25 92 26 20 27 21 28 22 29 23 30 24 32 25 33 26 34 87 35
REMARK SMILES IDX 27 36 86 37 28 38 29 39 30 40 80 41 31 42 85 43 79 44 81 45
REMARK SMILES IDX 32 46 84 47 78 48 77 49 33 51 65 52 45 53 64 54 46 55 49 56
REMARK SMILES IDX 63 57 82 58 47 59 48 60 62 62 83 63 50 64 34 65 35 66 43 67
REMARK SMILES IDX 36 68 37 69 41 70 44 71 38 72 39 73 42 74 40 75 66 76 67 77
REMARK SMILES IDX 75 78 68 79 69 80 73 81 76 82 70 83 71 84 74 85 72 86 51 87
REMARK SMILES IDX 52 88 60 89 53 90 54 91 58 92 61 93 55 94 56 95 59 96 57 97
REMARK H PARENT 17 6 22 31 81 50 49 61
REMARK Flexibility Score: inf
ROOT
ATOM      1  C   UNL     1      -0.909   8.034  -2.493  1.00  0.00     0.023 C 
ENDROOT
BRANCH   1   2
ATOM      2  C   UNL     1      -1.586   7.325  -3.666  1.00  0.00     0.116 C 
BRANCH   2   3
ATOM      3  N   UNL     1      -0.614   6.676  -4.524  1.00  0.00    -0.352 N 
ATOM      4  C   UNL     1      -0.169   5.408  -4.688  1.00  0.00     0.251 C 
ATOM      5  O   UNL     1       0.615   5.233  -5.625  1.00  0.00    -0.270 OA
ATOM      6  H   UNL     1      -0.171   7.309  -5.134  1.00  0.00     0.163 HD
BRANCH   4   7
ATOM      7  C   UNL     1      -0.556   4.254  -3.827  1.00  0.00     0.067 C 
ATOM      8  C   UNL     1      -1.061  -0.387  -1.925  1.00  0.00     0.030 A 
ATOM      9  C   UNL     1      -1.532   0.880  -1.553  1.00  0.00     0.063 A 
ATOM     10  C   UNL     1      -0.393  -0.519  -3.158  1.00  0.00     0.055 A 
ATOM     11  C   UNL     1      -1.267   1.994  -2.348  1.00  0.00     0.129 A 
ATOM     12  C   UNL     1      -0.172   0.598  -3.974  1.00  0.00     0.033 A 
ATOM     13  Cl  UNL     1       0.217  -2.036  -3.730  1.00  0.00    -0.083 Cl
ATOM     14  C   UNL     1      -0.601   1.861  -3.564  1.00  0.00     0.019 A 
ATOM     15  O   UNL     1      -1.705   3.206  -1.886  1.00  0.00    -0.475 OA
ATOM     16  C   UNL     1      -0.377   3.043  -4.385  1.00  0.00     0.025 C 
ATOM     17  C   UNL     1      -0.966   4.363  -2.381  1.00  0.00     0.314 C 
BRANCH   8  18
ATOM     18  S   UNL     1      -1.342  -1.788  -0.841  1.00  0.00    -0.124 SA
BRANCH  18  19
ATOM     19  C   UNL     1      -0.775  -1.164   0.788  1.00  0.00     0.078 C 
BRANCH  19  20
ATOM     20  C   UNL     1       0.750  -1.175   1.000  1.00  0.00    -0.007 C 
ATOM     21  C   UNL     1       1.478  -0.064   0.241  1.00  0.00     0.008 C 
ATOM     22  C   UNL     1       1.048  -1.027   2.498  1.00  0.00     0.008 C 
ENDBRANCH  19  20
ENDBRANCH  18  19
ENDBRANCH   8  18
BRANCH  17  23
ATOM     23  C   UNL     1       0.200   4.698  -1.435  1.00  0.00     0.429 C 
ATOM     24  F   UNL     1      -0.261   5.370  -0.349  1.00  0.00    -0.167 F 
ATOM     25  F   UNL     1       0.845   3.600  -0.984  1.00  0.00    -0.167 F 
ATOM     26  F   UNL     1       1.126   5.494  -2.017  1.00  0.00    -0.167 F 
ENDBRANCH  17  23
ENDBRANCH   4   7
ENDBRANCH   2   3
ENDBRANCH   1   2
BRANCH   1  27
ATOM     27  C   UNL     1      -0.301   9.395  -2.845  1.00  0.00     0.023 C 
BRANCH  27  28
ATOM     28  C   UNL     1      -1.307  10.459  -3.266  1.00  0.00     0.116 C 
BRANCH  28  29
ATOM     29  N   UNL     1      -2.333  10.728  -2.267  1.00  0.00    -0.352 N 
ATOM     30  C   UNL     1      -3.011  11.907  -2.052  1.00  0.00     0.251 C 
ATOM     31  H   UNL     1      -2.570   9.978  -1.675  1.00  0.00     0.163 HD
ATOM     32  O   UNL     1      -3.815  12.021  -1.135  1.00  0.00    -0.269 OA
BRANCH  30  33
ATOM     33  C   UNL     1      -2.692  13.056  -2.919  1.00  0.00     0.039 A 
ATOM     34  C   UNL     1      -2.773  12.924  -4.307  1.00  0.00     0.014 A 
ATOM     35  C   UNL     1      -2.167  14.210  -2.335  1.00  0.00     0.014 A 
ATOM     36  C   UNL     1      -2.162  13.875  -5.114  1.00  0.00     0.010 A 
ATOM     37  C   UNL     1      -1.610  15.194  -3.151  1.00  0.00     0.010 A 
ATOM     38  C   UNL     1      -1.546  15.000  -4.541  1.00  0.00    -0.014 A 
BRANCH  38  39
ATOM     39  C   UNL     1      -0.761  15.921  -5.397  1.00  0.00     0.031 A 
ATOM     40  C   UNL     1       0.736  15.992  -5.254  1.00  0.00     0.074 A 
ATOM     41  C   UNL     1      -1.383  16.642  -6.347  1.00  0.00     0.049 A 
ATOM     42  N   UNL     1       1.589  16.776  -5.864  1.00  0.00    -0.248 NA
ATOM     43  C   UNL     1       1.358  15.060  -4.300  1.00  0.00     0.031 C 
ATOM     44  C   UNL     1      -2.820  16.620  -6.614  1.00  0.00     0.029 A 
ATOM     45  N   UNL     1      -0.880  17.513  -7.278  1.00  0.00    -0.354 N 
ATOM     46  C   UNL     1       2.837  16.456  -5.346  1.00  0.00     0.074 A 
ATOM     47  C   UNL     1       2.635  15.411  -4.366  1.00  0.00     0.031 C 
ATOM     48  C   UNL     1      -3.080  17.406  -7.671  1.00  0.00     0.029 A 
ATOM     49  C   UNL     1      -1.837  18.032  -8.113  1.00  0.00     0.049 A 
ATOM     50  H   UNL     1       0.075  17.744  -7.342  1.00  0.00     0.167 HD
ATOM     51  C   UNL     1       4.042  16.986  -5.662  1.00  0.00     0.037 A 
ATOM     52  C   UNL     1      -1.727  18.928  -9.110  1.00  0.00     0.037 A 
ATOM     53  C   UNL     1       4.247  17.999  -6.663  1.00  0.00     0.049 A 
ATOM     54  C   UNL     1      -0.384  19.524  -9.418  1.00  0.00     0.074 A 
ATOM     55  C   UNL     1       5.431  18.600  -7.056  1.00  0.00     0.029 A 
ATOM     56  N   UNL     1       3.241  18.548  -7.443  1.00  0.00    -0.354 N 
ATOM     57  N   UNL     1       0.779  19.262  -8.875  1.00  0.00    -0.248 NA
ATOM     58  C   UNL     1      -0.345  20.559 -10.459  1.00  0.00     0.031 C 
ATOM     59  C   UNL     1       5.137  19.530  -8.059  1.00  0.00     0.029 A 
ATOM     60  C   UNL     1       3.775  19.488  -8.309  1.00  0.00     0.049 A 
ATOM     61  H   UNL     1       2.288  18.306  -7.389  1.00  0.00     0.167 HD
ATOM     62  C   UNL     1       1.687  20.106  -9.497  1.00  0.00     0.074 A 
ATOM     63  C   UNL     1       0.945  20.867 -10.482  1.00  0.00     0.031 C 
ATOM     64  C   UNL     1       3.014  20.248  -9.265  1.00  0.00     0.037 A 
BRANCH  51  65
ATOM     65  C   UNL     1       5.239  16.495  -4.907  1.00  0.00     0.064 A 
ATOM     66  C   UNL     1       5.832  15.258  -5.194  1.00  0.00     0.173 A 
ATOM     67  C   UNL     1       5.833  17.298  -3.921  1.00  0.00     0.173 A 
ATOM     68  F   UNL     1       5.290  14.448  -6.116  1.00  0.00    -0.203 F 
ATOM     69  C   UNL     1       6.973  14.838  -4.516  1.00  0.00     0.198 A 
ATOM     70  C   UNL     1       6.985  16.883  -3.258  1.00  0.00     0.198 A 
ATOM     71  F   UNL     1       5.303  18.490  -3.611  1.00  0.00    -0.203 F 
ATOM     72  F   UNL     1       7.510  13.640  -4.788  1.00  0.00    -0.200 F 
ATOM     73  C   UNL     1       7.553  15.653  -3.554  1.00  0.00     0.200 A 
ATOM     74  F   UNL     1       7.546  17.674  -2.333  1.00  0.00    -0.200 F 
ATOM     75  F   UNL     1       8.656  15.250  -2.909  1.00  0.00    -0.200 F 
ENDBRANCH  51  65
BRANCH  52  76
ATOM     76  C   UNL     1      -2.936  19.324  -9.871  1.00  0.00     0.064 A 
ATOM     77  C   UNL     1      -3.130  18.885 -11.186  1.00  0.00     0.173 A 
ATOM     78  C   UNL     1      -3.932  20.121  -9.289  1.00  0.00     0.173 A 
ATOM     79  F   UNL     1      -2.193  18.138 -11.788  1.00  0.00    -0.203 F 
ATOM     80  C   UNL     1      -4.281  19.227 -11.892  1.00  0.00     0.198 A 
ATOM     81  C   UNL     1      -5.091  20.444  -9.988  1.00  0.00     0.198 A 
ATOM     82  F   UNL     1      -3.787  20.563  -8.031  1.00  0.00    -0.203 F 
ATOM     83  F   UNL     1      -4.436  18.812 -13.157  1.00  0.00    -0.200 F 
ATOM     84  C   UNL     1      -5.264  19.999 -11.290  1.00  0.00     0.200 A 
ATOM     85  F   UNL     1      -6.043  21.180  -9.398  1.00  0.00    -0.200 F 
ATOM     86  F   UNL     1      -6.376  20.317 -11.965  1.00  0.00    -0.200 F 
ENDBRANCH  52  76
BRANCH  64  87
ATOM     87  C   UNL     1       3.739  21.276 -10.076  1.00  0.00     0.064 A 
ATOM     88  C   UNL     1       3.630  22.641  -9.774  1.00  0.00     0.173 A 
ATOM     89  C   UNL     1       4.573  20.895 -11.136  1.00  0.00     0.173 A 
ATOM     90  F   UNL     1       2.831  23.050  -8.777  1.00  0.00    -0.203 F 
ATOM     91  C   UNL     1       4.322  23.592 -10.518  1.00  0.00     0.198 A 
ATOM     92  C   UNL     1       5.277  21.848 -11.866  1.00  0.00     0.198 A 
ATOM     93  F   UNL     1       4.708  19.600 -11.458  1.00  0.00    -0.203 F 
ATOM     94  F   UNL     1       4.180  24.894 -10.235  1.00  0.00    -0.200 F 
ATOM     95  C   UNL     1       5.148  23.195 -11.559  1.00  0.00     0.200 A 
ATOM     96  F   UNL     1       6.079  21.464 -12.869  1.00  0.00    -0.200 F 
ATOM     97  F   UNL     1       5.814  24.112 -12.274  1.00  0.00    -0.200 F 
ENDBRANCH  64  87
ENDBRANCH  38  39
ENDBRANCH  30  33
ENDBRANCH  28  29
ENDBRANCH  27  28
ENDBRANCH   1  27
TORSDOF 15
