REMARK SMILES COC(=O)c1ccc2c(c1)=N[C@H](c1cn(CCC(=O)NCCCCNC(=O)c3ccc(-c4c5nc(c(-c6c(F)c(F)c(F)c(F)c6F)c6ccc([nH]6)c(-c6c(F)c(F)c(F)c(F)c6F)c6nc(c(-c7c(F)c(F)c(F)c(F)c7F)c7ccc4[nH]7)C=C6)C=C5)cc3)c3ccccc13)N=2
REMARK SMILES IDX 21 1 20 2 18 3 19 4 17 6 16 7 15 8 13 9 14 10 96 11 91 12
REMARK SMILES IDX 95 13 92 14 94 15 93 16 12 17 5 18 6 19 10 20 7 21 9 22 8 23
REMARK SMILES IDX 11 24 97 25 3 26 4 27 2 28 1 29 22 30 23 31 24 32 25 33
REMARK SMILES IDX 26 34 27 36 28 37 29 38 90 39 30 40 89 41 31 42 32 43 33 44
REMARK SMILES IDX 83 45 34 46 88 47 82 48 84 49 35 50 87 51 81 52 80 53 36 55
REMARK SMILES IDX 68 56 48 57 67 58 49 59 52 60 66 61 85 62 50 63 51 64 65 66
REMARK SMILES IDX 86 67 53 68 37 69 38 70 46 71 39 72 40 73 44 74 47 75 41 76
REMARK SMILES IDX 42 77 45 78 43 79 69 80 70 81 78 82 71 83 72 84 76 85 79 86
REMARK SMILES IDX 73 87 74 88 77 89 75 90 54 91 55 92 63 93 56 94 57 95 61 96
REMARK SMILES IDX 64 97 58 98 59 99 62 100 60 101
REMARK H PARENT 20 5 25 35 84 54 52 65
REMARK Flexibility Score: inf
ROOT
ATOM      1  C   UNL     1      -1.975  -0.007 -12.412  1.00  0.00     0.116 C 
ENDROOT
BRANCH   1   2
ATOM      2  N   UNL     1      -1.959   1.411 -12.745  1.00  0.00    -0.356 N 
ATOM      3  C   UNL     1      -0.958   2.309 -12.980  1.00  0.00     0.221 C 
ATOM      4  O   UNL     1      -1.295   3.426 -13.386  1.00  0.00    -0.275 OA
ATOM      5  H   UNL     1      -2.858   1.805 -12.814  1.00  0.00     0.163 HD
BRANCH   3   6
ATOM      6  C   UNL     1       0.512   1.955 -12.856  1.00  0.00     0.122 C 
BRANCH   6   7
ATOM      7  C   UNL     1       1.335   3.066 -12.140  1.00  0.00     0.132 C 
BRANCH   7   8
ATOM      8  N   UNL     1       1.386   2.942 -10.669  1.00  0.00    -0.347 N 
ATOM      9  C   UNL     1       0.456   1.326  -9.484  1.00  0.00     0.024 A 
ATOM     10  C   UNL     1       1.639   1.708 -10.121  1.00  0.00     0.094 A 
ATOM     11  C   UNL     1      -0.442   2.442  -9.656  1.00  0.00     0.007 A 
ATOM     12  C   UNL     1       0.447   3.494  -9.822  1.00  0.00     0.048 A 
ATOM     13  C   UNL     1      -1.754   2.810  -9.357  1.00  0.00     0.011 A 
ATOM     14  C   UNL     1       0.331   4.629  -9.012  1.00  0.00     0.027 A 
ATOM     15  C   UNL     1      -1.981   3.992  -8.666  1.00  0.00     0.001 A 
ATOM     16  C   UNL     1      -0.902   4.808  -8.360  1.00  0.00     0.002 A 
BRANCH   9  17
ATOM     17  C   UNL     1       0.380   0.085  -8.649  1.00  0.00     0.255 C 
ATOM     18  C   UNL     1       0.746  -0.026  -4.165  1.00  0.00     0.062 A 
ATOM     19  C   UNL     1      -0.569  -0.623  -4.341  1.00  0.00     0.018 A 
ATOM     20  C   UNL     1       1.519   0.286  -5.217  1.00  0.00     0.046 A 
ATOM     21  C   UNL     1      -1.228  -0.650  -5.509  1.00  0.00     0.031 A 
ATOM     22  C   UNL     1       0.942   0.095  -6.549  1.00  0.00     0.087 A 
ATOM     23  C   UNL     1      -0.495  -0.203  -6.694  1.00  0.00     0.086 A 
ATOM     24  N   UNL     1       1.525   0.162  -7.688  1.00  0.00    -0.252 NA
ATOM     25  N   UNL     1      -0.897  -0.113  -7.913  1.00  0.00    -0.252 NA
BRANCH  18  26
ATOM     26  C   UNL     1       1.292   0.316  -2.816  1.00  0.00     0.337 C 
ATOM     27  O   UNL     1       2.196   1.111  -2.629  1.00  0.00    -0.246 OA
BRANCH  26  28
ATOM     28  O   UNL     1       0.639  -0.379  -1.845  1.00  0.00    -0.465 OA
ATOM     29  C   UNL     1       1.067  -0.055  -0.520  1.00  0.00     0.282 C 
ENDBRANCH  26  28
ENDBRANCH  18  26
ENDBRANCH   9  17
ENDBRANCH   7   8
ENDBRANCH   6   7
ENDBRANCH   3   6
ENDBRANCH   1   2
BRANCH   1  30
ATOM     30  C   UNL     1      -2.470  -0.349 -10.998  1.00  0.00     0.023 C 
BRANCH  30  31
ATOM     31  C   UNL     1      -3.748   0.331 -10.466  1.00  0.00     0.023 C 
BRANCH  31  32
ATOM     32  C   UNL     1      -4.997  -0.517 -10.284  1.00  0.00     0.116 C 
BRANCH  32  33
ATOM     33  N   UNL     1      -4.712  -1.751  -9.590  1.00  0.00    -0.352 N 
ATOM     34  C   UNL     1      -4.588  -2.149  -8.294  1.00  0.00     0.251 C 
ATOM     35  H   UNL     1      -4.569  -2.497 -10.216  1.00  0.00     0.163 HD
ATOM     36  O   UNL     1      -4.200  -3.313  -8.145  1.00  0.00    -0.269 OA
BRANCH  34  37
ATOM     37  C   UNL     1      -4.889  -1.355  -7.067  1.00  0.00     0.039 A 
ATOM     38  C   UNL     1      -5.070   0.026  -6.959  1.00  0.00     0.014 A 
ATOM     39  C   UNL     1      -4.948  -2.125  -5.887  1.00  0.00     0.014 A 
ATOM     40  C   UNL     1      -5.267   0.617  -5.697  1.00  0.00     0.010 A 
ATOM     41  C   UNL     1      -5.148  -1.547  -4.641  1.00  0.00     0.010 A 
ATOM     42  C   UNL     1      -5.279  -0.166  -4.535  1.00  0.00    -0.014 A 
BRANCH  42  43
ATOM     43  C   UNL     1      -5.520   0.436  -3.216  1.00  0.00     0.031 A 
ATOM     44  C   UNL     1      -6.884   0.981  -2.974  1.00  0.00     0.074 A 
ATOM     45  C   UNL     1      -4.672   0.303  -2.173  1.00  0.00     0.049 A 
ATOM     46  N   UNL     1      -7.213   2.160  -2.556  1.00  0.00    -0.248 NA
ATOM     47  C   UNL     1      -8.030   0.104  -3.256  1.00  0.00     0.031 C 
ATOM     48  C   UNL     1      -3.445  -0.485  -2.144  1.00  0.00     0.029 A 
ATOM     49  N   UNL     1      -4.769   0.753  -0.886  1.00  0.00    -0.354 N 
ATOM     50  C   UNL     1      -8.595   2.137  -2.378  1.00  0.00     0.074 A 
ATOM     51  C   UNL     1      -9.057   0.887  -2.922  1.00  0.00     0.031 C 
ATOM     52  C   UNL     1      -2.992  -0.598  -0.879  1.00  0.00     0.029 A 
ATOM     53  C   UNL     1      -3.846   0.189  -0.011  1.00  0.00     0.049 A 
ATOM     54  H   UNL     1      -5.436   1.420  -0.602  1.00  0.00     0.167 HD
ATOM     55  C   UNL     1      -9.238   3.074  -1.626  1.00  0.00     0.037 A 
ATOM     56  C   UNL     1      -3.799   0.308   1.340  1.00  0.00     0.037 A 
ATOM     57  C   UNL     1      -8.441   4.261  -1.464  1.00  0.00     0.049 A 
ATOM     58  C   UNL     1      -4.572   1.516   1.707  1.00  0.00     0.074 A 
ATOM     59  C   UNL     1      -7.895   5.182  -2.337  1.00  0.00     0.029 A 
ATOM     60  N   UNL     1      -7.809   4.477  -0.266  1.00  0.00    -0.354 N 
ATOM     61  N   UNL     1      -4.197   2.732   1.425  1.00  0.00    -0.248 NA
ATOM     62  C   UNL     1      -5.983   1.350   2.016  1.00  0.00     0.031 C 
ATOM     63  C   UNL     1      -6.637   5.532  -1.764  1.00  0.00     0.029 A 
ATOM     64  C   UNL     1      -6.520   4.842  -0.558  1.00  0.00     0.049 A 
ATOM     65  H   UNL     1      -8.205   4.388   0.631  1.00  0.00     0.167 HD
ATOM     66  C   UNL     1      -5.371   3.390   1.096  1.00  0.00     0.074 A 
ATOM     67  C   UNL     1      -6.443   2.524   1.579  1.00  0.00     0.031 C 
ATOM     68  C   UNL     1      -5.371   4.431   0.214  1.00  0.00     0.037 A 
BRANCH  55  69
ATOM     69  C   UNL     1     -10.469   2.805  -0.797  1.00  0.00     0.064 A 
ATOM     70  C   UNL     1     -11.166   3.881  -0.211  1.00  0.00     0.173 A 
ATOM     71  C   UNL     1     -10.823   1.523  -0.326  1.00  0.00     0.173 A 
ATOM     72  F   UNL     1     -10.889   5.147  -0.561  1.00  0.00    -0.203 F 
ATOM     73  C   UNL     1     -12.100   3.689   0.811  1.00  0.00     0.198 A 
ATOM     74  C   UNL     1     -11.796   1.331   0.655  1.00  0.00     0.198 A 
ATOM     75  F   UNL     1     -10.170   0.421  -0.712  1.00  0.00    -0.203 F 
ATOM     76  F   UNL     1     -12.649   4.749   1.419  1.00  0.00    -0.200 F 
ATOM     77  C   UNL     1     -12.412   2.414   1.245  1.00  0.00     0.200 A 
ATOM     78  F   UNL     1     -12.069   0.088   1.077  1.00  0.00    -0.200 F 
ATOM     79  F   UNL     1     -13.265   2.230   2.262  1.00  0.00    -0.200 F 
ENDBRANCH  55  69
BRANCH  56  80
ATOM     80  C   UNL     1      -3.327  -0.684   2.337  1.00  0.00     0.064 A 
ATOM     81  C   UNL     1      -3.002  -0.315   3.652  1.00  0.00     0.173 A 
ATOM     82  C   UNL     1      -3.425  -2.068   2.086  1.00  0.00     0.173 A 
ATOM     83  F   UNL     1      -2.933   0.981   3.992  1.00  0.00    -0.203 F 
ATOM     84  C   UNL     1      -2.798  -1.271   4.656  1.00  0.00     0.198 A 
ATOM     85  C   UNL     1      -3.213  -3.020   3.084  1.00  0.00     0.198 A 
ATOM     86  F   UNL     1      -3.813  -2.523   0.887  1.00  0.00    -0.203 F 
ATOM     87  F   UNL     1      -2.540  -0.879   5.911  1.00  0.00    -0.200 F 
ATOM     88  C   UNL     1      -2.911  -2.622   4.372  1.00  0.00     0.200 A 
ATOM     89  F   UNL     1      -3.358  -4.322   2.800  1.00  0.00    -0.200 F 
ATOM     90  F   UNL     1      -2.768  -3.535   5.342  1.00  0.00    -0.200 F 
ENDBRANCH  56  80
BRANCH  68  91
ATOM     91  C   UNL     1      -4.044   5.008  -0.198  1.00  0.00     0.064 A 
ATOM     92  C   UNL     1      -3.079   4.293  -0.929  1.00  0.00     0.173 A 
ATOM     93  C   UNL     1      -3.820   6.377  -0.005  1.00  0.00     0.173 A 
ATOM     94  F   UNL     1      -3.261   3.005  -1.239  1.00  0.00    -0.203 F 
ATOM     95  C   UNL     1      -1.931   4.915  -1.418  1.00  0.00     0.198 A 
ATOM     96  C   UNL     1      -2.689   7.003  -0.523  1.00  0.00     0.198 A 
ATOM     97  F   UNL     1      -4.732   7.123   0.637  1.00  0.00    -0.203 F 
ATOM     98  F   UNL     1      -1.030   4.206  -2.114  1.00  0.00    -0.200 F 
ATOM     99  C   UNL     1      -1.743   6.272  -1.224  1.00  0.00     0.200 A 
ATOM    100  F   UNL     1      -2.535   8.326  -0.376  1.00  0.00    -0.200 F 
ATOM    101  F   UNL     1      -0.666   6.882  -1.740  1.00  0.00    -0.200 F 
ENDBRANCH  68  91
ENDBRANCH  42  43
ENDBRANCH  34  37
ENDBRANCH  32  33
ENDBRANCH  31  32
ENDBRANCH  30  31
ENDBRANCH   1  30
TORSDOF 16
