REMARK SMILES CC[NH+]1CCC(CC(=O)N[C@H](C(=O)NCCCCNC(=O)c2ccc(-c3c4nc(c(-c5c(F)c(F)c(F)c(F)c5F)c5ccc([nH]5)c(-c5c(F)c(F)c(F)c(F)c5F)c5nc(c(-c6c(F)c(F)c(F)c(F)c6F)c6ccc3[nH]6)C=C5)C=C4)cc2)c2ccc(F)cc2F)CC1
REMARK SMILES IDX 15 1 14 2 12 3 13 4 11 6 10 7 8 8 9 9 7 11 6 12 3 13 4 14
REMARK SMILES IDX 94 15 5 17 93 18 2 19 1 20 85 21 86 22 91 23 87 24 90 25
REMARK SMILES IDX 92 26 88 27 89 28 16 29 17 30 18 31 19 32 20 33 21 35 22 36
REMARK SMILES IDX 23 37 84 38 24 39 83 40 25 41 26 42 27 43 77 44 28 45 82 46
REMARK SMILES IDX 76 47 78 48 29 49 81 50 75 51 74 52 30 54 62 55 42 56 61 57
REMARK SMILES IDX 43 58 46 59 60 60 79 61 44 62 45 63 59 65 80 66 47 67 31 68
REMARK SMILES IDX 32 69 40 70 33 71 34 72 38 73 41 74 35 75 36 76 39 77 37 78
REMARK SMILES IDX 63 79 64 80 72 81 65 82 66 83 70 84 73 85 67 86 68 87 71 88
REMARK SMILES IDX 69 89 48 90 49 91 57 92 50 93 51 94 55 95 58 96 52 97 53 98
REMARK SMILES IDX 56 99 54 100
REMARK H PARENT 14 5 10 10 3 16 19 34 78 53 46 64
REMARK Flexibility Score: inf
ROOT
ATOM      1  C   UNL     1       5.750  -1.394   3.577  1.00  0.00     0.116 C 
ENDROOT
BRANCH   1   2
ATOM      2  N   UNL     1       6.003  -1.537   4.993  1.00  0.00    -0.354 N 
ATOM      3  C   UNL     1       5.288  -2.162   5.976  1.00  0.00     0.247 C 
ATOM      4  O   UNL     1       5.816  -2.158   7.095  1.00  0.00    -0.272 OA
ATOM      5  H   UNL     1       6.835  -1.111   5.303  1.00  0.00     0.163 HD
BRANCH   3   6
ATOM      6  C   UNL     1       3.805  -2.594   5.773  1.00  0.00     0.205 C 
BRANCH   6   7
ATOM      7  N   UNL     1       3.445  -3.246   4.510  1.00  0.00    -0.340 N 
ATOM      8  C   UNL     1       2.605  -2.860   3.510  1.00  0.00     0.221 C 
ATOM      9  O   UNL     1       2.347  -3.660   2.611  1.00  0.00    -0.275 OA
ATOM     10  H   UNL     1       3.887  -4.113   4.359  1.00  0.00     0.164 HD
BRANCH   8  11
ATOM     11  C   UNL     1       2.055  -1.448   3.477  1.00  0.00     0.104 C 
BRANCH  11  12
ATOM     12  C   UNL     1       0.624  -1.329   4.017  1.00  0.00     0.009 C 
ATOM     13  N   UNL     1      -1.056   0.040   5.968  1.00  0.00    -0.335 N 
ATOM     14  C   UNL     1      -0.806  -1.393   6.122  1.00  0.00     0.262 C 
ATOM     15  C   UNL     1      -1.192   0.390   4.551  1.00  0.00     0.262 C 
ATOM     16  H   UNL     1      -0.241   0.544   6.318  1.00  0.00     0.348 HD
ATOM     17  C   UNL     1       0.543  -1.713   5.497  1.00  0.00     0.066 C 
ATOM     18  C   UNL     1       0.121   0.112   3.814  1.00  0.00     0.066 C 
BRANCH  13  19
ATOM     19  C   UNL     1      -2.164   0.511   6.802  1.00  0.00     0.258 C 
ATOM     20  C   UNL     1      -3.545  -0.029   6.457  1.00  0.00     0.071 C 
ENDBRANCH  13  19
ENDBRANCH  11  12
ENDBRANCH   8  11
ENDBRANCH   6   7
BRANCH   6  21
ATOM     21  C   UNL     1       3.294  -3.433   6.942  1.00  0.00     0.020 A 
ATOM     22  C   UNL     1       2.738  -2.814   8.076  1.00  0.00     0.012 A 
ATOM     23  C   UNL     1       3.360  -4.835   6.922  1.00  0.00     0.131 A 
ATOM     24  C   UNL     1       2.218  -3.583   9.120  1.00  0.00     0.040 A 
ATOM     25  C   UNL     1       2.833  -5.607   7.952  1.00  0.00     0.078 A 
ATOM     26  F   UNL     1       3.918  -5.464   5.877  1.00  0.00    -0.206 F 
ATOM     27  C   UNL     1       2.260  -4.971   9.041  1.00  0.00     0.126 A 
ATOM     28  F   UNL     1       1.740  -5.703  10.035  1.00  0.00    -0.207 F 
ENDBRANCH   6  21
ENDBRANCH   3   6
ENDBRANCH   1   2
BRANCH   1  29
ATOM     29  C   UNL     1       5.657   0.060   3.123  1.00  0.00     0.023 C 
BRANCH  29  30
ATOM     30  C   UNL     1       6.960   0.850   3.193  1.00  0.00     0.023 C 
BRANCH  30  31
ATOM     31  C   UNL     1       8.196   0.119   2.684  1.00  0.00     0.116 C 
BRANCH  31  32
ATOM     32  N   UNL     1       8.049  -0.442   1.347  1.00  0.00    -0.352 N 
ATOM     33  C   UNL     1       9.012  -0.566   0.370  1.00  0.00     0.251 C 
ATOM     34  H   UNL     1       7.152  -0.774   1.114  1.00  0.00     0.163 HD
ATOM     35  O   UNL     1       8.757  -1.045  -0.722  1.00  0.00    -0.269 OA
BRANCH  33  36
ATOM     36  C   UNL     1      10.353  -0.030   0.664  1.00  0.00     0.039 A 
ATOM     37  C   UNL     1      10.821   1.037  -0.104  1.00  0.00     0.014 A 
ATOM     38  C   UNL     1      11.045  -0.467   1.797  1.00  0.00     0.014 A 
ATOM     39  C   UNL     1      11.938   1.747   0.331  1.00  0.00     0.010 A 
ATOM     40  C   UNL     1      12.113   0.286   2.265  1.00  0.00     0.010 A 
ATOM     41  C   UNL     1      12.549   1.416   1.551  1.00  0.00    -0.014 A 
BRANCH  41  42
ATOM     42  C   UNL     1      13.613   2.266   2.135  1.00  0.00     0.031 A 
ATOM     43  C   UNL     1      14.989   1.707   2.333  1.00  0.00     0.074 A 
ATOM     44  C   UNL     1      13.307   3.502   2.576  1.00  0.00     0.049 A 
ATOM     45  N   UNL     1      16.017   2.238   2.942  1.00  0.00    -0.248 NA
ATOM     46  C   UNL     1      15.233   0.356   1.803  1.00  0.00     0.031 C 
ATOM     47  C   UNL     1      11.989   4.135   2.483  1.00  0.00     0.029 A 
ATOM     48  N   UNL     1      14.080   4.443   3.211  1.00  0.00    -0.354 N 
ATOM     49  C   UNL     1      17.021   1.283   2.884  1.00  0.00     0.074 A 
ATOM     50  C   UNL     1      16.467   0.121   2.223  1.00  0.00     0.031 C 
ATOM     51  C   UNL     1      12.049   5.362   3.026  1.00  0.00     0.029 A 
ATOM     52  C   UNL     1      13.395   5.587   3.543  1.00  0.00     0.049 A 
ATOM     53  H   UNL     1      15.035   4.310   3.410  1.00  0.00     0.167 HD
ATOM     54  C   UNL     1      18.297   1.378   3.324  1.00  0.00     0.037 A 
ATOM     55  C   UNL     1      13.804   6.685   4.206  1.00  0.00     0.037 A 
ATOM     56  C   UNL     1      18.852   2.548   3.948  1.00  0.00     0.049 A 
ATOM     57  C   UNL     1      15.223   6.755   4.700  1.00  0.00     0.074 A 
ATOM     58  C   UNL     1      20.156   2.775   4.349  1.00  0.00     0.029 A 
ATOM     59  N   UNL     1      18.129   3.689   4.264  1.00  0.00    -0.354 N 
ATOM     60  N   UNL     1      16.185   5.874   4.577  1.00  0.00    -0.248 NA
ATOM     61  C   UNL     1      15.611   7.969   5.432  1.00  0.00     0.031 C 
ATOM     62  C   UNL     1      20.214   4.040   4.945  1.00  0.00     0.029 A 
ATOM     63  C   UNL     1      18.954   4.614   4.882  1.00  0.00     0.049 A 
ATOM     64  H   UNL     1      17.172   3.822   4.076  1.00  0.00     0.167 HD
ATOM     65  C   UNL     1      17.293   6.428   5.201  1.00  0.00     0.074 A 
ATOM     66  C   UNL     1      16.890   7.732   5.686  1.00  0.00     0.031 C 
ATOM     67  C   UNL     1      18.531   5.904   5.362  1.00  0.00     0.037 A 
BRANCH  54  68
ATOM     68  C   UNL     1      19.185   0.186   3.131  1.00  0.00     0.064 A 
ATOM     69  C   UNL     1      19.654  -0.180   1.861  1.00  0.00     0.173 A 
ATOM     70  C   UNL     1      19.600  -0.578   4.232  1.00  0.00     0.173 A 
ATOM     71  F   UNL     1      19.272   0.511   0.776  1.00  0.00    -0.203 F 
ATOM     72  C   UNL     1      20.488  -1.282   1.696  1.00  0.00     0.198 A 
ATOM     73  C   UNL     1      20.455  -1.664   4.067  1.00  0.00     0.198 A 
ATOM     74  F   UNL     1      19.181  -0.267   5.468  1.00  0.00    -0.203 F 
ATOM     75  F   UNL     1      20.889  -1.639   0.469  1.00  0.00    -0.200 F 
ATOM     76  C   UNL     1      20.893  -2.018   2.800  1.00  0.00     0.200 A 
ATOM     77  F   UNL     1      20.854  -2.369   5.134  1.00  0.00    -0.200 F 
ATOM     78  F   UNL     1      21.702  -3.075   2.640  1.00  0.00    -0.200 F 
ENDBRANCH  54  68
BRANCH  55  79
ATOM     79  C   UNL     1      12.861   7.809   4.440  1.00  0.00     0.064 A 
ATOM     80  C   UNL     1      13.019   9.029   3.768  1.00  0.00     0.173 A 
ATOM     81  C   UNL     1      11.794   7.694   5.343  1.00  0.00     0.173 A 
ATOM     82  F   UNL     1      14.038   9.194   2.912  1.00  0.00    -0.203 F 
ATOM     83  C   UNL     1      12.155  10.097   4.001  1.00  0.00     0.198 A 
ATOM     84  C   UNL     1      10.916   8.755   5.557  1.00  0.00     0.198 A 
ATOM     85  F   UNL     1      11.599   6.547   6.009  1.00  0.00    -0.203 F 
ATOM     86  F   UNL     1      12.353  11.265   3.375  1.00  0.00    -0.200 F 
ATOM     87  C   UNL     1      11.101   9.957   4.892  1.00  0.00     0.200 A 
ATOM     88  F   UNL     1       9.892   8.612   6.410  1.00  0.00    -0.200 F 
ATOM     89  F   UNL     1      10.269  10.984   5.115  1.00  0.00    -0.200 F 
ENDBRANCH  55  79
BRANCH  67  90
ATOM     90  C   UNL     1      19.541   6.740   6.087  1.00  0.00     0.064 A 
ATOM     91  C   UNL     1      19.489   6.897   7.480  1.00  0.00     0.173 A 
ATOM     92  C   UNL     1      20.600   7.343   5.393  1.00  0.00     0.173 A 
ATOM     93  F   UNL     1      18.485   6.353   8.183  1.00  0.00    -0.203 F 
ATOM     94  C   UNL     1      20.457   7.640   8.150  1.00  0.00     0.198 A 
ATOM     95  C   UNL     1      21.579   8.064   6.069  1.00  0.00     0.198 A 
ATOM     96  F   UNL     1      20.693   7.217   4.061  1.00  0.00    -0.203 F 
ATOM     97  F   UNL     1      20.370   7.806   9.477  1.00  0.00    -0.200 F 
ATOM     98  C   UNL     1      21.505   8.215   7.446  1.00  0.00     0.200 A 
ATOM     99  F   UNL     1      22.596   8.611   5.390  1.00  0.00    -0.200 F 
ATOM    100  F   UNL     1      22.441   8.920   8.095  1.00  0.00    -0.200 F 
ENDBRANCH  67  90
ENDBRANCH  41  42
ENDBRANCH  33  36
ENDBRANCH  31  32
ENDBRANCH  30  31
ENDBRANCH  29  30
ENDBRANCH   1  29
TORSDOF 16
