REMARK SMILES O=C(Cn1nc(-c2ccc(Br)cc2)ccc1=O)N[C@H](C(=O)NCCCCNC(=O)c1ccc(-c2c3nc(c(-c4c(F)c(F)c(F)c(F)c4F)c4ccc([nH]4)c(-c4c(F)c(F)c(F)c(F)c4F)c4nc(c(-c5c(F)c(F)c(F)c(F)c5F)c5ccc2[nH]5)C=C4)C=C3)cc1)c1ccccc1
REMARK SMILES IDX 23 1 22 2 20 3 21 4 19 6 18 7 1 8 2 9 3 11 4 12 5 13 16 14
REMARK SMILES IDX 6 15 15 16 17 17 14 18 7 19 8 20 13 21 9 22 12 23 10 24
REMARK SMILES IDX 11 25 93 26 94 27 98 28 95 29 97 30 96 31 24 32 25 33 26 34
REMARK SMILES IDX 27 35 28 36 29 38 30 39 31 40 92 41 32 42 91 43 33 44 34 45
REMARK SMILES IDX 35 46 85 47 36 48 90 49 84 50 86 51 37 52 89 53 83 54 82 55
REMARK SMILES IDX 38 57 70 58 50 59 69 60 51 61 54 62 68 63 87 64 52 65 53 66
REMARK SMILES IDX 67 68 88 69 55 70 39 71 40 72 48 73 41 74 42 75 46 76 49 77
REMARK SMILES IDX 43 78 44 79 47 80 45 81 71 82 72 83 80 84 73 85 74 86 78 87
REMARK SMILES IDX 81 88 75 89 76 90 79 91 77 92 56 93 57 94 65 95 58 96 59 97
REMARK SMILES IDX 63 98 66 99 60 100 61 101 64 102 62 103
REMARK H PARENT 22 5 18 10 27 37 86 56 54 67
REMARK Flexibility Score: inf
ROOT
ATOM      1  C   UNL     1       1.849   2.134   0.943  1.00  0.00     0.116 C 
ENDROOT
BRANCH   1   2
ATOM      2  N   UNL     1       2.556   1.001   0.380  1.00  0.00    -0.354 N 
ATOM      3  C   UNL     1       2.962   0.776  -0.914  1.00  0.00     0.247 C 
ATOM      4  O   UNL     1       3.434  -0.340  -1.142  1.00  0.00    -0.272 OA
ATOM      5  H   UNL     1       2.778   0.286   1.019  1.00  0.00     0.163 HD
BRANCH   3   6
ATOM      6  C   UNL     1       2.665   1.857  -2.000  1.00  0.00     0.202 C 
BRANCH   6   7
ATOM      7  N   UNL     1       3.211   3.161  -1.613  1.00  0.00    -0.339 N 
ATOM      8  O   UNL     1       5.298   2.445  -0.977  1.00  0.00    -0.273 OA
ATOM      9  C   UNL     1       4.521   3.360  -1.223  1.00  0.00     0.242 C 
ATOM     10  H   UNL     1       2.609   3.940  -1.632  1.00  0.00     0.164 HD
BRANCH   9  11
ATOM     11  C   UNL     1       4.850   4.823  -0.922  1.00  0.00     0.248 C 
BRANCH  11  12
ATOM     12  N   UNL     1       4.652   5.638  -2.116  1.00  0.00    -0.220 N 
ATOM     13  N   UNL     1       3.345   5.867  -2.513  1.00  0.00    -0.169 NA
ATOM     14  C   UNL     1       5.768   6.055  -2.832  1.00  0.00     0.267 A 
ATOM     15  C   UNL     1       3.171   6.479  -3.643  1.00  0.00     0.091 A 
ATOM     16  C   UNL     1       5.499   6.781  -4.089  1.00  0.00     0.075 A 
ATOM     17  O   UNL     1       6.934   5.870  -2.496  1.00  0.00    -0.268 OA
ATOM     18  C   UNL     1       4.251   6.989  -4.509  1.00  0.00     0.036 A 
BRANCH  15  19
ATOM     19  C   UNL     1       1.796   6.676  -4.145  1.00  0.00     0.002 A 
ATOM     20  C   UNL     1       0.866   7.344  -3.343  1.00  0.00     0.011 A 
ATOM     21  C   UNL     1       1.417   6.136  -5.379  1.00  0.00     0.011 A 
ATOM     22  C   UNL     1      -0.448   7.494  -3.791  1.00  0.00     0.016 A 
ATOM     23  C   UNL     1       0.099   6.276  -5.817  1.00  0.00     0.016 A 
ATOM     24  C   UNL     1      -0.825   6.957  -5.023  1.00  0.00     0.018 A 
ATOM     25  Br  UNL     1      -2.610   7.141  -5.617  1.00  0.00    -0.051 Br
ENDBRANCH  15  19
ENDBRANCH  11  12
ENDBRANCH   9  11
ENDBRANCH   6   7
BRANCH   6  26
ATOM     26  C   UNL     1       2.904   1.506  -3.470  1.00  0.00    -0.016 A 
ATOM     27  C   UNL     1       3.127   2.519  -4.424  1.00  0.00     0.006 A 
ATOM     28  C   UNL     1       2.747   0.197  -3.955  1.00  0.00     0.006 A 
ATOM     29  C   UNL     1       3.222   2.233  -5.789  1.00  0.00     0.000 A 
ATOM     30  C   UNL     1       2.855  -0.094  -5.319  1.00  0.00     0.000 A 
ATOM     31  C   UNL     1       3.090   0.924  -6.236  1.00  0.00     0.000 A 
ENDBRANCH   6  26
ENDBRANCH   3   6
ENDBRANCH   1   2
BRANCH   1  32
ATOM     32  C   UNL     1       0.661   1.697   1.798  1.00  0.00     0.023 C 
BRANCH  32  33
ATOM     33  C   UNL     1       1.008   0.812   2.995  1.00  0.00     0.023 C 
BRANCH  33  34
ATOM     34  C   UNL     1       2.029   1.396   3.963  1.00  0.00     0.116 C 
BRANCH  34  35
ATOM     35  N   UNL     1       1.560   2.601   4.634  1.00  0.00    -0.352 N 
ATOM     36  C   UNL     1       1.609   2.917   5.973  1.00  0.00     0.251 C 
ATOM     37  H   UNL     1       1.153   3.282   4.051  1.00  0.00     0.163 HD
ATOM     38  O   UNL     1       1.063   3.932   6.394  1.00  0.00    -0.269 OA
BRANCH  36  39
ATOM     39  C   UNL     1       2.283   1.994   6.912  1.00  0.00     0.039 A 
ATOM     40  C   UNL     1       3.546   1.480   6.614  1.00  0.00     0.014 A 
ATOM     41  C   UNL     1       1.613   1.590   8.069  1.00  0.00     0.014 A 
ATOM     42  C   UNL     1       4.053   0.429   7.369  1.00  0.00     0.010 A 
ATOM     43  C   UNL     1       2.164   0.590   8.875  1.00  0.00     0.010 A 
ATOM     44  C   UNL     1       3.360  -0.041   8.498  1.00  0.00    -0.014 A 
BRANCH  44  45
ATOM     45  C   UNL     1       3.891  -1.214   9.241  1.00  0.00     0.031 A 
ATOM     46  C   UNL     1       3.136  -2.517   9.260  1.00  0.00     0.074 A 
ATOM     47  C   UNL     1       5.095  -1.128   9.837  1.00  0.00     0.049 A 
ATOM     48  N   UNL     1       3.462  -3.652   9.828  1.00  0.00    -0.248 NA
ATOM     49  C   UNL     1       1.846  -2.554   8.553  1.00  0.00     0.031 C 
ATOM     50  C   UNL     1       5.930   0.073   9.871  1.00  0.00     0.029 A 
ATOM     51  N   UNL     1       5.840  -2.072  10.497  1.00  0.00    -0.354 N 
ATOM     52  C   UNL     1       2.416  -4.527   9.563  1.00  0.00     0.074 A 
ATOM     53  C   UNL     1       1.429  -3.787   8.806  1.00  0.00     0.031 C 
ATOM     54  C   UNL     1       7.097  -0.221  10.463  1.00  0.00     0.029 A 
ATOM     55  C   UNL     1       7.069  -1.613  10.903  1.00  0.00     0.049 A 
ATOM     56  H   UNL     1       5.525  -2.989  10.663  1.00  0.00     0.167 HD
ATOM     57  C   UNL     1       2.297  -5.832   9.906  1.00  0.00     0.037 A 
ATOM     58  C   UNL     1       8.062  -2.240  11.562  1.00  0.00     0.037 A 
ATOM     59  C   UNL     1       3.293  -6.578  10.629  1.00  0.00     0.049 A 
ATOM     60  C   UNL     1       7.887  -3.676  11.962  1.00  0.00     0.074 A 
ATOM     61  C   UNL     1       3.270  -7.911  11.002  1.00  0.00     0.029 A 
ATOM     62  N   UNL     1       4.496  -6.057  11.082  1.00  0.00    -0.354 N 
ATOM     63  N   UNL     1       6.889  -4.488  11.711  1.00  0.00    -0.248 NA
ATOM     64  C   UNL     1       8.971  -4.281  12.749  1.00  0.00     0.031 C 
ATOM     65  C   UNL     1       4.442  -8.188  11.713  1.00  0.00     0.029 A 
ATOM     66  C   UNL     1       5.213  -7.038  11.748  1.00  0.00     0.049 A 
ATOM     67  H   UNL     1       4.796  -5.129  10.950  1.00  0.00     0.167 HD
ATOM     68  C   UNL     1       7.223  -5.696  12.304  1.00  0.00     0.074 A 
ATOM     69  C   UNL     1       8.528  -5.521  12.907  1.00  0.00     0.031 C 
ATOM     70  C   UNL     1       6.507  -6.846  12.350  1.00  0.00     0.037 A 
BRANCH  57  71
ATOM     71  C   UNL     1       1.041  -6.550   9.507  1.00  0.00     0.064 A 
ATOM     72  C   UNL     1       0.808  -6.939   8.181  1.00  0.00     0.173 A 
ATOM     73  C   UNL     1       0.095  -6.918  10.477  1.00  0.00     0.173 A 
ATOM     74  F   UNL     1       1.676  -6.601   7.215  1.00  0.00    -0.203 F 
ATOM     75  C   UNL     1      -0.334  -7.659   7.836  1.00  0.00     0.198 A 
ATOM     76  C   UNL     1      -1.032  -7.659  10.133  1.00  0.00     0.198 A 
ATOM     77  F   UNL     1       0.276  -6.576  11.761  1.00  0.00    -0.203 F 
ATOM     78  F   UNL     1      -0.551  -7.996   6.557  1.00  0.00    -0.200 F 
ATOM     79  C   UNL     1      -1.248  -8.026   8.813  1.00  0.00     0.200 A 
ATOM     80  F   UNL     1      -1.909  -8.022  11.080  1.00  0.00    -0.200 F 
ATOM     81  F   UNL     1      -2.338  -8.732   8.482  1.00  0.00    -0.200 F 
ENDBRANCH  57  71
BRANCH  58  82
ATOM     82  C   UNL     1       9.311  -1.502  11.875  1.00  0.00     0.064 A 
ATOM     83  C   UNL     1      10.509  -1.805  11.216  1.00  0.00     0.173 A 
ATOM     84  C   UNL     1       9.325  -0.458  12.812  1.00  0.00     0.173 A 
ATOM     85  F   UNL     1      10.549  -2.809  10.328  1.00  0.00    -0.203 F 
ATOM     86  C   UNL     1      11.676  -1.093  11.483  1.00  0.00     0.198 A 
ATOM     87  C   UNL     1      10.485   0.270  13.059  1.00  0.00     0.198 A 
ATOM     88  F   UNL     1       8.202  -0.130  13.468  1.00  0.00    -0.203 F 
ATOM     89  F   UNL     1      12.816  -1.420  10.860  1.00  0.00    -0.200 F 
ATOM     90  C   UNL     1      11.661  -0.050  12.398  1.00  0.00     0.200 A 
ATOM     91  F   UNL     1      10.462   1.286  13.933  1.00  0.00    -0.200 F 
ATOM     92  F   UNL     1      12.780   0.645  12.644  1.00  0.00    -0.200 F 
ENDBRANCH  58  82
BRANCH  70  93
ATOM     93  C   UNL     1       7.114  -8.006  13.079  1.00  0.00     0.064 A 
ATOM     94  C   UNL     1       7.156  -8.044  14.479  1.00  0.00     0.173 A 
ATOM     95  C   UNL     1       7.601  -9.117  12.373  1.00  0.00     0.173 A 
ATOM     96  F   UNL     1       6.714  -6.999  15.196  1.00  0.00    -0.203 F 
ATOM     97  C   UNL     1       7.676  -9.148  15.149  1.00  0.00     0.198 A 
ATOM     98  C   UNL     1       8.099 -10.229  13.047  1.00  0.00     0.198 A 
ATOM     99  F   UNL     1       7.577  -9.130  11.032  1.00  0.00    -0.203 F 
ATOM    100  F   UNL     1       7.734  -9.150  16.488  1.00  0.00    -0.200 F 
ATOM    101  C   UNL     1       8.138 -10.242  14.433  1.00  0.00     0.200 A 
ATOM    102  F   UNL     1       8.535 -11.290  12.355  1.00  0.00    -0.200 F 
ATOM    103  F   UNL     1       8.627 -11.309  15.080  1.00  0.00    -0.200 F 
ENDBRANCH  70  93
ENDBRANCH  44  45
ENDBRANCH  36  39
ENDBRANCH  34  35
ENDBRANCH  33  34
ENDBRANCH  32  33
ENDBRANCH   1  32
TORSDOF 16
