REMARK SMILES Cc1nc(-c2ccccc2Cl)sc1C(=O)NC[C@H]1CC[C@@H](C(=O)NCCCCNC(=O)c2ccc(-c3c4nc(c(-c5c(F)c(F)c(F)c(F)c5F)c5ccc([nH]5)c(-c5c(F)c(F)c(F)c(F)c5F)c5nc(c(-c6c(F)c(F)c(F)c(F)c6F)c6ccc3[nH]6)C=C5)C=C4)cc2)CC1
REMARK SMILES IDX 25 1 24 2 22 3 23 4 21 6 18 7 19 8 96 9 20 10 95 11 17 12
REMARK SMILES IDX 16 13 14 14 15 15 13 17 1 18 2 19 3 20 4 21 12 22 5 23 6 24
REMARK SMILES IDX 10 25 7 26 9 27 11 28 8 29 26 30 27 31 28 32 29 33 30 34
REMARK SMILES IDX 31 36 32 37 33 38 94 39 34 40 93 41 35 42 36 43 37 44 87 45
REMARK SMILES IDX 38 46 92 47 86 48 88 49 39 50 91 51 85 52 84 53 40 55 72 56
REMARK SMILES IDX 52 57 71 58 53 59 56 60 70 61 89 62 54 63 55 64 69 66 90 67
REMARK SMILES IDX 57 68 41 69 42 70 50 71 43 72 44 73 48 74 51 75 45 76 46 77
REMARK SMILES IDX 49 78 47 79 73 80 74 81 82 82 75 83 76 84 80 85 83 86 77 87
REMARK SMILES IDX 78 88 81 89 79 90 58 91 59 92 67 93 60 94 61 95 65 96 68 97
REMARK SMILES IDX 62 98 63 99 66 100 64 101
REMARK H PARENT 24 5 16 16 29 35 88 54 56 65
REMARK Flexibility Score: inf
ROOT
ATOM      1  C   UNL     1      -6.110  -2.931   0.762  1.00  0.00     0.116 C 
ENDROOT
BRANCH   1   2
ATOM      2  N   UNL     1      -7.277  -3.097  -0.070  1.00  0.00    -0.356 N 
ATOM      3  C   UNL     1      -7.449  -3.374  -1.385  1.00  0.00     0.223 C 
ATOM      4  O   UNL     1      -8.614  -3.632  -1.716  1.00  0.00    -0.275 OA
ATOM      5  H   UNL     1      -8.123  -2.987   0.420  1.00  0.00     0.163 HD
BRANCH   3   6
ATOM      6  C   UNL     1      -6.354  -3.369  -2.465  1.00  0.00     0.078 C 
ATOM      7  C   UNL     1      -3.438  -2.984  -1.719  1.00  0.00     0.008 C 
ATOM      8  C   UNL     1      -4.097  -4.381  -1.700  1.00  0.00     0.006 C 
ATOM      9  C   UNL     1      -4.397  -1.798  -1.938  1.00  0.00     0.006 C 
ATOM     10  C   UNL     1      -5.378  -4.538  -2.507  1.00  0.00     0.014 C 
ATOM     11  C   UNL     1      -5.672  -2.039  -2.721  1.00  0.00     0.014 C 
BRANCH   7  12
ATOM     12  C   UNL     1      -2.604  -2.773  -0.419  1.00  0.00     0.119 C 
BRANCH  12  13
ATOM     13  N   UNL     1      -1.189  -2.938  -0.613  1.00  0.00    -0.351 N 
ATOM     14  C   UNL     1      -0.072  -2.167  -0.414  1.00  0.00     0.263 C 
ATOM     15  O   UNL     1       0.958  -2.853  -0.481  1.00  0.00    -0.268 OA
ATOM     16  H   UNL     1      -0.966  -3.825  -0.978  1.00  0.00     0.163 HD
BRANCH  14  17
ATOM     17  C   UNL     1      -0.026  -0.721  -0.187  1.00  0.00     0.115 A 
ATOM     18  C   UNL     1      -2.364   0.487  -0.164  1.00  0.00     0.068 C 
ATOM     19  C   UNL     1      -0.893   0.368  -0.094  1.00  0.00     0.062 A 
ATOM     20  N   UNL     1      -0.286   1.609   0.045  1.00  0.00    -0.240 NA
ATOM     21  C   UNL     1       1.016   1.512  -0.006  1.00  0.00     0.125 A 
ATOM     22  S   UNL     1       1.606  -0.081  -0.007  1.00  0.00    -0.108 S 
BRANCH  21  23
ATOM     23  C   UNL     1       1.893   2.681   0.018  1.00  0.00     0.029 A 
ATOM     24  C   UNL     1       1.745   3.584   1.087  1.00  0.00     0.013 A 
ATOM     25  C   UNL     1       2.772   3.015  -1.025  1.00  0.00     0.051 A 
ATOM     26  C   UNL     1       2.463   4.780   1.124  1.00  0.00     0.001 A 
ATOM     27  C   UNL     1       3.493   4.214  -0.982  1.00  0.00     0.021 A 
ATOM     28  Cl  UNL     1       2.964   2.038  -2.441  1.00  0.00    -0.084 Cl
ATOM     29  C   UNL     1       3.337   5.094   0.089  1.00  0.00     0.002 A 
ENDBRANCH  21  23
ENDBRANCH  14  17
ENDBRANCH  12  13
ENDBRANCH   7  12
ENDBRANCH   3   6
ENDBRANCH   1   2
BRANCH   1  30
ATOM     30  C   UNL     1      -5.924  -1.504   1.279  1.00  0.00     0.023 C 
BRANCH  30  31
ATOM     31  C   UNL     1      -6.247  -1.304   2.756  1.00  0.00     0.023 C 
BRANCH  31  32
ATOM     32  C   UNL     1      -5.431  -2.155   3.725  1.00  0.00     0.116 C 
BRANCH  32  33
ATOM     33  N   UNL     1      -3.990  -1.954   3.662  1.00  0.00    -0.352 N 
ATOM     34  C   UNL     1      -3.078  -2.055   4.695  1.00  0.00     0.251 C 
ATOM     35  H   UNL     1      -3.622  -1.720   2.779  1.00  0.00     0.163 HD
ATOM     36  O   UNL     1      -1.892  -1.824   4.512  1.00  0.00    -0.269 OA
BRANCH  34  37
ATOM     37  C   UNL     1      -3.580  -2.385   6.047  1.00  0.00     0.039 A 
ATOM     38  C   UNL     1      -3.304  -1.511   7.101  1.00  0.00     0.014 A 
ATOM     39  C   UNL     1      -4.425  -3.481   6.236  1.00  0.00     0.014 A 
ATOM     40  C   UNL     1      -3.970  -1.673   8.318  1.00  0.00     0.010 A 
ATOM     41  C   UNL     1      -5.149  -3.589   7.418  1.00  0.00     0.010 A 
ATOM     42  C   UNL     1      -4.942  -2.676   8.464  1.00  0.00    -0.014 A 
BRANCH  42  43
ATOM     43  C   UNL     1      -5.778  -2.775   9.689  1.00  0.00     0.031 A 
ATOM     44  C   UNL     1      -5.723  -4.013  10.538  1.00  0.00     0.074 A 
ATOM     45  C   UNL     1      -6.656  -1.795   9.982  1.00  0.00     0.049 A 
ATOM     46  N   UNL     1      -6.447  -4.336  11.580  1.00  0.00    -0.248 NA
ATOM     47  C   UNL     1      -4.750  -5.042  10.140  1.00  0.00     0.031 C 
ATOM     48  C   UNL     1      -6.856  -0.573   9.201  1.00  0.00     0.029 A 
ATOM     49  N   UNL     1      -7.556  -1.678  11.012  1.00  0.00    -0.354 N 
ATOM     50  C   UNL     1      -6.035  -5.611  11.942  1.00  0.00     0.074 A 
ATOM     51  C   UNL     1      -5.038  -6.025  10.979  1.00  0.00     0.031 C 
ATOM     52  C   UNL     1      -7.795   0.182   9.795  1.00  0.00     0.029 A 
ATOM     53  C   UNL     1      -8.288  -0.516  10.978  1.00  0.00     0.049 A 
ATOM     54  H   UNL     1      -7.666  -2.363  11.711  1.00  0.00     0.167 HD
ATOM     55  C   UNL     1      -6.432  -6.360  12.999  1.00  0.00     0.037 A 
ATOM     56  C   UNL     1      -9.248  -0.066  11.808  1.00  0.00     0.037 A 
ATOM     57  C   UNL     1      -7.390  -5.930  13.982  1.00  0.00     0.049 A 
ATOM     58  C   UNL     1      -9.646  -0.901  12.994  1.00  0.00     0.074 A 
ATOM     59  C   UNL     1      -7.807  -6.586  15.127  1.00  0.00     0.029 A 
ATOM     60  N   UNL     1      -8.076  -4.725  13.938  1.00  0.00    -0.354 N 
ATOM     61  N   UNL     1      -9.201  -2.076  13.365  1.00  0.00    -0.248 NA
ATOM     62  C   UNL     1     -10.677  -0.343  13.882  1.00  0.00     0.031 C 
ATOM     63  C   UNL     1      -8.767  -5.790  15.762  1.00  0.00     0.029 A 
ATOM     64  C   UNL     1      -8.920  -4.623  15.031  1.00  0.00     0.049 A 
ATOM     65  H   UNL     1      -7.977  -4.044  13.234  1.00  0.00     0.167 HD
ATOM     66  C   UNL     1      -9.873  -2.386  14.539  1.00  0.00     0.074 A 
ATOM     67  C   UNL     1     -10.749  -1.269  14.827  1.00  0.00     0.031 C 
ATOM     68  C   UNL     1      -9.774  -3.497  15.309  1.00  0.00     0.037 A 
BRANCH  55  69
ATOM     69  C   UNL     1      -5.814  -7.718  13.150  1.00  0.00     0.064 A 
ATOM     70  C   UNL     1      -4.469  -7.875  13.517  1.00  0.00     0.173 A 
ATOM     71  C   UNL     1      -6.577  -8.877  12.941  1.00  0.00     0.173 A 
ATOM     72  F   UNL     1      -3.694  -6.797  13.713  1.00  0.00    -0.203 F 
ATOM     73  C   UNL     1      -3.901  -9.140  13.637  1.00  0.00     0.198 A 
ATOM     74  C   UNL     1      -6.014 -10.141  13.091  1.00  0.00     0.198 A 
ATOM     75  F   UNL     1      -7.869  -8.783  12.592  1.00  0.00    -0.203 F 
ATOM     76  F   UNL     1      -2.600  -9.263  13.934  1.00  0.00    -0.200 F 
ATOM     77  C   UNL     1      -4.675 -10.272  13.430  1.00  0.00     0.200 A 
ATOM     78  F   UNL     1      -6.764 -11.235  12.900  1.00  0.00    -0.200 F 
ATOM     79  F   UNL     1      -4.127 -11.489  13.546  1.00  0.00    -0.200 F 
ENDBRANCH  55  69
BRANCH  56  80
ATOM     80  C   UNL     1      -9.871   1.263  11.574  1.00  0.00     0.064 A 
ATOM     81  C   UNL     1      -9.587   2.344  12.420  1.00  0.00     0.173 A 
ATOM     82  C   UNL     1     -10.761   1.479  10.513  1.00  0.00     0.173 A 
ATOM     83  F   UNL     1      -8.757   2.178  13.460  1.00  0.00    -0.203 F 
ATOM     84  C   UNL     1     -10.185   3.587  12.226  1.00  0.00     0.198 A 
ATOM     85  C   UNL     1     -11.340   2.730  10.305  1.00  0.00     0.198 A 
ATOM     86  F   UNL     1     -11.062   0.478   9.673  1.00  0.00    -0.203 F 
ATOM     87  F   UNL     1      -9.928   4.592  13.074  1.00  0.00    -0.200 F 
ATOM     88  C   UNL     1     -11.058   3.781  11.166  1.00  0.00     0.200 A 
ATOM     89  F   UNL     1     -12.174   2.917   9.273  1.00  0.00    -0.200 F 
ATOM     90  F   UNL     1     -11.631   4.977  10.978  1.00  0.00    -0.200 F 
ENDBRANCH  56  80
BRANCH  68  91
ATOM     91  C   UNL     1     -10.604  -3.543  16.556  1.00  0.00     0.064 A 
ATOM     92  C   UNL     1     -11.989  -3.759  16.508  1.00  0.00     0.173 A 
ATOM     93  C   UNL     1     -10.000  -3.414  17.815  1.00  0.00     0.173 A 
ATOM     94  F   UNL     1     -12.614  -3.872  15.326  1.00  0.00    -0.203 F 
ATOM     95  C   UNL     1     -12.742  -3.823  17.677  1.00  0.00     0.198 A 
ATOM     96  C   UNL     1     -10.752  -3.504  18.983  1.00  0.00     0.198 A 
ATOM     97  F   UNL     1      -8.677  -3.211  17.913  1.00  0.00    -0.203 F 
ATOM     98  F   UNL     1     -14.070  -3.990  17.607  1.00  0.00    -0.200 F 
ATOM     99  C   UNL     1     -12.123  -3.703  18.912  1.00  0.00     0.200 A 
ATOM    100  F   UNL     1     -10.152  -3.398  20.176  1.00  0.00    -0.200 F 
ATOM    101  F   UNL     1     -12.849  -3.772  20.036  1.00  0.00    -0.200 F 
ENDBRANCH  68  91
ENDBRANCH  42  43
ENDBRANCH  34  37
ENDBRANCH  32  33
ENDBRANCH  31  32
ENDBRANCH  30  31
ENDBRANCH   1  30
TORSDOF 15
