REMARK SMILES CCOc1cc2c(cc1OCC)[C@@H](C(=O)NCCCCNC(=O)c1ccc(-c3c4nc(c(-c5c(F)c(F)c(F)c(F)c5F)c5ccc([nH]5)c(-c5c(F)c(F)c(F)c(F)c5F)c5nc(c(-c6c(F)c(F)c(F)c(F)c6F)c6ccc3[nH]6)C=C5)C=C4)cc1)[C@H](c1ccc(F)cc1Cl)N(C)C2=O
REMARK SMILES IDX 18 1 17 2 16 3 14 4 15 5 13 7 4 8 5 9 9 10 6 11 8 12 7 13
REMARK SMILES IDX 98 14 96 15 99 16 87 17 97 18 3 19 2 20 1 21 10 22 11 23
REMARK SMILES IDX 12 24 88 25 89 26 94 27 90 28 93 29 95 30 91 31 92 32 19 33
REMARK SMILES IDX 20 34 21 35 22 36 23 38 24 39 25 40 86 41 26 42 85 43 27 44
REMARK SMILES IDX 28 45 29 46 79 47 30 48 84 49 78 50 80 51 31 52 83 53 77 54
REMARK SMILES IDX 76 55 32 57 64 58 44 59 63 60 45 61 48 62 62 63 81 64 46 65
REMARK SMILES IDX 47 66 61 68 82 69 49 70 33 71 34 72 42 73 35 74 36 75 40 76
REMARK SMILES IDX 43 77 37 78 38 79 41 80 39 81 65 82 66 83 74 84 67 85 68 86
REMARK SMILES IDX 72 87 75 88 69 89 70 90 73 91 71 92 50 93 51 94 59 95 52 96
REMARK SMILES IDX 53 97 57 98 60 99 54 100 55 101 58 102 56 103
REMARK H PARENT 16 6 21 37 80 56 48 67
REMARK Flexibility Score: inf
ROOT
ATOM      1  C   UNL     1       7.615   0.381   0.600  1.00  0.00     0.023 C 
ENDROOT
BRANCH   1   2
ATOM      2  C   UNL     1       6.876   1.661   0.205  1.00  0.00     0.116 C 
BRANCH   2   3
ATOM      3  N   UNL     1       7.525   2.303  -0.923  1.00  0.00    -0.355 N 
ATOM      4  C   UNL     1       7.410   2.173  -2.266  1.00  0.00     0.230 C 
ATOM      5  O   UNL     1       8.277   2.766  -2.927  1.00  0.00    -0.274 OA
ATOM      6  H   UNL     1       8.192   2.976  -0.655  1.00  0.00     0.163 HD
BRANCH   4   7
ATOM      7  C   UNL     1       6.367   1.356  -3.022  1.00  0.00     0.136 C 
ATOM      8  C   UNL     1       2.212   1.259  -1.895  1.00  0.00     0.161 A 
ATOM      9  C   UNL     1       3.074   0.209  -1.549  1.00  0.00     0.064 A 
ATOM     10  C   UNL     1       2.702   2.368  -2.596  1.00  0.00     0.161 A 
ATOM     11  C   UNL     1       4.429   0.269  -1.864  1.00  0.00     0.048 A 
ATOM     12  C   UNL     1       4.074   2.426  -2.885  1.00  0.00     0.056 A 
ATOM     13  C   UNL     1       4.941   1.379  -2.539  1.00  0.00    -0.016 A 
ATOM     14  C   UNL     1       5.333  -0.842  -1.459  1.00  0.00     0.254 C 
ATOM     15  N   UNL     1       6.539  -0.951  -2.152  1.00  0.00    -0.333 N 
ATOM     16  O   UNL     1       5.008  -1.563  -0.521  1.00  0.00    -0.269 OA
ATOM     17  C   UNL     1       6.813  -0.112  -3.318  1.00  0.00     0.134 C 
ATOM     18  C   UNL     1       7.505  -1.984  -1.799  1.00  0.00     0.147 C 
BRANCH   8  19
ATOM     19  O   UNL     1       0.882   1.091  -1.625  1.00  0.00    -0.490 OA
BRANCH  19  20
ATOM     20  C   UNL     1       0.570   1.256  -0.235  1.00  0.00     0.226 C 
ATOM     21  C   UNL     1       0.502  -0.079   0.487  1.00  0.00     0.049 C 
ENDBRANCH  19  20
ENDBRANCH   8  19
BRANCH  10  22
ATOM     22  O   UNL     1       2.031   3.448  -3.097  1.00  0.00    -0.490 OA
BRANCH  22  23
ATOM     23  C   UNL     1       0.612   3.528  -3.037  1.00  0.00     0.226 C 
ATOM     24  C   UNL     1      -0.056   2.708  -4.127  1.00  0.00     0.049 C 
ENDBRANCH  22  23
ENDBRANCH  10  22
BRANCH  17  25
ATOM     25  C   UNL     1       6.207  -0.619  -4.656  1.00  0.00    -0.005 A 
ATOM     26  C   UNL     1       6.548   0.146  -5.804  1.00  0.00     0.010 A 
ATOM     27  C   UNL     1       5.325  -1.706  -4.867  1.00  0.00     0.049 A 
ATOM     28  C   UNL     1       5.961  -0.081  -7.051  1.00  0.00     0.040 A 
ATOM     29  C   UNL     1       4.744  -1.929  -6.124  1.00  0.00     0.060 A 
ATOM     30  Cl  UNL     1       4.868  -2.894  -3.699  1.00  0.00    -0.084 Cl
ATOM     31  C   UNL     1       5.047  -1.107  -7.193  1.00  0.00     0.124 A 
ATOM     32  F   UNL     1       4.463  -1.319  -8.378  1.00  0.00    -0.207 F 
ENDBRANCH  17  25
ENDBRANCH   4   7
ENDBRANCH   2   3
ENDBRANCH   1   2
BRANCH   1  33
ATOM     33  C   UNL     1       8.299   0.413   1.958  1.00  0.00     0.023 C 
BRANCH  33  34
ATOM     34  C   UNL     1       7.346   0.550   3.134  1.00  0.00     0.116 C 
BRANCH  34  35
ATOM     35  N   UNL     1       6.412  -0.555   3.299  1.00  0.00    -0.352 N 
ATOM     36  C   UNL     1       5.887  -1.043   4.479  1.00  0.00     0.251 C 
ATOM     37  H   UNL     1       6.122  -1.006   2.474  1.00  0.00     0.163 HD
ATOM     38  O   UNL     1       5.149  -2.015   4.496  1.00  0.00    -0.269 OA
BRANCH  36  39
ATOM     39  C   UNL     1       6.281  -0.392   5.750  1.00  0.00     0.039 A 
ATOM     40  C   UNL     1       6.751  -1.184   6.799  1.00  0.00     0.014 A 
ATOM     41  C   UNL     1       6.263   0.999   5.868  1.00  0.00     0.014 A 
ATOM     42  C   UNL     1       7.279  -0.572   7.938  1.00  0.00     0.010 A 
ATOM     43  C   UNL     1       6.886   1.605   6.951  1.00  0.00     0.010 A 
ATOM     44  C   UNL     1       7.388   0.827   8.004  1.00  0.00    -0.014 A 
BRANCH  44  45
ATOM     45  C   UNL     1       7.989   1.502   9.182  1.00  0.00     0.031 A 
ATOM     46  C   UNL     1       7.156   2.447  10.005  1.00  0.00     0.074 A 
ATOM     47  C   UNL     1       9.293   1.321   9.472  1.00  0.00     0.049 A 
ATOM     48  N   UNL     1       7.503   3.182  11.031  1.00  0.00    -0.248 NA
ATOM     49  C   UNL     1       5.755   2.624   9.590  1.00  0.00     0.031 C 
ATOM     50  C   UNL     1      10.227   0.493   8.707  1.00  0.00     0.029 A 
ATOM     51  N   UNL     1      10.059   1.830  10.490  1.00  0.00    -0.354 N 
ATOM     52  C   UNL     1       6.376   3.923  11.360  1.00  0.00     0.074 A 
ATOM     53  C   UNL     1       5.357   3.604  10.386  1.00  0.00     0.031 C 
ATOM     54  C   UNL     1      11.430   0.521   9.304  1.00  0.00     0.029 A 
ATOM     55  C   UNL     1      11.359   1.386  10.477  1.00  0.00     0.049 A 
ATOM     56  H   UNL     1       9.711   2.455  11.166  1.00  0.00     0.167 HD
ATOM     57  C   UNL     1       6.191   4.766  12.404  1.00  0.00     0.037 A 
ATOM     58  C   UNL     1      12.372   1.639  11.328  1.00  0.00     0.037 A 
ATOM     59  C   UNL     1       7.188   5.039  13.403  1.00  0.00     0.049 A 
ATOM     60  C   UNL     1      12.123   2.526  12.518  1.00  0.00     0.074 A 
ATOM     61  C   UNL     1       7.085   5.826  14.536  1.00  0.00     0.029 A 
ATOM     62  N   UNL     1       8.473   4.516  13.393  1.00  0.00    -0.354 N 
ATOM     63  N   UNL     1      11.031   3.165  12.861  1.00  0.00    -0.248 NA
ATOM     64  C   UNL     1      13.245   2.713  13.449  1.00  0.00     0.031 C 
ATOM     65  C   UNL     1       8.317   5.799  15.199  1.00  0.00     0.029 A 
ATOM     66  C   UNL     1       9.173   4.963  14.500  1.00  0.00     0.049 A 
ATOM     67  H   UNL     1       8.833   3.915  12.701  1.00  0.00     0.167 HD
ATOM     68  C   UNL     1      11.321   3.799  14.062  1.00  0.00     0.074 A 
ATOM     69  C   UNL     1      12.688   3.457  14.394  1.00  0.00     0.031 C 
ATOM     70  C   UNL     1      10.527   4.593  14.821  1.00  0.00     0.037 A 
BRANCH  57  71
ATOM     71  C   UNL     1       4.851   5.432  12.521  1.00  0.00     0.064 A 
ATOM     72  C   UNL     1       3.696   4.704  12.847  1.00  0.00     0.173 A 
ATOM     73  C   UNL     1       4.719   6.813  12.312  1.00  0.00     0.173 A 
ATOM     74  F   UNL     1       3.765   3.378  13.040  1.00  0.00    -0.203 F 
ATOM     75  C   UNL     1       2.453   5.327  12.920  1.00  0.00     0.198 A 
ATOM     76  C   UNL     1       3.479   7.438  12.419  1.00  0.00     0.198 A 
ATOM     77  F   UNL     1       5.792   7.556  12.002  1.00  0.00    -0.203 F 
ATOM     78  F   UNL     1       1.355   4.599  13.170  1.00  0.00    -0.200 F 
ATOM     79  C   UNL     1       2.346   6.693  12.712  1.00  0.00     0.200 A 
ATOM     80  F   UNL     1       3.378   8.760  12.228  1.00  0.00    -0.200 F 
ATOM     81  F   UNL     1       1.149   7.291  12.784  1.00  0.00    -0.200 F 
ENDBRANCH  57  71
BRANCH  58  82
ATOM     82  C   UNL     1      13.695   0.994  11.124  1.00  0.00     0.064 A 
ATOM     83  C   UNL     1      14.136  -0.021  11.986  1.00  0.00     0.173 A 
ATOM     84  C   UNL     1      14.547   1.380  10.080  1.00  0.00     0.173 A 
ATOM     85  F   UNL     1      13.364  -0.411  13.011  1.00  0.00    -0.203 F 
ATOM     86  C   UNL     1      15.389  -0.608  11.826  1.00  0.00     0.198 A 
ATOM     87  C   UNL     1      15.790   0.774   9.906  1.00  0.00     0.198 A 
ATOM     88  F   UNL     1      14.169   2.341   9.225  1.00  0.00    -0.203 F 
ATOM     89  F   UNL     1      15.805  -1.542  12.693  1.00  0.00    -0.200 F 
ATOM     90  C   UNL     1      16.214  -0.213  10.784  1.00  0.00     0.200 A 
ATOM     91  F   UNL     1      16.580   1.149   8.891  1.00  0.00    -0.200 F 
ATOM     92  F   UNL     1      17.420  -0.777  10.631  1.00  0.00    -0.200 F 
ENDBRANCH  58  82
BRANCH  70  93
ATOM     93  C   UNL     1      11.103   5.105  16.108  1.00  0.00     0.064 A 
ATOM     94  C   UNL     1      12.089   6.101  16.130  1.00  0.00     0.173 A 
ATOM     95  C   UNL     1      10.637   4.612  17.336  1.00  0.00     0.173 A 
ATOM     96  F   UNL     1      12.576   6.595  14.981  1.00  0.00    -0.203 F 
ATOM     97  C   UNL     1      12.612   6.563  17.335  1.00  0.00     0.198 A 
ATOM     98  C   UNL     1      11.141   5.096  18.539  1.00  0.00     0.198 A 
ATOM     99  F   UNL     1       9.688   3.664  17.368  1.00  0.00    -0.203 F 
ATOM    100  F   UNL     1      13.590   7.478  17.331  1.00  0.00    -0.200 F 
ATOM    101  C   UNL     1      12.133   6.064  18.538  1.00  0.00     0.200 A 
ATOM    102  F   UNL     1      10.669   4.622  19.701  1.00  0.00    -0.200 F 
ATOM    103  F   UNL     1      12.636   6.512  19.697  1.00  0.00    -0.200 F 
ENDBRANCH  70  93
ENDBRANCH  44  45
ENDBRANCH  36  39
ENDBRANCH  34  35
ENDBRANCH  33  34
ENDBRANCH   1  33
TORSDOF 16
