REMARK SMILES C[C@@H](c1ccncc1)N1C[C@@H](C(=O)NCCCCNC(=O)c2ccc(-c3c4nc(c(-c5c(F)c(F)c(F)c(F)c5F)c5ccc([nH]5)c(-c5c(F)c(F)c(F)c(F)c5F)c5nc(c(-c6c(F)c(F)c(F)c(F)c6F)c6ccc3[nH]6)C=C5)C=C4)cc2)CC1=O
REMARK SMILES IDX 16 1 15 2 14 3 12 4 13 5 11 7 9 8 10 9 86 10 85 11 87 12
REMARK SMILES IDX 2 13 1 14 3 15 4 16 8 17 5 18 7 19 6 20 17 21 18 22 19 23
REMARK SMILES IDX 20 24 21 26 22 27 23 28 84 29 24 30 83 31 25 32 26 33 27 34
REMARK SMILES IDX 77 35 28 36 82 37 76 38 78 39 29 40 81 41 75 42 74 43 30 45
REMARK SMILES IDX 62 46 42 47 61 48 43 49 46 50 60 51 79 52 44 53 45 54 59 56
REMARK SMILES IDX 80 57 47 58 31 59 32 60 40 61 33 62 34 63 38 64 41 65 35 66
REMARK SMILES IDX 36 67 39 68 37 69 63 70 64 71 72 72 65 73 66 74 70 75 73 76
REMARK SMILES IDX 67 77 68 78 71 79 69 80 48 81 49 82 57 83 50 84 51 85 55 86
REMARK SMILES IDX 58 87 52 88 53 89 56 90 54 91
REMARK H PARENT 14 6 19 25 78 44 46 55
REMARK Flexibility Score: inf
ROOT
ATOM      1  C   UNL     1      -4.207  -1.381   3.326  1.00  0.00     0.023 C 
ENDROOT
BRANCH   1   2
ATOM      2  C   UNL     1      -3.412  -2.322   2.425  1.00  0.00     0.116 C 
BRANCH   2   3
ATOM      3  N   UNL     1      -4.252  -2.941   1.413  1.00  0.00    -0.356 N 
ATOM      4  C   UNL     1      -4.253  -2.836   0.059  1.00  0.00     0.225 C 
ATOM      5  O   UNL     1      -5.091  -3.499  -0.559  1.00  0.00    -0.275 OA
ATOM      6  H   UNL     1      -4.942  -3.544   1.774  1.00  0.00     0.163 HD
BRANCH   4   7
ATOM      7  C   UNL     1      -3.259  -1.979  -0.698  1.00  0.00     0.107 C 
ATOM      8  N   UNL     1      -1.047  -1.274  -0.225  1.00  0.00    -0.335 N 
ATOM      9  C   UNL     1      -1.834  -2.455  -0.506  1.00  0.00     0.134 C 
ATOM     10  C   UNL     1      -1.834  -0.142  -0.098  1.00  0.00     0.223 C 
ATOM     11  C   UNL     1      -3.277  -0.506  -0.331  1.00  0.00     0.115 C 
ATOM     12  O   UNL     1      -1.469   0.995   0.163  1.00  0.00    -0.275 OA
BRANCH   8  13
ATOM     13  C   UNL     1       0.424  -1.353  -0.110  1.00  0.00     0.112 C 
ATOM     14  C   UNL     1       1.147   0.001  -0.169  1.00  0.00     0.036 C 
BRANCH  13  15
ATOM     15  C   UNL     1       0.861  -2.223   1.066  1.00  0.00    -0.023 A 
ATOM     16  C   UNL     1       0.844  -3.621   0.939  1.00  0.00     0.026 A 
ATOM     17  C   UNL     1       1.292  -1.695   2.288  1.00  0.00     0.026 A 
ATOM     18  C   UNL     1       1.219  -4.409   2.017  1.00  0.00     0.111 A 
ATOM     19  C   UNL     1       1.677  -2.566   3.300  1.00  0.00     0.111 A 
ATOM     20  N   UNL     1       1.635  -3.910   3.196  1.00  0.00    -0.265 NA
ENDBRANCH  13  15
ENDBRANCH   8  13
ENDBRANCH   4   7
ENDBRANCH   2   3
ENDBRANCH   1   2
BRANCH   1  21
ATOM     21  C   UNL     1      -5.279  -2.064   4.175  1.00  0.00     0.023 C 
BRANCH  21  22
ATOM     22  C   UNL     1      -4.778  -3.203   5.053  1.00  0.00     0.116 C 
BRANCH  22  23
ATOM     23  N   UNL     1      -3.756  -2.784   5.999  1.00  0.00    -0.352 N 
ATOM     24  C   UNL     1      -3.676  -3.018   7.350  1.00  0.00     0.251 C 
ATOM     25  H   UNL     1      -3.017  -2.257   5.617  1.00  0.00     0.163 HD
ATOM     26  O   UNL     1      -2.820  -2.460   8.027  1.00  0.00    -0.269 OA
BRANCH  24  27
ATOM     27  C   UNL     1      -4.650  -3.925   7.993  1.00  0.00     0.039 A 
ATOM     28  C   UNL     1      -5.247  -3.535   9.194  1.00  0.00     0.014 A 
ATOM     29  C   UNL     1      -4.985  -5.149   7.406  1.00  0.00     0.014 A 
ATOM     30  C   UNL     1      -6.226  -4.345   9.774  1.00  0.00     0.010 A 
ATOM     31  C   UNL     1      -6.021  -5.909   7.936  1.00  0.00     0.010 A 
ATOM     32  C   UNL     1      -6.646  -5.521   9.132  1.00  0.00    -0.014 A 
BRANCH  32  33
ATOM     33  C   UNL     1      -7.721  -6.372   9.704  1.00  0.00     0.031 A 
ATOM     34  C   UNL     1      -7.420  -7.785  10.120  1.00  0.00     0.074 A 
ATOM     35  C   UNL     1      -8.978  -5.894   9.796  1.00  0.00     0.049 A 
ATOM     36  N   UNL     1      -8.230  -8.707  10.577  1.00  0.00    -0.248 NA
ATOM     37  C   UNL     1      -6.026  -8.234   9.975  1.00  0.00     0.031 C 
ATOM     38  C   UNL     1      -9.407  -4.557   9.384  1.00  0.00     0.029 A 
ATOM     39  N   UNL     1     -10.128  -6.485  10.257  1.00  0.00    -0.354 N 
ATOM     40  C   UNL     1      -7.449  -9.841  10.758  1.00  0.00     0.074 A 
ATOM     41  C   UNL     1      -6.116  -9.514  10.302  1.00  0.00     0.031 C 
ATOM     42  C   UNL     1     -10.719  -4.420   9.635  1.00  0.00     0.029 A 
ATOM     43  C   UNL     1     -11.233  -5.671  10.184  1.00  0.00     0.049 A 
ATOM     44  H   UNL     1     -10.159  -7.404  10.607  1.00  0.00     0.167 HD
ATOM     45  C   UNL     1      -7.803 -11.038  11.283  1.00  0.00     0.037 A 
ATOM     46  C   UNL     1     -12.516  -5.911  10.517  1.00  0.00     0.037 A 
ATOM     47  C   UNL     1      -9.127 -11.352  11.754  1.00  0.00     0.049 A 
ATOM     48  C   UNL     1     -12.887  -7.255  11.085  1.00  0.00     0.074 A 
ATOM     49  C   UNL     1      -9.576 -12.518  12.349  1.00  0.00     0.029 A 
ATOM     50  N   UNL     1     -10.215 -10.495  11.680  1.00  0.00    -0.354 N 
ATOM     51  N   UNL     1     -12.126  -8.297  11.314  1.00  0.00    -0.248 NA
ATOM     52  C   UNL     1     -14.296  -7.451  11.451  1.00  0.00     0.031 C 
ATOM     53  C   UNL     1     -10.949 -12.388  12.583  1.00  0.00     0.029 A 
ATOM     54  C   UNL     1     -11.341 -11.116  12.199  1.00  0.00     0.049 A 
ATOM     55  H   UNL     1     -10.192  -9.582  11.314  1.00  0.00     0.167 HD
ATOM     56  C   UNL     1     -12.952  -9.256  11.886  1.00  0.00     0.074 A 
ATOM     57  C   UNL     1     -14.271  -8.667  11.979  1.00  0.00     0.031 C 
ATOM     58  C   UNL     1     -12.645 -10.510  12.300  1.00  0.00     0.037 A 
BRANCH  45  59
ATOM     59  C   UNL     1      -6.743 -12.099  11.373  1.00  0.00     0.064 A 
ATOM     60  C   UNL     1      -5.651 -11.978  12.247  1.00  0.00     0.173 A 
ATOM     61  C   UNL     1      -6.834 -13.266  10.600  1.00  0.00     0.173 A 
ATOM     62  F   UNL     1      -5.507 -10.878  13.002  1.00  0.00    -0.203 F 
ATOM     63  C   UNL     1      -4.674 -12.968  12.317  1.00  0.00     0.198 A 
ATOM     64  C   UNL     1      -5.875 -14.270  10.699  1.00  0.00     0.198 A 
ATOM     65  F   UNL     1      -7.860 -13.437   9.752  1.00  0.00    -0.203 F 
ATOM     66  F   UNL     1      -3.611 -12.803  13.117  1.00  0.00    -0.200 F 
ATOM     67  C   UNL     1      -4.791 -14.117  11.550  1.00  0.00     0.200 A 
ATOM     68  F   UNL     1      -5.999 -15.387   9.968  1.00  0.00    -0.200 F 
ATOM     69  F   UNL     1      -3.855 -15.073  11.624  1.00  0.00    -0.200 F 
ENDBRANCH  45  59
BRANCH  46  70
ATOM     70  C   UNL     1     -13.542  -4.848  10.345  1.00  0.00     0.064 A 
ATOM     71  C   UNL     1     -14.156  -4.252  11.456  1.00  0.00     0.173 A 
ATOM     72  C   UNL     1     -13.942  -4.416   9.072  1.00  0.00     0.173 A 
ATOM     73  F   UNL     1     -13.823  -4.644  12.695  1.00  0.00    -0.203 F 
ATOM     74  C   UNL     1     -15.149  -3.287  11.300  1.00  0.00     0.198 A 
ATOM     75  C   UNL     1     -14.911  -3.427   8.918  1.00  0.00     0.198 A 
ATOM     76  F   UNL     1     -13.383  -4.948   7.975  1.00  0.00    -0.203 F 
ATOM     77  F   UNL     1     -15.758  -2.775  12.379  1.00  0.00    -0.200 F 
ATOM     78  C   UNL     1     -15.522  -2.871  10.032  1.00  0.00     0.200 A 
ATOM     79  F   UNL     1     -15.257  -3.016   7.690  1.00  0.00    -0.200 F 
ATOM     80  F   UNL     1     -16.476  -1.942   9.882  1.00  0.00    -0.200 F 
ENDBRANCH  46  70
BRANCH  58  81
ATOM     81  C   UNL     1     -13.739 -11.313  12.947  1.00  0.00     0.064 A 
ATOM     82  C   UNL     1     -14.831 -11.805  12.218  1.00  0.00     0.173 A 
ATOM     83  C   UNL     1     -13.669 -11.624  14.315  1.00  0.00     0.173 A 
ATOM     84  F   UNL     1     -14.953 -11.526  10.912  1.00  0.00    -0.203 F 
ATOM     85  C   UNL     1     -15.830 -12.550  12.841  1.00  0.00     0.198 A 
ATOM     86  C   UNL     1     -14.650 -12.400  14.925  1.00  0.00     0.198 A 
ATOM     87  F   UNL     1     -12.641 -11.186  15.057  1.00  0.00    -0.203 F 
ATOM     88  F   UNL     1     -16.893 -12.961  12.136  1.00  0.00    -0.200 F 
ATOM     89  C   UNL     1     -15.734 -12.854  14.191  1.00  0.00     0.200 A 
ATOM     90  F   UNL     1     -14.546 -12.707  16.226  1.00  0.00    -0.200 F 
ATOM     91  F   UNL     1     -16.692 -13.578  14.786  1.00  0.00    -0.200 F 
ENDBRANCH  58  81
ENDBRANCH  32  33
ENDBRANCH  24  27
ENDBRANCH  22  23
ENDBRANCH  21  22
ENDBRANCH   1  21
TORSDOF 13
