REMARK SMILES Cc1nn(C)c(=O)c(C(=O)N2CCCC[C@H]2C(=O)NCCCCNC(=O)c2ccc(-c3c4nc(c(-c5c(F)c(F)c(F)c(F)c5F)c5ccc([nH]5)c(-c5c(F)c(F)c(F)c(F)c5F)c5nc(c(-c6c(F)c(F)c(F)c(F)c6F)c6ccc3[nH]6)C=C5)C=C4)cc2)c1C
REMARK SMILES IDX 21 1 20 2 19 3 17 4 18 5 16 7 11 8 12 9 13 10 15 11 14 12
REMARK SMILES IDX 9 13 10 14 8 15 1 16 2 17 3 18 90 19 4 20 91 21 5 22 6 23
REMARK SMILES IDX 7 24 22 25 23 26 24 27 25 28 26 30 27 31 28 32 89 33 29 34
REMARK SMILES IDX 88 35 30 36 31 37 32 38 82 39 33 40 87 41 81 42 83 43 34 44
REMARK SMILES IDX 86 45 80 46 79 47 35 49 67 50 47 51 66 52 48 53 51 54 65 55
REMARK SMILES IDX 84 56 49 57 50 58 64 60 85 61 52 62 36 63 37 64 45 65 38 66
REMARK SMILES IDX 39 67 43 68 46 69 40 70 41 71 44 72 42 73 68 74 69 75 77 76
REMARK SMILES IDX 70 77 71 78 75 79 78 80 72 81 73 82 76 83 74 84 53 85 54 86
REMARK SMILES IDX 62 87 55 88 56 89 60 90 63 91 57 92 58 93 61 94 59 95
REMARK H PARENT 19 6 24 29 83 48 51 59
REMARK Flexibility Score: inf
ROOT
ATOM      1  C   UNL     1      -1.386   3.001  -0.047  1.00  0.00     0.023 C 
ENDROOT
BRANCH   1   2
ATOM      2  C   UNL     1      -0.979   4.424  -0.414  1.00  0.00     0.116 C 
BRANCH   2   3
ATOM      3  N   UNL     1       0.290   4.827   0.165  1.00  0.00    -0.354 N 
ATOM      4  C   UNL     1       1.510   5.146  -0.350  1.00  0.00     0.242 C 
ATOM      5  O   UNL     1       2.349   5.495   0.493  1.00  0.00    -0.273 OA
ATOM      6  H   UNL     1       0.263   4.882   1.148  1.00  0.00     0.163 HD
BRANCH   4   7
ATOM      7  C   UNL     1       1.949   4.939  -1.840  1.00  0.00     0.174 C 
ATOM      8  N   UNL     1       0.901   4.797  -2.840  1.00  0.00    -0.326 N 
ATOM      9  C   UNL     1       0.230   6.076  -3.192  1.00  0.00     0.120 C 
ATOM     10  C   UNL     1       1.184   7.223  -3.512  1.00  0.00     0.022 C 
ATOM     11  C   UNL     1       2.950   6.048  -2.232  1.00  0.00     0.035 C 
ATOM     12  C   UNL     1       2.247   7.382  -2.439  1.00  0.00     0.004 C 
BRANCH   8  13
ATOM     13  C   UNL     1       0.325   3.623  -3.318  1.00  0.00     0.260 C 
ATOM     14  O   UNL     1      -0.731   3.755  -3.963  1.00  0.00    -0.269 OA
BRANCH  13  15
ATOM     15  C   UNL     1       0.697   2.154  -3.053  1.00  0.00     0.111 A 
ATOM     16  C   UNL     1       0.978  -0.686  -0.545  1.00  0.00     0.069 C 
ATOM     17  C   UNL     1       0.773   0.044  -1.864  1.00  0.00     0.062 A 
ATOM     18  N   UNL     1       0.077  -0.614  -2.727  1.00  0.00    -0.175 NA
ATOM     19  C   UNL     1       1.269   1.469  -2.028  1.00  0.00    -0.010 A 
ATOM     20  N   UNL     1      -0.184  -0.009  -3.906  1.00  0.00    -0.232 N 
ATOM     21  C   UNL     1       2.144   1.935  -0.907  1.00  0.00     0.047 C 
ATOM     22  C   UNL     1      -0.850  -0.837  -4.897  1.00  0.00     0.178 C 
ATOM     23  C   UNL     1       0.236   1.271  -4.211  1.00  0.00     0.279 A 
ATOM     24  O   UNL     1       0.283   1.688  -5.369  1.00  0.00    -0.267 OA
ENDBRANCH  13  15
ENDBRANCH   8  13
ENDBRANCH   4   7
ENDBRANCH   2   3
ENDBRANCH   1   2
BRANCH   1  25
ATOM     25  C   UNL     1      -1.869   2.819   1.385  1.00  0.00     0.023 C 
BRANCH  25  26
ATOM     26  C   UNL     1      -2.948   3.798   1.819  1.00  0.00     0.116 C 
BRANCH  26  27
ATOM     27  N   UNL     1      -4.072   3.888   0.895  1.00  0.00    -0.352 N 
ATOM     28  C   UNL     1      -5.399   4.080   1.199  1.00  0.00     0.251 C 
ATOM     29  H   UNL     1      -3.855   3.801  -0.061  1.00  0.00     0.163 HD
ATOM     30  O   UNL     1      -6.261   4.092   0.329  1.00  0.00    -0.269 OA
BRANCH  28  31
ATOM     31  C   UNL     1      -5.764   4.213   2.619  1.00  0.00     0.039 A 
ATOM     32  C   UNL     1      -6.654   3.291   3.168  1.00  0.00     0.014 A 
ATOM     33  C   UNL     1      -5.110   5.154   3.418  1.00  0.00     0.014 A 
ATOM     34  C   UNL     1      -6.824   3.254   4.550  1.00  0.00     0.010 A 
ATOM     35  C   UNL     1      -5.218   5.061   4.797  1.00  0.00     0.010 A 
ATOM     36  C   UNL     1      -6.069   4.105   5.374  1.00  0.00    -0.014 A 
BRANCH  36  37
ATOM     37  C   UNL     1      -6.155   4.019   6.849  1.00  0.00     0.031 A 
ATOM     38  C   UNL     1      -6.698   5.183   7.624  1.00  0.00     0.074 A 
ATOM     39  C   UNL     1      -5.686   2.930   7.486  1.00  0.00     0.049 A 
ATOM     40  N   UNL     1      -6.772   5.352   8.918  1.00  0.00    -0.248 NA
ATOM     41  C   UNL     1      -7.196   6.323   6.837  1.00  0.00     0.031 C 
ATOM     42  C   UNL     1      -5.098   1.756   6.837  1.00  0.00     0.029 A 
ATOM     43  N   UNL     1      -5.627   2.633   8.823  1.00  0.00    -0.354 N 
ATOM     44  C   UNL     1      -7.308   6.619   9.098  1.00  0.00     0.074 A 
ATOM     45  C   UNL     1      -7.486   7.200   7.786  1.00  0.00     0.031 C 
ATOM     46  C   UNL     1      -4.774   0.851   7.775  1.00  0.00     0.029 A 
ATOM     47  C   UNL     1      -5.098   1.395   9.091  1.00  0.00     0.049 A 
ATOM     48  H   UNL     1      -5.935   3.250   9.526  1.00  0.00     0.167 HD
ATOM     49  C   UNL     1      -7.649   7.230  10.256  1.00  0.00     0.037 A 
ATOM     50  C   UNL     1      -4.903   0.769  10.267  1.00  0.00     0.037 A 
ATOM     51  C   UNL     1      -7.501   6.634  11.555  1.00  0.00     0.049 A 
ATOM     52  C   UNL     1      -5.296   1.468  11.539  1.00  0.00     0.074 A 
ATOM     53  C   UNL     1      -7.843   7.157  12.789  1.00  0.00     0.029 A 
ATOM     54  N   UNL     1      -6.976   5.371  11.784  1.00  0.00    -0.354 N 
ATOM     55  N   UNL     1      -5.826   2.656  11.698  1.00  0.00    -0.248 NA
ATOM     56  C   UNL     1      -5.065   0.741  12.795  1.00  0.00     0.031 C 
ATOM     57  C   UNL     1      -7.503   6.219  13.768  1.00  0.00     0.029 A 
ATOM     58  C   UNL     1      -6.983   5.097  13.141  1.00  0.00     0.049 A 
ATOM     59  H   UNL     1      -6.648   4.760  11.086  1.00  0.00     0.167 HD
ATOM     60  C   UNL     1      -6.016   2.811  13.064  1.00  0.00     0.074 A 
ATOM     61  C   UNL     1      -5.551   1.590  13.691  1.00  0.00     0.031 C 
ATOM     62  C   UNL     1      -6.528   3.868  13.738  1.00  0.00     0.037 A 
BRANCH  49  63
ATOM     63  C   UNL     1      -8.235   8.606  10.159  1.00  0.00     0.064 A 
ATOM     64  C   UNL     1      -9.528   8.813   9.656  1.00  0.00     0.173 A 
ATOM     65  C   UNL     1      -7.510   9.726  10.592  1.00  0.00     0.173 A 
ATOM     66  F   UNL     1     -10.253   7.776   9.211  1.00  0.00    -0.203 F 
ATOM     67  C   UNL     1     -10.065  10.094   9.567  1.00  0.00     0.198 A 
ATOM     68  C   UNL     1      -8.061  11.002  10.527  1.00  0.00     0.198 A 
ATOM     69  F   UNL     1      -6.269   9.581  11.081  1.00  0.00    -0.203 F 
ATOM     70  F   UNL     1     -11.284  10.272   9.038  1.00  0.00    -0.200 F 
ATOM     71  C   UNL     1      -9.335  11.187  10.009  1.00  0.00     0.200 A 
ATOM     72  F   UNL     1      -7.358  12.057  10.962  1.00  0.00    -0.200 F 
ATOM     73  F   UNL     1      -9.855  12.419   9.928  1.00  0.00    -0.200 F 
ENDBRANCH  49  63
BRANCH  50  74
ATOM     74  C   UNL     1      -4.362  -0.613  10.288  1.00  0.00     0.064 A 
ATOM     75  C   UNL     1      -5.194  -1.698  10.595  1.00  0.00     0.173 A 
ATOM     76  C   UNL     1      -3.021  -0.883   9.979  1.00  0.00     0.173 A 
ATOM     77  F   UNL     1      -6.479  -1.485  10.914  1.00  0.00    -0.203 F 
ATOM     78  C   UNL     1      -4.705  -3.002  10.601  1.00  0.00     0.198 A 
ATOM     79  C   UNL     1      -2.538  -2.191   9.965  1.00  0.00     0.198 A 
ATOM     80  F   UNL     1      -2.186   0.120   9.673  1.00  0.00    -0.203 F 
ATOM     81  F   UNL     1      -5.516  -4.018  10.925  1.00  0.00    -0.200 F 
ATOM     82  C   UNL     1      -3.378  -3.248  10.280  1.00  0.00     0.200 A 
ATOM     83  F   UNL     1      -1.259  -2.426   9.642  1.00  0.00    -0.200 F 
ATOM     84  F   UNL     1      -2.910  -4.503  10.276  1.00  0.00    -0.200 F 
ENDBRANCH  50  74
BRANCH  62  85
ATOM     85  C   UNL     1      -6.643   3.748  15.227  1.00  0.00     0.064 A 
ATOM     86  C   UNL     1      -5.520   3.863  16.058  1.00  0.00     0.173 A 
ATOM     87  C   UNL     1      -7.900   3.593  15.830  1.00  0.00     0.173 A 
ATOM     88  F   UNL     1      -4.297   4.000  15.525  1.00  0.00    -0.203 F 
ATOM     89  C   UNL     1      -5.652   3.818  17.443  1.00  0.00     0.198 A 
ATOM     90  C   UNL     1      -8.030   3.572  17.215  1.00  0.00     0.198 A 
ATOM     91  F   UNL     1      -9.003   3.485  15.074  1.00  0.00    -0.203 F 
ATOM     92  F   UNL     1      -4.563   3.904  18.220  1.00  0.00    -0.200 F 
ATOM     93  C   UNL     1      -6.906   3.682  18.020  1.00  0.00     0.200 A 
ATOM     94  F   UNL     1      -9.243   3.452  17.771  1.00  0.00    -0.200 F 
ATOM     95  F   UNL     1      -7.032   3.655  19.354  1.00  0.00    -0.200 F 
ENDBRANCH  62  85
ENDBRANCH  36  37
ENDBRANCH  28  31
ENDBRANCH  26  27
ENDBRANCH  25  26
ENDBRANCH   1  25
TORSDOF 13
