REMARK SMILES CCc1c(Cl)ccc2c1C=C(C(=O)NCCCCNC(=O)c1ccc(-c3c4nc(c(-c5c(F)c(F)c(F)c(F)c5F)c5ccc([nH]5)c(-c5c(F)c(F)c(F)c(F)c5F)c5nc(c(-c6c(F)c(F)c(F)c(F)c6F)c6ccc3[nH]6)C=C5)C=C4)cc1)[C@@H](C(F)(F)F)O2
REMARK SMILES IDX 17 1 16 2 15 3 14 4 12 5 13 6 11 8 3 9 4 10 9 11 5 12 6 13
REMARK SMILES IDX 8 14 10 15 7 16 90 17 85 18 2 19 1 20 86 21 87 22 88 23
REMARK SMILES IDX 89 24 18 25 19 26 20 27 21 29 22 30 23 31 84 32 24 33 83 34
REMARK SMILES IDX 25 35 26 36 27 37 77 38 28 39 82 40 76 41 78 42 29 43 81 44
REMARK SMILES IDX 75 45 74 46 30 48 62 49 42 50 61 51 43 52 46 53 60 54 79 55
REMARK SMILES IDX 44 56 45 57 59 59 80 60 47 61 31 62 32 63 40 64 33 65 34 66
REMARK SMILES IDX 38 67 41 68 35 69 36 70 39 71 37 72 63 73 64 74 72 75 65 76
REMARK SMILES IDX 66 77 70 78 73 79 67 80 68 81 71 82 69 83 48 84 49 85 57 86
REMARK SMILES IDX 50 87 51 88 55 89 58 90 52 91 53 92 56 93 54 94
REMARK H PARENT 14 7 19 28 78 47 46 58
REMARK Flexibility Score: inf
ROOT
ATOM      1  C   UNL     1       3.942  -2.401   9.835  1.00  0.00     0.023 C 
ENDROOT
BRANCH   1   2
ATOM      2  C   UNL     1       3.668  -1.164   8.977  1.00  0.00     0.023 C 
BRANCH   2   3
ATOM      3  C   UNL     1       4.499  -1.084   7.699  1.00  0.00     0.116 C 
BRANCH   3   4
ATOM      4  N   UNL     1       3.919  -1.860   6.615  1.00  0.00    -0.352 N 
ATOM      5  C   UNL     1       3.232  -1.614   5.474  1.00  0.00     0.251 C 
ATOM      6  O   UNL     1       2.937  -2.618   4.818  1.00  0.00    -0.270 OA
ATOM      7  H   UNL     1       4.066  -2.825   6.745  1.00  0.00     0.163 HD
BRANCH   5   8
ATOM      8  C   UNL     1       2.818  -0.263   4.980  1.00  0.00     0.067 C 
ATOM      9  C   UNL     1       0.686   1.116   2.205  1.00  0.00    -0.019 A 
ATOM     10  C   UNL     1       0.238   2.400   1.808  1.00  0.00     0.045 A 
ATOM     11  C   UNL     1       1.481   1.014   3.378  1.00  0.00     0.022 A 
ATOM     12  Cl  UNL     1      -0.754   2.648   0.409  1.00  0.00    -0.084 Cl
ATOM     13  C   UNL     1       0.565   3.543   2.541  1.00  0.00     0.024 A 
ATOM     14  C   UNL     1       1.796   2.181   4.094  1.00  0.00     0.128 A 
ATOM     15  C   UNL     1       1.962  -0.255   3.939  1.00  0.00     0.026 C 
ATOM     16  C   UNL     1       1.341   3.432   3.684  1.00  0.00     0.048 A 
ATOM     17  O   UNL     1       2.511   2.189   5.256  1.00  0.00    -0.475 OA
ATOM     18  C   UNL     1       3.321   1.026   5.551  1.00  0.00     0.314 C 
BRANCH   9  19
ATOM     19  C   UNL     1       0.329  -0.093   1.358  1.00  0.00     0.034 C 
ATOM     20  C   UNL     1       1.256  -0.254   0.160  1.00  0.00     0.009 C 
ENDBRANCH   9  19
BRANCH  18  21
ATOM     21  C   UNL     1       4.783   1.317   5.168  1.00  0.00     0.429 C 
ATOM     22  F   UNL     1       5.291   2.301   5.951  1.00  0.00    -0.167 F 
ATOM     23  F   UNL     1       5.589   0.242   5.340  1.00  0.00    -0.167 F 
ATOM     24  F   UNL     1       4.917   1.710   3.882  1.00  0.00    -0.167 F 
ENDBRANCH  18  21
ENDBRANCH   5   8
ENDBRANCH   3   4
ENDBRANCH   2   3
ENDBRANCH   1   2
BRANCH   1  25
ATOM     25  C   UNL     1       5.398  -2.612  10.248  1.00  0.00     0.116 C 
BRANCH  25  26
ATOM     26  N   UNL     1       6.017  -1.459  10.887  1.00  0.00    -0.352 N 
ATOM     27  C   UNL     1       7.017  -1.445  11.833  1.00  0.00     0.251 C 
ATOM     28  H   UNL     1       5.677  -0.579  10.608  1.00  0.00     0.163 HD
ATOM     29  O   UNL     1       7.398  -0.389  12.329  1.00  0.00    -0.269 OA
BRANCH  27  30
ATOM     30  C   UNL     1       7.586  -2.729  12.289  1.00  0.00     0.039 A 
ATOM     31  C   UNL     1       8.014  -3.678  11.360  1.00  0.00     0.014 A 
ATOM     32  C   UNL     1       7.603  -3.016  13.656  1.00  0.00     0.014 A 
ATOM     33  C   UNL     1       8.281  -4.974  11.783  1.00  0.00     0.010 A 
ATOM     34  C   UNL     1       7.947  -4.300  14.087  1.00  0.00     0.010 A 
ATOM     35  C   UNL     1       8.226  -5.305  13.148  1.00  0.00    -0.014 A 
BRANCH  35  36
ATOM     36  C   UNL     1       8.422  -6.720  13.554  1.00  0.00     0.031 A 
ATOM     37  C   UNL     1       7.281  -7.519  14.124  1.00  0.00     0.074 A 
ATOM     38  C   UNL     1       9.608  -7.310  13.318  1.00  0.00     0.049 A 
ATOM     39  N   UNL     1       7.249  -8.784  14.463  1.00  0.00    -0.248 NA
ATOM     40  C   UNL     1       6.010  -6.811  14.346  1.00  0.00     0.031 C 
ATOM     41  C   UNL     1      10.781  -6.639  12.756  1.00  0.00     0.029 A 
ATOM     42  N   UNL     1      10.011  -8.611  13.480  1.00  0.00    -0.354 N 
ATOM     43  C   UNL     1       5.970  -9.016  14.951  1.00  0.00     0.074 A 
ATOM     44  C   UNL     1       5.258  -7.758  14.889  1.00  0.00     0.031 C 
ATOM     45  C   UNL     1      11.748  -7.546  12.554  1.00  0.00     0.029 A 
ATOM     46  C   UNL     1      11.283  -8.849  13.021  1.00  0.00     0.049 A 
ATOM     47  H   UNL     1       9.444  -9.305  13.886  1.00  0.00     0.167 HD
ATOM     48  C   UNL     1       5.435 -10.177  15.398  1.00  0.00     0.037 A 
ATOM     49  C   UNL     1      11.995  -9.990  12.977  1.00  0.00     0.037 A 
ATOM     50  C   UNL     1       6.131 -11.436  15.427  1.00  0.00     0.049 A 
ATOM     51  C   UNL     1      11.384 -11.258  13.498  1.00  0.00     0.074 A 
ATOM     52  C   UNL     1       5.663 -12.671  15.841  1.00  0.00     0.029 A 
ATOM     53  N   UNL     1       7.442 -11.622  15.015  1.00  0.00    -0.354 N 
ATOM     54  N   UNL     1      10.175 -11.461  13.960  1.00  0.00    -0.248 NA
ATOM     55  C   UNL     1      12.240 -12.453  13.504  1.00  0.00     0.031 C 
ATOM     56  C   UNL     1       6.701 -13.598  15.711  1.00  0.00     0.029 A 
ATOM     57  C   UNL     1       7.804 -12.948  15.182  1.00  0.00     0.049 A 
ATOM     58  H   UNL     1       8.028 -10.916  14.658  1.00  0.00     0.167 HD
ATOM     59  C   UNL     1      10.122 -12.802  14.311  1.00  0.00     0.074 A 
ATOM     60  C   UNL     1      11.414 -13.372  13.987  1.00  0.00     0.031 C 
ATOM     61  C   UNL     1       9.096 -13.496  14.859  1.00  0.00     0.037 A 
BRANCH  48  62
ATOM     62  C   UNL     1       4.021 -10.150  15.899  1.00  0.00     0.064 A 
ATOM     63  C   UNL     1       2.933 -10.080  15.018  1.00  0.00     0.173 A 
ATOM     64  C   UNL     1       3.752 -10.272  17.270  1.00  0.00     0.173 A 
ATOM     65  F   UNL     1       3.140  -9.951  13.699  1.00  0.00    -0.203 F 
ATOM     66  C   UNL     1       1.625 -10.122  15.493  1.00  0.00     0.198 A 
ATOM     67  C   UNL     1       2.443 -10.335  17.740  1.00  0.00     0.198 A 
ATOM     68  F   UNL     1       4.759 -10.348  18.153  1.00  0.00    -0.203 F 
ATOM     69  F   UNL     1       0.599 -10.028  14.636  1.00  0.00    -0.200 F 
ATOM     70  C   UNL     1       1.381 -10.258  16.852  1.00  0.00     0.200 A 
ATOM     71  F   UNL     1       2.209 -10.476  19.052  1.00  0.00    -0.200 F 
ATOM     72  F   UNL     1       0.121 -10.312  17.306  1.00  0.00    -0.200 F 
ENDBRANCH  48  62
BRANCH  49  73
ATOM     73  C   UNL     1      13.360  -9.975  12.396  1.00  0.00     0.064 A 
ATOM     74  C   UNL     1      13.615 -10.563  11.150  1.00  0.00     0.173 A 
ATOM     75  C   UNL     1      14.423  -9.336  13.050  1.00  0.00     0.173 A 
ATOM     76  F   UNL     1      12.632 -11.200  10.497  1.00  0.00    -0.203 F 
ATOM     77  C   UNL     1      14.884 -10.510  10.578  1.00  0.00     0.198 A 
ATOM     78  C   UNL     1      15.685  -9.264  12.467  1.00  0.00     0.198 A 
ATOM     79  F   UNL     1      14.225  -8.757  14.243  1.00  0.00    -0.203 F 
ATOM     80  F   UNL     1      15.108 -11.096   9.394  1.00  0.00    -0.200 F 
ATOM     81  C   UNL     1      15.915  -9.852  11.232  1.00  0.00     0.200 A 
ATOM     82  F   UNL     1      16.675  -8.614  13.095  1.00  0.00    -0.200 F 
ATOM     83  F   UNL     1      17.131  -9.787  10.674  1.00  0.00    -0.200 F 
ENDBRANCH  49  73
BRANCH  61  84
ATOM     84  C   UNL     1       9.323 -14.947  15.148  1.00  0.00     0.064 A 
ATOM     85  C   UNL     1      10.073 -15.356  16.260  1.00  0.00     0.173 A 
ATOM     86  C   UNL     1       8.727 -15.936  14.352  1.00  0.00     0.173 A 
ATOM     87  F   UNL     1      10.671 -14.445  17.042  1.00  0.00    -0.203 F 
ATOM     88  C   UNL     1      10.225 -16.706  16.559  1.00  0.00     0.198 A 
ATOM     89  C   UNL     1       8.865 -17.284  14.666  1.00  0.00     0.198 A 
ATOM     90  F   UNL     1       7.995 -15.591  13.281  1.00  0.00    -0.203 F 
ATOM     91  F   UNL     1      10.966 -17.078  17.613  1.00  0.00    -0.200 F 
ATOM     92  C   UNL     1       9.615 -17.668  15.768  1.00  0.00     0.200 A 
ATOM     93  F   UNL     1       8.267 -18.213  13.906  1.00  0.00    -0.200 F 
ATOM     94  F   UNL     1       9.753 -18.968  16.065  1.00  0.00    -0.200 F 
ENDBRANCH  61  84
ENDBRANCH  35  36
ENDBRANCH  27  30
ENDBRANCH  25  26
ENDBRANCH   1  25
TORSDOF 13
