REMARK SMILES COc1ccc(-c2cc(CC3(C(=O)NCCCCNC(=O)c4ccc(-c5c6nc(c(-c7c(F)c(F)c(F)c(F)c7F)c7ccc([nH]7)c(-c7c(F)c(F)c(F)c(F)c7F)c7nc(c(-c8c(F)c(F)c(F)c(F)c8F)c8ccc5[nH]8)C=C7)C=C6)cc4)CCN(C(=O)C4CCCC4)CC3)on2)cc1
REMARK SMILES IDX 15 1 14 2 12 3 13 4 11 6 85 7 96 8 86 9 95 10 87 11 88 12
REMARK SMILES IDX 89 13 10 14 9 15 7 16 8 17 98 18 97 19 6 20 3 21 4 22 100 23
REMARK SMILES IDX 5 24 99 25 2 26 1 27 90 28 91 29 94 30 92 31 93 32 16 33
REMARK SMILES IDX 17 34 18 35 19 36 20 37 21 39 22 40 23 41 84 42 24 43 83 44
REMARK SMILES IDX 25 45 26 46 27 47 77 48 28 49 82 50 76 51 78 52 29 53 81 54
REMARK SMILES IDX 75 55 74 56 30 58 62 59 42 60 61 61 43 62 46 63 60 64 79 65
REMARK SMILES IDX 44 66 45 67 59 69 80 70 47 71 31 72 32 73 40 74 33 75 34 76
REMARK SMILES IDX 38 77 41 78 35 79 36 80 39 81 37 82 63 83 64 84 72 85 65 86
REMARK SMILES IDX 66 87 70 88 73 89 67 90 68 91 71 92 69 93 48 94 49 95 57 96
REMARK SMILES IDX 50 97 51 98 55 99 58 100 52 101 53 102 56 103 54 104
REMARK H PARENT 14 5 19 38 78 57 46 68
REMARK Flexibility Score: inf
ROOT
ATOM      1  C   UNL     1       1.637  -7.283 -11.534  1.00  0.00     0.116 C 
ENDROOT
BRANCH   1   2
ATOM      2  N   UNL     1       3.026  -7.024 -11.185  1.00  0.00    -0.356 N 
ATOM      3  C   UNL     1       3.590  -6.219 -10.240  1.00  0.00     0.226 C 
ATOM      4  O   UNL     1       4.823  -6.225 -10.192  1.00  0.00    -0.274 OA
ATOM      5  H   UNL     1       3.677  -7.521 -11.731  1.00  0.00     0.163 HD
BRANCH   3   6
ATOM      6  C   UNL     1       2.741  -5.372  -9.256  1.00  0.00     0.060 C 
ATOM      7  C   UNL     1       1.883  -4.371 -10.081  1.00  0.00     0.039 C 
ATOM      8  C   UNL     1       1.930  -6.362  -8.374  1.00  0.00     0.039 C 
ATOM      9  C   UNL     1       0.497  -4.049  -9.529  1.00  0.00     0.120 C 
ATOM     10  C   UNL     1       0.589  -5.841  -7.876  1.00  0.00     0.120 C 
ATOM     11  N   UNL     1      -0.168  -5.207  -8.942  1.00  0.00    -0.342 N 
ATOM     12  C   UNL     1      -1.487  -5.453  -9.294  1.00  0.00     0.225 C 
ATOM     13  O   UNL     1      -2.046  -4.781 -10.169  1.00  0.00    -0.275 OA
BRANCH   6  14
ATOM     14  C   UNL     1       3.764  -4.588  -8.366  1.00  0.00     0.095 C 
BRANCH  14  15
ATOM     15  C   UNL     1       3.154  -3.758  -7.298  1.00  0.00     0.138 A 
ATOM     16  C   UNL     1       2.237  -2.770  -5.555  1.00  0.00     0.114 A 
ATOM     17  C   UNL     1       2.971  -3.916  -5.946  1.00  0.00     0.077 A 
ATOM     18  N   UNL     1       2.030  -1.956  -6.598  1.00  0.00    -0.080 NA
ATOM     19  O   UNL     1       2.643  -2.558  -7.677  1.00  0.00    -0.361 OA
BRANCH  16  20
ATOM     20  C   UNL     1       1.756  -2.435  -4.231  1.00  0.00     0.004 A 
ATOM     21  C   UNL     1       0.845  -1.697  -1.695  1.00  0.00     0.118 A 
ATOM     22  C   UNL     1      -0.046  -2.228  -2.629  1.00  0.00     0.047 A 
ATOM     23  C   UNL     1       2.199  -1.579  -2.010  1.00  0.00     0.047 A 
ATOM     24  C   UNL     1       0.403  -2.584  -3.903  1.00  0.00     0.014 A 
ATOM     25  C   UNL     1       2.654  -1.946  -3.277  1.00  0.00     0.014 A 
BRANCH  21  26
ATOM     26  O   UNL     1       0.317  -1.359  -0.479  1.00  0.00    -0.497 OA
ATOM     27  C   UNL     1       0.813  -0.124   0.035  1.00  0.00     0.278 C 
ENDBRANCH  21  26
ENDBRANCH  16  20
ENDBRANCH  14  15
ENDBRANCH   6  14
BRANCH  12  28
ATOM     28  C   UNL     1      -2.295  -6.576  -8.649  1.00  0.00     0.078 C 
ATOM     29  C   UNL     1      -1.754  -7.978  -8.903  1.00  0.00     0.013 C 
ATOM     30  C   UNL     1      -2.530  -6.459  -7.143  1.00  0.00     0.013 C 
ATOM     31  C   UNL     1      -2.380  -8.817  -7.802  1.00  0.00     0.001 C 
ATOM     32  C   UNL     1      -2.523  -7.888  -6.602  1.00  0.00     0.001 C 
ENDBRANCH  12  28
ENDBRANCH   3   6
ENDBRANCH   1   2
BRANCH   1  33
ATOM     33  C   UNL     1       1.325  -6.884 -12.975  1.00  0.00     0.023 C 
BRANCH  33  34
ATOM     34  C   UNL     1       2.026  -7.729 -14.038  1.00  0.00     0.023 C 
BRANCH  34  35
ATOM     35  C   UNL     1       1.783  -9.231 -13.937  1.00  0.00     0.116 C 
BRANCH  35  36
ATOM     36  N   UNL     1       0.374  -9.588 -14.011  1.00  0.00    -0.352 N 
ATOM     37  C   UNL     1      -0.249 -10.519 -14.809  1.00  0.00     0.251 C 
ATOM     38  H   UNL     1      -0.219  -9.092 -13.401  1.00  0.00     0.163 HD
ATOM     39  O   UNL     1      -1.469 -10.607 -14.826  1.00  0.00    -0.269 OA
BRANCH  37  40
ATOM     40  C   UNL     1       0.567 -11.390 -15.680  1.00  0.00     0.039 A 
ATOM     41  C   UNL     1       0.223 -11.504 -17.029  1.00  0.00     0.014 A 
ATOM     42  C   UNL     1       1.687 -12.056 -15.177  1.00  0.00     0.014 A 
ATOM     43  C   UNL     1       1.056 -12.213 -17.895  1.00  0.00     0.010 A 
ATOM     44  C   UNL     1       2.555 -12.700 -16.054  1.00  0.00     0.010 A 
ATOM     45  C   UNL     1       2.255 -12.772 -17.423  1.00  0.00    -0.014 A 
BRANCH  45  46
ATOM     46  C   UNL     1       3.230 -13.398 -18.350  1.00  0.00     0.031 A 
ATOM     47  C   UNL     1       3.566 -14.855 -18.229  1.00  0.00     0.074 A 
ATOM     48  C   UNL     1       3.884 -12.626 -19.240  1.00  0.00     0.049 A 
ATOM     49  N   UNL     1       4.459 -15.556 -18.881  1.00  0.00    -0.248 NA
ATOM     50  C   UNL     1       2.820 -15.620 -17.219  1.00  0.00     0.031 C 
ATOM     51  C   UNL     1       3.691 -11.185 -19.410  1.00  0.00     0.029 A 
ATOM     52  N   UNL     1       4.861 -12.941 -20.151  1.00  0.00    -0.354 N 
ATOM     53  C   UNL     1       4.390 -16.838 -18.354  1.00  0.00     0.074 A 
ATOM     54  C   UNL     1       3.409 -16.805 -17.290  1.00  0.00     0.031 C 
ATOM     55  C   UNL     1       4.517 -10.742 -20.370  1.00  0.00     0.029 A 
ATOM     56  C   UNL     1       5.324 -11.857 -20.856  1.00  0.00     0.049 A 
ATOM     57  H   UNL     1       5.197 -13.856 -20.287  1.00  0.00     0.167 HD
ATOM     58  C   UNL     1       5.067 -17.947 -18.737  1.00  0.00     0.037 A 
ATOM     59  C   UNL     1       6.302 -11.766 -21.777  1.00  0.00     0.037 A 
ATOM     60  C   UNL     1       6.033 -17.976 -19.805  1.00  0.00     0.049 A 
ATOM     61  C   UNL     1       7.046 -13.007 -22.183  1.00  0.00     0.074 A 
ATOM     62  C   UNL     1       6.718 -19.063 -20.319  1.00  0.00     0.029 A 
ATOM     63  N   UNL     1       6.460 -16.863 -20.515  1.00  0.00    -0.354 N 
ATOM     64  N   UNL     1       6.914 -14.233 -21.737  1.00  0.00    -0.248 NA
ATOM     65  C   UNL     1       8.072 -12.855 -23.225  1.00  0.00     0.031 C 
ATOM     66  C   UNL     1       7.598 -18.599 -21.304  1.00  0.00     0.029 A 
ATOM     67  C   UNL     1       7.423 -17.231 -21.441  1.00  0.00     0.049 A 
ATOM     68  H   UNL     1       6.127 -15.946 -20.380  1.00  0.00     0.167 HD
ATOM     69  C   UNL     1       7.826 -14.999 -22.449  1.00  0.00     0.074 A 
ATOM     70  C   UNL     1       8.492 -14.104 -23.373  1.00  0.00     0.031 C 
ATOM     71  C   UNL     1       8.088 -16.326 -22.345  1.00  0.00     0.037 A 
BRANCH  58  72
ATOM     72  C   UNL     1       4.785 -19.219 -17.990  1.00  0.00     0.064 A 
ATOM     73  C   UNL     1       3.550 -19.876 -18.095  1.00  0.00     0.173 A 
ATOM     74  C   UNL     1       5.766 -19.795 -17.169  1.00  0.00     0.173 A 
ATOM     75  F   UNL     1       2.574 -19.362 -18.858  1.00  0.00    -0.203 F 
ATOM     76  C   UNL     1       3.292 -21.039 -17.373  1.00  0.00     0.198 A 
ATOM     77  C   UNL     1       5.516 -20.977 -16.474  1.00  0.00     0.198 A 
ATOM     78  F   UNL     1       6.967 -19.213 -17.037  1.00  0.00    -0.203 F 
ATOM     79  F   UNL     1       2.083 -21.613 -17.442  1.00  0.00    -0.200 F 
ATOM     80  C   UNL     1       4.276 -21.591 -16.568  1.00  0.00     0.200 A 
ATOM     81  F   UNL     1       6.473 -21.516 -15.707  1.00  0.00    -0.200 F 
ATOM     82  F   UNL     1       4.027 -22.710 -15.874  1.00  0.00    -0.200 F 
ENDBRANCH  58  72
BRANCH  59  83
ATOM     83  C   UNL     1       6.621 -10.445 -22.378  1.00  0.00     0.064 A 
ATOM     84  C   UNL     1       6.290 -10.158 -23.708  1.00  0.00     0.173 A 
ATOM     85  C   UNL     1       7.237  -9.435 -21.624  1.00  0.00     0.173 A 
ATOM     86  F   UNL     1       5.718 -11.099 -24.473  1.00  0.00    -0.203 F 
ATOM     87  C   UNL     1       6.571  -8.912 -24.266  1.00  0.00     0.198 A 
ATOM     88  C   UNL     1       7.493  -8.181 -22.175  1.00  0.00     0.198 A 
ATOM     89  F   UNL     1       7.568  -9.659 -20.344  1.00  0.00    -0.203 F 
ATOM     90  F   UNL     1       6.273  -8.674 -25.550  1.00  0.00    -0.200 F 
ATOM     91  C   UNL     1       7.164  -7.922 -23.497  1.00  0.00     0.200 A 
ATOM     92  F   UNL     1       8.052  -7.223 -21.423  1.00  0.00    -0.200 F 
ATOM     93  F   UNL     1       7.422  -6.721 -24.030  1.00  0.00    -0.200 F 
ENDBRANCH  59  83
BRANCH  71  94
ATOM     94  C   UNL     1       9.136 -16.892 -23.257  1.00  0.00     0.064 A 
ATOM     95  C   UNL     1      10.499 -16.623 -23.064  1.00  0.00     0.173 A 
ATOM     96  C   UNL     1       8.778 -17.750 -24.309  1.00  0.00     0.173 A 
ATOM     97  F   UNL     1      10.891 -15.796 -22.083  1.00  0.00    -0.203 F 
ATOM     98  C   UNL     1      11.464 -17.176 -23.902  1.00  0.00     0.198 A 
ATOM     99  C   UNL     1       9.748 -18.324 -25.127  1.00  0.00     0.198 A 
ATOM    100  F   UNL     1       7.489 -18.043 -24.534  1.00  0.00    -0.203 F 
ATOM    101  F   UNL     1      12.757 -16.872 -23.725  1.00  0.00    -0.200 F 
ATOM    102  C   UNL     1      11.088 -18.032 -24.927  1.00  0.00     0.200 A 
ATOM    103  F   UNL     1       9.384 -19.161 -26.108  1.00  0.00    -0.200 F 
ATOM    104  F   UNL     1      12.019 -18.572 -25.726  1.00  0.00    -0.200 F 
ENDBRANCH  71  94
ENDBRANCH  45  46
ENDBRANCH  37  40
ENDBRANCH  35  36
ENDBRANCH  34  35
ENDBRANCH  33  34
ENDBRANCH   1  33
TORSDOF 16
