REMARK SMILES CCOC(=O)CN(C)C(=O)N1CC[C@H](C(=O)NCCCCNC(=O)c2ccc(-c3c4nc(c(-c5c(F)c(F)c(F)c(F)c5F)c5ccc([nH]5)c(-c5c(F)c(F)c(F)c(F)c5F)c5nc(c(-c6c(F)c(F)c(F)c(F)c6F)c6ccc3[nH]6)C=C5)C=C4)cc2)[C@H]1C
REMARK SMILES IDX 15 1 16 2 17 3 14 5 11 6 12 7 88 8 13 9 89 10 9 11 10 12
REMARK SMILES IDX 7 13 8 14 6 15 4 16 5 17 3 18 2 19 1 20 18 21 19 22 20 23
REMARK SMILES IDX 21 24 22 25 23 26 24 28 25 29 26 30 87 31 27 32 86 33 28 34
REMARK SMILES IDX 29 35 30 36 80 37 31 38 85 39 79 40 81 41 32 42 84 43 78 44
REMARK SMILES IDX 77 45 33 47 65 48 45 49 64 50 46 51 49 52 63 53 82 54 47 55
REMARK SMILES IDX 48 56 62 58 83 59 50 60 34 61 35 62 43 63 36 64 37 65 41 66
REMARK SMILES IDX 44 67 38 68 39 69 42 70 40 71 66 72 67 73 75 74 68 75 69 76
REMARK SMILES IDX 73 77 76 78 70 79 71 80 74 81 72 82 51 83 52 84 60 85 53 86
REMARK SMILES IDX 54 87 58 88 61 89 55 90 56 91 59 92 57 93
REMARK H PARENT 17 4 22 27 81 46 49 57
REMARK Flexibility Score: inf
ROOT
ATOM      1  C   UNL     1       3.641   6.847  -3.438  1.00  0.00     0.225 C 
ATOM      2  O   UNL     1       4.189   5.986  -4.124  1.00  0.00    -0.275 OA
ATOM      3  N   UNL     1       4.374   7.942  -3.086  1.00  0.00    -0.356 N 
ATOM      4  H   UNL     1       5.318   7.921  -3.364  1.00  0.00     0.163 HD
ENDROOT
BRANCH   1   5
ATOM      5  C   UNL     1       2.179   6.775  -3.026  1.00  0.00     0.102 C 
ATOM      6  N   UNL     1       1.876   4.950  -1.512  1.00  0.00    -0.321 N 
ATOM      7  C   UNL     1       1.722   4.447  -2.874  1.00  0.00     0.122 C 
ATOM      8  C   UNL     1       1.992   6.425  -1.527  1.00  0.00     0.096 C 
ATOM      9  C   UNL     1       1.423   5.654  -3.736  1.00  0.00     0.037 C 
ATOM     10  C   UNL     1       0.728   7.158  -1.052  1.00  0.00     0.032 C 
BRANCH   6  11
ATOM     11  C   UNL     1       2.422   4.056  -0.613  1.00  0.00     0.320 C 
ATOM     12  O   UNL     1       2.932   3.004  -1.013  1.00  0.00    -0.248 OA
BRANCH  11  13
ATOM     13  N   UNL     1       2.367   4.300   0.741  1.00  0.00    -0.317 N 
ATOM     14  C   UNL     1       1.435   5.181   1.405  1.00  0.00     0.149 C 
BRANCH  13  15
ATOM     15  C   UNL     1       3.089   3.343   1.592  1.00  0.00     0.243 C 
BRANCH  15  16
ATOM     16  C   UNL     1       2.442   1.960   1.752  1.00  0.00     0.325 C 
ATOM     17  O   UNL     1       3.002   1.030   2.325  1.00  0.00    -0.250 OA
BRANCH  16  18
ATOM     18  O   UNL     1       1.176   1.906   1.250  1.00  0.00    -0.465 OA
BRANCH  18  19
ATOM     19  C   UNL     1       0.565   0.608   1.214  1.00  0.00     0.229 C 
ATOM     20  C   UNL     1       0.880  -0.069  -0.108  1.00  0.00     0.049 C 
ENDBRANCH  18  19
ENDBRANCH  16  18
ENDBRANCH  15  16
ENDBRANCH  13  15
ENDBRANCH  11  13
ENDBRANCH   6  11
ENDBRANCH   1   5
BRANCH   3  21
ATOM     21  C   UNL     1       3.970   9.133  -2.364  1.00  0.00     0.116 C 
BRANCH  21  22
ATOM     22  C   UNL     1       4.846   9.371  -1.137  1.00  0.00     0.023 C 
BRANCH  22  23
ATOM     23  C   UNL     1       6.327   9.612  -1.442  1.00  0.00     0.023 C 
BRANCH  23  24
ATOM     24  C   UNL     1       6.617  10.765  -2.397  1.00  0.00     0.116 C 
BRANCH  24  25
ATOM     25  N   UNL     1       6.169  12.049  -1.883  1.00  0.00    -0.352 N 
ATOM     26  C   UNL     1       6.862  13.227  -1.750  1.00  0.00     0.251 C 
ATOM     27  H   UNL     1       5.230  12.079  -1.586  1.00  0.00     0.163 HD
ATOM     28  O   UNL     1       6.357  14.172  -1.148  1.00  0.00    -0.269 OA
BRANCH  26  29
ATOM     29  C   UNL     1       8.229  13.353  -2.301  1.00  0.00     0.039 A 
ATOM     30  C   UNL     1       9.220  13.948  -1.514  1.00  0.00     0.014 A 
ATOM     31  C   UNL     1       8.540  12.884  -3.580  1.00  0.00     0.014 A 
ATOM     32  C   UNL     1      10.535  14.004  -1.980  1.00  0.00     0.010 A 
ATOM     33  C   UNL     1       9.865  12.871  -4.011  1.00  0.00     0.010 A 
ATOM     34  C   UNL     1      10.878  13.425  -3.214  1.00  0.00    -0.014 A 
BRANCH  34  35
ATOM     35  C   UNL     1      12.292  13.371  -3.671  1.00  0.00     0.031 A 
ATOM     36  C   UNL     1      12.715  14.083  -4.927  1.00  0.00     0.074 A 
ATOM     37  C   UNL     1      13.183  12.626  -2.988  1.00  0.00     0.049 A 
ATOM     38  N   UNL     1      13.884  14.096  -5.517  1.00  0.00    -0.248 NA
ATOM     39  C   UNL     1      11.683  14.863  -5.627  1.00  0.00     0.031 C 
ATOM     40  C   UNL     1      12.888  11.850  -1.782  1.00  0.00     0.029 A 
ATOM     41  N   UNL     1      14.516  12.387  -3.216  1.00  0.00    -0.354 N 
ATOM     42  C   UNL     1      13.725  14.873  -6.657  1.00  0.00     0.074 A 
ATOM     43  C   UNL     1      12.335  15.270  -6.706  1.00  0.00     0.031 C 
ATOM     44  C   UNL     1      14.008  11.240  -1.365  1.00  0.00     0.029 A 
ATOM     45  C   UNL     1      15.091  11.542  -2.296  1.00  0.00     0.049 A 
ATOM     46  H   UNL     1      15.014  12.783  -3.967  1.00  0.00     0.167 HD
ATOM     47  C   UNL     1      14.659  15.239  -7.568  1.00  0.00     0.037 A 
ATOM     48  C   UNL     1      16.344  11.054  -2.219  1.00  0.00     0.037 A 
ATOM     49  C   UNL     1      16.046  14.857  -7.506  1.00  0.00     0.049 A 
ATOM     50  C   UNL     1      17.355  11.463  -3.257  1.00  0.00     0.074 A 
ATOM     51  C   UNL     1      17.080  15.227  -8.348  1.00  0.00     0.029 A 
ATOM     52  N   UNL     1      16.592  14.011  -6.553  1.00  0.00    -0.354 N 
ATOM     53  N   UNL     1      17.210  12.260  -4.287  1.00  0.00    -0.248 NA
ATOM     54  C   UNL     1      18.709  10.908  -3.117  1.00  0.00     0.031 C 
ATOM     55  C   UNL     1      18.238  14.559  -7.941  1.00  0.00     0.029 A 
ATOM     56  C   UNL     1      17.943  13.824  -6.804  1.00  0.00     0.049 A 
ATOM     57  H   UNL     1      16.094  13.602  -5.808  1.00  0.00     0.167 HD
ATOM     58  C   UNL     1      18.456  12.328  -4.896  1.00  0.00     0.074 A 
ATOM     59  C   UNL     1      19.351  11.505  -4.110  1.00  0.00     0.031 C 
ATOM     60  C   UNL     1      18.826  13.011  -6.007  1.00  0.00     0.037 A 
BRANCH  47  61
ATOM     61  C   UNL     1      14.216  16.102  -8.716  1.00  0.00     0.064 A 
ATOM     62  C   UNL     1      13.835  17.439  -8.529  1.00  0.00     0.173 A 
ATOM     63  C   UNL     1      14.231  15.602 -10.027  1.00  0.00     0.173 A 
ATOM     64  F   UNL     1      13.794  17.964  -7.295  1.00  0.00    -0.203 F 
ATOM     65  C   UNL     1      13.461  18.236  -9.609  1.00  0.00     0.198 A 
ATOM     66  C   UNL     1      13.888  16.412 -11.108  1.00  0.00     0.198 A 
ATOM     67  F   UNL     1      14.594  14.333 -10.264  1.00  0.00    -0.203 F 
ATOM     68  F   UNL     1      13.057  19.497  -9.400  1.00  0.00    -0.200 F 
ATOM     69  C   UNL     1      13.497  17.725 -10.897  1.00  0.00     0.200 A 
ATOM     70  F   UNL     1      13.940  15.921 -12.354  1.00  0.00    -0.200 F 
ATOM     71  F   UNL     1      13.151  18.497 -11.936  1.00  0.00    -0.200 F 
ENDBRANCH  47  61
BRANCH  48  72
ATOM     72  C   UNL     1      16.721  10.131  -1.115  1.00  0.00     0.064 A 
ATOM     73  C   UNL     1      17.640  10.519  -0.131  1.00  0.00     0.173 A 
ATOM     74  C   UNL     1      16.190   8.835  -1.034  1.00  0.00     0.173 A 
ATOM     75  F   UNL     1      18.192  11.740  -0.175  1.00  0.00    -0.203 F 
ATOM     76  C   UNL     1      18.038   9.637   0.873  1.00  0.00     0.198 A 
ATOM     77  C   UNL     1      16.561   7.966  -0.010  1.00  0.00     0.198 A 
ATOM     78  F   UNL     1      15.302   8.414  -1.947  1.00  0.00    -0.203 F 
ATOM     79  F   UNL     1      18.963  10.015   1.765  1.00  0.00    -0.200 F 
ATOM     80  C   UNL     1      17.494   8.364   0.935  1.00  0.00     0.200 A 
ATOM     81  F   UNL     1      16.020   6.742   0.056  1.00  0.00    -0.200 F 
ATOM     82  F   UNL     1      17.876   7.516   1.901  1.00  0.00    -0.200 F 
ENDBRANCH  48  72
BRANCH  60  83
ATOM     83  C   UNL     1      20.270  12.938  -6.416  1.00  0.00     0.064 A 
ATOM     84  C   UNL     1      20.835  11.763  -6.934  1.00  0.00     0.173 A 
ATOM     85  C   UNL     1      21.090  14.073  -6.323  1.00  0.00     0.173 A 
ATOM     86  F   UNL     1      20.099  10.645  -7.030  1.00  0.00    -0.203 F 
ATOM     87  C   UNL     1      22.174  11.719  -7.314  1.00  0.00     0.198 A 
ATOM     88  C   UNL     1      22.419  14.036  -6.738  1.00  0.00     0.198 A 
ATOM     89  F   UNL     1      20.599  15.226  -5.843  1.00  0.00    -0.203 F 
ATOM     90  F   UNL     1      22.706  10.570  -7.754  1.00  0.00    -0.200 F 
ATOM     91  C   UNL     1      22.962  12.857  -7.224  1.00  0.00     0.200 A 
ATOM     92  F   UNL     1      23.173  15.141  -6.666  1.00  0.00    -0.200 F 
ATOM     93  F   UNL     1      24.247  12.815  -7.599  1.00  0.00    -0.200 F 
ENDBRANCH  60  83
ENDBRANCH  34  35
ENDBRANCH  26  29
ENDBRANCH  24  25
ENDBRANCH  23  24
ENDBRANCH  22  23
ENDBRANCH  21  22
ENDBRANCH   3  21
TORSDOF 17
