REMARK SMILES Cc1c(C(=O)NCCCCNC(=O)c2ccc(-c3c4nc(c(-c5c(F)c(F)c(F)c(F)c5F)c5ccc([nH]5)c(-c5c(F)c(F)c(F)c(F)c5F)c5nc(c(-c6c(F)c(F)c(F)c(F)c6F)c6ccc3[nH]6)C=C5)C=C4)cc2)cccc1N1[C@@H](C)C=C(/C=C(\C#N)C(=O)NCCc2c[nH]c3ccccc23)[C@@H]1C
REMARK SMILES IDX 4 1 5 2 6 3 3 5 1 6 2 7 80 8 77 9 79 10 78 11 81 12 82 13
REMARK SMILES IDX 104 14 84 15 83 16 85 17 105 18 86 19 87 20 88 21 89 22
REMARK SMILES IDX 90 23 91 24 92 25 93 27 94 28 95 29 96 30 103 31 97 32 98 33
REMARK SMILES IDX 102 34 99 36 101 37 100 38 7 39 8 40 9 41 10 42 11 43 12 44
REMARK SMILES IDX 13 46 14 47 15 48 76 49 16 50 75 51 17 52 18 53 19 54 69 55
REMARK SMILES IDX 20 56 74 57 68 58 70 59 21 60 73 61 67 62 66 63 22 65 54 66
REMARK SMILES IDX 34 67 53 68 35 69 38 70 52 71 71 72 36 73 37 74 51 76 72 77
REMARK SMILES IDX 39 78 23 79 24 80 32 81 25 82 26 83 30 84 33 85 27 86 28 87
REMARK SMILES IDX 31 88 29 89 55 90 56 91 64 92 57 93 58 94 62 95 65 96 59 97
REMARK SMILES IDX 60 98 63 99 61 100 40 101 41 102 49 103 42 104 43 105 47 106
REMARK SMILES IDX 50 107 44 108 45 109 48 110 46 111
REMARK H PARENT 6 4 92 26 97 35 11 45 70 64 38 75
REMARK Flexibility Score: inf
ROOT
ATOM      1  C   UNL     1       0.847  -2.344   0.132  1.00  0.00     0.251 C 
ATOM      2  O   UNL     1       0.066  -3.301   0.236  1.00  0.00    -0.269 OA
ATOM      3  N   UNL     1       2.150  -2.749   0.154  1.00  0.00    -0.352 N 
ATOM      4  H   UNL     1       2.228  -3.717   0.316  1.00  0.00     0.163 HD
ENDROOT
BRANCH   1   5
ATOM      5  C   UNL     1       0.262  -0.952  -0.027  1.00  0.00     0.044 A 
ATOM      6  C   UNL     1       2.257   0.612   0.422  1.00  0.00     0.047 C 
ATOM      7  C   UNL     1       0.849   0.344  -0.004  1.00  0.00    -0.015 A 
ATOM      8  C   UNL     1       0.048   1.506  -0.218  1.00  0.00     0.041 A 
ATOM      9  C   UNL     1      -1.150  -1.004  -0.131  1.00  0.00     0.014 A 
ATOM     10  C   UNL     1      -1.342   1.373  -0.307  1.00  0.00     0.026 A 
ATOM     11  C   UNL     1      -1.945   0.131  -0.238  1.00  0.00     0.003 A 
BRANCH   8  12
ATOM     12  N   UNL     1       0.567   2.786  -0.154  1.00  0.00    -0.358 N 
ATOM     13  C   UNL     1       0.286   3.620   1.021  1.00  0.00     0.103 C 
ATOM     14  C   UNL     1       1.678   3.302  -0.974  1.00  0.00     0.110 C 
ATOM     15  C   UNL     1       1.423   4.585   0.970  1.00  0.00     0.003 C 
ATOM     16  C   UNL     1       0.368   2.878   2.361  1.00  0.00     0.035 C 
ATOM     17  C   UNL     1       2.274   4.339  -0.037  1.00  0.00    -0.026 C 
ATOM     18  C   UNL     1       1.127   3.927  -2.257  1.00  0.00     0.036 C 
BRANCH  17  19
ATOM     19  C   UNL     1       3.586   4.921  -0.246  1.00  0.00     0.031 C 
ATOM     20  C   UNL     1       4.334   5.644   0.623  1.00  0.00     0.117 C 
BRANCH  20  21
ATOM     21  C   UNL     1       3.918   5.965   1.935  1.00  0.00     0.105 C 
ATOM     22  N   UNL     1       3.565   6.257   3.012  1.00  0.00    -0.192 NA
ENDBRANCH  20  21
BRANCH  20  23
ATOM     23  C   UNL     1       5.536   6.322   0.057  1.00  0.00     0.261 C 
ATOM     24  O   UNL     1       5.850   6.188  -1.127  1.00  0.00    -0.268 OA
ATOM     25  N   UNL     1       6.136   7.312   0.775  1.00  0.00    -0.351 N 
ATOM     26  H   UNL     1       6.189   8.172   0.300  1.00  0.00     0.163 HD
BRANCH  25  27
ATOM     27  C   UNL     1       6.721   7.340   2.128  1.00  0.00     0.121 C 
BRANCH  27  28
ATOM     28  C   UNL     1       8.105   6.636   2.292  1.00  0.00     0.059 C 
BRANCH  28  29
ATOM     29  C   UNL     1       9.263   7.290   1.527  1.00  0.00    -0.021 A 
ATOM     30  C   UNL     1       9.281   8.652   1.227  1.00  0.00     0.087 A 
ATOM     31  C   UNL     1       9.849   6.785   0.321  1.00  0.00     0.003 A 
ATOM     32  N   UNL     1       8.643   8.593  -0.020  1.00  0.00    -0.361 N 
ATOM     33  C   UNL     1       9.153   7.483  -0.667  1.00  0.00     0.046 A 
ATOM     34  C   UNL     1      10.819   5.853  -0.084  1.00  0.00     0.010 A 
ATOM     35  H   UNL     1       7.966   9.218  -0.366  1.00  0.00     0.166 HD
ATOM     36  C   UNL     1       9.120   7.100  -2.004  1.00  0.00     0.026 A 
ATOM     37  C   UNL     1      10.967   5.611  -1.461  1.00  0.00     0.001 A 
ATOM     38  C   UNL     1      10.077   6.160  -2.390  1.00  0.00     0.002 A 
ENDBRANCH  28  29
ENDBRANCH  27  28
ENDBRANCH  25  27
ENDBRANCH  20  23
ENDBRANCH  17  19
ENDBRANCH   8  12
ENDBRANCH   1   5
BRANCH   3  39
ATOM     39  C   UNL     1       3.437  -2.128   0.001  1.00  0.00     0.116 C 
BRANCH  39  40
ATOM     40  C   UNL     1       4.024  -1.700   1.361  1.00  0.00     0.023 C 
BRANCH  40  41
ATOM     41  C   UNL     1       5.017  -2.667   1.978  1.00  0.00     0.023 C 
BRANCH  41  42
ATOM     42  C   UNL     1       6.264  -2.799   1.139  1.00  0.00     0.116 C 
BRANCH  42  43
ATOM     43  N   UNL     1       7.322  -1.836   1.356  1.00  0.00    -0.352 N 
ATOM     44  C   UNL     1       8.597  -1.855   0.806  1.00  0.00     0.251 C 
ATOM     45  H   UNL     1       7.115  -1.086   1.960  1.00  0.00     0.163 HD
ATOM     46  O   UNL     1       9.475  -1.142   1.282  1.00  0.00    -0.269 OA
BRANCH  44  47
ATOM     47  C   UNL     1       8.844  -2.567  -0.485  1.00  0.00     0.039 A 
ATOM     48  C   UNL     1       9.673  -1.912  -1.405  1.00  0.00     0.014 A 
ATOM     49  C   UNL     1       7.969  -3.540  -0.941  1.00  0.00     0.014 A 
ATOM     50  C   UNL     1       9.363  -1.970  -2.756  1.00  0.00     0.010 A 
ATOM     51  C   UNL     1       7.497  -3.420  -2.215  1.00  0.00     0.010 A 
ATOM     52  C   UNL     1       8.177  -2.597  -3.106  1.00  0.00    -0.014 A 
BRANCH  52  53
ATOM     53  C   UNL     1       7.632  -2.690  -4.435  1.00  0.00     0.031 A 
ATOM     54  C   UNL     1       8.098  -3.859  -5.194  1.00  0.00     0.074 A 
ATOM     55  C   UNL     1       6.577  -1.896  -4.720  1.00  0.00     0.049 A 
ATOM     56  N   UNL     1       7.913  -4.028  -6.445  1.00  0.00    -0.248 NA
ATOM     57  C   UNL     1       8.857  -4.955  -4.583  1.00  0.00     0.031 C 
ATOM     58  C   UNL     1       5.609  -1.967  -5.807  1.00  0.00     0.029 A 
ATOM     59  N   UNL     1       6.294  -0.660  -4.112  1.00  0.00    -0.354 N 
ATOM     60  C   UNL     1       8.237  -5.335  -6.745  1.00  0.00     0.074 A 
ATOM     61  C   UNL     1       8.926  -5.833  -5.586  1.00  0.00     0.031 C 
ATOM     62  C   UNL     1       5.134  -0.725  -6.036  1.00  0.00     0.029 A 
ATOM     63  C   UNL     1       5.879   0.182  -5.175  1.00  0.00     0.049 A 
ATOM     64  H   UNL     1       6.368  -0.430  -3.157  1.00  0.00     0.167 HD
ATOM     65  C   UNL     1       7.742  -5.840  -7.909  1.00  0.00     0.037 A 
ATOM     66  C   UNL     1       6.747   1.155  -5.595  1.00  0.00     0.037 A 
ATOM     67  C   UNL     1       7.063  -4.760  -8.632  1.00  0.00     0.049 A 
ATOM     68  C   UNL     1       7.359   0.826  -6.947  1.00  0.00     0.074 A 
ATOM     69  C   UNL     1       5.758  -4.300  -8.667  1.00  0.00     0.029 A 
ATOM     70  N   UNL     1       7.846  -3.717  -9.079  1.00  0.00    -0.354 N 
ATOM     71  N   UNL     1       7.259  -0.342  -7.529  1.00  0.00    -0.248 NA
ATOM     72  C   UNL     1       8.152   1.767  -7.732  1.00  0.00     0.031 C 
ATOM     73  C   UNL     1       5.797  -2.923  -9.067  1.00  0.00     0.029 A 
ATOM     74  C   UNL     1       7.117  -2.565  -9.286  1.00  0.00     0.049 A 
ATOM     75  H   UNL     1       8.815  -3.787  -9.234  1.00  0.00     0.167 HD
ATOM     76  C   UNL     1       7.881  -0.315  -8.742  1.00  0.00     0.074 A 
ATOM     77  C   UNL     1       8.488   1.009  -8.791  1.00  0.00     0.031 C 
ATOM     78  C   UNL     1       7.847  -1.354  -9.632  1.00  0.00     0.037 A 
BRANCH  65  79
ATOM     79  C   UNL     1       7.692  -7.281  -8.353  1.00  0.00     0.064 A 
ATOM     80  C   UNL     1       6.872  -7.628  -9.451  1.00  0.00     0.173 A 
ATOM     81  C   UNL     1       8.369  -8.367  -7.764  1.00  0.00     0.173 A 
ATOM     82  F   UNL     1       6.197  -6.697 -10.140  1.00  0.00    -0.203 F 
ATOM     83  C   UNL     1       6.707  -8.943  -9.887  1.00  0.00     0.198 A 
ATOM     84  C   UNL     1       8.196  -9.688  -8.197  1.00  0.00     0.198 A 
ATOM     85  F   UNL     1       9.244  -8.209  -6.769  1.00  0.00    -0.203 F 
ATOM     86  F   UNL     1       5.901  -9.199 -10.927  1.00  0.00    -0.200 F 
ATOM     87  C   UNL     1       7.361  -9.977  -9.255  1.00  0.00     0.200 A 
ATOM     88  F   UNL     1       8.853 -10.681  -7.577  1.00  0.00    -0.200 F 
ATOM     89  F   UNL     1       7.199 -11.240  -9.669  1.00  0.00    -0.200 F 
ENDBRANCH  65  79
BRANCH  66  90
ATOM     90  C   UNL     1       7.446   1.776  -4.416  1.00  0.00     0.064 A 
ATOM     91  C   UNL     1       6.613   2.256  -3.374  1.00  0.00     0.173 A 
ATOM     92  C   UNL     1       8.754   1.419  -4.073  1.00  0.00     0.173 A 
ATOM     93  F   UNL     1       5.358   2.652  -3.648  1.00  0.00    -0.203 F 
ATOM     94  C   UNL     1       6.976   2.108  -2.038  1.00  0.00     0.198 A 
ATOM     95  C   UNL     1       9.142   1.355  -2.731  1.00  0.00     0.198 A 
ATOM     96  F   UNL     1       9.611   0.988  -5.011  1.00  0.00    -0.203 F 
ATOM     97  F   UNL     1       6.066   2.313  -1.073  1.00  0.00    -0.200 F 
ATOM     98  C   UNL     1       8.228   1.617  -1.718  1.00  0.00     0.200 A 
ATOM     99  F   UNL     1      10.370   0.917  -2.417  1.00  0.00    -0.200 F 
ATOM    100  F   UNL     1       8.530   1.338  -0.442  1.00  0.00    -0.200 F 
ENDBRANCH  66  90
BRANCH  78 101
ATOM    101  C   UNL     1       8.562  -1.284 -10.949  1.00  0.00     0.064 A 
ATOM    102  C   UNL     1       8.478  -0.151 -11.767  1.00  0.00     0.173 A 
ATOM    103  C   UNL     1       9.309  -2.367 -11.462  1.00  0.00     0.173 A 
ATOM    104  F   UNL     1       7.687   0.880 -11.432  1.00  0.00    -0.203 F 
ATOM    105  C   UNL     1       9.213  -0.050 -12.945  1.00  0.00     0.198 A 
ATOM    106  C   UNL     1       9.969  -2.297 -12.682  1.00  0.00     0.198 A 
ATOM    107  F   UNL     1       9.469  -3.512 -10.785  1.00  0.00    -0.203 F 
ATOM    108  F   UNL     1       9.210   1.101 -13.629  1.00  0.00    -0.200 F 
ATOM    109  C   UNL     1       9.958  -1.123 -13.402  1.00  0.00     0.200 A 
ATOM    110  F   UNL     1      10.640  -3.367 -13.133  1.00  0.00    -0.200 F 
ATOM    111  F   UNL     1      10.672  -1.022 -14.530  1.00  0.00    -0.200 F 
ENDBRANCH  78 101
ENDBRANCH  52  53
ENDBRANCH  44  47
ENDBRANCH  42  43
ENDBRANCH  41  42
ENDBRANCH  40  41
ENDBRANCH  39  40
ENDBRANCH   3  39
TORSDOF 18
