REMARK SMILES COc1ccc(S(=O)(=O)N2CCC[C@H](C(=O)N3CCC[C@H](C(=O)NCCCCNC(=O)c4ccc(-c5c6nc(c(-c7c(F)c(F)c(F)c(F)c7F)c7ccc([nH]7)c(-c7c(F)c(F)c(F)c(F)c7F)c7nc(c(-c8c(F)c(F)c(F)c(F)c8F)c8ccc5[nH]8)C=C7)C=C6)cc4)C3)C2)cc1
REMARK SMILES IDX 25 1 24 2 22 3 23 4 21 6 17 7 18 8 95 9 19 10 20 11 15 12
REMARK SMILES IDX 16 13 14 14 10 15 11 16 96 17 12 18 13 19 7 20 8 21 9 22
REMARK SMILES IDX 6 23 3 24 4 25 98 26 5 27 97 28 2 29 1 30 26 31 27 32 28 33
REMARK SMILES IDX 29 34 30 35 31 37 32 38 33 39 94 40 34 41 93 42 35 43 36 44
REMARK SMILES IDX 37 45 87 46 38 47 92 48 86 49 88 50 39 51 91 52 85 53 84 54
REMARK SMILES IDX 40 56 72 57 52 58 71 59 53 60 56 61 70 62 89 63 54 64 55 65
REMARK SMILES IDX 69 67 90 68 57 69 41 70 42 71 50 72 43 73 44 74 48 75 51 76
REMARK SMILES IDX 45 77 46 78 49 79 47 80 73 81 74 82 82 83 75 84 76 85 80 86
REMARK SMILES IDX 83 87 77 88 78 89 81 90 79 91 58 92 59 93 67 94 60 95 61 96
REMARK SMILES IDX 65 97 68 98 62 99 63 100 66 101 64 102
REMARK H PARENT 24 5 29 36 88 55 56 66
REMARK Flexibility Score: inf
ROOT
ATOM      1  C   UNL     1       7.096  -9.348  -6.253  1.00  0.00     0.116 C 
ENDROOT
BRANCH   1   2
ATOM      2  N   UNL     1       7.678  -8.683  -7.391  1.00  0.00    -0.356 N 
ATOM      3  C   UNL     1       7.207  -7.634  -8.111  1.00  0.00     0.224 C 
ATOM      4  O   UNL     1       7.998  -7.107  -8.901  1.00  0.00    -0.275 OA
ATOM      5  H   UNL     1       8.545  -9.043  -7.690  1.00  0.00     0.163 HD
BRANCH   3   6
ATOM      6  C   UNL     1       5.782  -7.078  -7.990  1.00  0.00     0.098 C 
ATOM      7  N   UNL     1       4.807  -7.008  -5.674  1.00  0.00    -0.342 N 
ATOM      8  C   UNL     1       3.621  -7.753  -6.087  1.00  0.00     0.119 C 
ATOM      9  C   UNL     1       5.513  -6.277  -6.714  1.00  0.00     0.133 C 
ATOM     10  C   UNL     1       3.873  -8.684  -7.267  1.00  0.00     0.022 C 
ATOM     11  C   UNL     1       4.655  -8.031  -8.405  1.00  0.00     0.017 C 
BRANCH   7  12
ATOM     12  C   UNL     1       5.285  -7.176  -4.390  1.00  0.00     0.227 C 
ATOM     13  O   UNL     1       5.363  -8.305  -3.889  1.00  0.00    -0.275 OA
BRANCH  12  14
ATOM     14  C   UNL     1       5.483  -5.963  -3.478  1.00  0.00     0.094 C 
ATOM     15  N   UNL     1       3.156  -5.170  -3.605  1.00  0.00    -0.197 NA
ATOM     16  C   UNL     1       3.487  -4.006  -4.447  1.00  0.00     0.102 C 
ATOM     17  C   UNL     1       4.180  -5.750  -2.719  1.00  0.00     0.116 C 
ATOM     18  C   UNL     1       4.971  -3.732  -4.669  1.00  0.00     0.018 C 
ATOM     19  C   UNL     1       5.996  -4.627  -3.984  1.00  0.00     0.016 C 
BRANCH  15  20
ATOM     20  S   UNL     1       1.525  -5.362  -3.164  1.00  0.00     0.243 S 
ATOM     21  O   UNL     1       1.376  -6.630  -2.495  1.00  0.00    -0.207 OA
ATOM     22  O   UNL     1       0.733  -5.026  -4.335  1.00  0.00    -0.207 OA
BRANCH  20  23
ATOM     23  C   UNL     1       1.181  -4.098  -1.956  1.00  0.00     0.082 A 
ATOM     24  C   UNL     1       0.490  -2.025  -0.220  1.00  0.00     0.118 A 
ATOM     25  C   UNL     1      -0.492  -2.898  -0.690  1.00  0.00     0.048 A 
ATOM     26  C   UNL     1       1.824  -2.227  -0.566  1.00  0.00     0.048 A 
ATOM     27  C   UNL     1      -0.153  -3.929  -1.569  1.00  0.00     0.025 A 
ATOM     28  C   UNL     1       2.170  -3.259  -1.438  1.00  0.00     0.025 A 
BRANCH  24  29
ATOM     29  O   UNL     1       0.068  -1.014   0.599  1.00  0.00    -0.497 OA
ATOM     30  C   UNL     1       0.702   0.236   0.331  1.00  0.00     0.278 C 
ENDBRANCH  24  29
ENDBRANCH  20  23
ENDBRANCH  15  20
ENDBRANCH  12  14
ENDBRANCH   7  12
ENDBRANCH   3   6
ENDBRANCH   1   2
BRANCH   1  31
ATOM     31  C   UNL     1       6.889 -10.844  -6.444  1.00  0.00     0.023 C 
BRANCH  31  32
ATOM     32  C   UNL     1       7.973 -11.709  -5.816  1.00  0.00     0.023 C 
BRANCH  32  33
ATOM     33  C   UNL     1       8.188 -11.505  -4.319  1.00  0.00     0.116 C 
BRANCH  33  34
ATOM     34  N   UNL     1       7.010 -11.739  -3.493  1.00  0.00    -0.352 N 
ATOM     35  C   UNL     1       6.951 -12.386  -2.277  1.00  0.00     0.251 C 
ATOM     36  H   UNL     1       6.157 -11.394  -3.844  1.00  0.00     0.163 HD
ATOM     37  O   UNL     1       5.891 -12.591  -1.700  1.00  0.00    -0.269 OA
BRANCH  35  38
ATOM     38  C   UNL     1       8.216 -12.874  -1.692  1.00  0.00     0.039 A 
ATOM     39  C   UNL     1       8.357 -14.235  -1.416  1.00  0.00     0.014 A 
ATOM     40  C   UNL     1       9.296 -11.998  -1.550  1.00  0.00     0.014 A 
ATOM     41  C   UNL     1       9.619 -14.738  -1.097  1.00  0.00     0.010 A 
ATOM     42  C   UNL     1      10.564 -12.514  -1.317  1.00  0.00     0.010 A 
ATOM     43  C   UNL     1      10.741 -13.891  -1.103  1.00  0.00    -0.014 A 
BRANCH  43  44
ATOM     44  C   UNL     1      12.113 -14.424  -0.912  1.00  0.00     0.031 A 
ATOM     45  C   UNL     1      12.937 -13.974   0.260  1.00  0.00     0.074 A 
ATOM     46  C   UNL     1      12.651 -15.236  -1.843  1.00  0.00     0.049 A 
ATOM     47  N   UNL     1      14.183 -14.247   0.550  1.00  0.00    -0.248 NA
ATOM     48  C   UNL     1      12.282 -13.063   1.212  1.00  0.00     0.031 C 
ATOM     49  C   UNL     1      11.982 -15.685  -3.066  1.00  0.00     0.029 A 
ATOM     50  N   UNL     1      13.893 -15.816  -1.914  1.00  0.00    -0.354 N 
ATOM     51  C   UNL     1      14.465 -13.528   1.704  1.00  0.00     0.074 A 
ATOM     52  C   UNL     1      13.282 -12.760   2.025  1.00  0.00     0.031 C 
ATOM     53  C   UNL     1      12.812 -16.487  -3.753  1.00  0.00     0.029 A 
ATOM     54  C   UNL     1      14.080 -16.585  -3.037  1.00  0.00     0.049 A 
ATOM     55  H   UNL     1      14.585 -15.694  -1.224  1.00  0.00     0.167 HD
ATOM     56  C   UNL     1      15.598 -13.530   2.445  1.00  0.00     0.037 A 
ATOM     57  C   UNL     1      15.154 -17.288  -3.443  1.00  0.00     0.037 A 
ATOM     58  C   UNL     1      16.761 -14.321   2.143  1.00  0.00     0.049 A 
ATOM     59  C   UNL     1      16.388 -17.306  -2.584  1.00  0.00     0.074 A 
ATOM     60  C   UNL     1      17.935 -14.443   2.865  1.00  0.00     0.029 A 
ATOM     61  N   UNL     1      16.893 -15.130   1.024  1.00  0.00    -0.354 N 
ATOM     62  N   UNL     1      16.619 -16.679  -1.457  1.00  0.00    -0.248 NA
ATOM     63  C   UNL     1      17.507 -18.138  -3.048  1.00  0.00     0.031 C 
ATOM     64  C   UNL     1      18.790 -15.303   2.168  1.00  0.00     0.029 A 
ATOM     65  C   UNL     1      18.134 -15.747   1.030  1.00  0.00     0.049 A 
ATOM     66  H   UNL     1      16.207 -15.248   0.328  1.00  0.00     0.167 HD
ATOM     67  C   UNL     1      17.897 -17.053  -1.066  1.00  0.00     0.074 A 
ATOM     68  C   UNL     1      18.387 -17.977  -2.069  1.00  0.00     0.031 C 
ATOM     69  C   UNL     1      18.602 -16.666   0.025  1.00  0.00     0.037 A 
BRANCH  56  70
ATOM     70  C   UNL     1      15.619 -12.657   3.665  1.00  0.00     0.064 A 
ATOM     71  C   UNL     1      14.837 -12.954   4.792  1.00  0.00     0.173 A 
ATOM     72  C   UNL     1      16.432 -11.515   3.712  1.00  0.00     0.173 A 
ATOM     73  F   UNL     1      14.031 -14.027   4.790  1.00  0.00    -0.203 F 
ATOM     74  C   UNL     1      14.838 -12.119   5.905  1.00  0.00     0.198 A 
ATOM     75  C   UNL     1      16.453 -10.698   4.840  1.00  0.00     0.198 A 
ATOM     76  F   UNL     1      17.202 -11.188   2.664  1.00  0.00    -0.203 F 
ATOM     77  F   UNL     1      14.037 -12.390   6.944  1.00  0.00    -0.200 F 
ATOM     78  C   UNL     1      15.649 -10.995   5.931  1.00  0.00     0.200 A 
ATOM     79  F   UNL     1      17.245  -9.618   4.868  1.00  0.00    -0.200 F 
ATOM     80  F   UNL     1      15.649 -10.191   7.003  1.00  0.00    -0.200 F 
ENDBRANCH  56  70
BRANCH  57  81
ATOM     81  C   UNL     1      15.093 -18.064  -4.708  1.00  0.00     0.064 A 
ATOM     82  C   UNL     1      15.018 -19.464  -4.688  1.00  0.00     0.173 A 
ATOM     83  C   UNL     1      15.095 -17.427  -5.957  1.00  0.00     0.173 A 
ATOM     84  F   UNL     1      15.034 -20.118  -3.518  1.00  0.00    -0.203 F 
ATOM     85  C   UNL     1      14.964 -20.199  -5.871  1.00  0.00     0.198 A 
ATOM     86  C   UNL     1      15.017 -18.162  -7.138  1.00  0.00     0.198 A 
ATOM     87  F   UNL     1      15.160 -16.090  -6.028  1.00  0.00    -0.203 F 
ATOM     88  F   UNL     1      14.931 -21.537  -5.824  1.00  0.00    -0.200 F 
ATOM     89  C   UNL     1      14.958 -19.547  -7.095  1.00  0.00     0.200 A 
ATOM     90  F   UNL     1      14.999 -17.528  -8.319  1.00  0.00    -0.200 F 
ATOM     91  F   UNL     1      14.900 -20.253  -8.232  1.00  0.00    -0.200 F 
ENDBRANCH  57  81
BRANCH  69  92
ATOM     92  C   UNL     1      19.968 -17.257   0.205  1.00  0.00     0.064 A 
ATOM     93  C   UNL     1      21.052 -16.851  -0.587  1.00  0.00     0.173 A 
ATOM     94  C   UNL     1      20.204 -18.206   1.211  1.00  0.00     0.173 A 
ATOM     95  F   UNL     1      20.872 -15.957  -1.571  1.00  0.00    -0.203 F 
ATOM     96  C   UNL     1      22.321 -17.388  -0.390  1.00  0.00     0.198 A 
ATOM     97  C   UNL     1      21.480 -18.722   1.421  1.00  0.00     0.198 A 
ATOM     98  F   UNL     1      19.201 -18.622   1.997  1.00  0.00    -0.203 F 
ATOM     99  F   UNL     1      23.335 -17.015  -1.183  1.00  0.00    -0.200 F 
ATOM    100  C   UNL     1      22.535 -18.317   0.618  1.00  0.00     0.200 A 
ATOM    101  F   UNL     1      21.687 -19.612   2.402  1.00  0.00    -0.200 F 
ATOM    102  F   UNL     1      23.759 -18.828   0.811  1.00  0.00    -0.200 F 
ENDBRANCH  69  92
ENDBRANCH  43  44
ENDBRANCH  35  38
ENDBRANCH  33  34
ENDBRANCH  32  33
ENDBRANCH  31  32
ENDBRANCH   1  31
TORSDOF 16
