REMARK SMILES CC[NH2+][C@]1(C(=O)NCCCCNC(=O)c2ccc(-c3c4nc(c(-c5c(F)c(F)c(F)c(F)c5F)c5ccc([nH]5)c(-c5c(F)c(F)c(F)c(F)c5F)c5nc(c(-c6c(F)c(F)c(F)c(F)c6F)c6ccc3[nH]6)C=C5)C=C4)cc2)CC[C@@H](Sc2ccccc2C)C1
REMARK SMILES IDX 9 1 8 2 7 3 5 4 6 5 4 7 78 8 89 9 79 10 80 11 3 12 2 15 1 16
REMARK SMILES IDX 81 17 82 18 83 19 87 20 84 21 86 22 88 23 85 24 10 25 11 26
REMARK SMILES IDX 12 27 13 28 14 30 15 31 16 32 77 33 17 34 76 35 18 36 19 37
REMARK SMILES IDX 20 38 70 39 21 40 75 41 69 42 71 43 22 44 74 45 68 46 67 47
REMARK SMILES IDX 23 49 55 50 35 51 54 52 36 53 39 54 53 55 72 56 37 57 38 58
REMARK SMILES IDX 52 60 73 61 40 62 24 63 25 64 33 65 26 66 27 67 31 68 34 69
REMARK SMILES IDX 28 70 29 71 32 72 30 73 56 74 57 75 65 76 58 77 59 78 63 79
REMARK SMILES IDX 66 80 60 81 61 82 64 83 62 84 41 85 42 86 50 87 43 88 44 89
REMARK SMILES IDX 48 90 51 91 45 92 46 93 49 94 47 95
REMARK H PARENT 7 6 3 13 3 14 12 29 71 48 39 59
REMARK Flexibility Score: inf
ROOT
ATOM      1  C   UNL     1       2.458   1.038  -2.805  1.00  0.00     0.023 C 
ENDROOT
BRANCH   1   2
ATOM      2  C   UNL     1       2.693  -0.464  -2.719  1.00  0.00     0.116 C 
BRANCH   2   3
ATOM      3  N   UNL     1       1.909  -1.108  -1.686  1.00  0.00    -0.351 N 
ATOM      4  C   UNL     1       1.143  -2.234  -1.662  1.00  0.00     0.281 C 
ATOM      5  O   UNL     1       0.795  -2.590  -0.526  1.00  0.00    -0.268 OA
ATOM      6  H   UNL     1       1.934  -0.634  -0.824  1.00  0.00     0.163 HD
BRANCH   4   7
ATOM      7  C   UNL     1       0.587  -2.972  -2.942  1.00  0.00     0.176 C 
ATOM      8  C   UNL     1       1.497  -2.945  -4.176  1.00  0.00     0.080 C 
ATOM      9  C   UNL     1       0.531  -4.488  -2.602  1.00  0.00     0.094 C 
ATOM     10  C   UNL     1       1.278  -4.243  -4.930  1.00  0.00     0.022 C 
ATOM     11  C   UNL     1       0.968  -5.267  -3.849  1.00  0.00     0.058 C 
BRANCH   7  12
ATOM     12  N   UNL     1      -0.768  -2.408  -3.159  1.00  0.00    -0.334 N 
ATOM     13  H   UNL     1      -1.270  -2.488  -2.275  1.00  0.00     0.347 HD
ATOM     14  H   UNL     1      -0.588  -1.463  -3.499  1.00  0.00     0.347 HD
BRANCH  12  15
ATOM     15  C   UNL     1      -1.619  -2.989  -4.186  1.00  0.00     0.257 C 
ATOM     16  C   UNL     1      -3.069  -2.592  -3.934  1.00  0.00     0.071 C 
ENDBRANCH  12  15
ENDBRANCH   7  12
BRANCH  11  17
ATOM     17  S   UNL     1       2.285  -6.521  -3.549  1.00  0.00    -0.122 SA
BRANCH  17  18
ATOM     18  C   UNL     1       3.758  -5.564  -3.185  1.00  0.00     0.010 A 
ATOM     19  C   UNL     1       4.626  -5.297  -4.259  1.00  0.00     0.015 A 
ATOM     20  C   UNL     1       4.169  -5.223  -1.882  1.00  0.00    -0.038 A 
ATOM     21  C   UNL     1       5.859  -4.670  -4.059  1.00  0.00     0.001 A 
ATOM     22  C   UNL     1       5.402  -4.564  -1.701  1.00  0.00     0.004 A 
ATOM     23  C   UNL     1       3.379  -5.523  -0.636  1.00  0.00     0.045 C 
ATOM     24  C   UNL     1       6.244  -4.298  -2.778  1.00  0.00     0.000 A 
ENDBRANCH  17  18
ENDBRANCH  11  17
ENDBRANCH   4   7
ENDBRANCH   2   3
ENDBRANCH   1   2
BRANCH   1  25
ATOM     25  C   UNL     1       3.005   1.862  -1.643  1.00  0.00     0.023 C 
BRANCH  25  26
ATOM     26  C   UNL     1       4.481   1.659  -1.316  1.00  0.00     0.116 C 
BRANCH  26  27
ATOM     27  N   UNL     1       5.368   1.832  -2.458  1.00  0.00    -0.352 N 
ATOM     28  C   UNL     1       6.539   2.548  -2.558  1.00  0.00     0.251 C 
ATOM     29  H   UNL     1       5.088   1.368  -3.280  1.00  0.00     0.163 HD
ATOM     30  O   UNL     1       7.117   2.643  -3.631  1.00  0.00    -0.269 OA
BRANCH  28  31
ATOM     31  C   UNL     1       7.075   3.240  -1.367  1.00  0.00     0.039 A 
ATOM     32  C   UNL     1       7.441   4.584  -1.478  1.00  0.00     0.014 A 
ATOM     33  C   UNL     1       7.182   2.579  -0.141  1.00  0.00     0.014 A 
ATOM     34  C   UNL     1       7.830   5.291  -0.338  1.00  0.00     0.010 A 
ATOM     35  C   UNL     1       7.498   3.302   1.006  1.00  0.00     0.010 A 
ATOM     36  C   UNL     1       7.816   4.667   0.920  1.00  0.00    -0.014 A 
BRANCH  36  37
ATOM     37  C   UNL     1       8.111   5.426   2.162  1.00  0.00     0.031 A 
ATOM     38  C   UNL     1       9.305   5.065   3.001  1.00  0.00     0.074 A 
ATOM     39  C   UNL     1       7.255   6.381   2.579  1.00  0.00     0.049 A 
ATOM     40  N   UNL     1       9.676   5.541   4.162  1.00  0.00    -0.248 NA
ATOM     41  C   UNL     1      10.185   4.006   2.480  1.00  0.00     0.031 C 
ATOM     42  C   UNL     1       6.030   6.784   1.885  1.00  0.00     0.029 A 
ATOM     43  N   UNL     1       7.275   7.175   3.699  1.00  0.00    -0.354 N 
ATOM     44  C   UNL     1      10.808   4.824   4.521  1.00  0.00     0.074 A 
ATOM     45  C   UNL     1      11.046   3.853   3.475  1.00  0.00     0.031 C 
ATOM     46  C   UNL     1       5.426   7.758   2.584  1.00  0.00     0.029 A 
ATOM     47  C   UNL     1       6.199   8.025   3.793  1.00  0.00     0.049 A 
ATOM     48  H   UNL     1       7.993   7.140   4.372  1.00  0.00     0.167 HD
ATOM     49  C   UNL     1      11.590   4.975   5.616  1.00  0.00     0.037 A 
ATOM     50  C   UNL     1       5.869   8.911   4.752  1.00  0.00     0.037 A 
ATOM     51  C   UNL     1      11.382   5.976   6.628  1.00  0.00     0.049 A 
ATOM     52  C   UNL     1       6.773   9.072   5.945  1.00  0.00     0.074 A 
ATOM     53  C   UNL     1      12.175   6.271   7.723  1.00  0.00     0.029 A 
ATOM     54  N   UNL     1      10.305   6.848   6.667  1.00  0.00    -0.354 N 
ATOM     55  N   UNL     1       7.892   8.450   6.227  1.00  0.00    -0.248 NA
ATOM     56  C   UNL     1       6.372  10.066   6.952  1.00  0.00     0.031 C 
ATOM     57  C   UNL     1      11.556   7.294   8.448  1.00  0.00     0.029 A 
ATOM     58  C   UNL     1      10.401   7.666   7.780  1.00  0.00     0.049 A 
ATOM     59  H   UNL     1       9.579   6.880   6.002  1.00  0.00     0.167 HD
ATOM     60  C   UNL     1       8.344   8.998   7.419  1.00  0.00     0.074 A 
ATOM     61  C   UNL     1       7.386  10.014   7.803  1.00  0.00     0.031 C 
ATOM     62  C   UNL     1       9.452   8.688   8.134  1.00  0.00     0.037 A 
BRANCH  49  63
ATOM     63  C   UNL     1      12.756   4.047   5.781  1.00  0.00     0.064 A 
ATOM     64  C   UNL     1      13.902   4.157   4.981  1.00  0.00     0.173 A 
ATOM     65  C   UNL     1      12.756   3.083   6.801  1.00  0.00     0.173 A 
ATOM     66  F   UNL     1      13.947   5.056   3.986  1.00  0.00    -0.203 F 
ATOM     67  C   UNL     1      15.001   3.327   5.187  1.00  0.00     0.198 A 
ATOM     68  C   UNL     1      13.866   2.273   7.021  1.00  0.00     0.198 A 
ATOM     69  F   UNL     1      11.685   2.941   7.597  1.00  0.00    -0.203 F 
ATOM     70  F   UNL     1      16.074   3.429   4.391  1.00  0.00    -0.200 F 
ATOM     71  C   UNL     1      14.986   2.393   6.212  1.00  0.00     0.200 A 
ATOM     72  F   UNL     1      13.854   1.379   8.020  1.00  0.00    -0.200 F 
ATOM     73  F   UNL     1      16.051   1.607   6.420  1.00  0.00    -0.200 F 
ENDBRANCH  49  63
BRANCH  50  74
ATOM     74  C   UNL     1       4.636   9.732   4.628  1.00  0.00     0.064 A 
ATOM     75  C   UNL     1       4.713  11.117   4.423  1.00  0.00     0.173 A 
ATOM     76  C   UNL     1       3.361   9.161   4.750  1.00  0.00     0.173 A 
ATOM     77  F   UNL     1       5.910  11.713   4.322  1.00  0.00    -0.203 F 
ATOM     78  C   UNL     1       3.564  11.905   4.380  1.00  0.00     0.198 A 
ATOM     79  C   UNL     1       2.211   9.945   4.677  1.00  0.00     0.198 A 
ATOM     80  F   UNL     1       3.231   7.840   4.941  1.00  0.00    -0.203 F 
ATOM     81  F   UNL     1       3.670  13.233   4.245  1.00  0.00    -0.200 F 
ATOM     82  C   UNL     1       2.314  11.318   4.505  1.00  0.00     0.200 A 
ATOM     83  F   UNL     1       1.004   9.373   4.786  1.00  0.00    -0.200 F 
ATOM     84  F   UNL     1       1.210  12.076   4.471  1.00  0.00    -0.200 F 
ENDBRANCH  50  74
BRANCH  62  85
ATOM     85  C   UNL     1       9.716   9.485   9.377  1.00  0.00     0.064 A 
ATOM     86  C   UNL     1       8.951   9.310  10.539  1.00  0.00     0.173 A 
ATOM     87  C   UNL     1      10.775  10.404   9.416  1.00  0.00     0.173 A 
ATOM     88  F   UNL     1       7.918   8.455  10.545  1.00  0.00    -0.203 F 
ATOM     89  C   UNL     1       9.224  10.045  11.690  1.00  0.00     0.198 A 
ATOM     90  C   UNL     1      11.063  11.115  10.577  1.00  0.00     0.198 A 
ATOM     91  F   UNL     1      11.540  10.601   8.332  1.00  0.00    -0.203 F 
ATOM     92  F   UNL     1       8.452   9.896  12.775  1.00  0.00    -0.200 F 
ATOM     93  C   UNL     1      10.283  10.941  11.710  1.00  0.00     0.200 A 
ATOM     94  F   UNL     1      12.095  11.970  10.599  1.00  0.00    -0.200 F 
ATOM     95  F   UNL     1      10.548  11.641  12.821  1.00  0.00    -0.200 F 
ENDBRANCH  62  85
ENDBRANCH  36  37
ENDBRANCH  28  31
ENDBRANCH  26  27
ENDBRANCH  25  26
ENDBRANCH   1  25
TORSDOF 15
