REMARK SMILES O=C(NCCCCNC(=O)c1cccc(Oc2ncc([N+](=O)[O-])cc2Br)c1)c1ccc(-c2c3nc(c(-c4c(F)c(F)c(F)c(F)c4F)c4ccc([nH]4)c(-c4c(F)c(F)c(F)c(F)c4F)c4nc(c(-c5c(F)c(F)c(F)c(F)c5F)c5ccc2[nH]5)C=C4)C=C3)cc1
REMARK SMILES IDX 6 1 5 2 4 3 3 4 1 5 2 6 28 8 29 9 90 10 30 11 89 12 31 13
REMARK SMILES IDX 32 14 33 15 83 16 34 17 88 18 82 19 84 20 35 21 87 22 81 23
REMARK SMILES IDX 80 24 36 26 68 27 48 28 67 29 49 30 52 31 66 32 85 33 50 34
REMARK SMILES IDX 51 35 65 37 86 38 53 39 37 40 38 41 46 42 39 43 40 44 44 45
REMARK SMILES IDX 47 46 41 47 42 48 45 49 43 50 69 51 70 52 78 53 71 54 72 55
REMARK SMILES IDX 76 56 79 57 73 58 74 59 77 60 75 61 54 62 55 63 63 64 56 65
REMARK SMILES IDX 57 66 61 67 64 68 58 69 59 70 62 71 60 72 7 73 8 74 9 75
REMARK SMILES IDX 10 77 11 78 12 79 27 80 13 81 15 82 14 83 16 84 17 85 18 86
REMARK SMILES IDX 25 87 19 88 24 89 26 90 20 91 21 92 22 93 23 94
REMARK H PARENT 3 7 84 25 52 36 8 76
REMARK Flexibility Score: inf
ROOT
ATOM      1  C   UNL     1       4.461  -3.707  -0.974  1.00  0.00     0.023 C 
ENDROOT
BRANCH   1   2
ATOM      2  C   UNL     1       4.921  -2.547  -0.100  1.00  0.00     0.023 C 
BRANCH   2   3
ATOM      3  C   UNL     1       4.594  -1.167  -0.651  1.00  0.00     0.116 C 
BRANCH   3   4
ATOM      4  N   UNL     1       3.163  -0.917  -0.765  1.00  0.00    -0.352 N 
ATOM      5  O   UNL     1       1.165   0.007  -0.254  1.00  0.00    -0.269 OA
ATOM      6  C   UNL     1       2.386   0.034  -0.143  1.00  0.00     0.251 C 
ATOM      7  H   UNL     1       2.680  -1.518  -1.378  1.00  0.00     0.163 HD
BRANCH   6   8
ATOM      8  C   UNL     1       3.033   1.062   0.700  1.00  0.00     0.039 A 
ATOM      9  C   UNL     1       4.188   1.707   0.260  1.00  0.00     0.014 A 
ATOM     10  C   UNL     1       2.515   1.335   1.968  1.00  0.00     0.014 A 
ATOM     11  C   UNL     1       4.944   2.442   1.162  1.00  0.00     0.010 A 
ATOM     12  C   UNL     1       3.216   2.181   2.833  1.00  0.00     0.010 A 
ATOM     13  C   UNL     1       4.468   2.693   2.460  1.00  0.00    -0.014 A 
BRANCH  13  14
ATOM     14  C   UNL     1       5.297   3.508   3.388  1.00  0.00     0.031 A 
ATOM     15  C   UNL     1       5.815   2.939   4.682  1.00  0.00     0.074 A 
ATOM     16  C   UNL     1       5.628   4.764   3.026  1.00  0.00     0.049 A 
ATOM     17  N   UNL     1       6.587   3.500   5.581  1.00  0.00    -0.248 NA
ATOM     18  C   UNL     1       5.410   1.566   5.021  1.00  0.00     0.031 C 
ATOM     19  C   UNL     1       5.183   5.429   1.799  1.00  0.00     0.029 A 
ATOM     20  N   UNL     1       6.431   5.694   3.634  1.00  0.00    -0.354 N 
ATOM     21  C   UNL     1       6.737   2.564   6.597  1.00  0.00     0.074 A 
ATOM     22  C   UNL     1       5.951   1.408   6.220  1.00  0.00     0.031 C 
ATOM     23  C   UNL     1       5.767   6.632   1.714  1.00  0.00     0.029 A 
ATOM     24  C   UNL     1       6.565   6.855   2.913  1.00  0.00     0.049 A 
ATOM     25  H   UNL     1       6.870   5.543   4.502  1.00  0.00     0.167 HD
ATOM     26  C   UNL     1       7.468   2.659   7.735  1.00  0.00     0.037 A 
ATOM     27  C   UNL     1       7.242   7.983   3.191  1.00  0.00     0.037 A 
ATOM     28  C   UNL     1       8.263   3.806   8.096  1.00  0.00     0.049 A 
ATOM     29  C   UNL     1       8.021   8.068   4.473  1.00  0.00     0.074 A 
ATOM     30  C   UNL     1       9.072   3.982   9.206  1.00  0.00     0.029 A 
ATOM     31  N   UNL     1       8.344   4.979   7.356  1.00  0.00    -0.354 N 
ATOM     32  N   UNL     1       8.186   7.161   5.404  1.00  0.00    -0.248 NA
ATOM     33  C   UNL     1       8.710   9.336   4.739  1.00  0.00     0.031 C 
ATOM     34  C   UNL     1       9.589   5.282   9.171  1.00  0.00     0.029 A 
ATOM     35  C   UNL     1       9.165   5.891   8.002  1.00  0.00     0.049 A 
ATOM     36  H   UNL     1       7.885   5.139   6.500  1.00  0.00     0.167 HD
ATOM     37  C   UNL     1       9.025   7.734   6.349  1.00  0.00     0.074 A 
ATOM     38  C   UNL     1       9.346   9.062   5.868  1.00  0.00     0.031 C 
ATOM     39  C   UNL     1       9.488   7.207   7.509  1.00  0.00     0.037 A 
BRANCH  26  40
ATOM     40  C   UNL     1       7.424   1.502   8.697  1.00  0.00     0.064 A 
ATOM     41  C   UNL     1       8.007   0.261   8.398  1.00  0.00     0.173 A 
ATOM     42  C   UNL     1       6.824   1.653   9.958  1.00  0.00     0.173 A 
ATOM     43  F   UNL     1       8.587   0.057   7.205  1.00  0.00    -0.203 F 
ATOM     44  C   UNL     1       7.964  -0.792   9.310  1.00  0.00     0.198 A 
ATOM     45  C   UNL     1       6.814   0.609  10.880  1.00  0.00     0.198 A 
ATOM     46  F   UNL     1       6.259   2.819  10.303  1.00  0.00    -0.203 F 
ATOM     47  F   UNL     1       8.483  -1.983   8.980  1.00  0.00    -0.200 F 
ATOM     48  C   UNL     1       7.375  -0.615  10.552  1.00  0.00     0.200 A 
ATOM     49  F   UNL     1       6.259   0.789  12.087  1.00  0.00    -0.200 F 
ATOM     50  F   UNL     1       7.342  -1.626  11.431  1.00  0.00    -0.200 F 
ENDBRANCH  26  40
BRANCH  27  51
ATOM     51  C   UNL     1       7.215   9.119   2.233  1.00  0.00     0.064 A 
ATOM     52  C   UNL     1       8.373   9.517   1.552  1.00  0.00     0.173 A 
ATOM     53  C   UNL     1       6.033   9.832   1.982  1.00  0.00     0.173 A 
ATOM     54  F   UNL     1       9.531   8.877   1.770  1.00  0.00    -0.203 F 
ATOM     55  C   UNL     1       8.356  10.600   0.675  1.00  0.00     0.198 A 
ATOM     56  C   UNL     1       6.009  10.891   1.078  1.00  0.00     0.198 A 
ATOM     57  F   UNL     1       4.895   9.488   2.602  1.00  0.00    -0.203 F 
ATOM     58  F   UNL     1       9.489  10.992   0.078  1.00  0.00    -0.200 F 
ATOM     59  C   UNL     1       7.173  11.282   0.434  1.00  0.00     0.200 A 
ATOM     60  F   UNL     1       4.859  11.534   0.834  1.00  0.00    -0.200 F 
ATOM     61  F   UNL     1       7.156  12.320  -0.412  1.00  0.00    -0.200 F 
ENDBRANCH  27  51
BRANCH  39  62
ATOM     62  C   UNL     1      10.445   8.046   8.309  1.00  0.00     0.064 A 
ATOM     63  C   UNL     1      10.041   9.220   8.961  1.00  0.00     0.173 A 
ATOM     64  C   UNL     1      11.789   7.659   8.430  1.00  0.00     0.173 A 
ATOM     65  F   UNL     1       8.772   9.645   8.864  1.00  0.00    -0.203 F 
ATOM     66  C   UNL     1      10.955   9.997   9.670  1.00  0.00     0.198 A 
ATOM     67  C   UNL     1      12.691   8.416   9.172  1.00  0.00     0.198 A 
ATOM     68  F   UNL     1      12.228   6.540   7.833  1.00  0.00    -0.203 F 
ATOM     69  F   UNL     1      10.561  11.150  10.227  1.00  0.00    -0.200 F 
ATOM     70  C   UNL     1      12.276   9.591   9.780  1.00  0.00     0.200 A 
ATOM     71  F   UNL     1      13.963   8.013   9.291  1.00  0.00    -0.200 F 
ATOM     72  F   UNL     1      13.154  10.338  10.464  1.00  0.00    -0.200 F 
ENDBRANCH  39  62
ENDBRANCH  13  14
ENDBRANCH   6   8
ENDBRANCH   3   4
ENDBRANCH   2   3
ENDBRANCH   1   2
BRANCH   1  73
ATOM     73  C   UNL     1       4.934  -3.641  -2.419  1.00  0.00     0.116 C 
BRANCH  73  74
ATOM     74  N   UNL     1       6.385  -3.696  -2.536  1.00  0.00    -0.352 N 
ATOM     75  C   UNL     1       7.140  -4.552  -3.302  1.00  0.00     0.251 C 
ATOM     76  H   UNL     1       6.886  -3.040  -2.001  1.00  0.00     0.163 HD
ATOM     77  O   UNL     1       8.360  -4.603  -3.175  1.00  0.00    -0.269 OA
BRANCH  75  78
ATOM     78  C   UNL     1       6.457  -5.403  -4.295  1.00  0.00     0.043 A 
ATOM     79  C   UNL     1       6.684  -6.777  -4.319  1.00  0.00     0.014 A 
ATOM     80  C   UNL     1       5.565  -4.810  -5.192  1.00  0.00     0.061 A 
ATOM     81  C   UNL     1       5.954  -7.567  -5.208  1.00  0.00     0.005 A 
ATOM     82  C   UNL     1       4.823  -5.596  -6.072  1.00  0.00     0.130 A 
ATOM     83  C   UNL     1       5.018  -6.980  -6.070  1.00  0.00     0.047 A 
BRANCH  82  84
ATOM     84  O   UNL     1       3.901  -5.104  -6.977  1.00  0.00    -0.438 OA
BRANCH  84  85
ATOM     85  C   UNL     1       3.595  -3.760  -6.895  1.00  0.00     0.234 A 
ATOM     86  N   UNL     1       2.478  -3.457  -6.180  1.00  0.00    -0.214 NA
ATOM     87  C   UNL     1       4.408  -2.794  -7.494  1.00  0.00     0.087 A 
ATOM     88  C   UNL     1       2.175  -2.142  -6.031  1.00  0.00     0.200 A 
ATOM     89  C   UNL     1       4.107  -1.449  -7.284  1.00  0.00     0.108 A 
ATOM     90  Br  UNL     1       5.934  -3.233  -8.524  1.00  0.00    -0.045 Br
ATOM     91  C   UNL     1       2.970  -1.125  -6.539  1.00  0.00     0.288 A 
BRANCH  91  92
ATOM     92  N   UNL     1       2.627   0.264  -6.272  1.00  0.00     0.064 N 
ATOM     93  O   UNL     1       1.495   0.502  -5.834  1.00  0.00    -0.258 OA
ATOM     94  O   UNL     1       3.498   1.117  -6.487  1.00  0.00    -0.258 OA
ENDBRANCH  91  92
ENDBRANCH  84  85
ENDBRANCH  82  84
ENDBRANCH  75  78
ENDBRANCH  73  74
ENDBRANCH   1  73
TORSDOF 14
