REMARK SMILES C[C@H](Nc1cccc(F)c1C(=O)NCCCCNC(=O)c1ccc(-c2c3nc(c(-c4c(F)c(F)c(F)c(F)c4F)c4ccc([nH]4)c(-c4c(F)c(F)c(F)c(F)c4F)c4nc(c(-c5c(F)c(F)c(F)c(F)c5F)c5ccc2[nH]5)C=C4)C=C3)cc1)c1nccs1
REMARK SMILES IDX 15 1 14 2 13 3 11 4 12 5 10 7 4 8 5 9 6 10 8 11 7 12 9 13
REMARK SMILES IDX 3 14 2 16 1 17 84 18 85 19 88 20 86 21 87 22 16 23 17 24
REMARK SMILES IDX 18 25 19 26 20 28 21 29 22 30 83 31 23 32 82 33 24 34 25 35
REMARK SMILES IDX 26 36 76 37 27 38 81 39 75 40 77 41 28 42 80 43 74 44 73 45
REMARK SMILES IDX 29 47 61 48 41 49 60 50 42 51 45 52 59 53 78 54 43 55 44 56
REMARK SMILES IDX 58 58 79 59 46 60 30 61 31 62 39 63 32 64 33 65 37 66 40 67
REMARK SMILES IDX 34 68 35 69 38 70 36 71 62 72 63 73 71 74 64 75 65 76 69 77
REMARK SMILES IDX 72 78 66 79 67 80 70 81 68 82 47 83 48 84 56 85 49 86 50 87
REMARK SMILES IDX 54 88 57 89 51 90 52 91 55 92 53 93
REMARK H PARENT 13 6 3 15 18 27 77 46 45 57
REMARK Flexibility Score: inf
ROOT
ATOM      1  C   UNL     1       4.782   4.491  -2.109  1.00  0.00     0.023 C 
ENDROOT
BRANCH   1   2
ATOM      2  C   UNL     1       4.810   3.479  -0.967  1.00  0.00     0.116 C 
BRANCH   2   3
ATOM      3  N   UNL     1       3.544   3.322  -0.274  1.00  0.00    -0.352 N 
ATOM      4  C   UNL     1       2.915   2.201   0.225  1.00  0.00     0.256 C 
ATOM      5  O   UNL     1       1.836   2.374   0.797  1.00  0.00    -0.269 OA
ATOM      6  H   UNL     1       3.048   4.161  -0.138  1.00  0.00     0.163 HD
BRANCH   4   7
ATOM      7  C   UNL     1       3.429   0.815   0.028  1.00  0.00     0.098 A 
ATOM      8  C   UNL     1       2.519  -0.255  -0.177  1.00  0.00     0.050 A 
ATOM      9  C   UNL     1       3.034  -1.525  -0.501  1.00  0.00     0.027 A 
ATOM     10  C   UNL     1       4.406  -1.766  -0.541  1.00  0.00     0.005 A 
ATOM     11  C   UNL     1       4.794   0.521   0.100  1.00  0.00     0.138 A 
ATOM     12  C   UNL     1       5.286  -0.748  -0.203  1.00  0.00     0.040 A 
ATOM     13  F   UNL     1       5.683   1.437   0.511  1.00  0.00    -0.206 F 
BRANCH   8  14
ATOM     14  N   UNL     1       1.137  -0.111   0.029  1.00  0.00    -0.375 N 
ATOM     15  H   UNL     1       0.622   0.560  -0.474  1.00  0.00     0.161 HD
BRANCH  14  16
ATOM     16  C   UNL     1       0.471  -0.988   1.019  1.00  0.00     0.135 C 
ATOM     17  C   UNL     1       0.981  -0.666   2.434  1.00  0.00     0.039 C 
BRANCH  16  18
ATOM     18  C   UNL     1      -1.050  -0.944   1.014  1.00  0.00     0.115 A 
ATOM     19  N   UNL     1      -1.818  -2.015   1.096  1.00  0.00    -0.247 NA
ATOM     20  S   UNL     1      -1.898   0.559   0.959  1.00  0.00    -0.125 S 
ATOM     21  C   UNL     1      -3.147  -1.642   1.113  1.00  0.00     0.123 A 
ATOM     22  C   UNL     1      -3.384  -0.287   1.054  1.00  0.00     0.087 A 
ENDBRANCH  16  18
ENDBRANCH  14  16
ENDBRANCH   8  14
ENDBRANCH   4   7
ENDBRANCH   2   3
ENDBRANCH   1   2
BRANCH   1  23
ATOM     23  C   UNL     1       4.374   5.919  -1.758  1.00  0.00     0.023 C 
BRANCH  23  24
ATOM     24  C   UNL     1       5.098   6.566  -0.582  1.00  0.00     0.116 C 
BRANCH  24  25
ATOM     25  N   UNL     1       6.544   6.620  -0.735  1.00  0.00    -0.352 N 
ATOM     26  C   UNL     1       7.408   7.689  -0.665  1.00  0.00     0.251 C 
ATOM     27  H   UNL     1       6.973   5.753  -0.919  1.00  0.00     0.163 HD
ATOM     28  O   UNL     1       8.600   7.529  -0.899  1.00  0.00    -0.269 OA
BRANCH  26  29
ATOM     29  C   UNL     1       6.901   9.046  -0.355  1.00  0.00     0.039 A 
ATOM     30  C   UNL     1       7.341  10.119  -1.136  1.00  0.00     0.014 A 
ATOM     31  C   UNL     1       5.997   9.266   0.686  1.00  0.00     0.014 A 
ATOM     32  C   UNL     1       6.799  11.392  -0.937  1.00  0.00     0.010 A 
ATOM     33  C   UNL     1       5.401  10.517   0.833  1.00  0.00     0.010 A 
ATOM     34  C   UNL     1       5.786  11.590   0.014  1.00  0.00    -0.014 A 
BRANCH  34  35
ATOM     35  C   UNL     1       5.105  12.903   0.159  1.00  0.00     0.031 A 
ATOM     36  C   UNL     1       5.215  13.675   1.444  1.00  0.00     0.074 A 
ATOM     37  C   UNL     1       4.336  13.373  -0.844  1.00  0.00     0.049 A 
ATOM     38  N   UNL     1       4.613  14.783   1.799  1.00  0.00    -0.248 NA
ATOM     39  C   UNL     1       6.102  13.117   2.478  1.00  0.00     0.031 C 
ATOM     40  C   UNL     1       4.125  12.707  -2.131  1.00  0.00     0.029 A 
ATOM     41  N   UNL     1       3.583  14.518  -0.937  1.00  0.00    -0.354 N 
ATOM     42  C   UNL     1       5.039  15.046   3.093  1.00  0.00     0.074 A 
ATOM     43  C   UNL     1       5.910  13.959   3.483  1.00  0.00     0.031 C 
ATOM     44  C   UNL     1       3.328  13.471  -2.896  1.00  0.00     0.029 A 
ATOM     45  C   UNL     1       2.935  14.656  -2.141  1.00  0.00     0.049 A 
ATOM     46  H   UNL     1       3.515  15.178  -0.210  1.00  0.00     0.167 HD
ATOM     47  C   UNL     1       4.750  16.113   3.876  1.00  0.00     0.037 A 
ATOM     48  C   UNL     1       2.112  15.627  -2.584  1.00  0.00     0.037 A 
ATOM     49  C   UNL     1       3.908  17.209   3.478  1.00  0.00     0.049 A 
ATOM     50  C   UNL     1       1.789  16.788  -1.683  1.00  0.00     0.074 A 
ATOM     51  C   UNL     1       3.577  18.345   4.196  1.00  0.00     0.029 A 
ATOM     52  N   UNL     1       3.271  17.310   2.251  1.00  0.00    -0.354 N 
ATOM     53  N   UNL     1       2.217  17.036  -0.470  1.00  0.00    -0.248 NA
ATOM     54  C   UNL     1       0.866  17.803  -2.212  1.00  0.00     0.031 C 
ATOM     55  C   UNL     1       2.717  19.121   3.414  1.00  0.00     0.029 A 
ATOM     56  C   UNL     1       2.545  18.488   2.194  1.00  0.00     0.049 A 
ATOM     57  H   UNL     1       3.327  16.644   1.528  1.00  0.00     0.167 HD
ATOM     58  C   UNL     1       1.643  18.245  -0.102  1.00  0.00     0.074 A 
ATOM     59  C   UNL     1       0.842  18.687  -1.224  1.00  0.00     0.031 C 
ATOM     60  C   UNL     1       1.771  18.926   1.062  1.00  0.00     0.037 A 
BRANCH  47  61
ATOM     61  C   UNL     1       5.372  16.167   5.239  1.00  0.00     0.064 A 
ATOM     62  C   UNL     1       4.587  16.022   6.392  1.00  0.00     0.173 A 
ATOM     63  C   UNL     1       6.739  16.439   5.404  1.00  0.00     0.173 A 
ATOM     64  F   UNL     1       3.274  15.768   6.289  1.00  0.00    -0.203 F 
ATOM     65  C   UNL     1       5.144  16.162   7.660  1.00  0.00     0.198 A 
ATOM     66  C   UNL     1       7.298  16.552   6.673  1.00  0.00     0.198 A 
ATOM     67  F   UNL     1       7.534  16.574   4.332  1.00  0.00    -0.203 F 
ATOM     68  F   UNL     1       4.369  16.052   8.748  1.00  0.00    -0.200 F 
ATOM     69  C   UNL     1       6.499  16.424   7.800  1.00  0.00     0.200 A 
ATOM     70  F   UNL     1       8.611  16.783   6.806  1.00  0.00    -0.200 F 
ATOM     71  F   UNL     1       7.036  16.552   9.021  1.00  0.00    -0.200 F 
ENDBRANCH  47  61
BRANCH  48  72
ATOM     72  C   UNL     1       1.566  15.565  -3.965  1.00  0.00     0.064 A 
ATOM     73  C   UNL     1       0.603  14.615  -4.335  1.00  0.00     0.173 A 
ATOM     74  C   UNL     1       2.007  16.464  -4.946  1.00  0.00     0.173 A 
ATOM     75  F   UNL     1       0.150  13.731  -3.434  1.00  0.00    -0.203 F 
ATOM     76  C   UNL     1       0.111  14.560  -5.638  1.00  0.00     0.198 A 
ATOM     77  C   UNL     1       1.495  16.425  -6.241  1.00  0.00     0.198 A 
ATOM     78  F   UNL     1       2.910  17.405  -4.633  1.00  0.00    -0.203 F 
ATOM     79  F   UNL     1      -0.791  13.628  -5.972  1.00  0.00    -0.200 F 
ATOM     80  C   UNL     1       0.552  15.469  -6.588  1.00  0.00     0.200 A 
ATOM     81  F   UNL     1       1.906  17.322  -7.149  1.00  0.00    -0.200 F 
ATOM     82  F   UNL     1       0.065  15.428  -7.835  1.00  0.00    -0.200 F 
ENDBRANCH  48  72
BRANCH  60  83
ATOM     83  C   UNL     1       1.065  20.243   1.180  1.00  0.00     0.064 A 
ATOM     84  C   UNL     1       1.797  21.440   1.192  1.00  0.00     0.173 A 
ATOM     85  C   UNL     1      -0.322  20.317   1.368  1.00  0.00     0.173 A 
ATOM     86  F   UNL     1       3.128  21.420   1.024  1.00  0.00    -0.203 F 
ATOM     87  C   UNL     1       1.167  22.662   1.405  1.00  0.00     0.198 A 
ATOM     88  C   UNL     1      -0.953  21.544   1.556  1.00  0.00     0.198 A 
ATOM     89  F   UNL     1      -1.066  19.201   1.352  1.00  0.00    -0.203 F 
ATOM     90  F   UNL     1       1.891  23.790   1.448  1.00  0.00    -0.200 F 
ATOM     91  C   UNL     1      -0.207  22.714   1.585  1.00  0.00     0.200 A 
ATOM     92  F   UNL     1      -2.283  21.595   1.709  1.00  0.00    -0.200 F 
ATOM     93  F   UNL     1      -0.813  23.892   1.786  1.00  0.00    -0.200 F 
ENDBRANCH  60  83
ENDBRANCH  34  35
ENDBRANCH  26  29
ENDBRANCH  24  25
ENDBRANCH  23  24
ENDBRANCH   1  23
TORSDOF 14
