REMARK SMILES Cc1ccc(Cl)c(NC(=O)C[N@@H+]2CCC[C@H]2C(=O)NCCCCNC(=O)c2ccc(-c3c4nc(c(-c5c(F)c(F)c(F)c(F)c5F)c5ccc([nH]5)c(-c5c(F)c(F)c(F)c(F)c5F)c5nc(c(-c6c(F)c(F)c(F)c(F)c6F)c6ccc3[nH]6)C=C5)C=C4)cc2)c1Cl
REMARK SMILES IDX 21 1 20 2 19 3 17 4 18 5 16 7 12 8 13 9 14 11 15 12 11 13
REMARK SMILES IDX 9 14 8 15 10 17 7 18 1 19 2 20 3 21 90 22 4 23 91 24 5 25
REMARK SMILES IDX 6 26 22 27 23 28 24 29 25 30 26 32 27 33 28 34 89 35 29 36
REMARK SMILES IDX 88 37 30 38 31 39 32 40 82 41 33 42 87 43 81 44 83 45 34 46
REMARK SMILES IDX 86 47 80 48 79 49 35 51 67 52 47 53 66 54 48 55 51 56 65 57
REMARK SMILES IDX 84 58 49 59 50 60 64 62 85 63 52 64 36 65 37 66 45 67 38 68
REMARK SMILES IDX 39 69 43 70 46 71 40 72 41 73 44 74 42 75 68 76 69 77 77 78
REMARK SMILES IDX 70 79 71 80 75 81 78 82 72 83 73 84 76 85 74 86 53 87 54 88
REMARK SMILES IDX 62 89 55 90 56 91 60 92 63 93 57 94 58 95 61 96 59 97
REMARK H PARENT 19 6 12 10 8 16 24 31 83 50 51 61
REMARK Flexibility Score: inf
ROOT
ATOM      1  C   UNL     1      -1.734  -1.202  -1.935  1.00  0.00     0.023 C 
ENDROOT
BRANCH   1   2
ATOM      2  C   UNL     1      -0.596  -1.832  -2.727  1.00  0.00     0.116 C 
BRANCH   2   3
ATOM      3  N   UNL     1       0.225  -0.845  -3.398  1.00  0.00    -0.351 N 
ATOM      4  C   UNL     1       1.424  -0.314  -3.007  1.00  0.00     0.278 C 
ATOM      5  O   UNL     1       1.982   0.449  -3.801  1.00  0.00    -0.268 OA
ATOM      6  H   UNL     1      -0.129  -0.510  -4.253  1.00  0.00     0.163 HD
BRANCH   4   7
ATOM      7  C   UNL     1       1.970  -0.576  -1.577  1.00  0.00     0.274 C 
ATOM      8  N   UNL     1       2.210  -2.024  -1.334  1.00  0.00    -0.317 N 
ATOM      9  C   UNL     1       3.575  -2.230  -1.865  1.00  0.00     0.263 C 
ATOM     10  H   UNL     1       1.495  -2.606  -1.771  1.00  0.00     0.349 HD
ATOM     11  C   UNL     1       4.364  -1.020  -1.403  1.00  0.00     0.068 C 
ATOM     12  C   UNL     1       3.334   0.102  -1.353  1.00  0.00     0.081 C 
BRANCH   8  13
ATOM     13  C   UNL     1       2.175  -2.373   0.115  1.00  0.00     0.364 C 
BRANCH  13  14
ATOM     14  C   UNL     1       0.771  -2.638   0.670  1.00  0.00     0.279 C 
ATOM     15  N   UNL     1      -0.047  -1.737   1.287  1.00  0.00    -0.319 N 
ATOM     16  H   UNL     1      -0.815  -2.167   1.729  1.00  0.00     0.170 HD
ATOM     17  O   UNL     1       0.274  -3.768   0.523  1.00  0.00    -0.268 OA
BRANCH  15  18
ATOM     18  C   UNL     1      -0.051  -0.329   1.441  1.00  0.00     0.079 A 
ATOM     19  C   UNL     1       2.189   2.782   1.246  1.00  0.00     0.046 C 
ATOM     20  C   UNL     1       0.985   1.881   1.324  1.00  0.00    -0.030 A 
ATOM     21  C   UNL     1      -0.258   2.437   0.988  1.00  0.00     0.006 A 
ATOM     22  C   UNL     1       1.063   0.502   1.625  1.00  0.00     0.069 A 
ATOM     23  C   UNL     1      -1.411   1.664   1.051  1.00  0.00     0.023 A 
ATOM     24  Cl  UNL     1       2.437  -0.081   2.511  1.00  0.00    -0.082 Cl
ATOM     25  C   UNL     1      -1.308   0.298   1.303  1.00  0.00     0.066 A 
ATOM     26  Cl  UNL     1      -2.784  -0.612   1.363  1.00  0.00    -0.082 Cl
ENDBRANCH  15  18
ENDBRANCH  13  14
ENDBRANCH   8  13
ENDBRANCH   4   7
ENDBRANCH   2   3
ENDBRANCH   1   2
BRANCH   1  27
ATOM     27  C   UNL     1      -2.940  -0.745  -2.751  1.00  0.00     0.023 C 
BRANCH  27  28
ATOM     28  C   UNL     1      -3.574  -1.816  -3.626  1.00  0.00     0.116 C 
BRANCH  28  29
ATOM     29  N   UNL     1      -4.020  -2.999  -2.905  1.00  0.00    -0.352 N 
ATOM     30  C   UNL     1      -5.063  -3.843  -3.225  1.00  0.00     0.251 C 
ATOM     31  H   UNL     1      -3.516  -3.225  -2.090  1.00  0.00     0.163 HD
ATOM     32  O   UNL     1      -5.379  -4.765  -2.487  1.00  0.00    -0.269 OA
BRANCH  30  33
ATOM     33  C   UNL     1      -5.839  -3.579  -4.457  1.00  0.00     0.039 A 
ATOM     34  C   UNL     1      -7.232  -3.515  -4.378  1.00  0.00     0.014 A 
ATOM     35  C   UNL     1      -5.188  -3.315  -5.663  1.00  0.00     0.014 A 
ATOM     36  C   UNL     1      -7.965  -3.095  -5.490  1.00  0.00     0.010 A 
ATOM     37  C   UNL     1      -5.909  -2.808  -6.737  1.00  0.00     0.010 A 
ATOM     38  C   UNL     1      -7.305  -2.688  -6.661  1.00  0.00    -0.014 A 
BRANCH  38  39
ATOM     39  C   UNL     1      -8.046  -2.132  -7.821  1.00  0.00     0.031 A 
ATOM     40  C   UNL     1      -7.993  -2.833  -9.149  1.00  0.00     0.074 A 
ATOM     41  C   UNL     1      -8.691  -0.955  -7.703  1.00  0.00     0.049 A 
ATOM     42  N   UNL     1      -8.475  -2.456 -10.306  1.00  0.00    -0.248 NA
ATOM     43  C   UNL     1      -7.265  -4.112  -9.190  1.00  0.00     0.031 C 
ATOM     44  C   UNL     1      -8.764  -0.146  -6.485  1.00  0.00     0.029 A 
ATOM     45  N   UNL     1      -9.398  -0.226  -8.627  1.00  0.00    -0.354 N 
ATOM     46  C   UNL     1      -8.088  -3.435 -11.211  1.00  0.00     0.074 A 
ATOM     47  C   UNL     1      -7.283  -4.392 -10.484  1.00  0.00     0.031 C 
ATOM     48  C   UNL     1      -9.499   0.951  -6.728  1.00  0.00     0.029 A 
ATOM     49  C   UNL     1      -9.918   0.943  -8.126  1.00  0.00     0.049 A 
ATOM     50  H   UNL     1      -9.520  -0.514  -9.560  1.00  0.00     0.167 HD
ATOM     51  C   UNL     1      -8.401  -3.543 -12.524  1.00  0.00     0.037 A 
ATOM     52  C   UNL     1     -10.649   1.899  -8.730  1.00  0.00     0.037 A 
ATOM     53  C   UNL     1      -9.237  -2.613 -13.235  1.00  0.00     0.049 A 
ATOM     54  C   UNL     1     -11.005   1.743 -10.183  1.00  0.00     0.074 A 
ATOM     55  C   UNL     1      -9.664  -2.666 -14.549  1.00  0.00     0.029 A 
ATOM     56  N   UNL     1      -9.780  -1.463 -12.682  1.00  0.00    -0.354 N 
ATOM     57  N   UNL     1     -10.684   0.782 -11.014  1.00  0.00    -0.248 NA
ATOM     58  C   UNL     1     -11.832   2.801 -10.780  1.00  0.00     0.031 C 
ATOM     59  C   UNL     1     -10.442  -1.530 -14.801  1.00  0.00     0.029 A 
ATOM     60  C   UNL     1     -10.532  -0.792 -13.632  1.00  0.00     0.049 A 
ATOM     61  H   UNL     1      -9.651  -1.167 -11.752  1.00  0.00     0.167 HD
ATOM     62  C   UNL     1     -11.289   1.104 -12.222  1.00  0.00     0.074 A 
ATOM     63  C   UNL     1     -12.008   2.343 -12.011  1.00  0.00     0.031 C 
ATOM     64  C   UNL     1     -11.251   0.434 -13.399  1.00  0.00     0.037 A 
BRANCH  51  65
ATOM     65  C   UNL     1      -7.845  -4.720 -13.271  1.00  0.00     0.064 A 
ATOM     66  C   UNL     1      -8.300  -6.025 -13.025  1.00  0.00     0.173 A 
ATOM     67  C   UNL     1      -6.863  -4.542 -14.256  1.00  0.00     0.173 A 
ATOM     68  F   UNL     1      -9.228  -6.250 -12.083  1.00  0.00    -0.203 F 
ATOM     69  C   UNL     1      -7.767  -7.112 -13.714  1.00  0.00     0.198 A 
ATOM     70  C   UNL     1      -6.355  -5.628 -14.965  1.00  0.00     0.198 A 
ATOM     71  F   UNL     1      -6.396  -3.316 -14.534  1.00  0.00    -0.203 F 
ATOM     72  F   UNL     1      -8.178  -8.353 -13.422  1.00  0.00    -0.200 F 
ATOM     73  C   UNL     1      -6.801  -6.912 -14.687  1.00  0.00     0.200 A 
ATOM     74  F   UNL     1      -5.429  -5.433 -15.914  1.00  0.00    -0.200 F 
ATOM     75  F   UNL     1      -6.292  -7.958 -15.352  1.00  0.00    -0.200 F 
ENDBRANCH  51  65
BRANCH  52  76
ATOM     76  C   UNL     1     -11.128   3.070  -7.951  1.00  0.00     0.064 A 
ATOM     77  C   UNL     1     -12.485   3.206  -7.626  1.00  0.00     0.173 A 
ATOM     78  C   UNL     1     -10.248   4.071  -7.515  1.00  0.00     0.173 A 
ATOM     79  F   UNL     1     -13.367   2.284  -8.038  1.00  0.00    -0.203 F 
ATOM     80  C   UNL     1     -12.948   4.309  -6.912  1.00  0.00     0.198 A 
ATOM     81  C   UNL     1     -10.708   5.161  -6.779  1.00  0.00     0.198 A 
ATOM     82  F   UNL     1      -8.940   3.985  -7.795  1.00  0.00    -0.203 F 
ATOM     83  F   UNL     1     -14.256   4.435  -6.651  1.00  0.00    -0.200 F 
ATOM     84  C   UNL     1     -12.058   5.283  -6.484  1.00  0.00     0.200 A 
ATOM     85  F   UNL     1      -9.845   6.094  -6.356  1.00  0.00    -0.200 F 
ATOM     86  F   UNL     1     -12.502   6.342  -5.794  1.00  0.00    -0.200 F 
ENDBRANCH  52  76
BRANCH  64  87
ATOM     87  C   UNL     1     -12.036   1.007 -14.541  1.00  0.00     0.064 A 
ATOM     88  C   UNL     1     -11.609   2.154 -15.224  1.00  0.00     0.173 A 
ATOM     89  C   UNL     1     -13.206   0.372 -14.985  1.00  0.00     0.173 A 
ATOM     90  F   UNL     1     -10.505   2.804 -14.826  1.00  0.00    -0.203 F 
ATOM     91  C   UNL     1     -12.336   2.658 -16.299  1.00  0.00     0.198 A 
ATOM     92  C   UNL     1     -13.916   0.863 -16.077  1.00  0.00     0.198 A 
ATOM     93  F   UNL     1     -13.652  -0.732 -14.368  1.00  0.00    -0.203 F 
ATOM     94  F   UNL     1     -11.932   3.779 -16.912  1.00  0.00    -0.200 F 
ATOM     95  C   UNL     1     -13.484   2.008 -16.729  1.00  0.00     0.200 A 
ATOM     96  F   UNL     1     -15.018   0.227 -16.498  1.00  0.00    -0.200 F 
ATOM     97  F   UNL     1     -14.178   2.490 -17.769  1.00  0.00    -0.200 F 
ENDBRANCH  64  87
ENDBRANCH  38  39
ENDBRANCH  30  33
ENDBRANCH  28  29
ENDBRANCH  27  28
ENDBRANCH   1  27
TORSDOF 14
