REMARK SMILES COc1cccc(NC(=O)c2nccnc2C(=O)NCCCCNC(=O)c2ccc(-c3c4nc(c(-c5c(F)c(F)c(F)c(F)c5F)c5ccc([nH]5)c(-c5c(F)c(F)c(F)c(F)c5F)c5nc(c(-c6c(F)c(F)c(F)c(F)c6F)c6ccc3[nH]6)C=C5)C=C4)cc2)c1
REMARK SMILES IDX 21 1 20 2 19 3 17 4 18 5 16 7 11 8 12 9 13 10 15 11 14 12
REMARK SMILES IDX 9 13 8 14 10 16 7 17 3 18 4 19 90 20 5 21 6 22 2 23 1 24
REMARK SMILES IDX 22 25 23 26 24 27 25 28 26 30 27 31 28 32 89 33 29 34 88 35
REMARK SMILES IDX 30 36 31 37 32 38 82 39 33 40 87 41 81 42 83 43 34 44 86 45
REMARK SMILES IDX 80 46 79 47 35 49 67 50 47 51 66 52 48 53 51 54 65 55 84 56
REMARK SMILES IDX 49 57 50 58 64 60 85 61 52 62 36 63 37 64 45 65 38 66 39 67
REMARK SMILES IDX 43 68 46 69 40 70 41 71 44 72 42 73 68 74 69 75 77 76 70 77
REMARK SMILES IDX 71 78 75 79 78 80 72 81 73 82 76 83 74 84 53 85 54 86 62 87
REMARK SMILES IDX 55 88 56 89 60 90 63 91 57 92 58 93 61 94 59 95
REMARK H PARENT 19 6 8 15 24 29 83 48 51 59
REMARK Flexibility Score: inf
ROOT
ATOM      1  C   UNL     1       5.868   1.650   4.218  1.00  0.00     0.023 C 
ENDROOT
BRANCH   1   2
ATOM      2  C   UNL     1       5.232   0.591   5.112  1.00  0.00     0.116 C 
BRANCH   2   3
ATOM      3  N   UNL     1       5.660   0.602   6.489  1.00  0.00    -0.351 N 
ATOM      4  C   UNL     1       5.098   0.071   7.629  1.00  0.00     0.272 C 
ATOM      5  O   UNL     1       5.778   0.180   8.655  1.00  0.00    -0.267 OA
ATOM      6  H   UNL     1       6.509   1.075   6.643  1.00  0.00     0.163 HD
BRANCH   4   7
ATOM      7  C   UNL     1       3.731  -0.535   7.750  1.00  0.00     0.159 A 
ATOM      8  C   UNL     1       3.134  -1.478   6.926  1.00  0.00     0.159 A 
ATOM      9  N   UNL     1       1.940  -2.091   7.234  1.00  0.00    -0.247 NA
ATOM     10  C   UNL     1       1.355  -1.710   8.387  1.00  0.00     0.132 A 
ATOM     11  N   UNL     1       3.085  -0.141   8.899  1.00  0.00    -0.247 NA
ATOM     12  C   UNL     1       1.910  -0.741   9.195  1.00  0.00     0.132 A 
BRANCH   8  13
ATOM     13  C   UNL     1       3.700  -1.930   5.652  1.00  0.00     0.276 C 
ATOM     14  N   UNL     1       3.087  -1.644   4.440  1.00  0.00    -0.320 N 
ATOM     15  H   UNL     1       3.496  -2.117   3.680  1.00  0.00     0.170 HD
ATOM     16  O   UNL     1       4.751  -2.570   5.667  1.00  0.00    -0.267 OA
BRANCH  14  17
ATOM     17  C   UNL     1       1.999  -0.817   4.063  1.00  0.00     0.045 A 
ATOM     18  C   UNL     1       0.712   0.109   2.199  1.00  0.00     0.120 A 
ATOM     19  C   UNL     1      -0.104   0.789   3.100  1.00  0.00     0.046 A 
ATOM     20  C   UNL     1       1.750  -0.698   2.682  1.00  0.00     0.072 A 
ATOM     21  C   UNL     1       0.135   0.695   4.464  1.00  0.00     0.006 A 
ATOM     22  C   UNL     1       1.192  -0.088   4.937  1.00  0.00     0.026 A 
BRANCH  18  23
ATOM     23  O   UNL     1       0.387   0.319   0.888  1.00  0.00    -0.497 OA
ATOM     24  C   UNL     1       1.227  -0.267  -0.095  1.00  0.00     0.278 C 
ENDBRANCH  18  23
ENDBRANCH  14  17
ENDBRANCH   8  13
ENDBRANCH   4   7
ENDBRANCH   2   3
ENDBRANCH   1   2
BRANCH   1  25
ATOM     25  C   UNL     1       7.397   1.687   4.170  1.00  0.00     0.023 C 
BRANCH  25  26
ATOM     26  C   UNL     1       8.127   0.349   4.083  1.00  0.00     0.116 C 
BRANCH  26  27
ATOM     27  N   UNL     1       7.815  -0.425   2.890  1.00  0.00    -0.352 N 
ATOM     28  C   UNL     1       8.588  -0.771   1.806  1.00  0.00     0.251 C 
ATOM     29  H   UNL     1       6.889  -0.759   2.852  1.00  0.00     0.163 HD
ATOM     30  O   UNL     1       8.078  -1.373   0.864  1.00  0.00    -0.269 OA
BRANCH  28  31
ATOM     31  C   UNL     1      10.015  -0.381   1.734  1.00  0.00     0.039 A 
ATOM     32  C   UNL     1      10.504   0.157   0.539  1.00  0.00     0.014 A 
ATOM     33  C   UNL     1      10.871  -0.530   2.826  1.00  0.00     0.014 A 
ATOM     34  C   UNL     1      11.811   0.651   0.479  1.00  0.00     0.010 A 
ATOM     35  C   UNL     1      12.141   0.042   2.795  1.00  0.00     0.010 A 
ATOM     36  C   UNL     1      12.619   0.655   1.627  1.00  0.00    -0.014 A 
BRANCH  36  37
ATOM     37  C   UNL     1      13.949   1.322   1.640  1.00  0.00     0.031 A 
ATOM     38  C   UNL     1      15.196   0.532   1.922  1.00  0.00     0.074 A 
ATOM     39  C   UNL     1      14.024   2.660   1.488  1.00  0.00     0.049 A 
ATOM     40  N   UNL     1      16.426   0.953   2.086  1.00  0.00    -0.248 NA
ATOM     41  C   UNL     1      15.035  -0.922   2.073  1.00  0.00     0.031 C 
ATOM     42  C   UNL     1      12.886   3.553   1.265  1.00  0.00     0.029 A 
ATOM     43  N   UNL     1      15.106   3.506   1.516  1.00  0.00    -0.354 N 
ATOM     44  C   UNL     1      17.175  -0.177   2.384  1.00  0.00     0.074 A 
ATOM     45  C   UNL     1      16.257  -1.295   2.425  1.00  0.00     0.031 C 
ATOM     46  C   UNL     1      13.330   4.814   1.150  1.00  0.00     0.029 A 
ATOM     47  C   UNL     1      14.778   4.827   1.331  1.00  0.00     0.049 A 
ATOM     48  H   UNL     1      16.030   3.195   1.654  1.00  0.00     0.167 HD
ATOM     49  C   UNL     1      18.512  -0.279   2.583  1.00  0.00     0.037 A 
ATOM     50  C   UNL     1      15.555   5.927   1.317  1.00  0.00     0.037 A 
ATOM     51  C   UNL     1      19.432   0.825   2.505  1.00  0.00     0.049 A 
ATOM     52  C   UNL     1      17.038   5.785   1.526  1.00  0.00     0.074 A 
ATOM     53  C   UNL     1      20.811   0.811   2.625  1.00  0.00     0.029 A 
ATOM     54  N   UNL     1      19.064   2.144   2.283  1.00  0.00    -0.354 N 
ATOM     55  N   UNL     1      17.742   4.702   1.744  1.00  0.00    -0.248 NA
ATOM     56  C   UNL     1      17.834   7.020   1.483  1.00  0.00     0.031 C 
ATOM     57  C   UNL     1      21.274   2.126   2.507  1.00  0.00     0.029 A 
ATOM     58  C   UNL     1      20.188   2.954   2.275  1.00  0.00     0.049 A 
ATOM     59  H   UNL     1      18.140   2.458   2.150  1.00  0.00     0.167 HD
ATOM     60  C   UNL     1      19.063   5.119   1.836  1.00  0.00     0.074 A 
ATOM     61  C   UNL     1      19.064   6.553   1.639  1.00  0.00     0.031 C 
ATOM     62  C   UNL     1      20.175   4.378   2.065  1.00  0.00     0.037 A 
BRANCH  49  63
ATOM     63  C   UNL     1      19.061  -1.640   2.896  1.00  0.00     0.064 A 
ATOM     64  C   UNL     1      19.114  -2.650   1.924  1.00  0.00     0.173 A 
ATOM     65  C   UNL     1      19.566  -1.930   4.173  1.00  0.00     0.173 A 
ATOM     66  F   UNL     1      18.635  -2.426   0.691  1.00  0.00    -0.203 F 
ATOM     67  C   UNL     1      19.622  -3.911   2.227  1.00  0.00     0.198 A 
ATOM     68  C   UNL     1      20.100  -3.183   4.464  1.00  0.00     0.198 A 
ATOM     69  F   UNL     1      19.546  -0.997   5.136  1.00  0.00    -0.203 F 
ATOM     70  F   UNL     1      19.615  -4.875   1.297  1.00  0.00    -0.200 F 
ATOM     71  C   UNL     1      20.119  -4.174   3.495  1.00  0.00     0.200 A 
ATOM     72  F   UNL     1      20.591  -3.433   5.686  1.00  0.00    -0.200 F 
ATOM     73  F   UNL     1      20.611  -5.387   3.784  1.00  0.00    -0.200 F 
ENDBRANCH  49  63
BRANCH  50  74
ATOM     74  C   UNL     1      14.951   7.260   1.063  1.00  0.00     0.064 A 
ATOM     75  C   UNL     1      15.177   7.926  -0.150  1.00  0.00     0.173 A 
ATOM     76  C   UNL     1      14.144   7.895   2.017  1.00  0.00     0.173 A 
ATOM     77  F   UNL     1      15.960   7.367  -1.084  1.00  0.00    -0.203 F 
ATOM     78  C   UNL     1      14.634   9.186  -0.391  1.00  0.00     0.198 A 
ATOM     79  C   UNL     1      13.581   9.145   1.765  1.00  0.00     0.198 A 
ATOM     80  F   UNL     1      13.895   7.297   3.191  1.00  0.00    -0.203 F 
ATOM     81  F   UNL     1      14.901   9.819  -1.542  1.00  0.00    -0.200 F 
ATOM     82  C   UNL     1      13.832   9.792   0.565  1.00  0.00     0.200 A 
ATOM     83  F   UNL     1      12.797   9.722   2.686  1.00  0.00    -0.200 F 
ATOM     84  F   UNL     1      13.308  11.003   0.332  1.00  0.00    -0.200 F 
ENDBRANCH  50  74
BRANCH  62  85
ATOM     85  C   UNL     1      21.490   5.099   2.076  1.00  0.00     0.064 A 
ATOM     86  C   UNL     1      21.867   5.921   3.148  1.00  0.00     0.173 A 
ATOM     87  C   UNL     1      22.398   4.933   1.020  1.00  0.00     0.173 A 
ATOM     88  F   UNL     1      21.026   6.124   4.172  1.00  0.00    -0.203 F 
ATOM     89  C   UNL     1      23.100   6.568   3.151  1.00  0.00     0.198 A 
ATOM     90  C   UNL     1      23.640   5.561   1.040  1.00  0.00     0.198 A 
ATOM     91  F   UNL     1      22.084   4.153  -0.025  1.00  0.00    -0.203 F 
ATOM     92  F   UNL     1      23.425   7.382   4.165  1.00  0.00    -0.200 F 
ATOM     93  C   UNL     1      23.988   6.382   2.102  1.00  0.00     0.200 A 
ATOM     94  F   UNL     1      24.501   5.372   0.030  1.00  0.00    -0.200 F 
ATOM     95  F   UNL     1      25.177   7.000   2.110  1.00  0.00    -0.200 F 
ENDBRANCH  62  85
ENDBRANCH  36  37
ENDBRANCH  28  31
ENDBRANCH  26  27
ENDBRANCH  25  26
ENDBRANCH   1  25
TORSDOF 14
