REMARK SMILES COc1ccccc1C(=O)N/C(=C/c1ccc2c(c1)OCO2)C(=O)Nc1ccc(C(=O)NCCCCNC(=O)c2ccc(-c3c4nc(c(-c5c(F)c(F)c(F)c(F)c5F)c5ccc([nH]5)c(-c5c(F)c(F)c(F)c(F)c5F)c5nc(c(-c6c(F)c(F)c(F)c(F)c6F)c6ccc3[nH]6)C=C5)C=C4)cc2)cc1
REMARK SMILES IDX 33 1 32 2 30 3 31 4 29 6 26 7 27 8 104 9 28 10 103 11 25 12
REMARK SMILES IDX 23 13 24 14 12 16 13 17 11 18 9 19 10 20 8 22 3 23 4 24 5 25
REMARK SMILES IDX 7 26 6 27 2 28 1 29 14 30 15 31 19 32 16 33 18 34 17 35
REMARK SMILES IDX 20 36 22 37 21 38 34 39 35 40 36 41 37 42 38 43 39 45 40 46
REMARK SMILES IDX 41 47 102 48 42 49 101 50 43 51 44 52 45 53 95 54 46 55
REMARK SMILES IDX 100 56 94 57 96 58 47 59 99 60 93 61 92 62 48 64 80 65 60 66
REMARK SMILES IDX 79 67 61 68 64 69 78 70 97 71 62 72 63 73 77 75 98 76 65 77
REMARK SMILES IDX 49 78 50 79 58 80 51 81 52 82 56 83 59 84 53 85 54 86 57 87
REMARK SMILES IDX 55 88 81 89 82 90 90 91 83 92 84 93 88 94 91 95 85 96 86 97
REMARK SMILES IDX 89 98 87 99 66 100 67 101 75 102 68 103 69 104 73 105 76 106
REMARK SMILES IDX 70 107 71 108 74 109 72 110
REMARK H PARENT 32 5 25 15 11 21 37 44 96 63 64 74
REMARK Flexibility Score: inf
ROOT
ATOM      1  C   UNL     1      -1.287  -4.446  -3.509  1.00  0.00     0.116 C 
ENDROOT
BRANCH   1   2
ATOM      2  N   UNL     1      -2.096  -3.834  -4.543  1.00  0.00    -0.352 N 
ATOM      3  C   UNL     1      -2.696  -2.604  -4.564  1.00  0.00     0.251 C 
ATOM      4  O   UNL     1      -3.262  -2.212  -5.579  1.00  0.00    -0.269 OA
ATOM      5  H   UNL     1      -2.234  -4.383  -5.349  1.00  0.00     0.163 HD
BRANCH   3   6
ATOM      6  C   UNL     1      -2.597  -1.705  -3.408  1.00  0.00     0.039 A 
ATOM      7  C   UNL     1      -2.002   0.545  -0.500  1.00  0.00     0.041 A 
ATOM      8  C   UNL     1      -1.843   1.211  -2.132  1.00  0.00     0.027 A 
ATOM      9  C   UNL     1      -2.523  -1.123  -0.322  1.00  0.00     0.027 A 
ATOM     10  C   UNL     1      -2.103  -0.004  -3.727  1.00  0.00     0.016 A 
ATOM     11  C   UNL     1      -2.815  -2.199  -1.719  1.00  0.00     0.016 A 
BRANCH   7  12
ATOM     12  N   UNL     1      -1.032   1.066   0.375  1.00  0.00    -0.321 N 
ATOM     13  C   UNL     1       0.075   1.759  -0.103  1.00  0.00     0.272 C 
ATOM     14  O   UNL     1       0.272   2.931   0.219  1.00  0.00    -0.267 OA
ATOM     15  H   UNL     1      -1.138   0.937   1.346  1.00  0.00     0.170 HD
BRANCH  13  16
ATOM     16  C   UNL     1       1.181   0.987  -0.862  1.00  0.00     0.108 C 
ATOM     17  C   UNL     1       1.124   0.516  -2.142  1.00  0.00     0.040 C 
BRANCH  16  18
ATOM     18  N   UNL     1       2.392   0.775  -0.209  1.00  0.00    -0.317 N 
ATOM     19  C   UNL     1       2.897   1.024   1.048  1.00  0.00     0.259 C 
ATOM     20  O   UNL     1       4.056   0.665   1.274  1.00  0.00    -0.269 OA
ATOM     21  H   UNL     1       3.053   0.337  -0.792  1.00  0.00     0.170 HD
BRANCH  19  22
ATOM     22  C   UNL     1       2.186   1.719   2.135  1.00  0.00     0.082 A 
ATOM     23  C   UNL     1       1.029   1.274   2.786  1.00  0.00     0.131 A 
ATOM     24  C   UNL     1       0.412   2.122   3.720  1.00  0.00     0.047 A 
ATOM     25  C   UNL     1       0.993   3.335   4.092  1.00  0.00     0.004 A 
ATOM     26  C   UNL     1       2.798   2.915   2.558  1.00  0.00     0.018 A 
ATOM     27  C   UNL     1       2.208   3.716   3.537  1.00  0.00     0.001 A 
BRANCH  23  28
ATOM     28  O   UNL     1       0.340   0.106   2.603  1.00  0.00    -0.496 OA
ATOM     29  C   UNL     1       1.088  -1.053   2.265  1.00  0.00     0.278 C 
ENDBRANCH  23  28
ENDBRANCH  19  22
ENDBRANCH  16  18
BRANCH  17  30
ATOM     30  C   UNL     1      -0.093   0.419  -2.977  1.00  0.00    -0.019 A 
ATOM     31  C   UNL     1      -1.303  -0.605  -2.130  1.00  0.00     0.012 A 
ATOM     32  C   UNL     1      -0.683   1.787  -3.944  1.00  0.00     0.058 A 
ATOM     33  C   UNL     1      -3.250  -0.054  -2.204  1.00  0.00     0.051 A 
ATOM     34  C   UNL     1      -2.405   2.206  -4.025  1.00  0.00     0.166 A 
ATOM     35  C   UNL     1      -3.663   1.362  -3.206  1.00  0.00     0.165 A 
ATOM     36  O   UNL     1      -2.910   3.454  -4.297  1.00  0.00    -0.454 OA
ATOM     37  O   UNL     1      -4.738   2.183  -3.104  1.00  0.00    -0.454 OA
ATOM     38  C   UNL     1      -4.128   3.464  -3.472  1.00  0.00     0.468 C 
ENDBRANCH  17  30
ENDBRANCH  13  16
ENDBRANCH   7  12
ENDBRANCH   3   6
ENDBRANCH   1   2
BRANCH   1  39
ATOM     39  C   UNL     1      -2.086  -5.488  -2.731  1.00  0.00     0.023 C 
BRANCH  39  40
ATOM     40  C   UNL     1      -2.455  -6.735  -3.529  1.00  0.00     0.023 C 
BRANCH  40  41
ATOM     41  C   UNL     1      -1.273  -7.476  -4.126  1.00  0.00     0.116 C 
BRANCH  41  42
ATOM     42  N   UNL     1      -0.286  -7.889  -3.138  1.00  0.00    -0.352 N 
ATOM     43  C   UNL     1       0.509  -9.011  -3.186  1.00  0.00     0.251 C 
ATOM     44  H   UNL     1      -0.176  -7.304  -2.354  1.00  0.00     0.163 HD
ATOM     45  O   UNL     1       1.261  -9.312  -2.269  1.00  0.00    -0.269 OA
BRANCH  43  46
ATOM     46  C   UNL     1       0.386  -9.866  -4.378  1.00  0.00     0.039 A 
ATOM     47  C   UNL     1      -0.117 -11.160  -4.235  1.00  0.00     0.014 A 
ATOM     48  C   UNL     1       0.596  -9.302  -5.639  1.00  0.00     0.014 A 
ATOM     49  C   UNL     1      -0.483 -11.874  -5.375  1.00  0.00     0.010 A 
ATOM     50  C   UNL     1       0.158  -9.985  -6.763  1.00  0.00     0.010 A 
ATOM     51  C   UNL     1      -0.388 -11.274  -6.641  1.00  0.00    -0.014 A 
BRANCH  51  52
ATOM     52  C   UNL     1      -0.822 -11.972  -7.874  1.00  0.00     0.031 A 
ATOM     53  C   UNL     1       0.199 -12.277  -8.931  1.00  0.00     0.074 A 
ATOM     54  C   UNL     1      -2.127 -12.226  -8.088  1.00  0.00     0.049 A 
ATOM     55  N   UNL     1       0.027 -12.705 -10.154  1.00  0.00    -0.248 NA
ATOM     56  C   UNL     1       1.605 -12.024  -8.572  1.00  0.00     0.031 C 
ATOM     57  C   UNL     1      -3.214 -11.940  -7.151  1.00  0.00     0.029 A 
ATOM     58  N   UNL     1      -2.763 -12.762  -9.180  1.00  0.00    -0.354 N 
ATOM     59  C   UNL     1       1.294 -12.736 -10.719  1.00  0.00     0.074 A 
ATOM     60  C   UNL     1       2.219 -12.239  -9.725  1.00  0.00     0.031 C 
ATOM     61  C   UNL     1      -4.381 -12.314  -7.703  1.00  0.00     0.029 A 
ATOM     62  C   UNL     1      -4.130 -12.822  -9.049  1.00  0.00     0.049 A 
ATOM     63  H   UNL     1      -2.285 -13.074  -9.983  1.00  0.00     0.167 HD
ATOM     64  C   UNL     1       1.655 -13.164 -11.950  1.00  0.00     0.037 A 
ATOM     65  C   UNL     1      -5.070 -13.226  -9.925  1.00  0.00     0.037 A 
ATOM     66  C   UNL     1       0.734 -13.700 -12.914  1.00  0.00     0.049 A 
ATOM     67  C   UNL     1      -4.642 -13.704 -11.288  1.00  0.00     0.074 A 
ATOM     68  C   UNL     1       1.003 -14.224 -14.165  1.00  0.00     0.029 A 
ATOM     69  N   UNL     1      -0.638 -13.787 -12.726  1.00  0.00    -0.354 N 
ATOM     70  N   UNL     1      -3.436 -13.781 -11.795  1.00  0.00    -0.248 NA
ATOM     71  C   UNL     1      -5.705 -14.150 -12.200  1.00  0.00     0.031 C 
ATOM     72  C   UNL     1      -0.211 -14.594 -14.751  1.00  0.00     0.029 A 
ATOM     73  C   UNL     1      -1.231 -14.344 -13.846  1.00  0.00     0.049 A 
ATOM     74  H   UNL     1      -1.117 -13.495 -11.918  1.00  0.00     0.167 HD
ATOM     75  C   UNL     1      -3.589 -14.315 -13.067  1.00  0.00     0.074 A 
ATOM     76  C   UNL     1      -5.006 -14.547 -13.255  1.00  0.00     0.031 C 
ATOM     77  C   UNL     1      -2.642 -14.590 -13.997  1.00  0.00     0.037 A 
BRANCH  64  78
ATOM     78  C   UNL     1       3.107 -13.072 -12.317  1.00  0.00     0.064 A 
ATOM     79  C   UNL     1       4.072 -13.893 -11.715  1.00  0.00     0.173 A 
ATOM     80  C   UNL     1       3.536 -12.165 -13.297  1.00  0.00     0.173 A 
ATOM     81  F   UNL     1       3.714 -14.766 -10.761  1.00  0.00    -0.203 F 
ATOM     82  C   UNL     1       5.417 -13.787 -12.056  1.00  0.00     0.198 A 
ATOM     83  C   UNL     1       4.878 -12.083 -13.659  1.00  0.00     0.198 A 
ATOM     84  F   UNL     1       2.654 -11.358 -13.906  1.00  0.00    -0.203 F 
ATOM     85  F   UNL     1       6.327 -14.542 -11.426  1.00  0.00    -0.200 F 
ATOM     86  C   UNL     1       5.818 -12.887 -13.032  1.00  0.00     0.200 A 
ATOM     87  F   UNL     1       5.263 -11.222 -14.610  1.00  0.00    -0.200 F 
ATOM     88  F   UNL     1       7.113 -12.789 -13.362  1.00  0.00    -0.200 F 
ENDBRANCH  64  78
BRANCH  65  89
ATOM     89  C   UNL     1      -6.505 -13.214  -9.538  1.00  0.00     0.064 A 
ATOM     90  C   UNL     1      -7.202 -14.414  -9.337  1.00  0.00     0.173 A 
ATOM     91  C   UNL     1      -7.210 -12.014  -9.367  1.00  0.00     0.173 A 
ATOM     92  F   UNL     1      -6.576 -15.588  -9.508  1.00  0.00    -0.203 F 
ATOM     93  C   UNL     1      -8.554 -14.415  -8.999  1.00  0.00     0.198 A 
ATOM     94  C   UNL     1      -8.556 -12.016  -9.003  1.00  0.00     0.198 A 
ATOM     95  F   UNL     1      -6.589 -10.839  -9.542  1.00  0.00    -0.203 F 
ATOM     96  F   UNL     1      -9.206 -15.577  -8.855  1.00  0.00    -0.200 F 
ATOM     97  C   UNL     1      -9.229 -13.216  -8.827  1.00  0.00     0.200 A 
ATOM     98  F   UNL     1      -9.201 -10.855  -8.824  1.00  0.00    -0.200 F 
ATOM     99  F   UNL     1     -10.528 -13.217  -8.499  1.00  0.00    -0.200 F 
ENDBRANCH  65  89
BRANCH  77 100
ATOM    100  C   UNL     1      -3.091 -15.222 -15.280  1.00  0.00     0.064 A 
ATOM    101  C   UNL     1      -3.747 -14.483 -16.274  1.00  0.00     0.173 A 
ATOM    102  C   UNL     1      -2.782 -16.564 -15.549  1.00  0.00     0.173 A 
ATOM    103  F   UNL     1      -4.075 -13.201 -16.056  1.00  0.00    -0.203 F 
ATOM    104  C   UNL     1      -4.086 -15.069 -17.490  1.00  0.00     0.198 A 
ATOM    105  C   UNL     1      -3.099 -17.139 -16.776  1.00  0.00     0.198 A 
ATOM    106  F   UNL     1      -2.148 -17.309 -14.631  1.00  0.00    -0.203 F 
ATOM    107  F   UNL     1      -4.737 -14.354 -18.418  1.00  0.00    -0.200 F 
ATOM    108  C   UNL     1      -3.752 -16.392 -17.744  1.00  0.00     0.200 A 
ATOM    109  F   UNL     1      -2.762 -18.412 -17.025  1.00  0.00    -0.200 F 
ATOM    110  F   UNL     1      -4.062 -16.947 -18.924  1.00  0.00    -0.200 F 
ENDBRANCH  77 100
ENDBRANCH  51  52
ENDBRANCH  43  46
ENDBRANCH  41  42
ENDBRANCH  40  41
ENDBRANCH  39  40
ENDBRANCH   1  39
TORSDOF 17
