REMARK SMILES CCC[C@@](C)(C(=O)NCCCCNC(=O)c1ccc(-c2c3nc(c(-c4c(F)c(F)c(F)c(F)c4F)c4ccc([nH]4)c(-c4c(F)c(F)c(F)c(F)c4F)c4nc(c(-c5c(F)c(F)c(F)c(F)c5F)c5ccc2[nH]5)C=C4)C=C3)cc1)[C@H]1CCOC1
REMARK SMILES IDX 10 1 9 2 8 3 6 4 7 5 4 7 5 8 3 9 2 10 1 11 79 12 80 13 83 14
REMARK SMILES IDX 81 15 82 16 11 17 12 18 13 19 14 20 15 22 16 23 17 24 78 25
REMARK SMILES IDX 18 26 77 27 19 28 20 29 21 30 71 31 22 32 76 33 70 34 72 35
REMARK SMILES IDX 23 36 75 37 69 38 68 39 24 41 56 42 36 43 55 44 37 45 40 46
REMARK SMILES IDX 54 47 73 48 38 49 39 50 53 52 74 53 41 54 25 55 26 56 34 57
REMARK SMILES IDX 27 58 28 59 32 60 35 61 29 62 30 63 33 64 31 65 57 66 58 67
REMARK SMILES IDX 66 68 59 69 60 70 64 71 67 72 61 73 62 74 65 75 63 76 42 77
REMARK SMILES IDX 43 78 51 79 44 80 45 81 49 82 52 83 46 84 47 85 50 86 48 87
REMARK H PARENT 8 6 13 21 72 40 40 51
REMARK Flexibility Score: inf
ROOT
ATOM      1  C   UNL     1       1.370  -0.454   3.136  1.00  0.00     0.023 C 
ENDROOT
BRANCH   1   2
ATOM      2  C   UNL     1       2.117   0.119   1.928  1.00  0.00     0.116 C 
BRANCH   2   3
ATOM      3  N   UNL     1       2.603  -0.942   1.066  1.00  0.00    -0.356 N 
ATOM      4  C   UNL     1       2.182  -1.452  -0.122  1.00  0.00     0.226 C 
ATOM      5  O   UNL     1       2.746  -2.499  -0.451  1.00  0.00    -0.274 OA
ATOM      6  H   UNL     1       3.410  -1.387   1.415  1.00  0.00     0.163 HD
BRANCH   4   7
ATOM      7  C   UNL     1       1.105  -0.772  -1.020  1.00  0.00     0.051 C 
ATOM      8  C   UNL     1       1.631   0.630  -1.402  1.00  0.00     0.022 C 
BRANCH   7   9
ATOM      9  C   UNL     1      -0.255  -0.713  -0.253  1.00  0.00     0.017 C 
BRANCH   9  10
ATOM     10  C   UNL     1      -1.331   0.287  -0.700  1.00  0.00    -0.002 C 
ATOM     11  C   UNL     1      -2.072  -0.067  -1.977  1.00  0.00     0.004 C 
ENDBRANCH   9  10
ENDBRANCH   7   9
BRANCH   7  12
ATOM     12  C   UNL     1       0.909  -1.568  -2.358  1.00  0.00     0.032 C 
ATOM     13  C   UNL     1       2.103  -1.770  -3.280  1.00  0.00     0.035 C 
ATOM     14  C   UNL     1       0.365  -2.989  -2.261  1.00  0.00     0.164 C 
ATOM     15  C   UNL     1       1.567  -2.807  -4.250  1.00  0.00     0.160 C 
ATOM     16  O   UNL     1       0.603  -3.597  -3.541  1.00  0.00    -0.381 OA
ENDBRANCH   7  12
ENDBRANCH   4   7
ENDBRANCH   2   3
ENDBRANCH   1   2
BRANCH   1  17
ATOM     17  C   UNL     1       2.241  -1.240   4.118  1.00  0.00     0.023 C 
BRANCH  17  18
ATOM     18  C   UNL     1       3.429  -0.476   4.689  1.00  0.00     0.116 C 
BRANCH  18  19
ATOM     19  N   UNL     1       3.045   0.756   5.360  1.00  0.00    -0.352 N 
ATOM     20  C   UNL     1       3.512   1.280   6.540  1.00  0.00     0.251 C 
ATOM     21  H   UNL     1       2.354   1.289   4.904  1.00  0.00     0.163 HD
ATOM     22  O   UNL     1       2.990   2.279   7.024  1.00  0.00    -0.269 OA
BRANCH  20  23
ATOM     23  C   UNL     1       4.624   0.612   7.246  1.00  0.00     0.039 A 
ATOM     24  C   UNL     1       4.501   0.368   8.616  1.00  0.00     0.014 A 
ATOM     25  C   UNL     1       5.771   0.210   6.557  1.00  0.00     0.014 A 
ATOM     26  C   UNL     1       5.500  -0.341   9.283  1.00  0.00     0.010 A 
ATOM     27  C   UNL     1       6.733  -0.556   7.208  1.00  0.00     0.010 A 
ATOM     28  C   UNL     1       6.606  -0.841   8.576  1.00  0.00    -0.014 A 
BRANCH  28  29
ATOM     29  C   UNL     1       7.638  -1.669   9.249  1.00  0.00     0.031 A 
ATOM     30  C   UNL     1       9.049  -1.169   9.364  1.00  0.00     0.074 A 
ATOM     31  C   UNL     1       7.317  -2.901   9.689  1.00  0.00     0.049 A 
ATOM     32  N   UNL     1      10.106  -1.774   9.844  1.00  0.00    -0.248 NA
ATOM     33  C   UNL     1       9.315   0.181   8.844  1.00  0.00     0.031 C 
ATOM     34  C   UNL     1       5.994  -3.519   9.588  1.00  0.00     0.029 A 
ATOM     35  N   UNL     1       8.086  -3.861  10.299  1.00  0.00    -0.354 N 
ATOM     36  C   UNL     1      11.160  -0.888   9.669  1.00  0.00     0.074 A 
ATOM     37  C   UNL     1      10.628   0.275   8.993  1.00  0.00     0.031 C 
ATOM     38  C   UNL     1       6.038  -4.745  10.132  1.00  0.00     0.029 A 
ATOM     39  C   UNL     1       7.398  -5.015  10.588  1.00  0.00     0.049 A 
ATOM     40  H   UNL     1       9.039  -3.736  10.509  1.00  0.00     0.167 HD
ATOM     41  C   UNL     1      12.451  -1.025  10.057  1.00  0.00     0.037 A 
ATOM     42  C   UNL     1       7.821  -6.163  11.151  1.00  0.00     0.037 A 
ATOM     43  C   UNL     1      12.969  -2.172  10.755  1.00  0.00     0.049 A 
ATOM     44  C   UNL     1       9.258  -6.286  11.578  1.00  0.00     0.074 A 
ATOM     45  C   UNL     1      14.245  -2.376  11.250  1.00  0.00     0.029 A 
ATOM     46  N   UNL     1      12.236  -3.310  11.056  1.00  0.00    -0.354 N 
ATOM     47  N   UNL     1      10.230  -5.412  11.473  1.00  0.00    -0.248 NA
ATOM     48  C   UNL     1       9.656  -7.552  12.209  1.00  0.00     0.031 C 
ATOM     49  C   UNL     1      14.295  -3.656  11.813  1.00  0.00     0.029 A 
ATOM     50  C   UNL     1      13.038  -4.229  11.712  1.00  0.00     0.049 A 
ATOM     51  H   UNL     1      11.286  -3.445  10.835  1.00  0.00     0.167 HD
ATOM     52  C   UNL     1      11.344  -6.010  12.048  1.00  0.00     0.074 A 
ATOM     53  C   UNL     1      10.924  -7.315  12.513  1.00  0.00     0.031 C 
ATOM     54  C   UNL     1      12.601  -5.521  12.177  1.00  0.00     0.037 A 
BRANCH  41  55
ATOM     55  C   UNL     1      13.393   0.100   9.740  1.00  0.00     0.064 A 
ATOM     56  C   UNL     1      13.307   1.337  10.395  1.00  0.00     0.173 A 
ATOM     57  C   UNL     1      14.418  -0.074   8.798  1.00  0.00     0.173 A 
ATOM     58  F   UNL     1      12.338   1.559  11.296  1.00  0.00    -0.203 F 
ATOM     59  C   UNL     1      14.195   2.369  10.099  1.00  0.00     0.198 A 
ATOM     60  C   UNL     1      15.322   0.949   8.525  1.00  0.00     0.198 A 
ATOM     61  F   UNL     1      14.548  -1.240   8.147  1.00  0.00    -0.203 F 
ATOM     62  F   UNL     1      14.063   3.558  10.702  1.00  0.00    -0.200 F 
ATOM     63  C   UNL     1      15.205   2.171   9.170  1.00  0.00     0.200 A 
ATOM     64  F   UNL     1      16.306   0.753   7.637  1.00  0.00    -0.200 F 
ATOM     65  F   UNL     1      16.063   3.163   8.891  1.00  0.00    -0.200 F 
ENDBRANCH  41  55
BRANCH  42  66
ATOM     66  C   UNL     1       6.865  -7.280  11.366  1.00  0.00     0.064 A 
ATOM     67  C   UNL     1       6.455  -7.636  12.659  1.00  0.00     0.173 A 
ATOM     68  C   UNL     1       6.347  -8.017  10.291  1.00  0.00     0.173 A 
ATOM     69  F   UNL     1       6.939  -6.974  13.720  1.00  0.00    -0.203 F 
ATOM     70  C   UNL     1       5.581  -8.700  12.870  1.00  0.00     0.198 A 
ATOM     71  C   UNL     1       5.451  -9.063  10.501  1.00  0.00     0.198 A 
ATOM     72  F   UNL     1       6.703  -7.712   9.035  1.00  0.00    -0.203 F 
ATOM     73  F   UNL     1       5.242  -9.048  14.118  1.00  0.00    -0.200 F 
ATOM     74  C   UNL     1       5.075  -9.409  11.791  1.00  0.00     0.200 A 
ATOM     75  F   UNL     1       4.953  -9.736   9.455  1.00  0.00    -0.200 F 
ATOM     76  F   UNL     1       4.232 -10.430  11.994  1.00  0.00    -0.200 F 
ENDBRANCH  42  66
BRANCH  54  77
ATOM     77  C   UNL     1      13.606  -6.385  12.881  1.00  0.00     0.064 A 
ATOM     78  C   UNL     1      14.136  -7.536  12.280  1.00  0.00     0.173 A 
ATOM     79  C   UNL     1      14.073  -6.034  14.157  1.00  0.00     0.173 A 
ATOM     80  F   UNL     1      13.710  -7.922  11.068  1.00  0.00    -0.203 F 
ATOM     81  C   UNL     1      15.082  -8.316  12.941  1.00  0.00     0.198 A 
ATOM     82  C   UNL     1      15.040  -6.800  14.802  1.00  0.00     0.198 A 
ATOM     83  F   UNL     1      13.601  -4.939  14.772  1.00  0.00    -0.203 F 
ATOM     84  F   UNL     1      15.542  -9.436  12.367  1.00  0.00    -0.200 F 
ATOM     85  C   UNL     1      15.538  -7.944  14.197  1.00  0.00     0.200 A 
ATOM     86  F   UNL     1      15.489  -6.431  16.009  1.00  0.00    -0.200 F 
ATOM     87  F   UNL     1      16.453  -8.692  14.827  1.00  0.00    -0.200 F 
ENDBRANCH  54  77
ENDBRANCH  28  29
ENDBRANCH  20  23
ENDBRANCH  18  19
ENDBRANCH  17  18
ENDBRANCH   1  17
TORSDOF 14
