REMARK SMILES Cc1nnc(SCc2ccc(C(=O)NCCCCNC(=O)c3ccc(-c4c5nc(c(-c6c(F)c(F)c(F)c(F)c6F)c6ccc([nH]6)c(-c6c(F)c(F)c(F)c(F)c6F)c6nc(c(-c7c(F)c(F)c(F)c(F)c7F)c7ccc4[nH]7)C=C6)C=C5)cc3)cc2)o1
REMARK SMILES IDX 16 1 15 2 14 3 12 4 13 5 11 7 8 8 9 9 86 10 10 11 85 12 7 13
REMARK SMILES IDX 6 14 5 15 1 16 2 17 3 18 87 19 4 20 17 21 18 22 19 23 20 24
REMARK SMILES IDX 21 26 22 27 23 28 84 29 24 30 83 31 25 32 26 33 27 34 77 35
REMARK SMILES IDX 28 36 82 37 76 38 78 39 29 40 81 41 75 42 74 43 30 45 62 46
REMARK SMILES IDX 42 47 61 48 43 49 46 50 60 51 79 52 44 53 45 54 59 56 80 57
REMARK SMILES IDX 47 58 31 59 32 60 40 61 33 62 34 63 38 64 41 65 35 66 36 67
REMARK SMILES IDX 39 68 37 69 63 70 64 71 72 72 65 73 66 74 70 75 73 76 67 77
REMARK SMILES IDX 68 78 71 79 69 80 48 81 49 82 57 83 50 84 51 85 55 86 58 87
REMARK SMILES IDX 52 88 53 89 56 90 54 91
REMARK H PARENT 14 6 19 25 78 44 46 55
REMARK Flexibility Score: inf
ROOT
ATOM      1  C   UNL     1       1.146  -1.555   5.744  1.00  0.00     0.023 C 
ENDROOT
BRANCH   1   2
ATOM      2  C   UNL     1       2.616  -1.249   6.049  1.00  0.00     0.116 C 
BRANCH   2   3
ATOM      3  N   UNL     1       3.475  -2.319   5.590  1.00  0.00    -0.352 N 
ATOM      4  C   UNL     1       4.158  -2.512   4.414  1.00  0.00     0.251 C 
ATOM      5  O   UNL     1       4.866  -3.518   4.341  1.00  0.00    -0.269 OA
ATOM      6  H   UNL     1       3.592  -3.046   6.243  1.00  0.00     0.163 HD
BRANCH   4   7
ATOM      7  C   UNL     1       4.108  -1.573   3.252  1.00  0.00     0.039 A 
ATOM      8  C   UNL     1       4.102   0.061   0.918  1.00  0.00    -0.037 A 
ATOM      9  C   UNL     1       5.124  -0.874   1.148  1.00  0.00     0.005 A 
ATOM     10  C   UNL     1       3.119   0.194   1.900  1.00  0.00     0.005 A 
ATOM     11  C   UNL     1       5.131  -1.672   2.300  1.00  0.00     0.014 A 
ATOM     12  C   UNL     1       3.096  -0.644   3.018  1.00  0.00     0.014 A 
BRANCH   8  13
ATOM     13  C   UNL     1       4.110   0.828  -0.390  1.00  0.00     0.115 C 
BRANCH  13  14
ATOM     14  S   UNL     1       2.695   1.887  -0.796  1.00  0.00    -0.061 SA
BRANCH  14  15
ATOM     15  C   UNL     1       1.375   0.757  -0.752  1.00  0.00     0.276 A 
ATOM     16  C   UNL     1      -2.000  -0.011  -0.077  1.00  0.00     0.113 C 
ATOM     17  C   UNL     1      -0.565  -0.047  -0.407  1.00  0.00     0.214 A 
ATOM     18  N   UNL     1       0.217  -1.073  -0.659  1.00  0.00    -0.112 NA
ATOM     19  O   UNL     1       0.094   1.149  -0.453  1.00  0.00    -0.416 OA
ATOM     20  N   UNL     1       1.474  -0.549  -0.894  1.00  0.00    -0.101 NA
ENDBRANCH  14  15
ENDBRANCH  13  14
ENDBRANCH   8  13
ENDBRANCH   4   7
ENDBRANCH   2   3
ENDBRANCH   1   2
BRANCH   1  21
ATOM     21  C   UNL     1       0.458  -2.443   6.782  1.00  0.00     0.023 C 
BRANCH  21  22
ATOM     22  C   UNL     1       0.346  -1.824   8.168  1.00  0.00     0.116 C 
BRANCH  22  23
ATOM     23  N   UNL     1      -0.380  -0.563   8.184  1.00  0.00    -0.352 N 
ATOM     24  C   UNL     1      -1.088  -0.004   9.222  1.00  0.00     0.251 C 
ATOM     25  H   UNL     1      -0.362  -0.045   7.347  1.00  0.00     0.163 HD
ATOM     26  O   UNL     1      -1.734   1.021   9.059  1.00  0.00    -0.269 OA
BRANCH  24  27
ATOM     27  C   UNL     1      -1.099  -0.694  10.528  1.00  0.00     0.039 A 
ATOM     28  C   UNL     1      -2.327  -0.960  11.135  1.00  0.00     0.014 A 
ATOM     29  C   UNL     1       0.094  -1.117  11.120  1.00  0.00     0.014 A 
ATOM     30  C   UNL     1      -2.364  -1.714  12.308  1.00  0.00     0.010 A 
ATOM     31  C   UNL     1       0.051  -1.929  12.247  1.00  0.00     0.010 A 
ATOM     32  C   UNL     1      -1.178  -2.234  12.851  1.00  0.00    -0.014 A 
BRANCH  32  33
ATOM     33  C   UNL     1      -1.204  -3.106  14.050  1.00  0.00     0.031 A 
ATOM     34  C   UNL     1      -0.554  -2.652  15.325  1.00  0.00     0.074 A 
ATOM     35  C   UNL     1      -1.736  -4.339  13.961  1.00  0.00     0.049 A 
ATOM     36  N   UNL     1      -0.418  -3.293  16.458  1.00  0.00    -0.248 NA
ATOM     37  C   UNL     1       0.055  -1.314  15.315  1.00  0.00     0.031 C 
ATOM     38  C   UNL     1      -2.325  -4.920  12.754  1.00  0.00     0.029 A 
ATOM     39  N   UNL     1      -1.849  -5.334  14.899  1.00  0.00    -0.354 N 
ATOM     40  C   UNL     1       0.310  -2.448  17.283  1.00  0.00     0.074 A 
ATOM     41  C   UNL     1       0.631  -1.270  16.506  1.00  0.00     0.031 C 
ATOM     42  C   UNL     1      -2.749  -6.164  13.028  1.00  0.00     0.029 A 
ATOM     43  C   UNL     1      -2.437  -6.478  14.419  1.00  0.00     0.049 A 
ATOM     44  H   UNL     1      -1.539  -5.237  15.829  1.00  0.00     0.167 HD
ATOM     45  C   UNL     1       0.660  -2.629  18.579  1.00  0.00     0.037 A 
ATOM     46  C   UNL     1      -2.690  -7.650  15.031  1.00  0.00     0.037 A 
ATOM     47  C   UNL     1       0.305  -3.787  19.356  1.00  0.00     0.049 A 
ATOM     48  C   UNL     1      -2.332  -7.812  16.482  1.00  0.00     0.074 A 
ATOM     49  C   UNL     1       0.519  -4.022  20.702  1.00  0.00     0.029 A 
ATOM     50  N   UNL     1      -0.335  -4.910  18.850  1.00  0.00    -0.354 N 
ATOM     51  N   UNL     1      -1.735  -6.965  17.285  1.00  0.00    -0.248 NA
ATOM     52  C   UNL     1      -2.694  -9.087  17.116  1.00  0.00     0.031 C 
ATOM     53  C   UNL     1       0.052  -5.307  21.001  1.00  0.00     0.029 A 
ATOM     54  C   UNL     1      -0.498  -5.853  19.852  1.00  0.00     0.049 A 
ATOM     55  H   UNL     1      -0.630  -5.019  17.917  1.00  0.00     0.167 HD
ATOM     56  C   UNL     1      -1.664  -7.594  18.520  1.00  0.00     0.074 A 
ATOM     57  C   UNL     1      -2.297  -8.888  18.366  1.00  0.00     0.031 C 
ATOM     58  C   UNL     1      -1.124  -7.140  19.678  1.00  0.00     0.037 A 
BRANCH  45  59
ATOM     59  C   UNL     1       1.470  -1.548  19.233  1.00  0.00     0.064 A 
ATOM     60  C   UNL     1       0.926  -0.285  19.517  1.00  0.00     0.173 A 
ATOM     61  C   UNL     1       2.806  -1.781  19.592  1.00  0.00     0.173 A 
ATOM     62  F   UNL     1      -0.343  -0.007  19.183  1.00  0.00    -0.203 F 
ATOM     63  C   UNL     1       1.701   0.715  20.099  1.00  0.00     0.198 A 
ATOM     64  C   UNL     1       3.568  -0.789  20.203  1.00  0.00     0.198 A 
ATOM     65  F   UNL     1       3.374  -2.972  19.349  1.00  0.00    -0.203 F 
ATOM     66  F   UNL     1       1.177   1.931  20.304  1.00  0.00    -0.200 F 
ATOM     67  C   UNL     1       3.019   0.461  20.445  1.00  0.00     0.200 A 
ATOM     68  F   UNL     1       4.839  -1.039  20.548  1.00  0.00    -0.200 F 
ATOM     69  F   UNL     1       3.763   1.425  21.005  1.00  0.00    -0.200 F 
ENDBRANCH  45  59
BRANCH  46  70
ATOM     70  C   UNL     1      -3.344  -8.745  14.272  1.00  0.00     0.064 A 
ATOM     71  C   UNL     1      -4.680  -9.093  14.515  1.00  0.00     0.173 A 
ATOM     72  C   UNL     1      -2.658  -9.445  13.269  1.00  0.00     0.173 A 
ATOM     73  F   UNL     1      -5.371  -8.462  15.476  1.00  0.00    -0.203 F 
ATOM     74  C   UNL     1      -5.302 -10.107  13.790  1.00  0.00     0.198 A 
ATOM     75  C   UNL     1      -3.289 -10.443  12.529  1.00  0.00     0.198 A 
ATOM     76  F   UNL     1      -1.381  -9.144  12.994  1.00  0.00    -0.203 F 
ATOM     77  F   UNL     1      -6.571 -10.440  14.063  1.00  0.00    -0.200 F 
ATOM     78  C   UNL     1      -4.609 -10.776  12.793  1.00  0.00     0.200 A 
ATOM     79  F   UNL     1      -2.620 -11.076  11.555  1.00  0.00    -0.200 F 
ATOM     80  F   UNL     1      -5.212 -11.743  12.088  1.00  0.00    -0.200 F 
ENDBRANCH  46  70
BRANCH  58  81
ATOM     81  C   UNL     1      -1.206  -8.042  20.874  1.00  0.00     0.064 A 
ATOM     82  C   UNL     1      -0.411  -9.193  20.980  1.00  0.00     0.173 A 
ATOM     83  C   UNL     1      -2.055  -7.728  21.945  1.00  0.00     0.173 A 
ATOM     84  F   UNL     1       0.406  -9.544  19.975  1.00  0.00    -0.203 F 
ATOM     85  C   UNL     1      -0.479 -10.008  22.107  1.00  0.00     0.198 A 
ATOM     86  C   UNL     1      -2.101  -8.530  23.082  1.00  0.00     0.198 A 
ATOM     87  F   UNL     1      -2.832  -6.635  21.895  1.00  0.00    -0.203 F 
ATOM     88  F   UNL     1       0.258 -11.125  22.169  1.00  0.00    -0.200 F 
ATOM     89  C   UNL     1      -1.318  -9.672  23.159  1.00  0.00     0.200 A 
ATOM     90  F   UNL     1      -2.902  -8.197  24.104  1.00  0.00    -0.200 F 
ATOM     91  F   UNL     1      -1.376 -10.453  24.247  1.00  0.00    -0.200 F 
ENDBRANCH  58  81
ENDBRANCH  32  33
ENDBRANCH  24  27
ENDBRANCH  22  23
ENDBRANCH  21  22
ENDBRANCH   1  21
TORSDOF 14
