REMARK SMILES CCc1cc(S(F)(F)(F)(F)F)cc2c1O[C@@H](C(F)(F)F)C(C(=O)NCCCCNC(=O)c1ccc(-c3c4nc(c(-c5c(F)c(F)c(F)c(F)c5F)c5ccc([nH]5)c(-c5c(F)c(F)c(F)c(F)c5F)c5nc(c(-c6c(F)c(F)c(F)c(F)c6F)c6ccc3[nH]6)C=C5)C=C4)cc1)=C2
REMARK SMILES IDX 27 1 26 2 25 3 24 4 22 5 23 6 21 8 3 9 4 10 14 11 5 12 13 13
REMARK SMILES IDX 15 14 12 15 95 16 16 17 2 18 1 19 6 20 7 21 8 22 9 23 10 24
REMARK SMILES IDX 11 25 17 26 18 27 19 28 20 29 28 30 29 31 30 32 31 34 32 35
REMARK SMILES IDX 33 36 94 37 34 38 93 39 35 40 36 41 37 42 87 43 38 44 92 45
REMARK SMILES IDX 86 46 88 47 39 48 91 49 85 50 84 51 40 53 72 54 52 55 71 56
REMARK SMILES IDX 53 57 56 58 70 59 89 60 54 61 55 62 69 64 90 65 57 66 41 67
REMARK SMILES IDX 42 68 50 69 43 70 44 71 48 72 51 73 45 74 46 75 49 76 47 77
REMARK SMILES IDX 73 78 74 79 82 80 75 81 76 82 80 83 83 84 77 85 78 86 81 87
REMARK SMILES IDX 79 88 58 89 59 90 67 91 60 92 61 93 65 94 68 95 62 96 63 97
REMARK SMILES IDX 66 98 64 99
REMARK H PARENT 24 7 29 33 88 52 56 63
REMARK Flexibility Score: inf
ROOT
ATOM      1  C   UNL     1       0.542  10.420  -3.737  1.00  0.00     0.023 C 
ENDROOT
BRANCH   1   2
ATOM      2  C   UNL     1       0.583   8.900  -3.731  1.00  0.00     0.023 C 
BRANCH   2   3
ATOM      3  C   UNL     1       1.268   8.417  -2.463  1.00  0.00     0.116 C 
BRANCH   3   4
ATOM      4  N   UNL     1       0.520   8.891  -1.290  1.00  0.00    -0.352 N 
ATOM      5  C   UNL     1      -0.047   7.924  -0.339  1.00  0.00     0.251 C 
ATOM      6  O   UNL     1      -0.694   8.335   0.675  1.00  0.00    -0.270 OA
ATOM      7  H   UNL     1       0.399   9.857  -1.141  1.00  0.00     0.163 HD
BRANCH   5   8
ATOM      8  C   UNL     1       0.140   6.434  -0.569  1.00  0.00     0.067 C 
ATOM      9  C   UNL     1       1.036   2.364  -0.859  1.00  0.00    -0.004 A 
ATOM     10  C   UNL     1       1.560   1.854  -2.033  1.00  0.00     0.032 A 
ATOM     11  C   UNL     1       0.801   3.715  -0.772  1.00  0.00     0.131 A 
ATOM     12  C   UNL     1       1.846   2.676  -3.091  1.00  0.00     0.108 A 
ATOM     13  C   UNL     1       1.059   4.572  -1.827  1.00  0.00     0.019 A 
ATOM     14  O   UNL     1       0.387   4.221   0.436  1.00  0.00    -0.475 OA
ATOM     15  C   UNL     1       1.590   4.028  -2.991  1.00  0.00     0.036 A 
ATOM     16  C   UNL     1       0.813   5.989  -1.623  1.00  0.00     0.025 C 
ATOM     17  C   UNL     1      -0.440   5.417   0.406  1.00  0.00     0.314 C 
BRANCH   9  18
ATOM     18  C   UNL     1       0.529   1.481   0.270  1.00  0.00     0.036 C 
ATOM     19  C   UNL     1       1.036   0.062   0.070  1.00  0.00     0.009 C 
ENDBRANCH   9  18
BRANCH  12  20
ATOM     20  S   UNL     1       2.554   1.992  -4.610  1.00  0.00     0.310 S 
ATOM     21  F   UNL     1       4.022   1.753  -4.061  1.00  0.00    -0.094 F 
ATOM     22  F   UNL     1       3.029   3.427  -5.057  1.00  0.00    -0.094 F 
ATOM     23  F   UNL     1       3.027   1.385  -5.961  1.00  0.00    -0.094 F 
ATOM     24  F   UNL     1       2.201   0.543  -4.091  1.00  0.00    -0.094 F 
ATOM     25  F   UNL     1       2.174   2.577  -3.192  1.00  0.00    -0.094 F 
ENDBRANCH  12  20
BRANCH  17  26
ATOM     26  C   UNL     1      -0.478   6.029   1.797  1.00  0.00     0.429 C 
ATOM     27  F   UNL     1      -1.236   7.122   1.780  1.00  0.00    -0.167 F 
ATOM     28  F   UNL     1      -0.988   5.150   2.654  1.00  0.00    -0.167 F 
ATOM     29  F   UNL     1       0.756   6.352   2.173  1.00  0.00    -0.167 F 
ENDBRANCH  17  26
ENDBRANCH   5   8
ENDBRANCH   3   4
ENDBRANCH   2   3
ENDBRANCH   1   2
BRANCH   1  30
ATOM     30  C   UNL     1       1.960  10.965  -3.688  1.00  0.00     0.116 C 
BRANCH  30  31
ATOM     31  N   UNL     1       2.709  10.490  -4.861  1.00  0.00    -0.352 N 
ATOM     32  C   UNL     1       3.276  11.457  -5.812  1.00  0.00     0.251 C 
ATOM     33  H   UNL     1       2.830   9.524  -5.009  1.00  0.00     0.163 HD
ATOM     34  O   UNL     1       3.923  11.046  -6.826  1.00  0.00    -0.269 OA
BRANCH  32  35
ATOM     35  C   UNL     1       3.088  12.948  -5.582  1.00  0.00     0.039 A 
ATOM     36  C   UNL     1       2.748  13.763  -6.649  1.00  0.00     0.014 A 
ATOM     37  C   UNL     1       3.279  13.447  -4.367  1.00  0.00     0.014 A 
ATOM     38  C   UNL     1       2.914  15.144  -6.390  1.00  0.00     0.010 A 
ATOM     39  C   UNL     1       3.295  14.806  -4.163  1.00  0.00     0.010 A 
ATOM     40  C   UNL     1       3.025  15.673  -5.185  1.00  0.00    -0.014 A 
BRANCH  40  41
ATOM     41  C   UNL     1       2.861  17.165  -4.947  1.00  0.00     0.031 A 
ATOM     42  C   UNL     1       3.920  17.893  -4.401  1.00  0.00     0.074 A 
ATOM     43  C   UNL     1       1.659  17.726  -5.343  1.00  0.00     0.049 A 
ATOM     44  N   UNL     1       3.983  19.210  -4.200  1.00  0.00    -0.248 NA
ATOM     45  C   UNL     1       5.184  17.294  -3.948  1.00  0.00     0.031 C 
ATOM     46  C   UNL     1       0.589  17.000  -5.903  1.00  0.00     0.029 A 
ATOM     47  N   UNL     1       1.280  19.049  -5.274  1.00  0.00    -0.354 N 
ATOM     48  C   UNL     1       5.166  19.540  -3.676  1.00  0.00     0.074 A 
ATOM     49  C   UNL     1       5.953  18.312  -3.501  1.00  0.00     0.031 C 
ATOM     50  C   UNL     1      -0.424  17.870  -6.156  1.00  0.00     0.029 A 
ATOM     51  C   UNL     1      -0.004  19.154  -5.760  1.00  0.00     0.049 A 
ATOM     52  H   UNL     1       1.832  19.790  -4.935  1.00  0.00     0.167 HD
ATOM     53  C   UNL     1       5.619  20.816  -3.340  1.00  0.00     0.037 A 
ATOM     54  C   UNL     1      -0.783  20.296  -5.859  1.00  0.00     0.037 A 
ATOM     55  C   UNL     1       4.856  21.965  -3.479  1.00  0.00     0.049 A 
ATOM     56  C   UNL     1      -0.351  21.566  -5.468  1.00  0.00     0.074 A 
ATOM     57  C   UNL     1       5.300  23.260  -3.152  1.00  0.00     0.029 A 
ATOM     58  N   UNL     1       3.563  22.067  -3.942  1.00  0.00    -0.354 N 
ATOM     59  N   UNL     1       0.845  21.900  -4.981  1.00  0.00    -0.248 NA
ATOM     60  C   UNL     1      -1.179  22.777  -5.537  1.00  0.00     0.031 C 
ATOM     61  C   UNL     1       4.287  24.130  -3.406  1.00  0.00     0.029 A 
ATOM     62  C   UNL     1       3.192  23.392  -3.894  1.00  0.00     0.049 A 
ATOM     63  H   UNL     1       3.001  21.321  -4.254  1.00  0.00     0.167 HD
ATOM     64  C   UNL     1       0.893  23.212  -4.741  1.00  0.00     0.074 A 
ATOM     65  C   UNL     1      -0.411  23.794  -5.089  1.00  0.00     0.031 C 
ATOM     66  C   UNL     1       1.973  23.948  -4.250  1.00  0.00     0.037 A 
BRANCH  53  67
ATOM     67  C   UNL     1       7.029  20.955  -2.790  1.00  0.00     0.064 A 
ATOM     68  C   UNL     1       8.104  20.544  -3.562  1.00  0.00     0.173 A 
ATOM     69  C   UNL     1       7.208  21.466  -1.578  1.00  0.00     0.173 A 
ATOM     70  F   UNL     1       8.001  20.268  -4.859  1.00  0.00    -0.203 F 
ATOM     71  C   UNL     1       9.320  20.446  -2.846  1.00  0.00     0.198 A 
ATOM     72  C   UNL     1       8.451  21.460  -0.992  1.00  0.00     0.198 A 
ATOM     73  F   UNL     1       6.174  21.988  -0.924  1.00  0.00    -0.203 F 
ATOM     74  F   UNL     1      10.302  19.732  -3.390  1.00  0.00    -0.200 F 
ATOM     75  C   UNL     1       9.548  21.013  -1.676  1.00  0.00     0.200 A 
ATOM     76  F   UNL     1       8.589  21.894   0.257  1.00  0.00    -0.200 F 
ATOM     77  F   UNL     1      10.778  21.144  -1.188  1.00  0.00    -0.200 F 
ENDBRANCH  53  67
BRANCH  54  78
ATOM     78  C   UNL     1      -2.188  20.160  -6.424  1.00  0.00     0.064 A 
ATOM     79  C   UNL     1      -2.531  20.860  -7.569  1.00  0.00     0.173 A 
ATOM     80  C   UNL     1      -3.062  19.370  -5.812  1.00  0.00     0.173 A 
ATOM     81  F   UNL     1      -1.634  21.454  -8.351  1.00  0.00    -0.203 F 
ATOM     82  C   UNL     1      -3.921  20.886  -7.830  1.00  0.00     0.198 A 
ATOM     83  C   UNL     1      -4.378  19.343  -6.208  1.00  0.00     0.198 A 
ATOM     84  F   UNL     1      -2.661  18.597  -4.807  1.00  0.00    -0.203 F 
ATOM     85  F   UNL     1      -4.375  21.808  -8.674  1.00  0.00    -0.200 F 
ATOM     86  C   UNL     1      -4.799  20.057  -7.295  1.00  0.00     0.200 A 
ATOM     87  F   UNL     1      -5.253  18.613  -5.524  1.00  0.00    -0.200 F 
ATOM     88  F   UNL     1      -6.027  19.924  -7.788  1.00  0.00    -0.200 F 
ENDBRANCH  54  78
BRANCH  66  89
ATOM     89  C   UNL     1       1.801  25.451  -4.096  1.00  0.00     0.064 A 
ATOM     90  C   UNL     1       0.815  25.939  -3.256  1.00  0.00     0.173 A 
ATOM     91  C   UNL     1       2.604  26.270  -4.766  1.00  0.00     0.173 A 
ATOM     92  F   UNL     1       0.163  25.177  -2.381  1.00  0.00    -0.203 F 
ATOM     93  C   UNL     1       0.562  27.323  -3.412  1.00  0.00     0.198 A 
ATOM     94  C   UNL     1       2.379  27.625  -4.764  1.00  0.00     0.198 A 
ATOM     95  F   UNL     1       3.634  25.773  -5.444  1.00  0.00    -0.203 F 
ATOM     96  F   UNL     1      -0.581  27.802  -2.929  1.00  0.00    -0.200 F 
ATOM     97  C   UNL     1       1.383  28.172  -4.003  1.00  0.00     0.200 A 
ATOM     98  F   UNL     1       3.140  28.417  -5.514  1.00  0.00    -0.200 F 
ATOM     99  F   UNL     1       1.249  29.488  -3.865  1.00  0.00    -0.200 F 
ENDBRANCH  66  89
ENDBRANCH  40  41
ENDBRANCH  32  35
ENDBRANCH  30  31
ENDBRANCH   1  30
TORSDOF 14
