REMARK SMILES CC[C@H](C)CN(CC)c1nc(C(=O)NCCCCNC(=O)c2ccc(-c3c4nc(c(-c5c(F)c(F)c(F)c(F)c5F)c5ccc([nH]5)c(-c5c(F)c(F)c(F)c(F)c5F)c5nc(c(-c6c(F)c(F)c(F)c(F)c6F)c6ccc3[nH]6)C=C5)C=C4)cc2)cc2ccccc12
REMARK SMILES IDX 15 1 14 2 12 3 13 4 11 6 9 7 10 8 91 9 86 10 90 11 85 12
REMARK SMILES IDX 87 13 89 14 88 15 6 16 5 17 3 18 4 19 2 20 1 21 7 22 8 23
REMARK SMILES IDX 16 24 17 25 18 26 19 27 20 28 21 30 22 31 23 32 84 33 24 34
REMARK SMILES IDX 83 35 25 36 26 37 27 38 77 39 28 40 82 41 76 42 78 43 29 44
REMARK SMILES IDX 81 45 75 46 74 47 30 49 62 50 42 51 61 52 43 53 46 54 60 55
REMARK SMILES IDX 79 56 44 57 45 58 59 60 80 61 47 62 31 63 32 64 40 65 33 66
REMARK SMILES IDX 34 67 38 68 41 69 35 70 36 71 39 72 37 73 63 74 64 75 72 76
REMARK SMILES IDX 65 77 66 78 70 79 73 80 67 81 68 82 71 83 69 84 48 85 49 86
REMARK SMILES IDX 57 87 50 88 51 89 55 90 58 91 52 92 53 93 56 94 54 95
REMARK H PARENT 14 5 19 29 78 48 46 59
REMARK Flexibility Score: inf
ROOT
ATOM      1  C   UNL     1      -0.617   0.773   7.421  1.00  0.00     0.116 C 
ENDROOT
BRANCH   1   2
ATOM      2  N   UNL     1      -0.752  -0.665   7.424  1.00  0.00    -0.351 N 
ATOM      3  C   UNL     1      -0.471  -1.573   6.429  1.00  0.00     0.269 C 
ATOM      4  O   UNL     1      -0.708  -2.759   6.674  1.00  0.00    -0.268 OA
ATOM      5  H   UNL     1      -1.097  -1.052   8.261  1.00  0.00     0.163 HD
BRANCH   3   6
ATOM      6  C   UNL     1       0.107  -1.192   5.093  1.00  0.00     0.131 A 
ATOM      7  C   UNL     1       1.242   0.323   3.734  1.00  0.00     0.137 A 
ATOM      8  N   UNL     1       0.640   0.043   4.912  1.00  0.00    -0.225 NA
ATOM      9  C   UNL     1       1.447  -0.692   2.758  1.00  0.00     0.024 A 
ATOM     10  C   UNL     1       0.757  -1.910   2.910  1.00  0.00    -0.012 A 
ATOM     11  C   UNL     1       2.282  -0.562   1.625  1.00  0.00     0.012 A 
ATOM     12  C   UNL     1       0.089  -2.162   4.103  1.00  0.00     0.043 A 
ATOM     13  C   UNL     1       0.747  -2.851   1.866  1.00  0.00     0.009 A 
ATOM     14  C   UNL     1       2.268  -1.496   0.589  1.00  0.00     0.001 A 
ATOM     15  C   UNL     1       1.467  -2.624   0.695  1.00  0.00     0.001 A 
BRANCH   7  16
ATOM     16  N   UNL     1       1.541   1.663   3.438  1.00  0.00    -0.356 N 
BRANCH  16  17
ATOM     17  C   UNL     1       0.524   2.442   2.674  1.00  0.00     0.121 C 
BRANCH  17  18
ATOM     18  C   UNL     1       0.454   2.041   1.181  1.00  0.00     0.005 C 
ATOM     19  C   UNL     1      -0.738   1.113   0.909  1.00  0.00     0.009 C 
BRANCH  18  20
ATOM     20  C   UNL     1       0.459   3.217   0.183  1.00  0.00     0.002 C 
ATOM     21  C   UNL     1       1.044   2.774  -1.162  1.00  0.00     0.004 C 
ENDBRANCH  18  20
ENDBRANCH  17  18
ENDBRANCH  16  17
BRANCH  16  22
ATOM     22  C   UNL     1       2.359   2.406   4.402  1.00  0.00     0.114 C 
ATOM     23  C   UNL     1       1.636   2.805   5.679  1.00  0.00     0.027 C 
ENDBRANCH  16  22
ENDBRANCH   7  16
ENDBRANCH   3   6
ENDBRANCH   1   2
BRANCH   1  24
ATOM     24  C   UNL     1      -1.828   1.487   8.005  1.00  0.00     0.023 C 
BRANCH  24  25
ATOM     25  C   UNL     1      -2.078   1.250   9.489  1.00  0.00     0.023 C 
BRANCH  25  26
ATOM     26  C   UNL     1      -0.894   1.537  10.403  1.00  0.00     0.116 C 
BRANCH  26  27
ATOM     27  N   UNL     1      -0.394   2.899  10.289  1.00  0.00    -0.352 N 
ATOM     28  C   UNL     1      -0.203   3.848  11.262  1.00  0.00     0.251 C 
ATOM     29  H   UNL     1      -0.157   3.183   9.376  1.00  0.00     0.163 HD
ATOM     30  O   UNL     1       0.109   4.997  10.953  1.00  0.00    -0.269 OA
BRANCH  28  31
ATOM     31  C   UNL     1      -0.402   3.500  12.685  1.00  0.00     0.039 A 
ATOM     32  C   UNL     1      -1.099   4.389  13.507  1.00  0.00     0.014 A 
ATOM     33  C   UNL     1       0.085   2.300  13.207  1.00  0.00     0.014 A 
ATOM     34  C   UNL     1      -1.362   4.042  14.834  1.00  0.00     0.010 A 
ATOM     35  C   UNL     1      -0.265   1.912  14.497  1.00  0.00     0.010 A 
ATOM     36  C   UNL     1      -0.979   2.785  15.330  1.00  0.00    -0.014 A 
BRANCH  36  37
ATOM     37  C   UNL     1      -1.300   2.381  16.724  1.00  0.00     0.031 A 
ATOM     38  C   UNL     1      -0.193   2.089  17.700  1.00  0.00     0.074 A 
ATOM     39  C   UNL     1      -2.586   2.236  17.100  1.00  0.00     0.049 A 
ATOM     40  N   UNL     1      -0.269   1.710  18.952  1.00  0.00    -0.248 NA
ATOM     41  C   UNL     1       1.185   2.210  17.197  1.00  0.00     0.031 C 
ATOM     42  C   UNL     1      -3.748   2.429  16.231  1.00  0.00     0.029 A 
ATOM     43  N   UNL     1      -3.131   1.892  18.311  1.00  0.00    -0.354 N 
ATOM     44  C   UNL     1       1.042   1.539  19.376  1.00  0.00     0.074 A 
ATOM     45  C   UNL     1       1.892   1.786  18.233  1.00  0.00     0.031 C 
ATOM     46  C   UNL     1      -4.868   2.237  16.946  1.00  0.00     0.029 A 
ATOM     47  C   UNL     1      -4.505   1.871  18.311  1.00  0.00     0.049 A 
ATOM     48  H   UNL     1      -2.590   1.679  19.105  1.00  0.00     0.167 HD
ATOM     49  C   UNL     1       1.500   1.236  20.614  1.00  0.00     0.037 A 
ATOM     50  C   UNL     1      -5.373   1.590  19.302  1.00  0.00     0.037 A 
ATOM     51  C   UNL     1       0.651   1.012  21.755  1.00  0.00     0.049 A 
ATOM     52  C   UNL     1      -4.838   1.255  20.670  1.00  0.00     0.074 A 
ATOM     53  C   UNL     1       1.016   0.754  23.065  1.00  0.00     0.029 A 
ATOM     54  N   UNL     1      -0.736   1.014  21.720  1.00  0.00    -0.354 N 
ATOM     55  N   UNL     1      -3.595   1.177  21.079  1.00  0.00    -0.248 NA
ATOM     56  C   UNL     1      -5.832   0.983  21.717  1.00  0.00     0.031 C 
ATOM     57  C   UNL     1      -0.149   0.546  23.810  1.00  0.00     0.029 A 
ATOM     58  C   UNL     1      -1.242   0.739  22.980  1.00  0.00     0.049 A 
ATOM     59  H   UNL     1      -1.280   1.186  20.918  1.00  0.00     0.167 HD
ATOM     60  C   UNL     1      -3.657   0.880  22.434  1.00  0.00     0.074 A 
ATOM     61  C   UNL     1      -5.061   0.811  22.781  1.00  0.00     0.031 C 
ATOM     62  C   UNL     1      -2.643   0.681  23.312  1.00  0.00     0.037 A 
BRANCH  49  63
ATOM     63  C   UNL     1       2.988   1.133  20.799  1.00  0.00     0.064 A 
ATOM     64  C   UNL     1       3.822   2.259  20.705  1.00  0.00     0.173 A 
ATOM     65  C   UNL     1       3.586  -0.099  21.102  1.00  0.00     0.173 A 
ATOM     66  F   UNL     1       3.304   3.460  20.406  1.00  0.00    -0.203 F 
ATOM     67  C   UNL     1       5.200   2.148  20.874  1.00  0.00     0.198 A 
ATOM     68  C   UNL     1       4.960  -0.200  21.305  1.00  0.00     0.198 A 
ATOM     69  F   UNL     1       2.837  -1.207  21.209  1.00  0.00    -0.203 F 
ATOM     70  F   UNL     1       5.980   3.227  20.723  1.00  0.00    -0.200 F 
ATOM     71  C   UNL     1       5.766   0.921  21.182  1.00  0.00     0.200 A 
ATOM     72  F   UNL     1       5.504  -1.384  21.618  1.00  0.00    -0.200 F 
ATOM     73  F   UNL     1       7.091   0.817  21.352  1.00  0.00    -0.200 F 
ENDBRANCH  49  63
BRANCH  50  74
ATOM     74  C   UNL     1      -6.837   1.647  19.050  1.00  0.00     0.064 A 
ATOM     75  C   UNL     1      -7.635   2.633  19.649  1.00  0.00     0.173 A 
ATOM     76  C   UNL     1      -7.473   0.712  18.220  1.00  0.00     0.173 A 
ATOM     77  F   UNL     1      -7.079   3.538  20.467  1.00  0.00    -0.203 F 
ATOM     78  C   UNL     1      -9.014   2.664  19.450  1.00  0.00     0.198 A 
ATOM     79  C   UNL     1      -8.847   0.764  17.995  1.00  0.00     0.198 A 
ATOM     80  F   UNL     1      -6.755  -0.248  17.618  1.00  0.00    -0.203 F 
ATOM     81  F   UNL     1      -9.759   3.583  20.079  1.00  0.00    -0.200 F 
ATOM     82  C   UNL     1      -9.618   1.733  18.619  1.00  0.00     0.200 A 
ATOM     83  F   UNL     1      -9.424  -0.128  17.179  1.00  0.00    -0.200 F 
ATOM     84  F   UNL     1     -10.944   1.764  18.426  1.00  0.00    -0.200 F 
ENDBRANCH  50  74
BRANCH  62  85
ATOM     85  C   UNL     1      -3.015   0.414  24.744  1.00  0.00     0.064 A 
ATOM     86  C   UNL     1      -3.633  -0.782  25.138  1.00  0.00     0.173 A 
ATOM     87  C   UNL     1      -2.728   1.362  25.738  1.00  0.00     0.173 A 
ATOM     88  F   UNL     1      -3.942  -1.716  24.226  1.00  0.00    -0.203 F 
ATOM     89  C   UNL     1      -3.985  -1.002  26.468  1.00  0.00     0.198 A 
ATOM     90  C   UNL     1      -3.046   1.123  27.072  1.00  0.00     0.198 A 
ATOM     91  F   UNL     1      -2.128   2.518  25.418  1.00  0.00    -0.203 F 
ATOM     92  F   UNL     1      -4.632  -2.124  26.810  1.00  0.00    -0.200 F 
ATOM     93  C   UNL     1      -3.685  -0.053  27.434  1.00  0.00     0.200 A 
ATOM     94  F   UNL     1      -2.740   2.033  28.006  1.00  0.00    -0.200 F 
ATOM     95  F   UNL     1      -4.021  -0.268  28.713  1.00  0.00    -0.200 F 
ENDBRANCH  62  85
ENDBRANCH  36  37
ENDBRANCH  28  31
ENDBRANCH  26  27
ENDBRANCH  25  26
ENDBRANCH  24  25
ENDBRANCH   1  24
TORSDOF 16
