REMARK SMILES O=C(CCc1ccco1)N[C@H]1CCCCC[C@H]1C(=O)NCCCCNC(=O)c1ccc(-c2c3nc(c(-c4c(F)c(F)c(F)c(F)c4F)c4ccc([nH]4)c(-c4c(F)c(F)c(F)c(F)c4F)c4nc(c(-c5c(F)c(F)c(F)c(F)c5F)c5ccc2[nH]5)C=C4)C=C3)cc1
REMARK SMILES IDX 21 1 20 2 18 3 19 4 17 6 11 7 10 9 1 10 2 11 3 13 4 14 5 15
REMARK SMILES IDX 6 16 9 17 7 18 8 19 16 20 15 21 14 22 13 23 12 24 22 26
REMARK SMILES IDX 23 27 24 28 25 29 26 30 27 32 28 33 29 34 90 35 30 36 89 37
REMARK SMILES IDX 31 38 32 39 33 40 83 41 34 42 88 43 82 44 84 45 35 46 87 47
REMARK SMILES IDX 81 48 80 49 36 51 68 52 48 53 67 54 49 55 52 56 66 57 85 58
REMARK SMILES IDX 50 59 51 60 65 62 86 63 53 64 37 65 38 66 46 67 39 68 40 69
REMARK SMILES IDX 44 70 47 71 41 72 42 73 45 74 43 75 69 76 70 77 78 78 71 79
REMARK SMILES IDX 72 80 76 81 79 82 73 83 74 84 77 85 75 86 54 87 55 88 63 89
REMARK SMILES IDX 56 90 57 91 61 92 64 93 58 94 59 95 62 96 60 97
REMARK H PARENT 20 5 10 12 25 31 84 50 52 61
REMARK Flexibility Score: 100.00
ROOT
ATOM      1  C   UNL     1       0.172   3.678  -3.862  1.00  0.00     0.116 C 
ENDROOT
BRANCH   1   2
ATOM      2  N   UNL     1       0.690   2.413  -4.316  1.00  0.00    -0.356 N 
ATOM      3  C   UNL     1       0.523   1.183  -3.755  1.00  0.00     0.225 C 
ATOM      4  O   UNL     1       0.236   0.269  -4.537  1.00  0.00    -0.275 OA
ATOM      5  H   UNL     1       1.234   2.441  -5.136  1.00  0.00     0.163 HD
BRANCH   3   6
ATOM      6  C   UNL     1       0.784   0.868  -2.270  1.00  0.00     0.101 C 
BRANCH   6   7
ATOM      7  C   UNL     1       2.178   1.226  -1.710  1.00  0.00     0.094 CG0
ATOM      8  G   UNL     1       2.277   2.222  -0.547  1.00  0.00     0.000 G0
BRANCH   7   9
ATOM      9  N   UNL     1       3.156   1.483  -2.769  1.00  0.00    -0.353 N 
ATOM     10  O   UNL     1       3.851  -0.705  -2.886  1.00  0.00    -0.275 OA
ATOM     11  C   UNL     1       3.882   0.444  -3.320  1.00  0.00     0.220 C 
ATOM     12  H   UNL     1       3.298   2.403  -3.091  1.00  0.00     0.163 HD
BRANCH  11  13
ATOM     13  C   UNL     1       4.733   0.802  -4.516  1.00  0.00     0.108 C 
BRANCH  13  14
ATOM     14  C   UNL     1       3.916   0.815  -5.803  1.00  0.00     0.085 C 
BRANCH  14  15
ATOM     15  C   UNL     1       3.535   2.178  -6.271  1.00  0.00     0.104 A 
ATOM     16  C   UNL     1       4.103   3.432  -6.170  1.00  0.00     0.045 A 
ATOM     17  O   UNL     1       2.408   2.247  -7.038  1.00  0.00    -0.469 OA
ATOM     18  C   UNL     1       3.289   4.305  -6.932  1.00  0.00     0.042 A 
ATOM     19  C   UNL     1       2.279   3.532  -7.452  1.00  0.00     0.195 A 
ENDBRANCH  14  15
ENDBRANCH  13  14
ENDBRANCH  11  13
ENDBRANCH   7   9
ENDBRANCH   6   7
BRANCH   6  20
ATOM     20  C   UNL     1      -0.391   0.953  -1.292  1.00  0.00     0.015 C 
BRANCH  20  21
ATOM     21  C   UNL     1      -0.953   2.303  -0.882  1.00  0.00     0.001 C 
BRANCH  21  22
ATOM     22  C   UNL     1      -0.031   3.279  -0.151  1.00  0.00     0.000 C 
BRANCH  22  23
ATOM     23  C   UNL     1       1.411   3.462  -0.618  1.00  0.00     0.002 C 
BRANCH  23  24
ATOM     24  C   UNL     1       2.277   2.222  -0.547  1.00  0.00     0.026 CG0
ATOM     25  G   UNL     1       2.178   1.226  -1.710  1.00  0.00     0.000 G0
ENDBRANCH  23  24
ENDBRANCH  22  23
ENDBRANCH  21  22
ENDBRANCH  20  21
ENDBRANCH   6  20
ENDBRANCH   3   6
ENDBRANCH   1   2
BRANCH   1  26
ATOM     26  C   UNL     1       1.147   4.849  -3.990  1.00  0.00     0.023 C 
BRANCH  26  27
ATOM     27  C   UNL     1       0.707   5.875  -5.023  1.00  0.00     0.023 C 
BRANCH  27  28
ATOM     28  C   UNL     1      -0.630   6.528  -4.689  1.00  0.00     0.116 C 
BRANCH  28  29
ATOM     29  N   UNL     1      -0.544   7.547  -3.652  1.00  0.00    -0.352 N 
ATOM     30  C   UNL     1      -0.759   8.907  -3.742  1.00  0.00     0.251 C 
ATOM     31  H   UNL     1      -0.296   7.218  -2.758  1.00  0.00     0.163 HD
ATOM     32  O   UNL     1      -0.565   9.638  -2.786  1.00  0.00    -0.269 OA
BRANCH  30  33
ATOM     33  C   UNL     1      -1.168   9.475  -5.045  1.00  0.00     0.039 A 
ATOM     34  C   UNL     1      -0.426  10.525  -5.588  1.00  0.00     0.014 A 
ATOM     35  C   UNL     1      -2.203   8.890  -5.774  1.00  0.00     0.014 A 
ATOM     36  C   UNL     1      -0.645  10.905  -6.913  1.00  0.00     0.010 A 
ATOM     37  C   UNL     1      -2.328   9.179  -7.126  1.00  0.00     0.010 A 
ATOM     38  C   UNL     1      -1.548  10.187  -7.714  1.00  0.00    -0.014 A 
BRANCH  38  39
ATOM     39  C   UNL     1      -1.706  10.466  -9.166  1.00  0.00     0.031 A 
ATOM     40  C   UNL     1      -3.063  10.821  -9.711  1.00  0.00     0.074 A 
ATOM     41  C   UNL     1      -0.665  10.302 -10.007  1.00  0.00     0.049 A 
ATOM     42  N   UNL     1      -3.451  10.951 -10.954  1.00  0.00    -0.248 NA
ATOM     43  C   UNL     1      -4.142  11.005  -8.726  1.00  0.00     0.031 C 
ATOM     44  C   UNL     1       0.687   9.893  -9.619  1.00  0.00     0.029 A 
ATOM     45  N   UNL     1      -0.585  10.447 -11.370  1.00  0.00    -0.354 N 
ATOM     46  C   UNL     1      -4.819  11.185 -10.898  1.00  0.00     0.074 A 
ATOM     47  C   UNL     1      -5.205  11.120  -9.506  1.00  0.00     0.031 C 
ATOM     48  C   UNL     1       1.468   9.856 -10.711  1.00  0.00     0.029 A 
ATOM     49  C   UNL     1       0.666  10.194 -11.882  1.00  0.00     0.049 A 
ATOM     50  H   UNL     1      -1.351  10.708 -11.930  1.00  0.00     0.167 HD
ATOM     51  C   UNL     1      -5.672  11.463 -11.911  1.00  0.00     0.037 A 
ATOM     52  C   UNL     1       1.111  10.225 -13.153  1.00  0.00     0.037 A 
ATOM     53  C   UNL     1      -5.273  11.602 -13.284  1.00  0.00     0.049 A 
ATOM     54  C   UNL     1       0.153  10.583 -14.257  1.00  0.00     0.074 A 
ATOM     55  C   UNL     1      -6.041  11.975 -14.372  1.00  0.00     0.029 A 
ATOM     56  N   UNL     1      -3.986  11.386 -13.754  1.00  0.00    -0.354 N 
ATOM     57  N   UNL     1      -1.124  10.868 -14.182  1.00  0.00    -0.248 NA
ATOM     58  C   UNL     1       0.699  10.626 -15.621  1.00  0.00     0.031 C 
ATOM     59  C   UNL     1      -5.225  11.956 -15.508  1.00  0.00     0.029 A 
ATOM     60  C   UNL     1      -3.941  11.607 -15.120  1.00  0.00     0.049 A 
ATOM     61  H   UNL     1      -3.219  11.116 -13.199  1.00  0.00     0.167 HD
ATOM     62  C   UNL     1      -1.529  11.145 -15.480  1.00  0.00     0.074 A 
ATOM     63  C   UNL     1      -0.359  11.009 -16.322  1.00  0.00     0.031 C 
ATOM     64  C   UNL     1      -2.761  11.479 -15.936  1.00  0.00     0.037 A 
BRANCH  51  65
ATOM     65  C   UNL     1      -7.119  11.659 -11.562  1.00  0.00     0.064 A 
ATOM     66  C   UNL     1      -7.557  12.780 -10.842  1.00  0.00     0.173 A 
ATOM     67  C   UNL     1      -8.081  10.721 -11.967  1.00  0.00     0.173 A 
ATOM     68  F   UNL     1      -6.674  13.698 -10.419  1.00  0.00    -0.203 F 
ATOM     69  C   UNL     1      -8.899  12.938 -10.508  1.00  0.00     0.198 A 
ATOM     70  C   UNL     1      -9.427  10.899 -11.659  1.00  0.00     0.198 A 
ATOM     71  F   UNL     1      -7.715   9.633 -12.661  1.00  0.00    -0.203 F 
ATOM     72  F   UNL     1      -9.284  13.988  -9.769  1.00  0.00    -0.200 F 
ATOM     73  C   UNL     1      -9.833  12.001 -10.922  1.00  0.00     0.200 A 
ATOM     74  F   UNL     1     -10.331   9.998 -12.068  1.00  0.00    -0.200 F 
ATOM     75  F   UNL     1     -11.125  12.156 -10.602  1.00  0.00    -0.200 F 
ENDBRANCH  51  65
BRANCH  52  76
ATOM     76  C   UNL     1       2.540   9.943 -13.450  1.00  0.00     0.064 A 
ATOM     77  C   UNL     1       3.402  10.970 -13.858  1.00  0.00     0.173 A 
ATOM     78  C   UNL     1       3.072   8.651 -13.337  1.00  0.00     0.173 A 
ATOM     79  F   UNL     1       2.934  12.219 -13.999  1.00  0.00    -0.203 F 
ATOM     80  C   UNL     1       4.738  10.713 -14.161  1.00  0.00     0.198 A 
ATOM     81  C   UNL     1       4.415   8.399 -13.616  1.00  0.00     0.198 A 
ATOM     82  F   UNL     1       2.291   7.634 -12.943  1.00  0.00    -0.203 F 
ATOM     83  F   UNL     1       5.529  11.706 -14.588  1.00  0.00    -0.200 F 
ATOM     84  C   UNL     1       5.244   9.428 -14.035  1.00  0.00     0.200 A 
ATOM     85  F   UNL     1       4.904   7.159 -13.479  1.00  0.00    -0.200 F 
ATOM     86  F   UNL     1       6.529   9.181 -14.322  1.00  0.00    -0.200 F 
ENDBRANCH  52  76
BRANCH  64  87
ATOM     87  C   UNL     1      -2.903  11.751 -17.403  1.00  0.00     0.064 A 
ATOM     88  C   UNL     1      -2.901  10.712 -18.343  1.00  0.00     0.173 A 
ATOM     89  C   UNL     1      -3.105  13.060 -17.865  1.00  0.00     0.173 A 
ATOM     90  F   UNL     1      -2.697   9.446 -17.949  1.00  0.00    -0.203 F 
ATOM     91  C   UNL     1      -3.083  10.975 -19.698  1.00  0.00     0.198 A 
ATOM     92  C   UNL     1      -3.311  13.317 -19.216  1.00  0.00     0.198 A 
ATOM     93  F   UNL     1      -3.121  14.087 -17.001  1.00  0.00    -0.203 F 
ATOM     94  F   UNL     1      -3.044   9.971 -20.584  1.00  0.00    -0.200 F 
ATOM     95  C   UNL     1      -3.296  12.275 -20.132  1.00  0.00     0.200 A 
ATOM     96  F   UNL     1      -3.529  14.572 -19.633  1.00  0.00    -0.200 F 
ATOM     97  F   UNL     1      -3.482  12.525 -21.435  1.00  0.00    -0.200 F 
ENDBRANCH  64  87
ENDBRANCH  38  39
ENDBRANCH  30  33
ENDBRANCH  28  29
ENDBRANCH  27  28
ENDBRANCH  26  27
ENDBRANCH   1  26
TORSDOF 15
