REMARK SMILES CNC(=O)NC(=O)CCSc1csc(C(=O)NCCCCNC(=O)c2ccc(-c3c4nc(c(-c5c(F)c(F)c(F)c(F)c5F)c5ccc([nH]5)c(-c5c(F)c(F)c(F)c(F)c5F)c5nc(c(-c6c(F)c(F)c(F)c(F)c6F)c6ccc3[nH]6)C=C5)C=C4)cc2)c1
REMARK SMILES IDX 18 1 17 2 15 3 16 4 14 6 11 7 12 8 88 9 13 10 10 11 9 12
REMARK SMILES IDX 8 13 6 14 1 15 2 16 3 17 4 19 5 20 7 22 19 23 20 24 21 25
REMARK SMILES IDX 22 26 23 27 24 29 25 30 26 31 87 32 27 33 86 34 28 35 29 36
REMARK SMILES IDX 30 37 80 38 31 39 85 40 79 41 81 42 32 43 84 44 78 45 77 46
REMARK SMILES IDX 33 48 65 49 45 50 64 51 46 52 49 53 63 54 82 55 47 56 48 57
REMARK SMILES IDX 62 59 83 60 50 61 34 62 35 63 43 64 36 65 37 66 41 67 44 68
REMARK SMILES IDX 38 69 39 70 42 71 40 72 66 73 67 74 75 75 68 76 69 77 73 78
REMARK SMILES IDX 76 79 70 80 71 81 74 82 72 83 51 84 52 85 60 86 53 87 54 88
REMARK SMILES IDX 58 89 61 90 55 91 56 92 59 93 57 94
REMARK H PARENT 17 5 2 18 5 21 22 28 81 47 49 58
REMARK Flexibility Score: inf
ROOT
ATOM      1  C   UNL     1      -2.442   0.304   4.748  1.00  0.00     0.116 C 
ENDROOT
BRANCH   1   2
ATOM      2  N   UNL     1      -2.640   1.657   5.225  1.00  0.00    -0.351 N 
ATOM      3  C   UNL     1      -2.005   2.842   4.941  1.00  0.00     0.261 C 
ATOM      4  O   UNL     1      -2.528   3.838   5.451  1.00  0.00    -0.268 OA
ATOM      5  H   UNL     1      -3.371   1.745   5.879  1.00  0.00     0.163 HD
BRANCH   3   6
ATOM      6  C   UNL     1      -0.832   2.911   4.078  1.00  0.00     0.093 A 
ATOM      7  C   UNL     1       1.033   2.476   2.729  1.00  0.00     0.019 A 
ATOM      8  C   UNL     1       0.841   3.810   2.475  1.00  0.00     0.080 A 
ATOM      9  C   UNL     1       0.145   1.992   3.735  1.00  0.00     0.040 A 
ATOM     10  S   UNL     1      -0.497   4.432   3.330  1.00  0.00    -0.137 S 
BRANCH   7  11
ATOM     11  S   UNL     1       2.224   1.433   1.967  1.00  0.00    -0.125 SA
BRANCH  11  12
ATOM     12  C   UNL     1       2.270   2.048   0.252  1.00  0.00     0.085 C 
BRANCH  12  13
ATOM     13  C   UNL     1       1.131   1.683  -0.695  1.00  0.00     0.112 C 
BRANCH  13  14
ATOM     14  C   UNL     1      -0.262   1.966  -0.224  1.00  0.00     0.228 C 
ATOM     15  C   UNL     1       0.876  -1.469  -0.016  1.00  0.00     0.144 C 
ATOM     16  N   UNL     1      -0.093  -1.101   0.980  1.00  0.00    -0.341 N 
ATOM     17  C   UNL     1      -1.064  -0.186   1.018  1.00  0.00     0.321 C 
ATOM     18  H   UNL     1      -0.028  -1.635   1.804  1.00  0.00     0.165 HD
ATOM     19  O   UNL     1      -2.017  -0.420   1.769  1.00  0.00    -0.248 OA
ATOM     20  N   UNL     1      -1.073   1.003   0.349  1.00  0.00    -0.278 N 
ATOM     21  H   UNL     1      -2.010   1.280   0.229  1.00  0.00     0.174 HD
ATOM     22  O   UNL     1      -0.723   3.106  -0.345  1.00  0.00    -0.275 OA
ENDBRANCH  13  14
ENDBRANCH  12  13
ENDBRANCH  11  12
ENDBRANCH   7  11
ENDBRANCH   3   6
ENDBRANCH   1   2
BRANCH   1  23
ATOM     23  C   UNL     1      -2.071  -0.643   5.886  1.00  0.00     0.023 C 
BRANCH  23  24
ATOM     24  C   UNL     1      -3.220  -0.950   6.849  1.00  0.00     0.023 C 
BRANCH  24  25
ATOM     25  C   UNL     1      -4.432  -1.632   6.219  1.00  0.00     0.116 C 
BRANCH  25  26
ATOM     26  N   UNL     1      -4.122  -2.928   5.634  1.00  0.00    -0.352 N 
ATOM     27  C   UNL     1      -4.760  -4.137   5.795  1.00  0.00     0.251 C 
ATOM     28  H   UNL     1      -3.340  -2.942   5.036  1.00  0.00     0.163 HD
ATOM     29  O   UNL     1      -4.277  -5.157   5.325  1.00  0.00    -0.269 OA
BRANCH  27  30
ATOM     30  C   UNL     1      -6.020  -4.206   6.569  1.00  0.00     0.039 A 
ATOM     31  C   UNL     1      -6.174  -5.222   7.517  1.00  0.00     0.014 A 
ATOM     32  C   UNL     1      -7.039  -3.270   6.374  1.00  0.00     0.014 A 
ATOM     33  C   UNL     1      -7.314  -5.250   8.323  1.00  0.00     0.010 A 
ATOM     34  C   UNL     1      -8.136  -3.252   7.231  1.00  0.00     0.010 A 
ATOM     35  C   UNL     1      -8.284  -4.239   8.219  1.00  0.00    -0.014 A 
BRANCH  35  36
ATOM     36  C   UNL     1      -9.449  -4.189   9.141  1.00  0.00     0.031 A 
ATOM     37  C   UNL     1     -10.848  -4.315   8.604  1.00  0.00     0.074 A 
ATOM     38  C   UNL     1      -9.251  -3.960  10.454  1.00  0.00     0.049 A 
ATOM     39  N   UNL     1     -11.991  -4.227   9.239  1.00  0.00    -0.248 NA
ATOM     40  C   UNL     1     -10.984  -4.546   7.158  1.00  0.00     0.031 C 
ATOM     41  C   UNL     1      -7.947  -3.770  11.092  1.00  0.00     0.029 A 
ATOM     42  N   UNL     1     -10.146  -3.836  11.489  1.00  0.00    -0.354 N 
ATOM     43  C   UNL     1     -12.975  -4.378   8.271  1.00  0.00     0.074 A 
ATOM     44  C   UNL     1     -12.299  -4.507   6.998  1.00  0.00     0.031 C 
ATOM     45  C   UNL     1      -8.125  -3.577  12.409  1.00  0.00     0.029 A 
ATOM     46  C   UNL     1      -9.554  -3.586  12.703  1.00  0.00     0.049 A 
ATOM     47  H   UNL     1     -11.120  -3.918  11.371  1.00  0.00     0.167 HD
ATOM     48  C   UNL     1     -14.319  -4.429   8.431  1.00  0.00     0.037 A 
ATOM     49  C   UNL     1     -10.102  -3.376  13.916  1.00  0.00     0.037 A 
ATOM     50  C   UNL     1     -14.988  -4.319   9.701  1.00  0.00     0.049 A 
ATOM     51  C   UNL     1     -11.600  -3.420  14.063  1.00  0.00     0.074 A 
ATOM     52  C   UNL     1     -16.341  -4.418   9.974  1.00  0.00     0.029 A 
ATOM     53  N   UNL     1     -14.354  -4.080  10.912  1.00  0.00    -0.354 N 
ATOM     54  N   UNL     1     -12.516  -3.639  13.151  1.00  0.00    -0.248 NA
ATOM     55  C   UNL     1     -12.140  -3.195  15.411  1.00  0.00     0.031 C 
ATOM     56  C   UNL     1     -16.531  -4.182  11.339  1.00  0.00     0.029 A 
ATOM     57  C   UNL     1     -15.291  -4.000  11.930  1.00  0.00     0.049 A 
ATOM     58  H   UNL     1     -13.381  -3.981  11.030  1.00  0.00     0.167 HD
ATOM     59  C   UNL     1     -13.734  -3.611  13.818  1.00  0.00     0.074 A 
ATOM     60  C   UNL     1     -13.438  -3.369  15.215  1.00  0.00     0.031 C 
ATOM     61  C   UNL     1     -14.984  -3.770  13.318  1.00  0.00     0.037 A 
BRANCH  48  62
ATOM     62  C   UNL     1     -15.161  -4.613   7.200  1.00  0.00     0.064 A 
ATOM     63  C   UNL     1     -15.162  -5.819   6.483  1.00  0.00     0.173 A 
ATOM     64  C   UNL     1     -16.010  -3.588   6.758  1.00  0.00     0.173 A 
ATOM     65  F   UNL     1     -14.362  -6.829   6.857  1.00  0.00    -0.203 F 
ATOM     66  C   UNL     1     -15.959  -5.981   5.352  1.00  0.00     0.198 A 
ATOM     67  C   UNL     1     -16.831  -3.765   5.647  1.00  0.00     0.198 A 
ATOM     68  F   UNL     1     -16.055  -2.417   7.411  1.00  0.00    -0.203 F 
ATOM     69  F   UNL     1     -15.905  -7.124   4.654  1.00  0.00    -0.200 F 
ATOM     70  C   UNL     1     -16.799  -4.957   4.940  1.00  0.00     0.200 A 
ATOM     71  F   UNL     1     -17.654  -2.780   5.260  1.00  0.00    -0.200 F 
ATOM     72  F   UNL     1     -17.573  -5.118   3.858  1.00  0.00    -0.200 F 
ENDBRANCH  48  62
BRANCH  49  73
ATOM     73  C   UNL     1      -9.231  -3.121  15.094  1.00  0.00     0.064 A 
ATOM     74  C   UNL     1      -9.137  -4.054  16.137  1.00  0.00     0.173 A 
ATOM     75  C   UNL     1      -8.490  -1.936  15.213  1.00  0.00     0.173 A 
ATOM     76  F   UNL     1      -9.843  -5.193  16.081  1.00  0.00    -0.203 F 
ATOM     77  C   UNL     1      -8.357  -3.800  17.263  1.00  0.00     0.198 A 
ATOM     78  C   UNL     1      -7.684  -1.698  16.325  1.00  0.00     0.198 A 
ATOM     79  F   UNL     1      -8.540  -1.012  14.242  1.00  0.00    -0.203 F 
ATOM     80  F   UNL     1      -8.329  -4.686  18.269  1.00  0.00    -0.200 F 
ATOM     81  C   UNL     1      -7.627  -2.625  17.354  1.00  0.00     0.200 A 
ATOM     82  F   UNL     1      -6.968  -0.568  16.401  1.00  0.00    -0.200 F 
ATOM     83  F   UNL     1      -6.875  -2.383  18.437  1.00  0.00    -0.200 F 
ENDBRANCH  49  73
BRANCH  61  84
ATOM     84  C   UNL     1     -16.128  -3.732  14.292  1.00  0.00     0.064 A 
ATOM     85  C   UNL     1     -16.523  -2.545  14.925  1.00  0.00     0.173 A 
ATOM     86  C   UNL     1     -16.864  -4.896  14.563  1.00  0.00     0.173 A 
ATOM     87  F   UNL     1     -15.844  -1.407  14.711  1.00  0.00    -0.203 F 
ATOM     88  C   UNL     1     -17.593  -2.530  15.815  1.00  0.00     0.198 A 
ATOM     89  C   UNL     1     -17.955  -4.870  15.427  1.00  0.00     0.198 A 
ATOM     90  F   UNL     1     -16.534  -6.058  13.979  1.00  0.00    -0.203 F 
ATOM     91  F   UNL     1     -17.919  -1.395  16.449  1.00  0.00    -0.200 F 
ATOM     92  C   UNL     1     -18.314  -3.690  16.059  1.00  0.00     0.200 A 
ATOM     93  F   UNL     1     -18.660  -5.989  15.648  1.00  0.00    -0.200 F 
ATOM     94  F   UNL     1     -19.349  -3.671  16.909  1.00  0.00    -0.200 F 
ENDBRANCH  61  84
ENDBRANCH  35  36
ENDBRANCH  27  30
ENDBRANCH  25  26
ENDBRANCH  24  25
ENDBRANCH  23  24
ENDBRANCH   1  23
TORSDOF 15
