REMARK SMILES COc1cccc(C(=O)Nc2ccc(NC(=O)[C@@H]3[C@@H](C(=O)NCCCCNC(=O)c4ccc(-c5c6nc(c(-c7c(F)c(F)c(F)c(F)c7F)c7ccc([nH]7)c(-c7c(F)c(F)c(F)c(F)c7F)c7nc(c(-c8c(F)c(F)c(F)c(F)c8F)c8ccc5[nH]8)C=C7)C=C6)cc4)[C@@H]4C=C[C@H]3C4)cc2)c1
REMARK SMILES IDX 23 1 22 2 20 3 21 4 19 6 18 7 96 8 93 9 95 10 97 11 94 12
REMARK SMILES IDX 16 13 15 14 17 16 14 17 11 18 12 19 99 20 13 21 98 22 10 23
REMARK SMILES IDX 8 24 9 25 7 27 3 28 4 29 100 30 5 31 6 32 2 33 1 34 24 35
REMARK SMILES IDX 25 36 26 37 27 38 28 39 29 41 30 42 31 43 92 44 32 45 91 46
REMARK SMILES IDX 33 47 34 48 35 49 85 50 36 51 90 52 84 53 86 54 37 55 89 56
REMARK SMILES IDX 83 57 82 58 38 60 70 61 50 62 69 63 51 64 54 65 68 66 87 67
REMARK SMILES IDX 52 68 53 69 67 71 88 72 55 73 39 74 40 75 48 76 41 77 42 78
REMARK SMILES IDX 46 79 49 80 43 81 44 82 47 83 45 84 71 85 72 86 80 87 73 88
REMARK SMILES IDX 74 89 78 90 81 91 75 92 76 93 79 94 77 95 56 96 57 97 65 98
REMARK SMILES IDX 58 99 59 100 63 101 66 102 60 103 61 104 64 105 62 106
REMARK H PARENT 22 5 15 15 10 26 27 40 86 59 54 70
REMARK Flexibility Score: inf
ROOT
ATOM      1  C   UNL     1       7.065  -3.615  -4.946  1.00  0.00     0.116 C 
ENDROOT
BRANCH   1   2
ATOM      2  N   UNL     1       5.833  -2.981  -5.364  1.00  0.00    -0.356 N 
ATOM      3  C   UNL     1       5.035  -2.024  -4.841  1.00  0.00     0.224 C 
ATOM      4  O   UNL     1       4.037  -1.747  -5.517  1.00  0.00    -0.275 OA
ATOM      5  H   UNL     1       5.500  -3.326  -6.224  1.00  0.00     0.163 HD
BRANCH   3   6
ATOM      6  C   UNL     1       5.220  -1.354  -3.475  1.00  0.00     0.098 C 
ATOM      7  C   UNL     1       4.968   0.186  -3.653  1.00  0.00     0.099 C 
ATOM      8  C   UNL     1       6.305   0.812  -3.146  1.00  0.00     0.025 C 
ATOM      9  C   UNL     1       6.611  -1.373  -2.809  1.00  0.00     0.025 C 
ATOM     10  C   UNL     1       6.447   0.617  -1.663  1.00  0.00    -0.027 C 
ATOM     11  C   UNL     1       7.316  -0.258  -3.584  1.00  0.00     0.017 C 
ATOM     12  C   UNL     1       6.585  -0.699  -1.455  1.00  0.00    -0.027 C 
BRANCH   7  13
ATOM     13  C   UNL     1       3.709   0.930  -3.159  1.00  0.00     0.228 C 
ATOM     14  N   UNL     1       3.282   1.010  -1.866  1.00  0.00    -0.326 N 
ATOM     15  H   UNL     1       2.731   1.803  -1.672  1.00  0.00     0.169 HD
ATOM     16  O   UNL     1       3.133   1.692  -3.950  1.00  0.00    -0.274 OA
BRANCH  14  17
ATOM     17  C   UNL     1       3.483   0.174  -0.771  1.00  0.00     0.041 A 
ATOM     18  C   UNL     1       4.023  -1.465   1.408  1.00  0.00     0.041 A 
ATOM     19  C   UNL     1       3.688  -2.032   0.179  1.00  0.00     0.028 A 
ATOM     20  C   UNL     1       4.085  -0.081   1.561  1.00  0.00     0.028 A 
ATOM     21  C   UNL     1       3.351  -1.203  -0.885  1.00  0.00     0.028 A 
ATOM     22  C   UNL     1       3.773   0.742   0.474  1.00  0.00     0.028 A 
BRANCH  18  23
ATOM     23  N   UNL     1       4.230  -2.293   2.507  1.00  0.00    -0.322 N 
ATOM     24  C   UNL     1       3.377  -3.257   3.009  1.00  0.00     0.255 C 
ATOM     25  O   UNL     1       3.859  -4.209   3.624  1.00  0.00    -0.269 OA
ATOM     26  H   UNL     1       5.084  -2.179   2.982  1.00  0.00     0.170 HD
BRANCH  24  27
ATOM     27  C   UNL     1       1.885  -3.045   3.026  1.00  0.00     0.043 A 
ATOM     28  C   UNL     1      -0.199  -2.005   2.277  1.00  0.00     0.119 A 
ATOM     29  C   UNL     1      -0.852  -2.517   3.392  1.00  0.00     0.046 A 
ATOM     30  C   UNL     1       1.151  -2.299   2.094  1.00  0.00     0.060 A 
ATOM     31  C   UNL     1      -0.162  -3.308   4.311  1.00  0.00     0.005 A 
ATOM     32  C   UNL     1       1.199  -3.567   4.130  1.00  0.00     0.014 A 
BRANCH  28  33
ATOM     33  O   UNL     1      -0.961  -1.224   1.450  1.00  0.00    -0.497 OA
ATOM     34  C   UNL     1      -0.305  -0.582   0.357  1.00  0.00     0.278 C 
ENDBRANCH  28  33
ENDBRANCH  24  27
ENDBRANCH  18  23
ENDBRANCH  14  17
ENDBRANCH   7  13
ENDBRANCH   3   6
ENDBRANCH   1   2
BRANCH   1  35
ATOM     35  C   UNL     1       6.820  -4.793  -3.999  1.00  0.00     0.023 C 
BRANCH  35  36
ATOM     36  C   UNL     1       7.194  -6.146  -4.610  1.00  0.00     0.023 C 
BRANCH  36  37
ATOM     37  C   UNL     1       8.656  -6.275  -5.022  1.00  0.00     0.116 C 
BRANCH  37  38
ATOM     38  N   UNL     1       9.601  -6.153  -3.924  1.00  0.00    -0.352 N 
ATOM     39  C   UNL     1      10.908  -6.589  -3.914  1.00  0.00     0.251 C 
ATOM     40  H   UNL     1       9.274  -5.715  -3.105  1.00  0.00     0.163 HD
ATOM     41  O   UNL     1      11.600  -6.515  -2.905  1.00  0.00    -0.269 OA
BRANCH  39  42
ATOM     42  C   UNL     1      11.442  -7.206  -5.145  1.00  0.00     0.039 A 
ATOM     43  C   UNL     1      11.900  -8.524  -5.099  1.00  0.00     0.014 A 
ATOM     44  C   UNL     1      11.374  -6.516  -6.358  1.00  0.00     0.014 A 
ATOM     45  C   UNL     1      12.220  -9.179  -6.289  1.00  0.00     0.010 A 
ATOM     46  C   UNL     1      11.616  -7.195  -7.546  1.00  0.00     0.010 A 
ATOM     47  C   UNL     1      12.038  -8.533  -7.524  1.00  0.00    -0.014 A 
BRANCH  47  48
ATOM     48  C   UNL     1      12.282  -9.240  -8.806  1.00  0.00     0.031 A 
ATOM     49  C   UNL     1      13.373  -8.771  -9.725  1.00  0.00     0.074 A 
ATOM     50  C   UNL     1      11.477 -10.254  -9.175  1.00  0.00     0.049 A 
ATOM     51  N   UNL     1      13.712  -9.220 -10.907  1.00  0.00    -0.248 NA
ATOM     52  C   UNL     1      14.168  -7.622  -9.267  1.00  0.00     0.031 C 
ATOM     53  C   UNL     1      10.350 -10.768  -8.395  1.00  0.00     0.029 A 
ATOM     54  N   UNL     1      11.482 -11.034 -10.304  1.00  0.00    -0.354 N 
ATOM     55  C   UNL     1      14.746  -8.399 -11.337  1.00  0.00     0.074 A 
ATOM     56  C   UNL     1      14.932  -7.386 -10.322  1.00  0.00     0.031 C 
ATOM     57  C   UNL     1       9.797 -11.801  -9.050  1.00  0.00     0.029 A 
ATOM     58  C   UNL     1      10.507 -12.001 -10.310  1.00  0.00     0.049 A 
ATOM     59  H   UNL     1      12.123 -10.911 -11.041  1.00  0.00     0.167 HD
ATOM     60  C   UNL     1      15.492  -8.498 -12.463  1.00  0.00     0.037 A 
ATOM     61  C   UNL     1      10.225 -12.946 -11.226  1.00  0.00     0.037 A 
ATOM     62  C   UNL     1      15.317  -9.521 -13.460  1.00  0.00     0.049 A 
ATOM     63  C   UNL     1      11.057 -13.030 -12.476  1.00  0.00     0.074 A 
ATOM     64  C   UNL     1      16.062  -9.752 -14.602  1.00  0.00     0.029 A 
ATOM     65  N   UNL     1      14.318 -10.484 -13.432  1.00  0.00    -0.354 N 
ATOM     66  N   UNL     1      12.083 -12.299 -12.838  1.00  0.00    -0.248 NA
ATOM     67  C   UNL     1      10.692 -14.074 -13.443  1.00  0.00     0.031 C 
ATOM     68  C   UNL     1      15.485 -10.826 -15.290  1.00  0.00     0.029 A 
ATOM     69  C   UNL     1      14.410 -11.296 -14.551  1.00  0.00     0.049 A 
ATOM     70  H   UNL     1      13.642 -10.577 -12.722  1.00  0.00     0.167 HD
ATOM     71  C   UNL     1      12.506 -12.811 -14.057  1.00  0.00     0.074 A 
ATOM     72  C   UNL     1      11.630 -13.922 -14.368  1.00  0.00     0.031 C 
ATOM     73  C   UNL     1      13.531 -12.400 -14.845  1.00  0.00     0.037 A 
BRANCH  60  74
ATOM     74  C   UNL     1      16.561  -7.462 -12.668  1.00  0.00     0.064 A 
ATOM     75  C   UNL     1      17.694  -7.399 -11.840  1.00  0.00     0.173 A 
ATOM     76  C   UNL     1      16.445  -6.511 -13.692  1.00  0.00     0.173 A 
ATOM     77  F   UNL     1      17.846  -8.277 -10.837  1.00  0.00    -0.203 F 
ATOM     78  C   UNL     1      18.643  -6.393 -11.999  1.00  0.00     0.198 A 
ATOM     79  C   UNL     1      17.415  -5.527 -13.870  1.00  0.00     0.198 A 
ATOM     80  F   UNL     1      15.386  -6.528 -14.516  1.00  0.00    -0.203 F 
ATOM     81  F   UNL     1      19.676  -6.309 -11.149  1.00  0.00    -0.200 F 
ATOM     82  C   UNL     1      18.505  -5.460 -13.015  1.00  0.00     0.200 A 
ATOM     83  F   UNL     1      17.286  -4.633 -14.860  1.00  0.00    -0.200 F 
ATOM     84  F   UNL     1      19.415  -4.488 -13.162  1.00  0.00    -0.200 F 
ENDBRANCH  60  74
BRANCH  61  85
ATOM     85  C   UNL     1       9.140 -13.927 -10.964  1.00  0.00     0.064 A 
ATOM     86  C   UNL     1       9.445 -15.263 -10.667  1.00  0.00     0.173 A 
ATOM     87  C   UNL     1       7.788 -13.555 -10.985  1.00  0.00     0.173 A 
ATOM     88  F   UNL     1      10.723 -15.670 -10.656  1.00  0.00    -0.203 F 
ATOM     89  C   UNL     1       8.440 -16.191 -10.409  1.00  0.00     0.198 A 
ATOM     90  C   UNL     1       6.784 -14.479 -10.703  1.00  0.00     0.198 A 
ATOM     91  F   UNL     1       7.445 -12.288 -11.259  1.00  0.00    -0.203 F 
ATOM     92  F   UNL     1       8.758 -17.468 -10.158  1.00  0.00    -0.200 F 
ATOM     93  C   UNL     1       7.110 -15.797 -10.420  1.00  0.00     0.200 A 
ATOM     94  F   UNL     1       5.501 -14.092 -10.701  1.00  0.00    -0.200 F 
ATOM     95  F   UNL     1       6.143 -16.688 -10.161  1.00  0.00    -0.200 F 
ENDBRANCH  61  85
BRANCH  73  96
ATOM     96  C   UNL     1      13.783 -13.176 -16.104  1.00  0.00     0.064 A 
ATOM     97  C   UNL     1      12.923 -13.088 -17.209  1.00  0.00     0.173 A 
ATOM     98  C   UNL     1      14.922 -13.987 -16.221  1.00  0.00     0.173 A 
ATOM     99  F   UNL     1      11.812 -12.339 -17.141  1.00  0.00    -0.203 F 
ATOM    100  C   UNL     1      13.183 -13.802 -18.376  1.00  0.00     0.198 A 
ATOM    101  C   UNL     1      15.194 -14.675 -17.400  1.00  0.00     0.198 A 
ATOM    102  F   UNL     1      15.779 -14.101 -15.195  1.00  0.00    -0.203 F 
ATOM    103  F   UNL     1      12.324 -13.739 -19.403  1.00  0.00    -0.200 F 
ATOM    104  C   UNL     1      14.322 -14.588 -18.473  1.00  0.00     0.200 A 
ATOM    105  F   UNL     1      16.302 -15.424 -17.496  1.00  0.00    -0.200 F 
ATOM    106  F   UNL     1      14.574 -15.267 -19.601  1.00  0.00    -0.200 F 
ENDBRANCH  73  96
ENDBRANCH  47  48
ENDBRANCH  39  42
ENDBRANCH  37  38
ENDBRANCH  36  37
ENDBRANCH  35  36
ENDBRANCH   1  35
TORSDOF 16
