REMARK SMILES O=C(C[C@@H]([NH2+]Cc1ccccc1)C(=O)NCCCCNC(=O)c1ccc(-c2c3nc(c(-c4c(F)c(F)c(F)c(F)c4F)c4ccc([nH]4)c(-c4c(F)c(F)c(F)c(F)c4F)c4nc(c(-c5c(F)c(F)c(F)c(F)c5F)c5ccc2[nH]5)C=C4)C=C3)cc1)Nc1cccc(Cl)c1Cl
REMARK SMILES IDX 17 1 16 2 15 3 13 4 14 5 4 7 3 8 2 9 1 10 86 11 87 13 88 14
REMARK SMILES IDX 93 15 89 16 91 17 94 18 90 19 92 20 5 21 6 24 7 25 8 26
REMARK SMILES IDX 12 27 9 28 11 29 10 30 18 31 19 32 20 33 21 34 22 36 23 37
REMARK SMILES IDX 24 38 85 39 25 40 84 41 26 42 27 43 28 44 78 45 29 46 83 47
REMARK SMILES IDX 77 48 79 49 30 50 82 51 76 52 75 53 31 55 63 56 43 57 62 58
REMARK SMILES IDX 44 59 47 60 61 61 80 62 45 63 46 64 60 66 81 67 48 68 32 69
REMARK SMILES IDX 33 70 41 71 34 72 35 73 39 74 42 75 36 76 37 77 40 78 38 79
REMARK SMILES IDX 64 80 65 81 73 82 66 83 67 84 71 85 74 86 68 87 69 88 72 89
REMARK SMILES IDX 70 90 49 91 50 92 58 93 51 94 52 95 56 96 59 97 53 98 54 99
REMARK SMILES IDX 57 100 55 101
REMARK H PARENT 15 6 86 12 5 22 5 23 20 35 79 54 47 65
REMARK Flexibility Score: inf
ROOT
ATOM      1  C   UNL     1       5.459  -2.683  -2.207  1.00  0.00     0.023 C 
ENDROOT
BRANCH   1   2
ATOM      2  C   UNL     1       6.007  -1.310  -1.810  1.00  0.00     0.116 C 
BRANCH   2   3
ATOM      3  N   UNL     1       5.663  -0.313  -2.803  1.00  0.00    -0.351 N 
ATOM      4  C   UNL     1       4.720   0.670  -2.772  1.00  0.00     0.278 C 
ATOM      5  O   UNL     1       4.586   1.353  -3.792  1.00  0.00    -0.268 OA
ATOM      6  H   UNL     1       6.195  -0.352  -3.630  1.00  0.00     0.163 HD
BRANCH   4   7
ATOM      7  C   UNL     1       3.877   0.956  -1.512  1.00  0.00     0.282 C 
BRANCH   7   8
ATOM      8  C   UNL     1       2.957  -0.229  -1.191  1.00  0.00     0.175 C 
BRANCH   8   9
ATOM      9  C   UNL     1       2.087   0.031   0.014  1.00  0.00     0.230 C 
ATOM     10  O   UNL     1       0.939   0.447  -0.090  1.00  0.00    -0.274 OA
ATOM     11  N   UNL     1       2.767  -0.156   1.210  1.00  0.00    -0.325 N 
ATOM     12  H   UNL     1       3.722  -0.394   1.172  1.00  0.00     0.169 HD
BRANCH  11  13
ATOM     13  C   UNL     1       2.161  -0.022   2.476  1.00  0.00     0.061 A 
ATOM     14  C   UNL     1       2.811   0.819   3.391  1.00  0.00     0.028 A 
ATOM     15  C   UNL     1       0.992  -0.710   2.860  1.00  0.00     0.083 A 
ATOM     16  C   UNL     1       2.264   1.044   4.653  1.00  0.00     0.004 A 
ATOM     17  C   UNL     1       0.465  -0.496   4.143  1.00  0.00     0.061 A 
ATOM     18  Cl  UNL     1       0.322  -1.951   1.841  1.00  0.00    -0.080 Cl
ATOM     19  C   UNL     1       1.091   0.391   5.026  1.00  0.00     0.022 A 
ATOM     20  Cl  UNL     1      -0.938  -1.325   4.726  1.00  0.00    -0.083 Cl
ENDBRANCH  11  13
ENDBRANCH   8   9
ENDBRANCH   7   8
BRANCH   7  21
ATOM     21  N   UNL     1       4.744   1.358  -0.363  1.00  0.00    -0.332 N 
ATOM     22  H   UNL     1       5.407   0.606  -0.176  1.00  0.00     0.347 HD
ATOM     23  H   UNL     1       4.135   1.532   0.436  1.00  0.00     0.347 HD
BRANCH  21  24
ATOM     24  C   UNL     1       5.500   2.598  -0.624  1.00  0.00     0.297 C 
BRANCH  24  25
ATOM     25  C   UNL     1       4.714   3.895  -0.559  1.00  0.00     0.006 A 
ATOM     26  C   UNL     1       5.393   5.086  -0.869  1.00  0.00     0.009 A 
ATOM     27  C   UNL     1       3.360   3.989  -0.193  1.00  0.00     0.009 A 
ATOM     28  C   UNL     1       4.736   6.318  -0.845  1.00  0.00     0.001 A 
ATOM     29  C   UNL     1       2.700   5.219  -0.184  1.00  0.00     0.001 A 
ATOM     30  C   UNL     1       3.386   6.383  -0.512  1.00  0.00     0.000 A 
ENDBRANCH  24  25
ENDBRANCH  21  24
ENDBRANCH   7  21
ENDBRANCH   4   7
ENDBRANCH   2   3
ENDBRANCH   1   2
BRANCH   1  31
ATOM     31  C   UNL     1       6.107  -3.286  -3.455  1.00  0.00     0.023 C 
BRANCH  31  32
ATOM     32  C   UNL     1       7.622  -3.422  -3.388  1.00  0.00     0.116 C 
BRANCH  32  33
ATOM     33  N   UNL     1       8.071  -4.213  -2.251  1.00  0.00    -0.352 N 
ATOM     34  C   UNL     1       9.074  -5.148  -2.203  1.00  0.00     0.251 C 
ATOM     35  H   UNL     1       7.591  -4.056  -1.406  1.00  0.00     0.163 HD
ATOM     36  O   UNL     1       9.250  -5.824  -1.195  1.00  0.00    -0.269 OA
BRANCH  34  37
ATOM     37  C   UNL     1       9.918  -5.358  -3.395  1.00  0.00     0.039 A 
ATOM     38  C   UNL     1      10.104  -6.658  -3.869  1.00  0.00     0.014 A 
ATOM     39  C   UNL     1      10.484  -4.269  -4.063  1.00  0.00     0.014 A 
ATOM     40  C   UNL     1      10.808  -6.861  -5.056  1.00  0.00     0.010 A 
ATOM     41  C   UNL     1      11.123  -4.467  -5.282  1.00  0.00     0.010 A 
ATOM     42  C   UNL     1      11.291  -5.764  -5.789  1.00  0.00    -0.014 A 
BRANCH  42  43
ATOM     43  C   UNL     1      11.972  -5.952  -7.093  1.00  0.00     0.031 A 
ATOM     44  C   UNL     1      13.415  -5.567  -7.249  1.00  0.00     0.074 A 
ATOM     45  C   UNL     1      11.269  -6.397  -8.153  1.00  0.00     0.049 A 
ATOM     46  N   UNL     1      14.165  -5.581  -8.322  1.00  0.00    -0.248 NA
ATOM     47  C   UNL     1      14.099  -5.072  -6.045  1.00  0.00     0.031 C 
ATOM     48  C   UNL     1       9.849  -6.751  -8.138  1.00  0.00     0.029 A 
ATOM     49  N   UNL     1      11.652  -6.614  -9.453  1.00  0.00    -0.354 N 
ATOM     50  C   UNL     1      15.398  -5.083  -7.926  1.00  0.00     0.074 A 
ATOM     51  C   UNL     1      15.282  -4.725  -6.529  1.00  0.00     0.031 C 
ATOM     52  C   UNL     1       9.485  -7.158  -9.364  1.00  0.00     0.029 A 
ATOM     53  C   UNL     1      10.634  -7.060 -10.259  1.00  0.00     0.049 A 
ATOM     54  H   UNL     1      12.570  -6.464  -9.777  1.00  0.00     0.167 HD
ATOM     55  C   UNL     1      16.531  -4.957  -8.657  1.00  0.00     0.037 A 
ATOM     56  C   UNL     1      10.628  -7.348 -11.574  1.00  0.00     0.037 A 
ATOM     57  C   UNL     1      16.648  -5.341 -10.039  1.00  0.00     0.049 A 
ATOM     58  C   UNL     1      11.901  -7.205 -12.363  1.00  0.00     0.074 A 
ATOM     59  C   UNL     1      17.770  -5.320 -10.848  1.00  0.00     0.029 A 
ATOM     60  N   UNL     1      15.601  -5.814 -10.817  1.00  0.00    -0.354 N 
ATOM     61  N   UNL     1      13.082  -6.804 -11.960  1.00  0.00    -0.248 NA
ATOM     62  C   UNL     1      11.841  -7.559 -13.787  1.00  0.00     0.031 C 
ATOM     63  C   UNL     1      17.392  -5.736 -12.129  1.00  0.00     0.029 A 
ATOM     64  C   UNL     1      16.046  -6.065 -12.105  1.00  0.00     0.049 A 
ATOM     65  H   UNL     1      14.679  -5.950 -10.501  1.00  0.00     0.167 HD
ATOM     66  C   UNL     1      13.912  -6.884 -13.070  1.00  0.00     0.074 A 
ATOM     67  C   UNL     1      13.101  -7.385 -14.161  1.00  0.00     0.031 C 
ATOM     68  C   UNL     1      15.226  -6.570 -13.177  1.00  0.00     0.037 A 
BRANCH  55  69
ATOM     69  C   UNL     1      17.737  -4.381  -7.972  1.00  0.00     0.064 A 
ATOM     70  C   UNL     1      18.424  -5.088  -6.973  1.00  0.00     0.173 A 
ATOM     71  C   UNL     1      18.230  -3.120  -8.340  1.00  0.00     0.173 A 
ATOM     72  F   UNL     1      17.987  -6.293  -6.576  1.00  0.00    -0.203 F 
ATOM     73  C   UNL     1      19.540  -4.541  -6.346  1.00  0.00     0.198 A 
ATOM     74  C   UNL     1      19.365  -2.590  -7.733  1.00  0.00     0.198 A 
ATOM     75  F   UNL     1      17.614  -2.404  -9.292  1.00  0.00    -0.203 F 
ATOM     76  F   UNL     1      20.148  -5.212  -5.358  1.00  0.00    -0.200 F 
ATOM     77  C   UNL     1      20.014  -3.296  -6.731  1.00  0.00     0.200 A 
ATOM     78  F   UNL     1      19.829  -1.391  -8.114  1.00  0.00    -0.200 F 
ATOM     79  F   UNL     1      21.092  -2.772  -6.130  1.00  0.00    -0.200 F 
ENDBRANCH  55  69
BRANCH  56  80
ATOM     80  C   UNL     1       9.379  -7.827 -12.222  1.00  0.00     0.064 A 
ATOM     81  C   UNL     1       9.258  -9.154 -12.657  1.00  0.00     0.173 A 
ATOM     82  C   UNL     1       8.283  -6.974 -12.416  1.00  0.00     0.173 A 
ATOM     83  F   UNL     1      10.286 -10.002 -12.511  1.00  0.00    -0.203 F 
ATOM     84  C   UNL     1       8.096  -9.605 -13.279  1.00  0.00     0.198 A 
ATOM     85  C   UNL     1       7.111  -7.433 -13.013  1.00  0.00     0.198 A 
ATOM     86  F   UNL     1       8.346  -5.697 -12.012  1.00  0.00    -0.203 F 
ATOM     87  F   UNL     1       8.023 -10.867 -13.724  1.00  0.00    -0.200 F 
ATOM     88  C   UNL     1       7.021  -8.746 -13.451  1.00  0.00     0.200 A 
ATOM     89  F   UNL     1       6.069  -6.604 -13.165  1.00  0.00    -0.200 F 
ATOM     90  F   UNL     1       5.901  -9.181 -14.045  1.00  0.00    -0.200 F 
ENDBRANCH  56  80
BRANCH  68  91
ATOM     91  C   UNL     1      15.880  -6.789 -14.510  1.00  0.00     0.064 A 
ATOM     92  C   UNL     1      15.610  -5.958 -15.607  1.00  0.00     0.173 A 
ATOM     93  C   UNL     1      16.821  -7.816 -14.678  1.00  0.00     0.173 A 
ATOM     94  F   UNL     1      14.707  -4.972 -15.501  1.00  0.00    -0.203 F 
ATOM     95  C   UNL     1      16.243  -6.162 -16.831  1.00  0.00     0.198 A 
ATOM     96  C   UNL     1      17.474  -7.998 -15.894  1.00  0.00     0.198 A 
ATOM     97  F   UNL     1      17.119  -8.634 -13.657  1.00  0.00    -0.203 F 
ATOM     98  F   UNL     1      15.937  -5.384 -17.878  1.00  0.00    -0.200 F 
ATOM     99  C   UNL     1      17.179  -7.175 -16.971  1.00  0.00     0.200 A 
ATOM    100  F   UNL     1      18.388  -8.969 -16.023  1.00  0.00    -0.200 F 
ATOM    101  F   UNL     1      17.793  -7.364 -18.146  1.00  0.00    -0.200 F 
ENDBRANCH  68  91
ENDBRANCH  42  43
ENDBRANCH  34  37
ENDBRANCH  32  33
ENDBRANCH  31  32
ENDBRANCH   1  31
TORSDOF 17
