REMARK SMILES O=C(NCCCCNC(=O)c1ccc(-c2c3nc(c(-c4c(F)c(F)c(F)c(F)c4F)c4ccc([nH]4)c(-c4c(F)c(F)c(F)c(F)c4F)c4nc(c(-c5c(F)c(F)c(F)c(F)c5F)c5ccc2[nH]5)C=C4)C=C3)cc1)C1=Cc2cc(S(F)(F)(F)(F)F)ccc2O[C@@H]1C(F)(F)F
REMARK SMILES IDX 6 1 5 2 4 3 3 4 1 5 2 6 74 8 75 9 89 10 76 11 88 12 77 13
REMARK SMILES IDX 87 14 78 15 86 16 85 17 90 18 91 19 92 20 93 21 79 22 80 23
REMARK SMILES IDX 81 24 82 25 83 26 84 27 7 28 8 29 9 30 10 32 11 33 12 34
REMARK SMILES IDX 73 35 13 36 72 37 14 38 15 39 16 40 66 41 17 42 71 43 65 44
REMARK SMILES IDX 67 45 18 46 70 47 64 48 63 49 19 51 51 52 31 53 50 54 32 55
REMARK SMILES IDX 35 56 49 57 68 58 33 59 34 60 48 62 69 63 36 64 20 65 21 66
REMARK SMILES IDX 29 67 22 68 23 69 27 70 30 71 24 72 25 73 28 74 26 75 52 76
REMARK SMILES IDX 53 77 61 78 54 79 55 80 59 81 62 82 56 83 57 84 60 85 58 86
REMARK SMILES IDX 37 87 38 88 46 89 39 90 40 91 44 92 47 93 41 94 42 95 45 96
REMARK SMILES IDX 43 97
REMARK H PARENT 3 7 8 31 67 50 35 61
REMARK Flexibility Score: inf
ROOT
ATOM      1  C   UNL     1       4.512   3.150   1.817  1.00  0.00     0.023 C 
ENDROOT
BRANCH   1   2
ATOM      2  C   UNL     1       5.019   2.199   0.745  1.00  0.00     0.023 C 
BRANCH   2   3
ATOM      3  C   UNL     1       4.512   0.795   1.032  1.00  0.00     0.116 C 
BRANCH   3   4
ATOM      4  N   UNL     1       3.042   0.795   1.032  1.00  0.00    -0.352 N 
ATOM      5  O   UNL     1       1.036  -0.049   0.079  1.00  0.00    -0.270 OA
ATOM      6  C   UNL     1       2.307  -0.049   0.079  1.00  0.00     0.251 C 
ATOM      7  H   UNL     1       2.550   1.361   1.670  1.00  0.00     0.163 HD
BRANCH   6   8
ATOM      8  C   UNL     1       3.067  -0.923  -0.906  1.00  0.00     0.067 C 
ATOM      9  C   UNL     1       4.427  -0.923  -0.906  1.00  0.00     0.025 C 
ATOM     10  C   UNL     1       2.307  -1.796  -1.891  1.00  0.00     0.314 C 
ATOM     11  C   UNL     1       5.187  -0.049   0.079  1.00  0.00     0.019 A 
ATOM     12  O   UNL     1       3.487  -0.608   1.643  1.00  0.00    -0.475 OA
ATOM     13  C   UNL     1       6.348   0.616  -0.281  1.00  0.00     0.036 A 
ATOM     14  C   UNL     1       4.759  -0.056   1.336  1.00  0.00     0.128 A 
ATOM     15  C   UNL     1       7.149   1.006   0.819  1.00  0.00     0.107 A 
ATOM     16  C   UNL     1       5.535   0.465   2.342  1.00  0.00     0.048 A 
ATOM     17  C   UNL     1       6.722   1.085   2.066  1.00  0.00     0.028 A 
BRANCH  10  18
ATOM     18  C   UNL     1       2.674  -3.253  -1.664  1.00  0.00     0.429 C 
ATOM     19  F   UNL     1       2.353  -3.603  -0.422  1.00  0.00    -0.167 F 
ATOM     20  F   UNL     1       2.009  -4.017  -2.526  1.00  0.00    -0.167 F 
ATOM     21  F   UNL     1       3.982  -3.414  -1.846  1.00  0.00    -0.167 F 
ENDBRANCH  10  18
BRANCH  15  22
ATOM     22  S   UNL     1       8.879   1.428   0.492  1.00  0.00     0.310 S 
ATOM     23  F   UNL     1       9.235   1.443   2.038  1.00  0.00    -0.094 F 
ATOM     24  F   UNL     1       8.501   2.951   0.634  1.00  0.00    -0.094 F 
ATOM     25  F   UNL     1      10.363   1.793   0.209  1.00  0.00    -0.094 F 
ATOM     26  F   UNL     1       9.265  -0.104   0.493  1.00  0.00    -0.094 F 
ATOM     27  F   UNL     1       7.399   1.040   0.890  1.00  0.00    -0.094 F 
ENDBRANCH  15  22
ENDBRANCH   6   8
ENDBRANCH   3   4
ENDBRANCH   2   3
ENDBRANCH   1   2
BRANCH   1  28
ATOM     28  C   UNL     1       5.019   2.696   3.176  1.00  0.00     0.116 C 
BRANCH  28  29
ATOM     29  N   UNL     1       6.489   2.696   3.176  1.00  0.00    -0.352 N 
ATOM     30  C   UNL     1       7.224   3.541   4.129  1.00  0.00     0.251 C 
ATOM     31  H   UNL     1       6.981   2.131   2.538  1.00  0.00     0.163 HD
ATOM     32  O   UNL     1       8.495   3.541   4.129  1.00  0.00    -0.269 OA
BRANCH  30  33
ATOM     33  C   UNL     1       6.464   4.414   5.114  1.00  0.00     0.039 A 
ATOM     34  C   UNL     1       6.986   5.671   5.372  1.00  0.00     0.014 A 
ATOM     35  C   UNL     1       5.424   3.947   5.795  1.00  0.00     0.014 A 
ATOM     36  C   UNL     1       6.518   6.250   6.575  1.00  0.00     0.010 A 
ATOM     37  C   UNL     1       4.932   4.634   6.879  1.00  0.00     0.010 A 
ATOM     38  C   UNL     1       5.439   5.855   7.227  1.00  0.00    -0.014 A 
BRANCH  38  39
ATOM     39  C   UNL     1       4.797   6.710   8.306  1.00  0.00     0.031 A 
ATOM     40  C   UNL     1       4.674   6.242   9.616  1.00  0.00     0.074 A 
ATOM     41  C   UNL     1       4.498   8.005   7.916  1.00  0.00     0.049 A 
ATOM     42  N   UNL     1       4.295   6.930  10.694  1.00  0.00    -0.248 NA
ATOM     43  C   UNL     1       4.958   4.859  10.026  1.00  0.00     0.031 C 
ATOM     44  C   UNL     1       4.628   8.487   6.599  1.00  0.00     0.029 A 
ATOM     45  N   UNL     1       4.032   9.037   8.699  1.00  0.00    -0.354 N 
ATOM     46  C   UNL     1       4.317   6.145  11.773  1.00  0.00     0.074 A 
ATOM     47  C   UNL     1       4.738   4.800  11.358  1.00  0.00     0.031 C 
ATOM     48  C   UNL     1       4.236   9.788   6.586  1.00  0.00     0.029 A 
ATOM     49  C   UNL     1       3.855  10.141   7.895  1.00  0.00     0.049 A 
ATOM     50  H   UNL     1       3.857   8.994   9.667  1.00  0.00     0.167 HD
ATOM     51  C   UNL     1       4.005   6.499  13.087  1.00  0.00     0.037 A 
ATOM     52  C   UNL     1       3.386  11.393   8.262  1.00  0.00     0.037 A 
ATOM     53  C   UNL     1       3.578   7.763  13.461  1.00  0.00     0.049 A 
ATOM     54  C   UNL     1       3.018  11.730   9.567  1.00  0.00     0.074 A 
ATOM     55  C   UNL     1       3.267   8.138  14.782  1.00  0.00     0.029 A 
ATOM     56  N   UNL     1       3.377   8.860  12.653  1.00  0.00    -0.354 N 
ATOM     57  N   UNL     1       3.078  10.957  10.652  1.00  0.00    -0.248 NA
ATOM     58  C   UNL     1       2.490  13.043   9.961  1.00  0.00     0.031 C 
ATOM     59  C   UNL     1       2.874   9.440  14.770  1.00  0.00     0.029 A 
ATOM     60  C   UNL     1       2.933   9.899  13.440  1.00  0.00     0.049 A 
ATOM     61  H   UNL     1       3.524   8.894  11.680  1.00  0.00     0.167 HD
ATOM     62  C   UNL     1       2.660  11.634  11.723  1.00  0.00     0.074 A 
ATOM     63  C   UNL     1       2.268  12.983  11.293  1.00  0.00     0.031 C 
ATOM     64  C   UNL     1       2.592  11.182  13.042  1.00  0.00     0.037 A 
BRANCH  51  65
ATOM     65  C   UNL     1       4.142   5.438  14.167  1.00  0.00     0.064 A 
ATOM     66  C   UNL     1       5.337   4.771  14.381  1.00  0.00     0.173 A 
ATOM     67  C   UNL     1       3.046   5.125  14.848  1.00  0.00     0.173 A 
ATOM     68  F   UNL     1       6.504   5.208  13.918  1.00  0.00    -0.203 F 
ATOM     69  C   UNL     1       5.202   3.583  15.137  1.00  0.00     0.198 A 
ATOM     70  C   UNL     1       3.026   4.027  15.674  1.00  0.00     0.198 A 
ATOM     71  F   UNL     1       1.958   5.880  14.729  1.00  0.00    -0.203 F 
ATOM     72  F   UNL     1       6.198   2.703  15.090  1.00  0.00    -0.200 F 
ATOM     73  C   UNL     1       4.156   3.286  15.886  1.00  0.00     0.200 A 
ATOM     74  F   UNL     1       1.892   3.680  16.276  1.00  0.00    -0.200 F 
ATOM     75  F   UNL     1       4.198   2.319  16.799  1.00  0.00    -0.200 F 
ENDBRANCH  51  65
BRANCH  52  76
ATOM     76  C   UNL     1       3.266  12.458   7.185  1.00  0.00     0.064 A 
ATOM     77  C   UNL     1       4.050  13.588   7.341  1.00  0.00     0.173 A 
ATOM     78  C   UNL     1       2.489  12.300   6.119  1.00  0.00     0.173 A 
ATOM     79  F   UNL     1       5.020  13.679   8.246  1.00  0.00    -0.203 F 
ATOM     80  C   UNL     1       3.727  14.639   6.450  1.00  0.00     0.198 A 
ATOM     81  C   UNL     1       2.325  13.322   5.216  1.00  0.00     0.198 A 
ATOM     82  F   UNL     1       1.865  11.142   5.924  1.00  0.00    -0.203 F 
ATOM     83  F   UNL     1       4.159  15.860   6.750  1.00  0.00    -0.200 F 
ATOM     84  C   UNL     1       3.024  14.491   5.341  1.00  0.00     0.200 A 
ATOM     85  F   UNL     1       1.473  13.174   4.205  1.00  0.00    -0.200 F 
ATOM     86  F   UNL     1       2.999  15.427   4.397  1.00  0.00    -0.200 F 
ENDBRANCH  52  76
BRANCH  64  87
ATOM     87  C   UNL     1       2.115  12.157  14.107  1.00  0.00     0.064 A 
ATOM     88  C   UNL     1       0.924  12.829  13.888  1.00  0.00     0.173 A 
ATOM     89  C   UNL     1       2.909  12.473  15.123  1.00  0.00     0.173 A 
ATOM     90  F   UNL     1      -0.013  12.392  13.052  1.00  0.00    -0.203 F 
ATOM     91  C   UNL     1       0.794  14.024  14.636  1.00  0.00     0.198 A 
ATOM     92  C   UNL     1       2.646  13.578  15.897  1.00  0.00     0.198 A 
ATOM     93  F   UNL     1       3.966  11.714  15.395  1.00  0.00    -0.203 F 
ATOM     94  F   UNL     1      -0.119  14.905  14.240  1.00  0.00    -0.200 F 
ATOM     95  C   UNL     1       1.517  14.323  15.699  1.00  0.00     0.200 A 
ATOM     96  F   UNL     1       3.503  13.927  16.853  1.00  0.00    -0.200 F 
ATOM     97  F   UNL     1       1.166  15.298  16.533  1.00  0.00    -0.200 F 
ENDBRANCH  64  87
ENDBRANCH  38  39
ENDBRANCH  30  33
ENDBRANCH  28  29
ENDBRANCH   1  28
TORSDOF 13
