REMARK SMILES Cc1ccc(S(=O)(=O)Nc2cc(C(=O)NCCCCNC(=O)c3ccc(-c4c5nc(c(-c6c(F)c(F)c(F)c(F)c6F)c6ccc([nH]6)c(-c6c(F)c(F)c(F)c(F)c6F)c6nc(c(-c7c(F)c(F)c(F)c(F)c7F)c7ccc4[nH]7)C=C6)C=C5)cc3)cnc2N2CCCC2)c(C)c1
REMARK SMILES IDX 17 1 16 2 15 3 13 4 14 5 12 7 10 8 11 9 88 10 87 11 86 12
REMARK SMILES IDX 9 13 6 15 7 16 8 17 5 18 1 19 2 20 3 21 96 22 4 23 94 24
REMARK SMILES IDX 95 25 89 26 90 27 93 28 91 29 92 30 18 31 19 32 20 33 21 34
REMARK SMILES IDX 22 36 23 37 24 38 85 39 25 40 84 41 26 42 27 43 28 44 78 45
REMARK SMILES IDX 29 46 83 47 77 48 79 49 30 50 82 51 76 52 75 53 31 55 63 56
REMARK SMILES IDX 43 57 62 58 44 59 47 60 61 61 80 62 45 63 46 64 60 66 81 67
REMARK SMILES IDX 48 68 32 69 33 70 41 71 34 72 35 73 39 74 42 75 36 76 37 77
REMARK SMILES IDX 40 78 38 79 64 80 65 81 73 82 66 83 67 84 71 85 74 86 68 87
REMARK SMILES IDX 69 88 72 89 70 90 49 91 50 92 58 93 51 94 52 95 56 96 59 97
REMARK SMILES IDX 53 98 54 99 57 100 55 101
REMARK H PARENT 15 6 9 14 20 35 79 54 47 65
REMARK Flexibility Score: inf
ROOT
ATOM      1  C   UNL     1       0.091  -2.045   3.977  1.00  0.00     0.023 C 
ENDROOT
BRANCH   1   2
ATOM      2  C   UNL     1       1.003  -1.823   2.770  1.00  0.00     0.116 C 
BRANCH   2   3
ATOM      3  N   UNL     1       2.002  -2.871   2.679  1.00  0.00    -0.352 N 
ATOM      4  C   UNL     1       2.040  -4.049   1.976  1.00  0.00     0.252 C 
ATOM      5  O   UNL     1       3.054  -4.740   2.076  1.00  0.00    -0.269 OA
ATOM      6  H   UNL     1       2.805  -2.706   3.226  1.00  0.00     0.163 HD
BRANCH   4   7
ATOM      7  C   UNL     1       0.963  -4.493   1.059  1.00  0.00     0.060 A 
ATOM      8  C   UNL     1      -1.202  -4.380   0.035  1.00  0.00     0.092 A 
ATOM      9  C   UNL     1      -0.359  -4.068   1.096  1.00  0.00     0.046 A 
ATOM     10  C   UNL     1      -0.792  -5.315  -0.940  1.00  0.00     0.153 A 
ATOM     11  N   UNL     1       0.451  -5.834  -0.913  1.00  0.00    -0.236 NA
ATOM     12  C   UNL     1       1.306  -5.384   0.045  1.00  0.00     0.127 A 
BRANCH   8  13
ATOM     13  N   UNL     1      -2.473  -3.758  -0.104  1.00  0.00    -0.276 N 
ATOM     14  H   UNL     1      -3.245  -4.338  -0.293  1.00  0.00     0.180 HD
BRANCH  13  15
ATOM     15  S   UNL     1      -2.754  -2.116   0.029  1.00  0.00     0.262 S 
ATOM     16  O   UNL     1      -2.943  -1.866   1.449  1.00  0.00    -0.201 OA
ATOM     17  O   UNL     1      -3.801  -1.846  -0.929  1.00  0.00    -0.201 OA
BRANCH  15  18
ATOM     18  C   UNL     1      -1.348  -1.104  -0.450  1.00  0.00     0.090 A 
ATOM     19  C   UNL     1       2.364   1.097  -0.295  1.00  0.00     0.044 C 
ATOM     20  C   UNL     1       1.068   0.353  -0.424  1.00  0.00    -0.051 A 
ATOM     21  C   UNL     1       1.019  -0.930  -0.972  1.00  0.00     0.005 A 
ATOM     22  C   UNL     1      -0.130   0.960  -0.040  1.00  0.00     0.008 A 
ATOM     23  C   UNL     1      -0.187  -1.646  -1.009  1.00  0.00     0.023 A 
ATOM     24  C   UNL     1      -1.347   0.253  -0.057  1.00  0.00    -0.030 A 
ATOM     25  C   UNL     1      -2.585   1.031   0.307  1.00  0.00     0.046 C 
ENDBRANCH  15  18
ENDBRANCH  13  15
ENDBRANCH   8  13
BRANCH  10  26
ATOM     26  N   UNL     1      -1.659  -5.773  -1.893  1.00  0.00    -0.355 N 
ATOM     27  C   UNL     1      -2.303  -5.030  -2.956  1.00  0.00     0.118 C 
ATOM     28  C   UNL     1      -2.030  -7.179  -1.892  1.00  0.00     0.118 C 
ATOM     29  C   UNL     1      -3.603  -5.813  -3.120  1.00  0.00     0.023 C 
ATOM     30  C   UNL     1      -3.150  -7.260  -2.936  1.00  0.00     0.023 C 
ENDBRANCH  10  26
ENDBRANCH   4   7
ENDBRANCH   2   3
ENDBRANCH   1   2
BRANCH   1  31
ATOM     31  C   UNL     1       0.675  -1.524   5.290  1.00  0.00     0.023 C 
BRANCH  31  32
ATOM     32  C   UNL     1       0.875  -0.014   5.337  1.00  0.00     0.116 C 
BRANCH  32  33
ATOM     33  N   UNL     1      -0.352   0.740   5.131  1.00  0.00    -0.352 N 
ATOM     34  C   UNL     1      -0.690   1.966   5.651  1.00  0.00     0.251 C 
ATOM     35  H   UNL     1      -1.024   0.319   4.548  1.00  0.00     0.163 HD
ATOM     36  O   UNL     1      -1.803   2.443   5.465  1.00  0.00    -0.269 OA
BRANCH  34  37
ATOM     37  C   UNL     1       0.297   2.692   6.474  1.00  0.00     0.039 A 
ATOM     38  C   UNL     1      -0.093   3.167   7.728  1.00  0.00     0.014 A 
ATOM     39  C   UNL     1       1.607   2.874   6.022  1.00  0.00     0.014 A 
ATOM     40  C   UNL     1       0.850   3.778   8.556  1.00  0.00     0.010 A 
ATOM     41  C   UNL     1       2.559   3.422   6.873  1.00  0.00     0.010 A 
ATOM     42  C   UNL     1       2.188   3.885   8.146  1.00  0.00    -0.014 A 
BRANCH  42  43
ATOM     43  C   UNL     1       3.214   4.495   9.027  1.00  0.00     0.031 A 
ATOM     44  C   UNL     1       3.877   5.782   8.623  1.00  0.00     0.074 A 
ATOM     45  C   UNL     1       3.592   3.859  10.152  1.00  0.00     0.049 A 
ATOM     46  N   UNL     1       4.839   6.440   9.218  1.00  0.00    -0.248 NA
ATOM     47  C   UNL     1       3.418   6.396   7.366  1.00  0.00     0.031 C 
ATOM     48  C   UNL     1       3.058   2.580  10.623  1.00  0.00     0.029 A 
ATOM     49  N   UNL     1       4.523   4.200  11.101  1.00  0.00    -0.354 N 
ATOM     50  C   UNL     1       5.116   7.526   8.398  1.00  0.00     0.074 A 
ATOM     51  C   UNL     1       4.253   7.417   7.243  1.00  0.00     0.031 C 
ATOM     52  C   UNL     1       3.652   2.257  11.784  1.00  0.00     0.029 A 
ATOM     53  C   UNL     1       4.628   3.288  12.122  1.00  0.00     0.049 A 
ATOM     54  H   UNL     1       5.064   5.021  11.054  1.00  0.00     0.167 HD
ATOM     55  C   UNL     1       5.997   8.534   8.602  1.00  0.00     0.037 A 
ATOM     56  C   UNL     1       5.424   3.289  13.208  1.00  0.00     0.037 A 
ATOM     57  C   UNL     1       6.817   8.665   9.777  1.00  0.00     0.049 A 
ATOM     58  C   UNL     1       6.372   4.438  13.423  1.00  0.00     0.074 A 
ATOM     59  C   UNL     1       7.683   9.691  10.114  1.00  0.00     0.029 A 
ATOM     60  N   UNL     1       6.867   7.741  10.810  1.00  0.00    -0.354 N 
ATOM     61  N   UNL     1       6.569   5.499  12.680  1.00  0.00    -0.248 NA
ATOM     62  C   UNL     1       7.200   4.394  14.637  1.00  0.00     0.031 C 
ATOM     63  C   UNL     1       8.284   9.370  11.336  1.00  0.00     0.029 A 
ATOM     64  C   UNL     1       7.761   8.166  11.779  1.00  0.00     0.049 A 
ATOM     65  H   UNL     1       6.346   6.907  10.848  1.00  0.00     0.167 HD
ATOM     66  C   UNL     1       7.511   6.266  13.352  1.00  0.00     0.074 A 
ATOM     67  C   UNL     1       7.841   5.551  14.568  1.00  0.00     0.031 C 
ATOM     68  C   UNL     1       8.054   7.455  12.996  1.00  0.00     0.037 A 
BRANCH  55  69
ATOM     69  C   UNL     1       6.116   9.582   7.536  1.00  0.00     0.064 A 
ATOM     70  C   UNL     1       5.100  10.523   7.313  1.00  0.00     0.173 A 
ATOM     71  C   UNL     1       7.279   9.673   6.757  1.00  0.00     0.173 A 
ATOM     72  F   UNL     1       3.963  10.470   8.023  1.00  0.00    -0.203 F 
ATOM     73  C   UNL     1       5.235  11.504   6.334  1.00  0.00     0.198 A 
ATOM     74  C   UNL     1       7.422  10.672   5.798  1.00  0.00     0.198 A 
ATOM     75  F   UNL     1       8.281   8.799   6.933  1.00  0.00    -0.203 F 
ATOM     76  F   UNL     1       4.234  12.366   6.109  1.00  0.00    -0.200 F 
ATOM     77  C   UNL     1       6.398  11.582   5.583  1.00  0.00     0.200 A 
ATOM     78  F   UNL     1       8.551  10.753   5.080  1.00  0.00    -0.200 F 
ATOM     79  F   UNL     1       6.530  12.532   4.647  1.00  0.00    -0.200 F 
ENDBRANCH  55  69
BRANCH  56  80
ATOM     80  C   UNL     1       5.334   2.188  14.203  1.00  0.00     0.064 A 
ATOM     81  C   UNL     1       4.800   2.420  15.479  1.00  0.00     0.173 A 
ATOM     82  C   UNL     1       5.799   0.898  13.913  1.00  0.00     0.173 A 
ATOM     83  F   UNL     1       4.362   3.643  15.808  1.00  0.00    -0.203 F 
ATOM     84  C   UNL     1       4.761   1.409  16.437  1.00  0.00     0.198 A 
ATOM     85  C   UNL     1       5.735  -0.118  14.864  1.00  0.00     0.198 A 
ATOM     86  F   UNL     1       6.315   0.625  12.706  1.00  0.00    -0.203 F 
ATOM     87  F   UNL     1       4.295   1.672  17.665  1.00  0.00    -0.200 F 
ATOM     88  C   UNL     1       5.226   0.140  16.128  1.00  0.00     0.200 A 
ATOM     89  F   UNL     1       6.176  -1.347  14.559  1.00  0.00    -0.200 F 
ATOM     90  F   UNL     1       5.193  -0.830  17.051  1.00  0.00    -0.200 F 
ENDBRANCH  56  80
BRANCH  68  91
ATOM     91  C   UNL     1       9.015   8.087  13.958  1.00  0.00     0.064 A 
ATOM     92  C   UNL     1      10.312   7.586  14.142  1.00  0.00     0.173 A 
ATOM     93  C   UNL     1       8.642   9.232  14.679  1.00  0.00     0.173 A 
ATOM     94  F   UNL     1      10.709   6.485  13.486  1.00  0.00    -0.203 F 
ATOM     95  C   UNL     1      11.192   8.194  15.033  1.00  0.00     0.198 A 
ATOM     96  C   UNL     1       9.534   9.853  15.547  1.00  0.00     0.198 A 
ATOM     97  F   UNL     1       7.415   9.753  14.532  1.00  0.00    -0.203 F 
ATOM     98  F   UNL     1      12.411   7.671  15.228  1.00  0.00    -0.200 F 
ATOM     99  C   UNL     1      10.805   9.329  15.729  1.00  0.00     0.200 A 
ATOM    100  F   UNL     1       9.163  10.957  16.210  1.00  0.00    -0.200 F 
ATOM    101  F   UNL     1      11.656   9.916  16.582  1.00  0.00    -0.200 F 
ENDBRANCH  68  91
ENDBRANCH  42  43
ENDBRANCH  34  37
ENDBRANCH  32  33
ENDBRANCH  31  32
ENDBRANCH   1  31
TORSDOF 15
