REMARK SMILES O=C(NCCCCNC(=O)c1ccc(CNC(=O)c2ccc(Cl)cc2)o1)c1ccc(-c2c3nc(c(-c4c(F)c(F)c(F)c(F)c4F)c4ccc([nH]4)c(-c4c(F)c(F)c(F)c(F)c4F)c4nc(c(-c5c(F)c(F)c(F)c(F)c5F)c5ccc2[nH]5)C=C4)C=C3)cc1
REMARK SMILES IDX 6 1 5 2 4 3 3 4 1 5 2 6 27 8 28 9 89 10 29 11 88 12 30 13
REMARK SMILES IDX 31 14 32 15 82 16 33 17 87 18 81 19 83 20 34 21 86 22 80 23
REMARK SMILES IDX 79 24 35 26 67 27 47 28 66 29 48 30 51 31 65 32 84 33 49 34
REMARK SMILES IDX 50 35 64 37 85 38 52 39 36 40 37 41 45 42 38 43 39 44 43 45
REMARK SMILES IDX 46 46 40 47 41 48 44 49 42 50 68 51 69 52 77 53 70 54 71 55
REMARK SMILES IDX 75 56 78 57 72 58 73 59 76 60 74 61 53 62 54 63 62 64 55 65
REMARK SMILES IDX 56 66 60 67 63 68 57 69 58 70 61 71 59 72 7 73 8 74 9 75
REMARK SMILES IDX 10 77 11 78 12 79 26 80 13 81 14 82 15 83 16 84 17 85 18 87
REMARK SMILES IDX 19 88 20 89 25 90 21 91 24 92 22 93 23 94
REMARK H PARENT 3 7 83 25 51 36 8 76 16 86
REMARK Flexibility Score: inf
ROOT
ATOM      1  C   UNL     1       4.486  -0.050   3.918  1.00  0.00     0.023 C 
ENDROOT
BRANCH   1   2
ATOM      2  C   UNL     1       4.978   0.619   2.633  1.00  0.00     0.023 C 
BRANCH   2   3
ATOM      3  C   UNL     1       4.670  -0.137   1.345  1.00  0.00     0.116 C 
BRANCH   3   4
ATOM      4  N   UNL     1       3.244  -0.320   1.128  1.00  0.00    -0.352 N 
ATOM      5  O   UNL     1       1.252  -0.087   0.103  1.00  0.00    -0.269 OA
ATOM      6  C   UNL     1       2.474   0.016   0.043  1.00  0.00     0.251 C 
ATOM      7  H   UNL     1       2.759  -0.748   1.870  1.00  0.00     0.163 HD
BRANCH   6   8
ATOM      8  C   UNL     1       3.107   0.525  -1.193  1.00  0.00     0.039 A 
ATOM      9  C   UNL     1       4.233  -0.099  -1.738  1.00  0.00     0.014 A 
ATOM     10  C   UNL     1       2.542   1.633  -1.830  1.00  0.00     0.014 A 
ATOM     11  C   UNL     1       4.862   0.454  -2.850  1.00  0.00     0.010 A 
ATOM     12  C   UNL     1       3.136   2.149  -2.983  1.00  0.00     0.010 A 
ATOM     13  C   UNL     1       4.316   1.580  -3.486  1.00  0.00    -0.014 A 
BRANCH  13  14
ATOM     14  C   UNL     1       4.956   2.122  -4.709  1.00  0.00     0.031 A 
ATOM     15  C   UNL     1       5.604   3.476  -4.705  1.00  0.00     0.074 A 
ATOM     16  C   UNL     1       4.933   1.386  -5.835  1.00  0.00     0.049 A 
ATOM     17  N   UNL     1       6.174   4.121  -5.691  1.00  0.00    -0.248 NA
ATOM     18  C   UNL     1       5.602   4.207  -3.430  1.00  0.00     0.031 C 
ATOM     19  C   UNL     1       4.313   0.067  -5.964  1.00  0.00     0.029 A 
ATOM     20  N   UNL     1       5.434   1.644  -7.085  1.00  0.00    -0.354 N 
ATOM     21  C   UNL     1       6.579   5.339  -5.165  1.00  0.00     0.074 A 
ATOM     22  C   UNL     1       6.173   5.354  -3.775  1.00  0.00     0.031 C 
ATOM     23  C   UNL     1       4.478  -0.374  -7.219  1.00  0.00     0.029 A 
ATOM     24  C   UNL     1       5.174   0.649  -7.993  1.00  0.00     0.049 A 
ATOM     25  H   UNL     1       5.933   2.463  -7.309  1.00  0.00     0.167 HD
ATOM     26  C   UNL     1       7.235   6.349  -5.786  1.00  0.00     0.037 A 
ATOM     27  C   UNL     1       5.442   0.577  -9.310  1.00  0.00     0.037 A 
ATOM     28  C   UNL     1       7.657   6.319  -7.162  1.00  0.00     0.049 A 
ATOM     29  C   UNL     1       6.165   1.710  -9.976  1.00  0.00     0.074 A 
ATOM     30  C   UNL     1       8.390   7.262  -7.862  1.00  0.00     0.029 A 
ATOM     31  N   UNL     1       7.376   5.292  -8.052  1.00  0.00    -0.354 N 
ATOM     32  N   UNL     1       6.590   2.835  -9.455  1.00  0.00    -0.248 NA
ATOM     33  C   UNL     1       6.445   1.566 -11.411  1.00  0.00     0.031 C 
ATOM     34  C   UNL     1       8.516   6.826  -9.186  1.00  0.00     0.029 A 
ATOM     35  C   UNL     1       7.895   5.592  -9.302  1.00  0.00     0.049 A 
ATOM     36  H   UNL     1       6.880   4.472  -7.829  1.00  0.00     0.167 HD
ATOM     37  C   UNL     1       7.195   3.530 -10.491  1.00  0.00     0.074 A 
ATOM     38  C   UNL     1       7.095   2.693 -11.670  1.00  0.00     0.031 C 
ATOM     39  C   UNL     1       7.779   4.752 -10.466  1.00  0.00     0.037 A 
BRANCH  26  40
ATOM     40  C   UNL     1       7.524   7.584  -4.985  1.00  0.00     0.064 A 
ATOM     41  C   UNL     1       8.510   7.604  -3.988  1.00  0.00     0.173 A 
ATOM     42  C   UNL     1       6.827   8.774  -5.244  1.00  0.00     0.173 A 
ATOM     43  F   UNL     1       9.196   6.488  -3.696  1.00  0.00    -0.203 F 
ATOM     44  C   UNL     1       8.771   8.763  -3.262  1.00  0.00     0.198 A 
ATOM     45  C   UNL     1       7.107   9.938  -4.532  1.00  0.00     0.198 A 
ATOM     46  F   UNL     1       5.878   8.810  -6.191  1.00  0.00    -0.203 F 
ATOM     47  F   UNL     1       9.689   8.748  -2.285  1.00  0.00    -0.200 F 
ATOM     48  C   UNL     1       8.073   9.930  -3.538  1.00  0.00     0.200 A 
ATOM     49  F   UNL     1       6.438  11.067  -4.806  1.00  0.00    -0.200 F 
ATOM     50  F   UNL     1       8.327  11.045  -2.839  1.00  0.00    -0.200 F 
ENDBRANCH  26  40
BRANCH  27  51
ATOM     51  C   UNL     1       5.005  -0.620 -10.069  1.00  0.00     0.064 A 
ATOM     52  C   UNL     1       5.928  -1.586 -10.486  1.00  0.00     0.173 A 
ATOM     53  C   UNL     1       3.647  -0.848 -10.336  1.00  0.00     0.173 A 
ATOM     54  F   UNL     1       7.237  -1.401 -10.266  1.00  0.00    -0.203 F 
ATOM     55  C   UNL     1       5.507  -2.741 -11.143  1.00  0.00     0.198 A 
ATOM     56  C   UNL     1       3.226  -2.013 -10.972  1.00  0.00     0.198 A 
ATOM     57  F   UNL     1       2.727   0.047  -9.947  1.00  0.00    -0.203 F 
ATOM     58  F   UNL     1       6.410  -3.644 -11.549  1.00  0.00    -0.200 F 
ATOM     59  C   UNL     1       4.157  -2.958 -11.376  1.00  0.00     0.200 A 
ATOM     60  F   UNL     1       1.919  -2.226 -11.179  1.00  0.00    -0.200 F 
ATOM     61  F   UNL     1       3.752  -4.078 -11.990  1.00  0.00    -0.200 F 
ENDBRANCH  27  51
BRANCH  39  62
ATOM     62  C   UNL     1       8.363   5.257 -11.750  1.00  0.00     0.064 A 
ATOM     63  C   UNL     1       7.547   5.752 -12.777  1.00  0.00     0.173 A 
ATOM     64  C   UNL     1       9.753   5.292 -11.935  1.00  0.00     0.173 A 
ATOM     65  F   UNL     1       6.212   5.723 -12.652  1.00  0.00    -0.203 F 
ATOM     66  C   UNL     1       8.103   6.252 -13.951  1.00  0.00     0.198 A 
ATOM     67  C   UNL     1      10.306   5.812 -13.101  1.00  0.00     0.198 A 
ATOM     68  F   UNL     1      10.574   4.832 -10.979  1.00  0.00    -0.203 F 
ATOM     69  F   UNL     1       7.305   6.692 -14.934  1.00  0.00    -0.200 F 
ATOM     70  C   UNL     1       9.481   6.289 -14.109  1.00  0.00     0.200 A 
ATOM     71  F   UNL     1      11.637   5.855 -13.250  1.00  0.00    -0.200 F 
ATOM     72  F   UNL     1      10.014   6.779 -15.237  1.00  0.00    -0.200 F 
ENDBRANCH  39  62
ENDBRANCH  13  14
ENDBRANCH   6   8
ENDBRANCH   3   4
ENDBRANCH   2   3
ENDBRANCH   1   2
BRANCH   1  73
ATOM     73  C   UNL     1       4.926  -1.500   4.112  1.00  0.00     0.116 C 
BRANCH  73  74
ATOM     74  N   UNL     1       6.370  -1.631   4.178  1.00  0.00    -0.349 N 
ATOM     75  C   UNL     1       7.132  -2.224   5.160  1.00  0.00     0.286 C 
ATOM     76  H   UNL     1       6.870  -1.247   3.422  1.00  0.00     0.163 HD
ATOM     77  O   UNL     1       8.352  -2.078   5.104  1.00  0.00    -0.266 OA
BRANCH  75  78
ATOM     78  C   UNL     1       6.455  -2.973   6.190  1.00  0.00     0.191 A 
ATOM     79  C   UNL     1       5.577  -4.040   6.141  1.00  0.00     0.056 A 
ATOM     80  O   UNL     1       6.644  -2.599   7.490  1.00  0.00    -0.454 OA
ATOM     81  C   UNL     1       5.193  -4.314   7.476  1.00  0.00     0.048 A 
ATOM     82  C   UNL     1       5.859  -3.400   8.264  1.00  0.00     0.124 A 
BRANCH  82  83
ATOM     83  C   UNL     1       5.838  -3.092   9.713  1.00  0.00     0.191 C 
BRANCH  83  84
ATOM     84  N   UNL     1       7.088  -3.497  10.319  1.00  0.00    -0.345 N 
ATOM     85  C   UNL     1       7.899  -2.780  11.160  1.00  0.00     0.251 C 
ATOM     86  H   UNL     1       7.396  -4.406  10.100  1.00  0.00     0.164 HD
ATOM     87  O   UNL     1       8.989  -3.223  11.509  1.00  0.00    -0.269 OA
BRANCH  85  88
ATOM     88  C   UNL     1       7.473  -1.445  11.630  1.00  0.00     0.039 A 
ATOM     89  C   UNL     1       6.250  -1.261  12.285  1.00  0.00     0.015 A 
ATOM     90  C   UNL     1       8.332  -0.361  11.419  1.00  0.00     0.015 A 
ATOM     91  C   UNL     1       5.859   0.023  12.671  1.00  0.00     0.021 A 
ATOM     92  C   UNL     1       7.942   0.920  11.814  1.00  0.00     0.021 A 
ATOM     93  C   UNL     1       6.703   1.108  12.427  1.00  0.00     0.041 A 
ATOM     94  Cl  UNL     1       6.208   2.691  12.886  1.00  0.00    -0.084 Cl
ENDBRANCH  85  88
ENDBRANCH  83  84
ENDBRANCH  82  83
ENDBRANCH  75  78
ENDBRANCH  73  74
ENDBRANCH   1  73
TORSDOF 14
