REMARK SMILES CC[C@H](CCO)CNc1cc(C(=O)NCCCCNC(=O)c2ccc(-c3c4nc(c(-c5c(F)c(F)c(F)c(F)c5F)c5ccc([nH]5)c(-c5c(F)c(F)c(F)c(F)c5F)c5nc(c(-c6c(F)c(F)c(F)c(F)c6F)c6ccc3[nH]6)C=C5)C=C4)cc2)ccn1
REMARK SMILES IDX 12 1 13 2 14 3 11 5 9 6 10 7 87 8 86 9 85 10 8 11 7 13 3 14
REMARK SMILES IDX 2 15 1 16 4 17 5 18 6 19 15 21 16 22 17 23 18 24 19 25 20 26
REMARK SMILES IDX 21 28 22 29 23 30 84 31 24 32 83 33 25 34 26 35 27 36 77 37
REMARK SMILES IDX 28 38 82 39 76 40 78 41 29 42 81 43 75 44 74 45 30 47 62 48
REMARK SMILES IDX 42 49 61 50 43 51 46 52 60 53 79 54 44 55 45 56 59 58 80 59
REMARK SMILES IDX 47 60 31 61 32 62 40 63 33 64 34 65 38 66 41 67 35 68 36 69
REMARK SMILES IDX 39 70 37 71 63 72 64 73 72 74 65 75 66 76 70 77 73 78 67 79
REMARK SMILES IDX 68 80 71 81 69 82 48 83 49 84 57 85 50 86 51 87 55 88 58 89
REMARK SMILES IDX 52 90 53 91 56 92 54 93
REMARK H PARENT 14 4 8 12 6 20 19 27 78 46 46 57
REMARK Flexibility Score: inf
ROOT
ATOM      1  C   UNL     1       1.886  -8.730   0.990  1.00  0.00     0.251 C 
ATOM      2  O   UNL     1       2.539  -9.762   0.832  1.00  0.00    -0.269 OA
ATOM      3  N   UNL     1       0.937  -8.739   1.982  1.00  0.00    -0.352 N 
ATOM      4  H   UNL     1       0.890  -9.589   2.476  1.00  0.00     0.163 HD
ENDROOT
BRANCH   1   5
ATOM      5  C   UNL     1       2.204  -7.540   0.151  1.00  0.00     0.044 A 
ATOM      6  C   UNL     1       1.819  -5.329  -0.709  1.00  0.00     0.126 A 
ATOM      7  C   UNL     1       1.364  -6.449  -0.031  1.00  0.00     0.060 A 
ATOM      8  N   UNL     1       3.009  -5.310  -1.329  1.00  0.00    -0.240 NA
ATOM      9  C   UNL     1       3.786  -6.409  -1.228  1.00  0.00     0.114 A 
ATOM     10  C   UNL     1       3.443  -7.524  -0.488  1.00  0.00     0.034 A 
BRANCH   6  11
ATOM     11  N   UNL     1       1.091  -4.160  -0.734  1.00  0.00    -0.370 N 
ATOM     12  H   UNL     1       0.969  -3.679  -1.584  1.00  0.00     0.162 HD
BRANCH  11  13
ATOM     13  C   UNL     1       0.500  -3.632   0.486  1.00  0.00     0.118 C 
BRANCH  13  14
ATOM     14  C   UNL     1       0.868  -2.143   0.710  1.00  0.00     0.010 C 
BRANCH  14  15
ATOM     15  C   UNL     1       0.279  -1.686   2.066  1.00  0.00     0.002 C 
ATOM     16  C   UNL     1       0.495  -0.213   2.394  1.00  0.00     0.004 C 
ENDBRANCH  14  15
BRANCH  14  17
ATOM     17  C   UNL     1       0.416  -1.262  -0.479  1.00  0.00     0.033 C 
BRANCH  17  18
ATOM     18  C   UNL     1       1.593  -0.816  -1.347  1.00  0.00     0.156 C 
BRANCH  18  19
ATOM     19  O   UNL     1       2.246  -1.934  -1.928  1.00  0.00    -0.396 OA
ATOM     20  H   UNL     1       2.589  -2.509  -1.226  1.00  0.00     0.210 HD
ENDBRANCH  18  19
ENDBRANCH  17  18
ENDBRANCH  14  17
ENDBRANCH  13  14
ENDBRANCH  11  13
ENDBRANCH   6  11
ENDBRANCH   1   5
BRANCH   3  21
ATOM     21  C   UNL     1      -0.008  -7.743   2.444  1.00  0.00     0.116 C 
BRANCH  21  22
ATOM     22  C   UNL     1      -1.350  -7.907   1.725  1.00  0.00     0.023 C 
BRANCH  22  23
ATOM     23  C   UNL     1      -2.243  -8.993   2.330  1.00  0.00     0.023 C 
BRANCH  23  24
ATOM     24  C   UNL     1      -2.653  -8.740   3.775  1.00  0.00     0.116 C 
BRANCH  24  25
ATOM     25  N   UNL     1      -3.333  -7.469   3.963  1.00  0.00    -0.352 N 
ATOM     26  C   UNL     1      -4.302  -7.144   4.881  1.00  0.00     0.251 C 
ATOM     27  H   UNL     1      -3.064  -6.746   3.352  1.00  0.00     0.163 HD
ATOM     28  O   UNL     1      -4.862  -6.058   4.830  1.00  0.00    -0.269 OA
BRANCH  26  29
ATOM     29  C   UNL     1      -4.685  -8.133   5.909  1.00  0.00     0.039 A 
ATOM     30  C   UNL     1      -6.042  -8.341   6.162  1.00  0.00     0.014 A 
ATOM     31  C   UNL     1      -3.716  -8.851   6.614  1.00  0.00     0.014 A 
ATOM     32  C   UNL     1      -6.426  -9.295   7.104  1.00  0.00     0.010 A 
ATOM     33  C   UNL     1      -4.102  -9.865   7.483  1.00  0.00     0.010 A 
ATOM     34  C   UNL     1      -5.460 -10.077   7.758  1.00  0.00    -0.014 A 
BRANCH  34  35
ATOM     35  C   UNL     1      -5.863 -11.089   8.764  1.00  0.00     0.031 A 
ATOM     36  C   UNL     1      -5.445 -10.935  10.200  1.00  0.00     0.074 A 
ATOM     37  C   UNL     1      -6.578 -12.162   8.379  1.00  0.00     0.049 A 
ATOM     38  N   UNL     1      -5.722 -11.696  11.230  1.00  0.00    -0.248 NA
ATOM     39  C   UNL     1      -4.573  -9.795  10.518  1.00  0.00     0.031 C 
ATOM     40  C   UNL     1      -6.978 -12.460   7.003  1.00  0.00     0.029 A 
ATOM     41  N   UNL     1      -7.096 -13.201   9.109  1.00  0.00    -0.354 N 
ATOM     42  C   UNL     1      -5.048 -11.133  12.306  1.00  0.00     0.074 A 
ATOM     43  C   UNL     1      -4.292 -10.013  11.792  1.00  0.00     0.031 C 
ATOM     44  C   UNL     1      -7.708 -13.586   6.993  1.00  0.00     0.029 A 
ATOM     45  C   UNL     1      -7.802 -14.103   8.355  1.00  0.00     0.049 A 
ATOM     46  H   UNL     1      -6.972 -13.290  10.082  1.00  0.00     0.167 HD
ATOM     47  C   UNL     1      -5.080 -11.498  13.610  1.00  0.00     0.037 A 
ATOM     48  C   UNL     1      -8.459 -15.219   8.723  1.00  0.00     0.037 A 
ATOM     49  C   UNL     1      -5.850 -12.605  14.115  1.00  0.00     0.049 A 
ATOM     50  C   UNL     1      -8.511 -15.589  10.180  1.00  0.00     0.074 A 
ATOM     51  C   UNL     1      -6.011 -13.020  15.425  1.00  0.00     0.029 A 
ATOM     52  N   UNL     1      -6.581 -13.482  13.325  1.00  0.00    -0.354 N 
ATOM     53  N   UNL     1      -7.949 -14.996  11.206  1.00  0.00    -0.248 NA
ATOM     54  C   UNL     1      -9.307 -16.771  10.531  1.00  0.00     0.031 C 
ATOM     55  C   UNL     1      -6.787 -14.185  15.421  1.00  0.00     0.029 A 
ATOM     56  C   UNL     1      -7.173 -14.454  14.117  1.00  0.00     0.049 A 
ATOM     57  H   UNL     1      -6.666 -13.423  12.346  1.00  0.00     0.167 HD
ATOM     58  C   UNL     1      -8.346 -15.713  12.327  1.00  0.00     0.074 A 
ATOM     59  C   UNL     1      -9.212 -16.774  11.853  1.00  0.00     0.031 C 
ATOM     60  C   UNL     1      -8.027 -15.509  13.630  1.00  0.00     0.037 A 
BRANCH  47  61
ATOM     61  C   UNL     1      -4.245 -10.697  14.571  1.00  0.00     0.064 A 
ATOM     62  C   UNL     1      -4.520  -9.348  14.850  1.00  0.00     0.173 A 
ATOM     63  C   UNL     1      -3.147 -11.284  15.218  1.00  0.00     0.173 A 
ATOM     64  F   UNL     1      -5.550  -8.730  14.252  1.00  0.00    -0.203 F 
ATOM     65  C   UNL     1      -3.700  -8.606  15.697  1.00  0.00     0.198 A 
ATOM     66  C   UNL     1      -2.353 -10.550  16.096  1.00  0.00     0.198 A 
ATOM     67  F   UNL     1      -2.838 -12.570  14.996  1.00  0.00    -0.203 F 
ATOM     68  F   UNL     1      -3.939  -7.301  15.885  1.00  0.00    -0.200 F 
ATOM     69  C   UNL     1      -2.620  -9.209  16.323  1.00  0.00     0.200 A 
ATOM     70  F   UNL     1      -1.318 -11.139  16.712  1.00  0.00    -0.200 F 
ATOM     71  F   UNL     1      -1.830  -8.494  17.135  1.00  0.00    -0.200 F 
ENDBRANCH  47  61
BRANCH  48  72
ATOM     72  C   UNL     1      -9.156 -16.032   7.693  1.00  0.00     0.064 A 
ATOM     73  C   UNL     1     -10.555 -16.072   7.625  1.00  0.00     0.173 A 
ATOM     74  C   UNL     1      -8.435 -16.762   6.736  1.00  0.00     0.173 A 
ATOM     75  F   UNL     1     -11.289 -15.404   8.527  1.00  0.00    -0.203 F 
ATOM     76  C   UNL     1     -11.207 -16.824   6.650  1.00  0.00     0.198 A 
ATOM     77  C   UNL     1      -9.088 -17.489   5.743  1.00  0.00     0.198 A 
ATOM     78  F   UNL     1      -7.094 -16.748   6.752  1.00  0.00    -0.203 F 
ATOM     79  F   UNL     1     -12.546 -16.876   6.631  1.00  0.00    -0.200 F 
ATOM     80  C   UNL     1     -10.473 -17.525   5.705  1.00  0.00     0.200 A 
ATOM     81  F   UNL     1      -8.374 -18.149   4.821  1.00  0.00    -0.200 F 
ATOM     82  F   UNL     1     -11.101 -18.236   4.758  1.00  0.00    -0.200 F 
ENDBRANCH  48  72
BRANCH  60  83
ATOM     83  C   UNL     1      -8.651 -16.432  14.640  1.00  0.00     0.064 A 
ATOM     84  C   UNL     1      -8.310 -17.791  14.717  1.00  0.00     0.173 A 
ATOM     85  C   UNL     1      -9.600 -15.944  15.552  1.00  0.00     0.173 A 
ATOM     86  F   UNL     1      -7.416 -18.313  13.864  1.00  0.00    -0.203 F 
ATOM     87  C   UNL     1      -8.930 -18.635  15.636  1.00  0.00     0.198 A 
ATOM     88  C   UNL     1     -10.189 -16.781  16.495  1.00  0.00     0.198 A 
ATOM     89  F   UNL     1      -9.956 -14.650  15.531  1.00  0.00    -0.203 F 
ATOM     90  F   UNL     1      -8.640 -19.943  15.642  1.00  0.00    -0.200 F 
ATOM     91  C   UNL     1      -9.864 -18.128  16.527  1.00  0.00     0.200 A 
ATOM     92  F   UNL     1     -11.077 -16.286  17.367  1.00  0.00    -0.200 F 
ATOM     93  F   UNL     1     -10.461 -18.942  17.409  1.00  0.00    -0.200 F 
ENDBRANCH  60  83
ENDBRANCH  34  35
ENDBRANCH  26  29
ENDBRANCH  24  25
ENDBRANCH  23  24
ENDBRANCH  22  23
ENDBRANCH  21  22
ENDBRANCH   3  21
TORSDOF 18
