REMARK SMILES O=C(NCCCCNC(=O)c1cncc(Nc2ccc(Cl)cc2C(F)(F)F)n1)c1ccc(-c2c3nc(c(-c4c(F)c(F)c(F)c(F)c4F)c4ccc([nH]4)c(-c4c(F)c(F)c(F)c(F)c4F)c4nc(c(-c5c(F)c(F)c(F)c(F)c5F)c5ccc2[nH]5)C=C4)C=C3)cc1
REMARK SMILES IDX 6 1 5 2 4 3 3 4 1 5 2 6 29 8 30 9 91 10 31 11 90 12 32 13
REMARK SMILES IDX 33 14 34 15 84 16 35 17 89 18 83 19 85 20 36 21 88 22 82 23
REMARK SMILES IDX 81 24 37 26 69 27 49 28 68 29 50 30 53 31 67 32 86 33 51 34
REMARK SMILES IDX 52 35 66 37 87 38 54 39 38 40 39 41 47 42 40 43 41 44 45 45
REMARK SMILES IDX 48 46 42 47 43 48 46 49 44 50 70 51 71 52 79 53 72 54 73 55
REMARK SMILES IDX 77 56 80 57 74 58 75 59 78 60 76 61 55 62 56 63 64 64 57 65
REMARK SMILES IDX 58 66 62 67 65 68 59 69 60 70 63 71 61 72 7 73 8 74 9 75
REMARK SMILES IDX 10 77 11 78 12 79 28 80 13 81 15 82 14 83 16 84 17 86 18 87
REMARK SMILES IDX 23 88 19 89 22 90 20 91 21 92 24 93 25 94 26 95 27 96
REMARK H PARENT 3 7 85 25 53 36 8 76 16 85
REMARK Flexibility Score: inf
ROOT
ATOM      1  C   UNL     1       4.395   2.596   2.962  1.00  0.00     0.023 C 
ENDROOT
BRANCH   1   2
ATOM      2  C   UNL     1       4.868   2.203   1.564  1.00  0.00     0.023 C 
BRANCH   2   3
ATOM      3  C   UNL     1       4.533   0.778   1.143  1.00  0.00     0.116 C 
BRANCH   3   4
ATOM      4  N   UNL     1       3.101   0.533   1.068  1.00  0.00    -0.352 N 
ATOM      5  O   UNL     1       1.126   0.074   0.077  1.00  0.00    -0.269 OA
ATOM      6  C   UNL     1       2.352   0.085   0.008  1.00  0.00     0.251 C 
ATOM      7  H   UNL     1       2.598   0.715   1.894  1.00  0.00     0.163 HD
BRANCH   6   8
ATOM      8  C   UNL     1       3.022  -0.366  -1.230  1.00  0.00     0.039 A 
ATOM      9  C   UNL     1       4.127  -1.220  -1.172  1.00  0.00     0.014 A 
ATOM     10  C   UNL     1       2.531   0.065  -2.466  1.00  0.00     0.014 A 
ATOM     11  C   UNL     1       4.818  -1.535  -2.337  1.00  0.00     0.010 A 
ATOM     12  C   UNL     1       3.178  -0.321  -3.642  1.00  0.00     0.010 A 
ATOM     13  C   UNL     1       4.341  -1.105  -3.585  1.00  0.00    -0.014 A 
BRANCH  13  14
ATOM     14  C   UNL     1       5.023  -1.557  -4.822  1.00  0.00     0.031 A 
ATOM     15  C   UNL     1       5.717  -0.584  -5.731  1.00  0.00     0.074 A 
ATOM     16  C   UNL     1       5.006  -2.871  -5.119  1.00  0.00     0.049 A 
ATOM     17  N   UNL     1       6.340  -0.812  -6.860  1.00  0.00    -0.248 NA
ATOM     18  C   UNL     1       5.707   0.831  -5.328  1.00  0.00     0.031 C 
ATOM     19  C   UNL     1       4.348  -3.904  -4.316  1.00  0.00     0.029 A 
ATOM     20  N   UNL     1       5.555  -3.564  -6.166  1.00  0.00    -0.354 N 
ATOM     21  C   UNL     1       6.776   0.426  -7.312  1.00  0.00     0.074 A 
ATOM     22  C   UNL     1       6.333   1.408  -6.345  1.00  0.00     0.031 C 
ATOM     23  C   UNL     1       4.553  -5.100  -4.884  1.00  0.00     0.029 A 
ATOM     24  C   UNL     1       5.302  -4.913  -6.121  1.00  0.00     0.049 A 
ATOM     25  H   UNL     1       6.080  -3.137  -6.881  1.00  0.00     0.167 HD
ATOM     26  C   UNL     1       7.486   0.709  -8.431  1.00  0.00     0.037 A 
ATOM     27  C   UNL     1       5.611  -5.889  -6.994  1.00  0.00     0.037 A 
ATOM     28  C   UNL     1       7.942  -0.280  -9.375  1.00  0.00     0.049 A 
ATOM     29  C   UNL     1       6.373  -5.538  -8.238  1.00  0.00     0.074 A 
ATOM     30  C   UNL     1       8.728  -0.099 -10.501  1.00  0.00     0.029 A 
ATOM     31  N   UNL     1       7.645  -1.633  -9.309  1.00  0.00    -0.354 N 
ATOM     32  N   UNL     1       6.829  -4.372  -8.625  1.00  0.00    -0.248 NA
ATOM     33  C   UNL     1       6.660  -6.637  -9.170  1.00  0.00     0.031 C 
ATOM     34  C   UNL     1       8.861  -1.334 -11.145  1.00  0.00     0.029 A 
ATOM     35  C   UNL     1       8.201  -2.293 -10.395  1.00  0.00     0.049 A 
ATOM     36  H   UNL     1       7.117  -2.062  -8.597  1.00  0.00     0.167 HD
ATOM     37  C   UNL     1       7.464  -4.596  -9.838  1.00  0.00     0.074 A 
ATOM     38  C   UNL     1       7.356  -6.014 -10.111  1.00  0.00     0.031 C 
ATOM     39  C   UNL     1       8.078  -3.705 -10.653  1.00  0.00     0.037 A 
BRANCH  26  40
ATOM     40  C   UNL     1       7.806   2.148  -8.717  1.00  0.00     0.064 A 
ATOM     41  C   UNL     1       8.767   2.853  -7.979  1.00  0.00     0.173 A 
ATOM     42  C   UNL     1       7.192   2.807  -9.794  1.00  0.00     0.173 A 
ATOM     43  F   UNL     1       9.377   2.271  -6.936  1.00  0.00    -0.203 F 
ATOM     44  C   UNL     1       9.090   4.170  -8.298  1.00  0.00     0.198 A 
ATOM     45  C   UNL     1       7.535   4.115 -10.125  1.00  0.00     0.198 A 
ATOM     46  F   UNL     1       6.272   2.175 -10.538  1.00  0.00    -0.203 F 
ATOM     47  F   UNL     1       9.989   4.835  -7.559  1.00  0.00    -0.200 F 
ATOM     48  C   UNL     1       8.481   4.797  -9.375  1.00  0.00     0.200 A 
ATOM     49  F   UNL     1       6.955   4.714 -11.175  1.00  0.00    -0.200 F 
ATOM     50  F   UNL     1       8.803   6.060  -9.688  1.00  0.00    -0.200 F 
ENDBRANCH  26  40
BRANCH  27  51
ATOM     51  C   UNL     1       5.173  -7.282  -6.724  1.00  0.00     0.064 A 
ATOM     52  C   UNL     1       6.101  -8.285  -6.417  1.00  0.00     0.173 A 
ATOM     53  C   UNL     1       3.815  -7.634  -6.753  1.00  0.00     0.173 A 
ATOM     54  F   UNL     1       7.412  -8.001  -6.395  1.00  0.00    -0.203 F 
ATOM     55  C   UNL     1       5.688  -9.591  -6.163  1.00  0.00     0.198 A 
ATOM     56  C   UNL     1       3.401  -8.932  -6.469  1.00  0.00     0.198 A 
ATOM     57  F   UNL     1       2.887  -6.708  -7.036  1.00  0.00    -0.203 F 
ATOM     58  F   UNL     1       6.599 -10.542  -5.911  1.00  0.00    -0.200 F 
ATOM     59  C   UNL     1       4.339  -9.912  -6.182  1.00  0.00     0.200 A 
ATOM     60  F   UNL     1       2.095  -9.233  -6.471  1.00  0.00    -0.200 F 
ATOM     61  F   UNL     1       3.943 -11.167  -5.929  1.00  0.00    -0.200 F 
ENDBRANCH  27  51
BRANCH  39  62
ATOM     62  C   UNL     1       8.689  -4.243 -11.912  1.00  0.00     0.064 A 
ATOM     63  C   UNL     1       7.896  -4.649 -12.995  1.00  0.00     0.173 A 
ATOM     64  C   UNL     1      10.083  -4.319 -12.051  1.00  0.00     0.173 A 
ATOM     65  F   UNL     1       6.558  -4.613 -12.902  1.00  0.00    -0.203 F 
ATOM     66  C   UNL     1       8.476  -5.133 -14.164  1.00  0.00     0.198 A 
ATOM     67  C   UNL     1      10.660  -4.777 -13.231  1.00  0.00     0.198 A 
ATOM     68  F   UNL     1      10.885  -3.939 -11.044  1.00  0.00    -0.203 F 
ATOM     69  F   UNL     1       7.699  -5.557 -15.170  1.00  0.00    -0.200 F 
ATOM     70  C   UNL     1       9.857  -5.189 -14.284  1.00  0.00     0.200 A 
ATOM     71  F   UNL     1      11.995  -4.820 -13.350  1.00  0.00    -0.200 F 
ATOM     72  F   UNL     1      10.414  -5.647 -15.413  1.00  0.00    -0.200 F 
ENDBRANCH  39  62
ENDBRANCH  13  14
ENDBRANCH   6   8
ENDBRANCH   3   4
ENDBRANCH   2   3
ENDBRANCH   1   2
BRANCH   1  73
ATOM     73  C   UNL     1       4.829   1.657   4.083  1.00  0.00     0.116 C 
BRANCH  73  74
ATOM     74  N   UNL     1       6.276   1.548   4.194  1.00  0.00    -0.351 N 
ATOM     75  C   UNL     1       7.057   1.695   5.320  1.00  0.00     0.271 C 
ATOM     76  H   UNL     1       6.757   1.342   3.360  1.00  0.00     0.163 HD
ATOM     77  O   UNL     1       8.279   1.621   5.240  1.00  0.00    -0.267 OA
BRANCH  75  78
ATOM     78  C   UNL     1       6.396   1.907   6.624  1.00  0.00     0.148 A 
ATOM     79  C   UNL     1       5.599   0.899   7.141  1.00  0.00     0.145 A 
ATOM     80  N   UNL     1       6.524   3.131   7.202  1.00  0.00    -0.222 NA
ATOM     81  N   UNL     1       4.846   1.084   8.243  1.00  0.00    -0.258 NA
ATOM     82  C   UNL     1       5.809   3.327   8.330  1.00  0.00     0.149 A 
ATOM     83  C   UNL     1       4.965   2.315   8.807  1.00  0.00     0.158 A 
BRANCH  82  84
ATOM     84  N   UNL     1       5.922   4.587   8.922  1.00  0.00    -0.338 N 
ATOM     85  H   UNL     1       6.480   5.222   8.418  1.00  0.00     0.168 HD
BRANCH  84  86
ATOM     86  C   UNL     1       5.381   5.109  10.106  1.00  0.00     0.052 A 
ATOM     87  C   UNL     1       5.320   4.319  11.268  1.00  0.00     0.028 A 
ATOM     88  C   UNL     1       4.788   6.386  10.132  1.00  0.00     0.080 A 
ATOM     89  C   UNL     1       4.625   4.739  12.403  1.00  0.00     0.022 A 
ATOM     90  C   UNL     1       4.073   6.795  11.278  1.00  0.00     0.035 A 
ATOM     91  C   UNL     1       3.983   5.969  12.394  1.00  0.00     0.041 A 
ATOM     92  Cl  UNL     1       3.067   6.466  13.760  1.00  0.00    -0.084 Cl
BRANCH  88  93
ATOM     93  C   UNL     1       4.825   7.324   8.951  1.00  0.00     0.418 C 
ATOM     94  F   UNL     1       3.668   7.305   8.235  1.00  0.00    -0.166 F 
ATOM     95  F   UNL     1       5.010   8.623   9.324  1.00  0.00    -0.166 F 
ATOM     96  F   UNL     1       5.825   7.059   8.061  1.00  0.00    -0.166 F 
ENDBRANCH  88  93
ENDBRANCH  84  86
ENDBRANCH  82  84
ENDBRANCH  75  78
ENDBRANCH  73  74
ENDBRANCH   1  73
TORSDOF 14
