REMARK SMILES CCC(CC)(NC(=O)NCCc1nccs1)C(=O)NCCCCNC(=O)c1ccc(-c2c3nc(c(-c4c(F)c(F)c(F)c(F)c4F)c4ccc([nH]4)c(-c4c(F)c(F)c(F)c(F)c4F)c4nc(c(-c5c(F)c(F)c(F)c(F)c5F)c5ccc2[nH]5)C=C4)C=C3)cc1
REMARK SMILES IDX 20 1 19 2 17 3 18 4 3 6 2 7 1 8 4 9 5 10 6 11 7 12 8 14 9 15
REMARK SMILES IDX 10 17 11 18 12 19 13 20 16 21 14 22 15 23 21 24 22 25 23 26
REMARK SMILES IDX 24 27 25 28 26 30 27 31 28 32 89 33 29 34 88 35 30 36 31 37
REMARK SMILES IDX 32 38 82 39 33 40 87 41 81 42 83 43 34 44 86 45 80 46 79 47
REMARK SMILES IDX 35 49 67 50 47 51 66 52 48 53 51 54 65 55 84 56 49 57 50 58
REMARK SMILES IDX 64 60 85 61 52 62 36 63 37 64 45 65 38 66 39 67 43 68 46 69
REMARK SMILES IDX 40 70 41 71 44 72 42 73 68 74 69 75 77 76 70 77 71 78 75 79
REMARK SMILES IDX 78 80 72 81 73 82 76 83 74 84 53 85 54 86 62 87 55 88 56 89
REMARK SMILES IDX 60 90 63 91 57 92 58 93 61 94 59 95
REMARK H PARENT 19 5 6 13 9 16 24 29 83 48 51 59
REMARK Flexibility Score: inf
ROOT
ATOM      1  C   UNL     1       1.760  -3.873   3.679  1.00  0.00     0.116 C 
ENDROOT
BRANCH   1   2
ATOM      2  N   UNL     1       2.512  -2.813   3.012  1.00  0.00    -0.354 N 
ATOM      3  C   UNL     1       2.237  -1.985   1.947  1.00  0.00     0.245 C 
ATOM      4  O   UNL     1       3.013  -1.036   1.785  1.00  0.00    -0.272 OA
ATOM      5  H   UNL     1       3.401  -2.658   3.406  1.00  0.00     0.163 HD
BRANCH   3   6
ATOM      6  C   UNL     1       0.957  -2.147   1.080  1.00  0.00     0.120 C 
BRANCH   6   7
ATOM      7  C   UNL     1       0.883  -1.350  -0.255  1.00  0.00     0.035 C 
ATOM      8  C   UNL     1       1.014   0.167  -0.189  1.00  0.00     0.007 C 
ENDBRANCH   6   7
BRANCH   6   9
ATOM      9  C   UNL     1      -0.201  -1.656   2.024  1.00  0.00     0.035 C 
ATOM     10  C   UNL     1      -1.630  -1.869   1.546  1.00  0.00     0.007 C 
ENDBRANCH   6   9
BRANCH   6  11
ATOM     11  N   UNL     1       0.844  -3.582   0.749  1.00  0.00    -0.324 N 
ATOM     12  C   UNL     1       1.631  -4.500   0.170  1.00  0.00     0.315 C 
ATOM     13  H   UNL     1      -0.024  -3.958   1.022  1.00  0.00     0.166 HD
ATOM     14  O   UNL     1       1.112  -5.603  -0.034  1.00  0.00    -0.249 OA
ATOM     15  N   UNL     1       2.932  -4.378  -0.114  1.00  0.00    -0.338 N 
ATOM     16  H   UNL     1       3.367  -5.261  -0.148  1.00  0.00     0.165 HD
BRANCH  15  17
ATOM     17  C   UNL     1       3.893  -3.312  -0.387  1.00  0.00     0.125 C 
BRANCH  17  18
ATOM     18  C   UNL     1       5.021  -3.110   0.627  1.00  0.00     0.089 C 
BRANCH  18  19
ATOM     19  C   UNL     1       6.077  -4.172   0.683  1.00  0.00     0.094 A 
ATOM     20  N   UNL     1       5.899  -5.459   0.464  1.00  0.00    -0.250 NA
ATOM     21  S   UNL     1       7.650  -3.736   1.253  1.00  0.00    -0.127 S 
ATOM     22  C   UNL     1       7.056  -6.149   0.782  1.00  0.00     0.123 A 
ATOM     23  C   UNL     1       8.109  -5.383   1.230  1.00  0.00     0.087 A 
ENDBRANCH  18  19
ENDBRANCH  17  18
ENDBRANCH  15  17
ENDBRANCH   6  11
ENDBRANCH   3   6
ENDBRANCH   1   2
BRANCH   1  24
ATOM     24  C   UNL     1       2.150  -5.322   3.380  1.00  0.00     0.023 C 
BRANCH  24  25
ATOM     25  C   UNL     1       3.632  -5.654   3.295  1.00  0.00     0.023 C 
BRANCH  25  26
ATOM     26  C   UNL     1       4.471  -5.244   4.492  1.00  0.00     0.116 C 
BRANCH  26  27
ATOM     27  N   UNL     1       4.035  -5.884   5.720  1.00  0.00    -0.352 N 
ATOM     28  C   UNL     1       4.768  -6.547   6.671  1.00  0.00     0.251 C 
ATOM     29  H   UNL     1       3.068  -5.836   5.897  1.00  0.00     0.163 HD
ATOM     30  O   UNL     1       4.192  -7.156   7.568  1.00  0.00    -0.269 OA
BRANCH  28  31
ATOM     31  C   UNL     1       6.247  -6.551   6.619  1.00  0.00     0.039 A 
ATOM     32  C   UNL     1       6.920  -7.738   6.925  1.00  0.00     0.014 A 
ATOM     33  C   UNL     1       6.975  -5.395   6.322  1.00  0.00     0.014 A 
ATOM     34  C   UNL     1       8.315  -7.777   6.897  1.00  0.00     0.010 A 
ATOM     35  C   UNL     1       8.364  -5.449   6.231  1.00  0.00     0.010 A 
ATOM     36  C   UNL     1       9.048  -6.637   6.532  1.00  0.00    -0.014 A 
BRANCH  36  37
ATOM     37  C   UNL     1      10.531  -6.665   6.489  1.00  0.00     0.031 A 
ATOM     38  C   UNL     1      11.329  -5.853   7.471  1.00  0.00     0.074 A 
ATOM     39  C   UNL     1      11.158  -7.385   5.540  1.00  0.00     0.049 A 
ATOM     40  N   UNL     1      12.627  -5.704   7.561  1.00  0.00    -0.248 NA
ATOM     41  C   UNL     1      10.566  -5.090   8.470  1.00  0.00     0.031 C 
ATOM     42  C   UNL     1      10.494  -8.185   4.510  1.00  0.00     0.029 A 
ATOM     43  N   UNL     1      12.495  -7.553   5.283  1.00  0.00    -0.354 N 
ATOM     44  C   UNL     1      12.833  -4.824   8.614  1.00  0.00     0.074 A 
ATOM     45  C   UNL     1      11.528  -4.433   9.102  1.00  0.00     0.031 C 
ATOM     46  C   UNL     1      11.427  -8.772   3.743  1.00  0.00     0.029 A 
ATOM     47  C   UNL     1      12.751  -8.365   4.206  1.00  0.00     0.049 A 
ATOM     48  H   UNL     1      13.204  -7.131   5.821  1.00  0.00     0.167 HD
ATOM     49  C   UNL     1      14.005  -4.397   9.142  1.00  0.00     0.037 A 
ATOM     50  C   UNL     1      13.921  -8.735   3.653  1.00  0.00     0.037 A 
ATOM     51  C   UNL     1      15.303  -4.805   8.672  1.00  0.00     0.049 A 
ATOM     52  C   UNL     1      15.209  -8.248   4.258  1.00  0.00     0.074 A 
ATOM     53  C   UNL     1      16.549  -4.467   9.173  1.00  0.00     0.029 A 
ATOM     54  N   UNL     1      15.521  -5.644   7.590  1.00  0.00    -0.354 N 
ATOM     55  N   UNL     1      15.393  -7.461   5.290  1.00  0.00    -0.248 NA
ATOM     56  C   UNL     1      16.454  -8.707   3.626  1.00  0.00     0.031 C 
ATOM     57  C   UNL     1      17.522  -5.071   8.369  1.00  0.00     0.029 A 
ATOM     58  C   UNL     1      16.882  -5.820   7.395  1.00  0.00     0.049 A 
ATOM     59  H   UNL     1      14.814  -6.053   7.041  1.00  0.00     0.167 HD
ATOM     60  C   UNL     1      16.768  -7.350   5.446  1.00  0.00     0.074 A 
ATOM     61  C   UNL     1      17.372  -8.162   4.411  1.00  0.00     0.031 C 
ATOM     62  C   UNL     1      17.467  -6.637   6.363  1.00  0.00     0.037 A 
BRANCH  49  63
ATOM     63  C   UNL     1      13.937  -3.438  10.295  1.00  0.00     0.064 A 
ATOM     64  C   UNL     1      13.505  -3.848  11.566  1.00  0.00     0.173 A 
ATOM     65  C   UNL     1      14.338  -2.103  10.137  1.00  0.00     0.173 A 
ATOM     66  F   UNL     1      13.099  -5.111  11.766  1.00  0.00    -0.203 F 
ATOM     67  C   UNL     1      13.451  -2.950  12.629  1.00  0.00     0.198 A 
ATOM     68  C   UNL     1      14.310  -1.215  11.210  1.00  0.00     0.198 A 
ATOM     69  F   UNL     1      14.765  -1.661   8.945  1.00  0.00    -0.203 F 
ATOM     70  F   UNL     1      12.991  -3.352  13.821  1.00  0.00    -0.200 F 
ATOM     71  C   UNL     1      13.860  -1.637  12.452  1.00  0.00     0.200 A 
ATOM     72  F   UNL     1      14.717   0.051  11.040  1.00  0.00    -0.200 F 
ATOM     73  F   UNL     1      13.813  -0.775  13.477  1.00  0.00    -0.200 F 
ENDBRANCH  49  63
BRANCH  50  74
ATOM     74  C   UNL     1      13.926  -9.633   2.470  1.00  0.00     0.064 A 
ATOM     75  C   UNL     1      14.365 -10.960   2.575  1.00  0.00     0.173 A 
ATOM     76  C   UNL     1      13.489  -9.186   1.215  1.00  0.00     0.173 A 
ATOM     77  F   UNL     1      14.810 -11.426   3.751  1.00  0.00    -0.203 F 
ATOM     78  C   UNL     1      14.383 -11.802   1.465  1.00  0.00     0.198 A 
ATOM     79  C   UNL     1      13.484 -10.036   0.111  1.00  0.00     0.198 A 
ATOM     80  F   UNL     1      13.053  -7.927   1.064  1.00  0.00    -0.203 F 
ATOM     81  F   UNL     1      14.845 -13.054   1.584  1.00  0.00    -0.200 F 
ATOM     82  C   UNL     1      13.937 -11.341   0.235  1.00  0.00     0.200 A 
ATOM     83  F   UNL     1      13.039  -9.591  -1.072  1.00  0.00    -0.200 F 
ATOM     84  F   UNL     1      13.950 -12.152  -0.831  1.00  0.00    -0.200 F 
ENDBRANCH  50  74
BRANCH  62  85
ATOM     85  C   UNL     1      18.963  -6.726   6.307  1.00  0.00     0.064 A 
ATOM     86  C   UNL     1      19.699  -6.089   5.297  1.00  0.00     0.173 A 
ATOM     87  C   UNL     1      19.671  -7.422   7.298  1.00  0.00     0.173 A 
ATOM     88  F   UNL     1      19.067  -5.424   4.319  1.00  0.00    -0.203 F 
ATOM     89  C   UNL     1      21.089  -6.165   5.270  1.00  0.00     0.198 A 
ATOM     90  C   UNL     1      21.062  -7.474   7.283  1.00  0.00     0.198 A 
ATOM     91  F   UNL     1      19.014  -8.043   8.289  1.00  0.00    -0.203 F 
ATOM     92  F   UNL     1      21.770  -5.585   4.272  1.00  0.00    -0.200 F 
ATOM     93  C   UNL     1      21.769  -6.851   6.265  1.00  0.00     0.200 A 
ATOM     94  F   UNL     1      21.718  -8.127   8.252  1.00  0.00    -0.200 F 
ATOM     95  F   UNL     1      23.108  -6.917   6.240  1.00  0.00    -0.200 F 
ENDBRANCH  62  85
ENDBRANCH  36  37
ENDBRANCH  28  31
ENDBRANCH  26  27
ENDBRANCH  25  26
ENDBRANCH  24  25
ENDBRANCH   1  24
TORSDOF 17
