REMARK SMILES Cc1nc(Nc2ccc(F)cc2)nc(OCC(=O)NCCCCNC(=O)c2ccc(-c3c4nc(c(-c5c(F)c(F)c(F)c(F)c5F)c5ccc([nH]5)c(-c5c(F)c(F)c(F)c(F)c5F)c5nc(c(-c6c(F)c(F)c(F)c(F)c6F)c6ccc3[nH]6)C=C5)C=C4)cc2)c1CCO
REMARK SMILES IDX 20 1 19 2 17 3 18 4 16 6 15 7 14 8 1 9 2 10 3 11 90 12 4 13
REMARK SMILES IDX 13 14 91 15 92 16 93 17 5 19 6 21 7 22 12 23 8 24 11 25 9 26
REMARK SMILES IDX 10 27 21 28 22 29 23 30 24 31 25 32 26 34 27 35 28 36 89 37
REMARK SMILES IDX 29 38 88 39 30 40 31 41 32 42 82 43 33 44 87 45 81 46 83 47
REMARK SMILES IDX 34 48 86 49 80 50 79 51 35 53 67 54 47 55 66 56 48 57 51 58
REMARK SMILES IDX 65 59 84 60 49 61 50 62 64 64 85 65 52 66 36 67 37 68 45 69
REMARK SMILES IDX 38 70 39 71 43 72 46 73 40 74 41 75 44 76 42 77 68 78 69 79
REMARK SMILES IDX 77 80 70 81 71 82 75 83 78 84 72 85 73 86 76 87 74 88 53 89
REMARK SMILES IDX 54 90 62 91 55 92 56 93 60 94 63 95 57 96 58 97 61 98 59 99
REMARK H PARENT 19 5 93 18 5 20 24 33 83 52 51 63
REMARK Flexibility Score: inf
ROOT
ATOM      1  C   UNL     1       2.965  -3.134   2.791  1.00  0.00     0.116 C 
ENDROOT
BRANCH   1   2
ATOM      2  N   UNL     1       1.658  -3.740   2.679  1.00  0.00    -0.353 N 
ATOM      3  C   UNL     1       0.937  -4.002   1.558  1.00  0.00     0.258 C 
ATOM      4  O   UNL     1      -0.150  -4.566   1.696  1.00  0.00    -0.271 OA
ATOM      5  H   UNL     1       1.233  -3.998   3.529  1.00  0.00     0.163 HD
BRANCH   3   6
ATOM      6  C   UNL     1       1.517  -3.665   0.177  1.00  0.00     0.331 C 
BRANCH   6   7
ATOM      7  O   UNL     1       1.767  -2.334  -0.222  1.00  0.00    -0.467 OA
BRANCH   7   8
ATOM      8  C   UNL     1       0.848  -1.342  -0.086  1.00  0.00     0.222 A 
ATOM      9  C   UNL     1      -2.703  -0.086  -0.053  1.00  0.00     0.067 C 
ATOM     10  C   UNL     1      -1.211  -0.239   0.006  1.00  0.00     0.050 A 
ATOM     11  N   UNL     1      -0.575   0.926   0.223  1.00  0.00    -0.218 NA
ATOM     12  C   UNL     1      -0.531  -1.431  -0.242  1.00  0.00     0.038 A 
ATOM     13  C   UNL     1       0.755   0.952   0.177  1.00  0.00     0.230 A 
ATOM     14  N   UNL     1       1.487  -0.158   0.072  1.00  0.00    -0.177 NA
BRANCH  12  15
ATOM     15  C   UNL     1      -1.272  -2.637  -0.762  1.00  0.00     0.071 C 
BRANCH  15  16
ATOM     16  C   UNL     1      -1.109  -2.879  -2.266  1.00  0.00     0.161 C 
BRANCH  16  17
ATOM     17  O   UNL     1       0.238  -3.105  -2.655  1.00  0.00    -0.396 OA
ATOM     18  H   UNL     1       0.770  -2.320  -2.451  1.00  0.00     0.210 HD
ENDBRANCH  16  17
ENDBRANCH  15  16
ENDBRANCH  12  15
BRANCH  13  19
ATOM     19  N   UNL     1       1.409   2.183   0.087  1.00  0.00    -0.324 N 
ATOM     20  H   UNL     1       2.392   2.151   0.028  1.00  0.00     0.170 HD
BRANCH  19  21
ATOM     21  C   UNL     1       0.828   3.459   0.071  1.00  0.00     0.041 A 
ATOM     22  C   UNL     1      -0.144   3.826   1.015  1.00  0.00     0.029 A 
ATOM     23  C   UNL     1       1.102   4.347  -0.980  1.00  0.00     0.029 A 
ATOM     24  C   UNL     1      -0.816   5.047   0.925  1.00  0.00     0.041 A 
ATOM     25  C   UNL     1       0.416   5.563  -1.085  1.00  0.00     0.041 A 
ATOM     26  C   UNL     1      -0.536   5.900  -0.131  1.00  0.00     0.123 A 
ATOM     27  F   UNL     1      -1.204   7.056  -0.241  1.00  0.00    -0.207 F 
ENDBRANCH  19  21
ENDBRANCH  13  19
ENDBRANCH   7   8
ENDBRANCH   6   7
ENDBRANCH   3   6
ENDBRANCH   1   2
BRANCH   1  28
ATOM     28  C   UNL     1       2.903  -1.776   3.481  1.00  0.00     0.023 C 
BRANCH  28  29
ATOM     29  C   UNL     1       2.237  -1.774   4.860  1.00  0.00     0.023 C 
BRANCH  29  30
ATOM     30  C   UNL     1       2.685  -2.870   5.820  1.00  0.00     0.116 C 
BRANCH  30  31
ATOM     31  N   UNL     1       4.121  -2.893   6.042  1.00  0.00    -0.352 N 
ATOM     32  C   UNL     1       4.809  -3.061   7.218  1.00  0.00     0.251 C 
ATOM     33  H   UNL     1       4.677  -2.773   5.239  1.00  0.00     0.163 HD
ATOM     34  O   UNL     1       6.033  -2.971   7.240  1.00  0.00    -0.269 OA
BRANCH  32  35
ATOM     35  C   UNL     1       4.064  -3.304   8.470  1.00  0.00     0.039 A 
ATOM     36  C   UNL     1       4.357  -2.515   9.584  1.00  0.00     0.014 A 
ATOM     37  C   UNL     1       3.063  -4.277   8.535  1.00  0.00     0.014 A 
ATOM     38  C   UNL     1       3.598  -2.655  10.746  1.00  0.00     0.010 A 
ATOM     39  C   UNL     1       2.261  -4.366   9.669  1.00  0.00     0.010 A 
ATOM     40  C   UNL     1       2.519  -3.554  10.784  1.00  0.00    -0.014 A 
BRANCH  40  41
ATOM     41  C   UNL     1       1.648  -3.652  11.982  1.00  0.00     0.031 A 
ATOM     42  C   UNL     1       1.603  -4.923  12.780  1.00  0.00     0.074 A 
ATOM     43  C   UNL     1       0.864  -2.611  12.322  1.00  0.00     0.049 A 
ATOM     44  N   UNL     1       0.868  -5.220  13.822  1.00  0.00    -0.248 NA
ATOM     45  C   UNL     1       2.484  -6.016  12.337  1.00  0.00     0.031 C 
ATOM     46  C   UNL     1       0.793  -1.338  11.604  1.00  0.00     0.029 A 
ATOM     47  N   UNL     1      -0.025  -2.458  13.357  1.00  0.00    -0.354 N 
ATOM     48  C   UNL     1       1.192  -6.528  14.152  1.00  0.00     0.074 A 
ATOM     49  C   UNL     1       2.146  -6.991  13.168  1.00  0.00     0.031 C 
ATOM     50  C   UNL     1      -0.064  -0.522  12.239  1.00  0.00     0.029 A 
ATOM     51  C   UNL     1      -0.634  -1.227  13.384  1.00  0.00     0.049 A 
ATOM     52  H   UNL     1      -0.210  -3.164  14.018  1.00  0.00     0.167 HD
ATOM     53  C   UNL     1       0.755  -7.266  15.199  1.00  0.00     0.037 A 
ATOM     54  C   UNL     1      -1.549  -0.724  14.234  1.00  0.00     0.037 A 
ATOM     55  C   UNL     1      -0.176  -6.794  16.189  1.00  0.00     0.049 A 
ATOM     56  C   UNL     1      -2.036  -1.572  15.377  1.00  0.00     0.074 A 
ATOM     57  C   UNL     1      -0.647  -7.453  17.311  1.00  0.00     0.029 A 
ATOM     58  N   UNL     1      -0.775  -5.543  16.178  1.00  0.00    -0.354 N 
ATOM     59  N   UNL     1      -1.688  -2.792  15.705  1.00  0.00    -0.248 NA
ATOM     60  C   UNL     1      -3.040  -0.975  16.268  1.00  0.00     0.031 C 
ATOM     61  C   UNL     1      -1.566  -6.618  17.954  1.00  0.00     0.029 A 
ATOM     62  C   UNL     1      -1.627  -5.418  17.263  1.00  0.00     0.049 A 
ATOM     63  H   UNL     1      -0.619  -4.847  15.499  1.00  0.00     0.167 HD
ATOM     64  C   UNL     1      -2.409  -3.100  16.851  1.00  0.00     0.074 A 
ATOM     65  C   UNL     1      -3.206  -1.934  17.169  1.00  0.00     0.031 C 
ATOM     66  C   UNL     1      -2.408  -4.247  17.572  1.00  0.00     0.037 A 
BRANCH  53  67
ATOM     67  C   UNL     1       1.291  -8.661  15.343  1.00  0.00     0.064 A 
ATOM     68  C   UNL     1       0.452  -9.771  15.169  1.00  0.00     0.173 A 
ATOM     69  C   UNL     1       2.623  -8.896  15.717  1.00  0.00     0.173 A 
ATOM     70  F   UNL     1      -0.832  -9.601  14.817  1.00  0.00    -0.203 F 
ATOM     71  C   UNL     1       0.923 -11.065  15.377  1.00  0.00     0.198 A 
ATOM     72  C   UNL     1       3.099 -10.193  15.894  1.00  0.00     0.198 A 
ATOM     73  F   UNL     1       3.469  -7.869  15.884  1.00  0.00    -0.203 F 
ATOM     74  F   UNL     1       0.094 -12.109  15.236  1.00  0.00    -0.200 F 
ATOM     75  C   UNL     1       2.246 -11.275  15.734  1.00  0.00     0.200 A 
ATOM     76  F   UNL     1       4.384 -10.395  16.214  1.00  0.00    -0.200 F 
ATOM     77  F   UNL     1       2.701 -12.521  15.921  1.00  0.00    -0.200 F 
ENDBRANCH  53  67
BRANCH  54  78
ATOM     78  C   UNL     1      -2.029   0.672  14.055  1.00  0.00     0.064 A 
ATOM     79  C   UNL     1      -2.841   1.035  12.972  1.00  0.00     0.173 A 
ATOM     80  C   UNL     1      -1.652   1.678  14.955  1.00  0.00     0.173 A 
ATOM     81  F   UNL     1      -3.226   0.110  12.081  1.00  0.00    -0.203 F 
ATOM     82  C   UNL     1      -3.241   2.357  12.784  1.00  0.00     0.198 A 
ATOM     83  C   UNL     1      -2.074   2.994  14.781  1.00  0.00     0.198 A 
ATOM     84  F   UNL     1      -0.892   1.375  16.018  1.00  0.00    -0.203 F 
ATOM     85  F   UNL     1      -3.989   2.684  11.722  1.00  0.00    -0.200 F 
ATOM     86  C   UNL     1      -2.861   3.334  13.691  1.00  0.00     0.200 A 
ATOM     87  F   UNL     1      -1.723   3.932  15.673  1.00  0.00    -0.200 F 
ATOM     88  F   UNL     1      -3.255   4.603  13.516  1.00  0.00    -0.200 F 
ENDBRANCH  54  78
BRANCH  66  89
ATOM     89  C   UNL     1      -3.275  -4.303  18.796  1.00  0.00     0.064 A 
ATOM     90  C   UNL     1      -2.696  -4.336  20.074  1.00  0.00     0.173 A 
ATOM     91  C   UNL     1      -4.670  -4.413  18.702  1.00  0.00     0.173 A 
ATOM     92  F   UNL     1      -1.365  -4.243  20.216  1.00  0.00    -0.203 F 
ATOM     93  C   UNL     1      -3.481  -4.496  21.212  1.00  0.00     0.198 A 
ATOM     94  C   UNL     1      -5.454  -4.545  19.845  1.00  0.00     0.198 A 
ATOM     95  F   UNL     1      -5.271  -4.375  17.503  1.00  0.00    -0.203 F 
ATOM     96  F   UNL     1      -2.903  -4.564  22.419  1.00  0.00    -0.200 F 
ATOM     97  C   UNL     1      -4.859  -4.598  21.096  1.00  0.00     0.200 A 
ATOM     98  F   UNL     1      -6.788  -4.619  19.734  1.00  0.00    -0.200 F 
ATOM     99  F   UNL     1      -5.615  -4.746  22.193  1.00  0.00    -0.200 F 
ENDBRANCH  66  89
ENDBRANCH  40  41
ENDBRANCH  32  35
ENDBRANCH  30  31
ENDBRANCH  29  30
ENDBRANCH  28  29
ENDBRANCH   1  28
TORSDOF 18
