REMARK SMILES O=C(NCCCCNC(=O)[C@H]1CC=CC[C@H]1C(=O)N[C@H]1CCCOc2c1ccc1ccccc21)c1ccc(-c2c3nc(c(-c4c(F)c(F)c(F)c(F)c4F)c4ccc([nH]4)c(-c4c(F)c(F)c(F)c(F)c4F)c4nc(c(-c5c(F)c(F)c(F)c(F)c5F)c5ccc2[nH]5)C=C4)C=C3)cc1
REMARK SMILES IDX 7 1 6 2 5 3 4 4 3 5 1 6 2 7 35 9 36 10 97 11 37 12 96 13
REMARK SMILES IDX 38 14 39 15 40 16 90 17 41 18 95 19 89 20 91 21 42 22 94 23
REMARK SMILES IDX 88 24 87 25 43 27 75 28 55 29 74 30 56 31 59 32 73 33 92 34
REMARK SMILES IDX 57 35 58 36 72 38 93 39 60 40 44 41 45 42 53 43 46 44 47 45
REMARK SMILES IDX 51 46 54 47 48 48 49 49 52 50 50 51 76 52 77 53 85 54 78 55
REMARK SMILES IDX 79 56 83 57 86 58 80 59 81 60 84 61 82 62 61 63 62 64 70 65
REMARK SMILES IDX 63 66 64 67 68 68 71 69 65 70 66 71 69 72 67 73 8 74 9 75
REMARK SMILES IDX 10 77 11 78 12 79 16 80 13 81 15 82 14 83 17 84 18 85 19 86
REMARK SMILES IDX 20 88 21 89 22 90 26 92 25 93 27 94 34 95 28 96 29 97 33 98
REMARK SMILES IDX 30 99 32 100 31 101 24 102 23 103
REMARK H PARENT 3 8 91 26 59 37 8 76 19 87
REMARK Flexibility Score: 90.00
ROOT
ATOM      1  C   UNL     1       3.677   1.816  -4.155  1.00  0.00     0.116 C 
ENDROOT
BRANCH   1   2
ATOM      2  C   UNL     1       3.833   0.318  -3.933  1.00  0.00     0.023 C 
BRANCH   2   3
ATOM      3  C   UNL     1       4.733  -0.129  -2.780  1.00  0.00     0.023 C 
BRANCH   3   4
ATOM      4  C   UNL     1       4.456   0.484  -1.410  1.00  0.00     0.116 C 
BRANCH   4   5
ATOM      5  N   UNL     1       3.055   0.455  -1.031  1.00  0.00    -0.352 N 
ATOM      6  O   UNL     1       1.168  -0.053   0.055  1.00  0.00    -0.269 OA
ATOM      7  C   UNL     1       2.401  -0.104   0.032  1.00  0.00     0.251 C 
ATOM      8  H   UNL     1       2.462   0.927  -1.659  1.00  0.00     0.163 HD
BRANCH   7   9
ATOM      9  C   UNL     1       3.110  -0.783   1.141  1.00  0.00     0.039 A 
ATOM     10  C   UNL     1       2.492  -1.896   1.724  1.00  0.00     0.014 A 
ATOM     11  C   UNL     1       4.310  -0.308   1.674  1.00  0.00     0.014 A 
ATOM     12  C   UNL     1       3.087  -2.548   2.806  1.00  0.00     0.010 A 
ATOM     13  C   UNL     1       4.944  -1.004   2.707  1.00  0.00     0.010 A 
ATOM     14  C   UNL     1       4.330  -2.120   3.296  1.00  0.00    -0.014 A 
BRANCH  14  15
ATOM     15  C   UNL     1       4.962  -2.799   4.457  1.00  0.00     0.031 A 
ATOM     16  C   UNL     1       5.132  -2.063   5.759  1.00  0.00     0.074 A 
ATOM     17  C   UNL     1       5.396  -4.069   4.341  1.00  0.00     0.049 A 
ATOM     18  N   UNL     1       5.692  -2.468   6.872  1.00  0.00    -0.248 NA
ATOM     19  C   UNL     1       4.624  -0.683   5.815  1.00  0.00     0.031 C 
ATOM     20  C   UNL     1       5.313  -4.882   3.127  1.00  0.00     0.029 A 
ATOM     21  N   UNL     1       5.988  -4.902   5.258  1.00  0.00    -0.354 N 
ATOM     22  C   UNL     1       5.620  -1.391   7.745  1.00  0.00     0.074 A 
ATOM     23  C   UNL     1       5.004  -0.299   7.025  1.00  0.00     0.031 C 
ATOM     24  C   UNL     1       5.804  -6.105   3.383  1.00  0.00     0.029 A 
ATOM     25  C   UNL     1       6.264  -6.155   4.769  1.00  0.00     0.049 A 
ATOM     26  H   UNL     1       6.195  -4.626   6.181  1.00  0.00     0.167 HD
ATOM     27  C   UNL     1       6.008  -1.327   9.040  1.00  0.00     0.037 A 
ATOM     28  C   UNL     1       6.821  -7.224   5.370  1.00  0.00     0.037 A 
ATOM     29  C   UNL     1       6.569  -2.429   9.775  1.00  0.00     0.049 A 
ATOM     30  C   UNL     1       7.235  -7.129   6.813  1.00  0.00     0.074 A 
ATOM     31  C   UNL     1       6.939  -2.474  11.108  1.00  0.00     0.029 A 
ATOM     32  N   UNL     1       6.826  -3.682   9.242  1.00  0.00    -0.354 N 
ATOM     33  N   UNL     1       7.124  -6.116   7.638  1.00  0.00    -0.248 NA
ATOM     34  C   UNL     1       7.850  -8.323   7.411  1.00  0.00     0.031 C 
ATOM     35  C   UNL     1       7.445  -3.749  11.376  1.00  0.00     0.029 A 
ATOM     36  C   UNL     1       7.360  -4.505  10.219  1.00  0.00     0.049 A 
ATOM     37  H   UNL     1       6.655  -3.947   8.310  1.00  0.00     0.167 HD
ATOM     38  C   UNL     1       7.630  -6.556   8.852  1.00  0.00     0.074 A 
ATOM     39  C   UNL     1       8.043  -7.931   8.664  1.00  0.00     0.031 C 
ATOM     40  C   UNL     1       7.745  -5.878  10.019  1.00  0.00     0.037 A 
BRANCH  27  41
ATOM     41  C   UNL     1       5.817  -0.030   9.767  1.00  0.00     0.064 A 
ATOM     42  C   UNL     1       4.545   0.394  10.176  1.00  0.00     0.173 A 
ATOM     43  C   UNL     1       6.922   0.755  10.127  1.00  0.00     0.173 A 
ATOM     44  F   UNL     1       3.457  -0.319   9.847  1.00  0.00    -0.203 F 
ATOM     45  C   UNL     1       4.384   1.566  10.910  1.00  0.00     0.198 A 
ATOM     46  C   UNL     1       6.760   1.914  10.882  1.00  0.00     0.198 A 
ATOM     47  F   UNL     1       8.160   0.387   9.766  1.00  0.00    -0.203 F 
ATOM     48  F   UNL     1       3.156   1.967  11.268  1.00  0.00    -0.200 F 
ATOM     49  C   UNL     1       5.491   2.319  11.271  1.00  0.00     0.200 A 
ATOM     50  F   UNL     1       7.831   2.634  11.241  1.00  0.00    -0.200 F 
ATOM     51  F   UNL     1       5.336   3.437  11.993  1.00  0.00    -0.200 F 
ENDBRANCH  27  41
BRANCH  28  52
ATOM     52  C   UNL     1       6.985  -8.494   4.616  1.00  0.00     0.064 A 
ATOM     53  C   UNL     1       6.182  -9.606   4.906  1.00  0.00     0.173 A 
ATOM     54  C   UNL     1       7.934  -8.621   3.592  1.00  0.00     0.173 A 
ATOM     55  F   UNL     1       5.275  -9.537   5.891  1.00  0.00    -0.203 F 
ATOM     56  C   UNL     1       6.330 -10.802   4.207  1.00  0.00     0.198 A 
ATOM     57  C   UNL     1       8.066  -9.810   2.878  1.00  0.00     0.198 A 
ATOM     58  F   UNL     1       8.725  -7.585   3.276  1.00  0.00    -0.203 F 
ATOM     59  F   UNL     1       5.574 -11.860   4.527  1.00  0.00    -0.200 F 
ATOM     60  C   UNL     1       7.268 -10.901   3.190  1.00  0.00     0.200 A 
ATOM     61  F   UNL     1       8.965  -9.900   1.889  1.00  0.00    -0.200 F 
ATOM     62  F   UNL     1       7.406 -12.050   2.514  1.00  0.00    -0.200 F 
ENDBRANCH  28  52
BRANCH  40  63
ATOM     63  C   UNL     1       8.315  -6.604  11.198  1.00  0.00     0.064 A 
ATOM     64  C   UNL     1       9.693  -6.820  11.321  1.00  0.00     0.173 A 
ATOM     65  C   UNL     1       7.486  -6.985  12.264  1.00  0.00     0.173 A 
ATOM     66  F   UNL     1      10.522  -6.481  10.323  1.00  0.00    -0.203 F 
ATOM     67  C   UNL     1      10.224  -7.394  12.473  1.00  0.00     0.198 A 
ATOM     68  C   UNL     1       8.022  -7.539  13.422  1.00  0.00     0.198 A 
ATOM     69  F   UNL     1       6.161  -6.789  12.194  1.00  0.00    -0.203 F 
ATOM     70  F   UNL     1      11.544  -7.604  12.568  1.00  0.00    -0.200 F 
ATOM     71  C   UNL     1       9.390  -7.741  13.527  1.00  0.00     0.200 A 
ATOM     72  F   UNL     1       7.218  -7.862  14.444  1.00  0.00    -0.200 F 
ATOM     73  F   UNL     1       9.907  -8.271  14.644  1.00  0.00    -0.200 F 
ENDBRANCH  40  63
ENDBRANCH  14  15
ENDBRANCH   7   9
ENDBRANCH   4   5
ENDBRANCH   3   4
ENDBRANCH   2   3
ENDBRANCH   1   2
BRANCH   1  74
ATOM     74  N   UNL     1       4.915   2.565  -4.193  1.00  0.00    -0.356 N 
ATOM     75  C   UNL     1       5.054   3.689  -4.957  1.00  0.00     0.224 C 
ATOM     76  H   UNL     1       5.679   2.256  -3.653  1.00  0.00     0.163 HD
ATOM     77  O   UNL     1       5.280   4.743  -4.363  1.00  0.00    -0.275 OA
BRANCH  75  78
ATOM     78  C   UNL     1       4.972   3.585  -6.492  1.00  0.00     0.095 C 
ATOM     79  C   UNL     1       4.816   4.994  -7.118  1.00  0.00     0.041 C 
ATOM     80  C   UNL     1       6.051   2.710  -7.212  1.00  0.00     0.095 C 
ATOM     81  C   UNL     1       6.008   5.562  -7.824  1.00  0.00    -0.030 C 
ATOM     82  C   UNL     1       7.196   3.376  -8.002  1.00  0.00     0.041 C 
ATOM     83  C   UNL     1       7.061   4.843  -8.222  1.00  0.00    -0.030 C 
BRANCH  80  84
ATOM     84  C   UNL     1       6.521   1.443  -6.499  1.00  0.00     0.224 C 
ATOM     85  O   UNL     1       5.785   0.446  -6.574  1.00  0.00    -0.275 OA
ATOM     86  N   UNL     1       7.733   1.192  -5.953  1.00  0.00    -0.349 N 
ATOM     87  H   UNL     1       8.095   0.379  -6.374  1.00  0.00     0.164 HD
BRANCH  86  88
ATOM     88  C   UNL     1       8.743   1.687  -4.940  1.00  0.00     0.116 C 
BRANCH  88  89
ATOM     89  C   UNL     1       9.985   0.749  -5.101  1.00  0.00     0.033 C 
BRANCH  89  90
ATOM     90  C   UNL     1      11.190   1.402  -5.774  1.00  0.00     0.044 CG0
ATOM     91  G   UNL     1      11.991   2.251  -4.787  1.00  0.00     0.000 G0
ENDBRANCH  89  90
ENDBRANCH  88  89
BRANCH  88  92
ATOM     92  C   UNL     1       9.094   3.159  -4.764  1.00  0.00     0.017 A 
ATOM     93  C   UNL     1      10.261   3.637  -4.138  1.00  0.00     0.132 A 
ATOM     94  C   UNL     1       8.171   4.137  -5.068  1.00  0.00     0.010 A 
ATOM     95  C   UNL     1      10.473   5.024  -3.841  1.00  0.00     0.024 A 
ATOM     96  C   UNL     1       8.337   5.498  -4.834  1.00  0.00     0.009 A 
ATOM     97  C   UNL     1       9.482   5.954  -4.217  1.00  0.00    -0.015 A 
ATOM     98  C   UNL     1      11.607   5.540  -3.179  1.00  0.00     0.012 A 
ATOM     99  C   UNL     1       9.617   7.323  -3.959  1.00  0.00     0.009 A 
ATOM    100  C   UNL     1      11.740   6.910  -2.918  1.00  0.00     0.001 A 
ATOM    101  C   UNL     1      10.747   7.802  -3.311  1.00  0.00     0.001 A 
BRANCH  93 102
ATOM    102  O   UNL     1      11.205   2.741  -3.697  1.00  0.00    -0.493 OA
BRANCH 102 103
ATOM    103  C   UNL     1      11.991   2.251  -4.787  1.00  0.00     0.229 CG0
ATOM    104  G   UNL     1      11.190   1.402  -5.774  1.00  0.00     0.000 G0
ENDBRANCH 102 103
ENDBRANCH  93 102
ENDBRANCH  88  92
ENDBRANCH  86  88
ENDBRANCH  80  84
ENDBRANCH  75  78
ENDBRANCH   1  74
TORSDOF 13
